data_PCOD9384711
_publ_section_title
;
Structure prediction by ZEFSAII (Michael W. Deem and Ramdas Pophale) SiO2 
 PCOD9384711
Probable space group: P M M M
;
_chemical_formula_sum "Si O2"
_cell_formula_units_Z 64
_cell_length_a 20.866169
_cell_length_b 7.648789
_cell_length_c 20.364790
_cell_angle_alpha 90.000000
_cell_angle_beta 90.000000
_cell_angle_gamma 90.000000
_cell_volume 3250.239299
_symmetry_space_group_name_H-M "P M M M"
_symmetry_group_IT_number 47
_symmetry_cell_setting 'orthorhombic'
loop_
_space_group_symop_operation_xyz
x,y,z
-x,-y,z
x,-y,-z
-x,y,-z
-x,-y,-z
x,y,-z
-x,y,z
x,-y,z
loop_
_atom_site_type_symbol
_atom_site_label
_atom_site_fract_x
_atom_site_fract_y
_atom_site_fract_z
Si Si1 0.070829 0.795530 0.595561
Si Si2 0.257283 0.209642 0.929048
Si Si3 0.693702 0.804478 0.307972
Si Si4 0.405888 0.295718 0.072584
Si Si5 0.570219 0.709201 0.220791
Si Si6 0.216658 0.212930 0.426236
Si Si7 0.932230 0.712043 0.748195
Si Si8 0.202468 0.297848 0.793526
O O1 0.141864 0.724505 0.577744
O O2 0.070046 0.778699 0.674003
O O3 0.000000 0.723785 0.574392
O O4 0.070728 0.000000 0.576571
O O5 0.329199 0.281613 0.927172
O O6 0.219714 0.286468 0.868889
O O7 0.261186 0.000000 0.922514
O O8 0.229009 0.251798 0.000000
O O9 0.628678 0.743046 0.271156
O O10 0.733791 0.722984 0.369767
O O11 0.745916 0.801536 0.249920
O O12 0.678521 0.000000 0.329968
O O13 0.424754 0.500000 0.071975
O O14 0.423734 0.222353 0.144943
O O15 0.425896 0.222945 0.000000
O O16 0.500000 0.765625 0.245720
O O17 0.570053 0.500000 0.213699
O O18 0.239655 0.251395 0.500000
O O19 0.212641 0.000000 0.418628
O O20 0.931273 0.500000 0.746200
O O21 0.868348 0.772252 0.782772
O O22 0.000000 0.766578 0.778084
O O23 0.206041 0.500000 0.771707
#
# Coordination Sequence:
#
# PCOD9384711 Si02
#       8
#     8   8   8   8   8   8   8   8
#     4   9  16  27  46  73 104 137 172 206 245 299
#     4  10  20  32  48  73 104 135 169 211 257 303
#     4  11  21  34  54  78 103 133 171 214 258 304
#     4   9  17  30  49  74 105 139 171 201 239 294
#     4  10  21  36  54  77 106 139 172 210 257 306
#     4   9  18  32  50  75 106 137 171 214 261 305
#     4   9  18  31  47  70 101 135 170 211 257 302
#     4  11  20  31  52  76 100 134 174 216 258 303
#
# _framework density 19.690859
#
# number of rings (size 3 to 8) (size 9 to 14) (size 15 to 20)
#    0.000    2.250    2.500    1.125    0.000    2.000 
#    0.000    2.500    0.000    4.125    0.000    9.625 
#    0.000    0.000    0.000    0.000    0.000    0.000 
#
# Total GULP energy -356363.591445 kJ/mol
# GULP energy per Si atom -5568.181116 kJ/mol
# Density = 1.964604 g / cm^3
# Si number density = 19.690859 Si / 1000 Ang^3
#
#
#
# Elastic Constant Matrix: (Units=GPa)
#
#
# Indices 1 2 3 4 5 6 
#
# 1 169.2968 9.4283 87.8923 0.0000 0.0000 0.0000
# 2 9.4283 36.6565 -0.3532 0.0000 0.0000 0.0000
# 3 87.8923 -0.3532 125.3333 0.0000 0.0000 0.0000
# 4 0.0000 0.0000 0.0000 12.3669 0.0000 0.0000
# 5 0.0000 0.0000 0.0000 0.0000 17.6447 0.0000
# 6 0.0000 0.0000 0.0000 0.0000 0.0000 29.0378
#
#
#
# Elastic Compliance Matrix: (Units=1/GPa)
#
#
# Indices 1 2 3 4 5 6 
#
# 1 0.009514 -0.002511 -0.006679 0.000000 0.000000 0.000000
# 2 -0.002511 0.027944 0.001840 0.000000 0.000000 0.000000
# 3 -0.006679 0.001840 0.012668 0.000000 0.000000 0.000000
# 4 0.000000 0.000000 0.000000 0.080861 0.000000 0.000000
# 5 0.000000 0.000000 0.000000 0.000000 0.056674 0.000000
# 6 0.000000 0.000000 0.000000 0.000000 0.000000 0.034438
#
#
# Mechanical properties :
#
#
# Convention : Reuss Voigt Hill
#
# Bulk Modulus (GPa) = 28.22886 58.35794 43.29340
# Shear Modulus (GPa) = 20.11197 27.43116 23.77156
#
# Velocity S-wave (km/s) = 3.19938 3.73646 3.47830
# Velocity P-wave (km/s) = 5.29294 6.95099 6.17784
#
# Compressibility (1/GPa) = 0.03542474
#
# Stress axis : x y z
#
# Youngs Moduli (GPa) = 105.10646 35.78586 78.94078
#
# Poissons Ratio (x) = 0.08987 0.52725
# Poissons Ratio (y) = 0.26397 -0.14525
# Poissons Ratio (z) = 0.70201 -0.06584
#
# Static dielectric constant tensor:
#      x y z
#    x 1.715730 0.000000 0.000000 
#    y 0.000000 1.766350 0.000000 
#    z 0.000000 0.000000 1.695020 
# 
# From -- ./inp_files/31537.got.cif
#   From: 2010.05.17/outbox.cif.g08.bks.cpg/sg47_16_cif.got.tgz:31537.got - 2010.06.03 20:15:42.
