data_PCOD9384762
_publ_section_title
;
Structure prediction by ZEFSAII (Michael W. Deem and Ramdas Pophale) SiO2 
 PCOD9384762
Probable space group: P M M M
;
_chemical_formula_sum "Si O2"
_cell_formula_units_Z 64
_cell_length_a 19.252214
_cell_length_b 7.479641
_cell_length_c 20.975067
_cell_angle_alpha 90.000000
_cell_angle_beta 90.000000
_cell_angle_gamma 90.000000
_cell_volume 3020.402289
_symmetry_space_group_name_H-M "P M M M"
_symmetry_group_IT_number 47
_symmetry_cell_setting 'orthorhombic'
loop_
_space_group_symop_operation_xyz
x,y,z
-x,-y,z
x,-y,-z
-x,y,-z
-x,-y,-z
x,y,-z
-x,y,z
x,-y,z
loop_
_atom_site_type_symbol
_atom_site_label
_atom_site_fract_x
_atom_site_fract_y
_atom_site_fract_z
Si Si1 0.177873 0.214688 0.571967
Si Si2 0.338225 0.286670 0.571823
Si Si3 0.579180 0.781808 0.927468
Si Si4 0.675587 0.787756 0.185574
Si Si5 0.079771 0.780754 0.686194
Si Si6 0.830814 0.209966 0.805354
Si Si7 0.578883 0.283990 0.693761
Si Si8 0.079346 0.715753 0.072137
O O1 0.165678 0.282423 0.500000
O O2 0.257654 0.255664 0.589278
O O3 0.123878 0.278063 0.624783
O O4 0.172008 0.000000 0.569922
O O5 0.349312 0.215431 0.500000
O O6 0.348367 0.500000 0.568678
O O7 0.388269 0.218222 0.627233
O O8 0.500000 0.727199 0.912301
O O9 0.633247 0.716301 0.875118
O O10 0.579380 0.000000 0.926579
O O11 0.595221 0.727706 0.000000
O O12 0.753119 0.713395 0.193685
O O13 0.629143 0.764466 0.248241
O O14 0.683075 0.000000 0.174340
O O15 0.119348 0.718543 0.749827
O O16 0.000000 0.722838 0.684735
O O17 0.078905 0.000000 0.686120
O O18 0.868045 0.226148 0.873424
O O19 0.823452 0.000000 0.790500
O O20 0.500000 0.220910 0.703440
O O21 0.577095 0.500000 0.691152
O O22 0.078989 0.500000 0.071902
O O23 0.000000 0.774382 0.086115
O O24 0.096951 0.774357 0.000000
#
# Coordination Sequence:
#
# PCOD9384762 Si02
#       8
#     8   8   8   8   8   8   8   8
#     4   9  17  30  50  74  97 123 158 199 240 285
#     4   9  18  33  52  72  96 128 162 197 242 293
#     4   8  14  26  45  68  93 122 157 195 233 277
#     4  10  20  33  51  75 101 130 164 202 247 297
#     4   9  17  29  45  67  97 129 160 198 243 288
#     4  10  20  32  49  74 101 130 166 208 250 293
#     4  10  21  35  51  73 100 130 166 207 247 289
#     4   9  19  36  55  74  99 132 168 206 250 300
#
# _framework density 21.189229000000001
#
# number of rings (size 3 to 8) (size 9 to 14) (size 15 to 20)
#    0.000    2.750    0.000    2.250    0.000    4.750 
#    0.000    5.000    0.000    1.500    0.000    6.125 
#    0.000    0.000    0.000    0.000    0.000    0.000 
#
# Total GULP energy -357366.063041 kJ/mol
# GULP energy per Si atom -5583.844735 kJ/mol
# Density = 2.114100 g / cm^3
# Si number density = 21.189229 Si / 1000 Ang^3
#
#
#
# Elastic Constant Matrix: (Units=GPa)
#
#
# Indices 1 2 3 4 5 6 
#
# 1 157.7570 -9.2920 98.4848 0.0000 0.0000 0.0000
# 2 -9.2920 56.4337 -11.7932 0.0000 0.0000 0.0000
# 3 98.4848 -11.7932 116.9269 0.0000 0.0000 0.0000
# 4 0.0000 0.0000 0.0000 17.6227 0.0000 0.0000
# 5 0.0000 0.0000 0.0000 0.0000 37.8995 0.0000
# 6 0.0000 0.0000 0.0000 0.0000 0.0000 7.2327
#
#
#
# Elastic Compliance Matrix: (Units=1/GPa)
#
#
# Indices 1 2 3 4 5 6 
#
# 1 0.013369 -0.000155 -0.011276 0.000000 0.000000 0.000000
# 2 -0.000155 0.018103 0.001957 0.000000 0.000000 0.000000
# 3 -0.011276 0.001957 0.018247 0.000000 0.000000 0.000000
# 4 0.000000 0.000000 0.000000 0.056745 0.000000 0.000000
# 5 0.000000 0.000000 0.000000 0.000000 0.026386 0.000000
# 6 0.000000 0.000000 0.000000 0.000000 0.000000 0.138260
#
#
# Mechanical properties :
#
#
# Convention : Reuss Voigt Hill
#
# Bulk Modulus (GPa) = 32.49895 53.99074 43.24485
# Shear Modulus (GPa) = 16.64906 29.46553 23.05730
#
# Velocity S-wave (km/s) = 2.80613 3.73311 3.30231
# Velocity P-wave (km/s) = 5.08625 6.64207 5.91553
#
# Compressibility (1/GPa) = 0.03077022
#
# Stress axis : x y z
#
# Youngs Moduli (GPa) = 74.79822 55.23872 54.80219
#
# Poissons Ratio (x) = 0.00857 0.61797
# Poissons Ratio (y) = 0.01160 -0.10722
# Poissons Ratio (z) = 0.84345 -0.10808
#
# Static dielectric constant tensor:
#      x y z
#    x 1.728470 0.000000 0.000000 
#    y 0.000000 1.780580 0.000000 
#    z 0.000000 0.000000 1.738370 
# 
# From -- ./inp_files/29958.got.cif
#   From: 2010.05.17/outbox.cif.g08.bks.cpg/sg47_15_cif.got.tgz:29958.got - 2010.06.03 20:15:42.
