data_PCOD9384215
_publ_section_title
;
Structure prediction by ZEFSAII (Michael W. Deem and Ramdas Pophale) SiO2 
 PCOD9384215
Probable space group: P M M M
;
_chemical_formula_sum "Si O2"
_cell_formula_units_Z 56
_cell_length_a 19.453374
_cell_length_b 19.624688
_cell_length_c 7.525120
_cell_angle_alpha 90.000000
_cell_angle_beta 90.000000
_cell_angle_gamma 90.000000
_cell_volume 2872.837937
_symmetry_space_group_name_H-M "P M M M"
_symmetry_group_IT_number 47
_symmetry_cell_setting 'orthorhombic'
loop_
_space_group_symop_operation_xyz
x,y,z
-x,-y,z
x,-y,-z
-x,y,-z
-x,-y,-z
x,y,-z
-x,y,z
x,-y,z
loop_
_atom_site_type_symbol
_atom_site_label
_atom_site_fract_x
_atom_site_fract_y
_atom_site_fract_z
Si Si1 0.295388 0.423637 0.712693
Si Si2 0.333021 0.201367 0.294993
Si Si3 0.422284 0.330484 0.788054
Si Si4 0.421377 0.077814 0.717201
Si Si5 0.922332 0.776627 0.709018
Si Si6 0.210678 0.705677 0.281090
Si Si7 0.080704 0.073075 0.786166
O O1 0.287305 0.426743 0.500000
O O2 0.287810 0.500000 0.783544
O O3 0.370543 0.392065 0.747239
O O4 0.241017 0.366968 0.776962
O O5 0.317032 0.185378 0.500000
O O6 0.389323 0.261816 0.290074
O O7 0.367556 0.133893 0.216839
O O8 0.264536 0.236260 0.219642
O O9 0.500000 0.341665 0.725802
O O10 0.423223 0.321606 0.000000
O O11 0.421149 0.079810 0.500000
O O12 0.500000 0.093808 0.771288
O O13 0.405940 0.000000 0.769217
O O14 0.928528 0.762867 0.500000
O O15 0.865453 0.724915 0.779893
O O16 0.893235 0.853762 0.725308
O O17 0.000000 0.774160 0.785154
O O18 0.211784 0.706018 0.500000
O O19 0.000000 0.072779 0.733616
O O20 0.110402 0.000000 0.725386
O O21 0.083266 0.073378 0.000000
#
# Coordination Sequence:
#
# PCOD9384215 Si02
#       7
#     8   8   8   8   8   8   8
#     4   9  18  33  52  69  85 111 145 177 209 251
#     4   9  16  28  46  63  83 115 153 188 218 255
#     4  10  20  31  44  66  95 121 143 173 214 256
#     4   8  13  21  36  60  84 104 135 183 229 258
#     4   9  16  26  42  63  87 115 144 176 217 264
#     4   8  15  28  44  64  87 108 137 177 215 251
#     4   8  14  25  40  58  82 111 142 178 217 253
#
# _framework density 19.492919000000001
#
# number of rings (size 3 to 8) (size 9 to 14) (size 15 to 20)
#    0.000    3.286    0.000    2.571    0.000    2.571 
#    0.000    6.429    0.000    3.429    0.000    5.000 
#    0.000    0.000    0.000    8.714    0.000    9.429 
#
# Total GULP energy -311955.934838 kJ/mol
# GULP energy per Si atom -5570.641694 kJ/mol
# Density = 1.944855 g / cm^3
# Si number density = 19.492919 Si / 1000 Ang^3
#
#
#
# Elastic Constant Matrix: (Units=GPa)
#
#
# Indices 1 2 3 4 5 6 
#
# 1 112.3001 71.8303 0.5783 0.0000 0.0000 0.0000
# 2 71.8303 102.0058 -4.0191 0.0000 0.0000 0.0000
# 3 0.5783 -4.0191 48.8802 0.0000 0.0000 0.0000
# 4 0.0000 0.0000 0.0000 14.0883 0.0000 0.0000
# 5 0.0000 0.0000 0.0000 0.0000 -114.7786 0.0000
# 6 0.0000 0.0000 0.0000 0.0000 0.0000 10.0348
#
#
#
# Elastic Compliance Matrix: (Units=1/GPa)
#
#
# Indices 1 2 3 4 5 6 
#
# 1 0.016265 -0.011499 -0.001138 0.000000 0.000000 0.000000
# 2 -0.011499 0.017964 0.001613 0.000000 0.000000 0.000000
# 3 -0.001138 0.001613 0.020604 0.000000 0.000000 0.000000
# 4 0.000000 0.000000 0.000000 0.070981 0.000000 0.000000
# 5 0.000000 0.000000 0.000000 0.000000 -0.008712 0.000000
# 6 0.000000 0.000000 0.000000 0.000000 0.000000 0.099653
#
#
# Mechanical properties :
#
#
# Convention : Reuss Voigt Hill
#
# Bulk Modulus (GPa) = 30.49996 44.44056 37.47026
# Shear Modulus (GPa) = 20.02159 -5.14464 7.43847
#
# Velocity S-wave (km/s) = 3.20835 -1.62634 1.95557
# Velocity P-wave (km/s) = 5.42267 4.39559 4.93592
#
# Compressibility (1/GPa) = 0.03278693
#
# Stress axis : x y z
#
# Youngs Moduli (GPa) = 61.48019 55.66693 48.53358
#
# Poissons Ratio (x) = 0.64009 0.05522
# Poissons Ratio (y) = 0.70694 -0.07829
# Poissons Ratio (z) = 0.06996 -0.08980
#
# Static dielectric constant tensor:
#      x y z
#    x 1.686490 0.000000 0.000000 
#    y 0.000000 1.689860 0.000000 
#    z 0.000000 0.000000 1.723800 
# 
# From -- ./inp_files/11508.got.cif
#   From: 2010.05.17/outbox.cif.g08.bks.cpg/sg47_6_cif.got.tgz:11508.got - 2010.06.03 20:15:42.
