data_PCOD9384723
_publ_section_title
;
Structure prediction by ZEFSAII (Michael W. Deem and Ramdas Pophale) SiO2 
 PCOD9384723
Probable space group: P M M M
;
_chemical_formula_sum "Si O2"
_cell_formula_units_Z 48
_cell_length_a 7.538341
_cell_length_b 32.277915
_cell_length_c 9.458255
_cell_angle_alpha 90.000000
_cell_angle_beta 90.000000
_cell_angle_gamma 90.000000
_cell_volume 2301.400861
_symmetry_space_group_name_H-M "P M M M"
_symmetry_group_IT_number 47
_symmetry_cell_setting 'orthorhombic'
loop_
_space_group_symop_operation_xyz
x,y,z
-x,-y,z
x,-y,-z
-x,y,-z
-x,-y,-z
x,y,-z
-x,y,z
x,-y,z
loop_
_atom_site_type_symbol
_atom_site_label
_atom_site_fract_x
_atom_site_fract_y
_atom_site_fract_z
Si Si1 0.786740 0.044518 0.164731
Si Si2 0.289461 0.373265 0.659027
Si Si3 0.282868 0.213880 0.337494
Si Si4 0.710433 0.135237 0.838608
Si Si5 0.786271 0.546568 0.160881
Si Si6 0.282931 0.705074 0.837550
O O1 0.734906 0.089127 0.223969
O O2 0.000000 0.043788 0.164771
O O3 0.726135 0.000000 0.225329
O O4 0.727571 0.045203 0.000000
O O5 0.216298 0.372397 0.500000
O O6 0.500000 0.366140 0.648396
O O7 0.265765 0.417504 0.732781
O O8 0.220698 0.336336 0.758007
O O9 0.225282 0.215740 0.500000
O O10 0.500000 0.213544 0.338869
O O11 0.221300 0.172263 0.258447
O O12 0.229158 0.254292 0.249325
O O13 0.500000 0.141640 0.850307
O O14 0.783038 0.136350 0.000000
O O15 0.725960 0.500000 0.198746
O O16 0.000000 0.545688 0.157845
O O17 0.725636 0.555576 0.000000
O O18 0.500000 0.704766 0.839582
O O19 0.224722 0.706367 0.000000
#
# Coordination Sequence:
#
# PCOD9384723 Si02
#       6
#     8   8   8   8   8   8
#     4   8  14  25  41  61  85 113 144 178 218 263
#     4  10  20  32  48  74 105 132 160 197 241 287
#     4   9  16  26  41  62  90 121 149 180 223 273
#     4   9  16  25  40  64  89 111 141 182 222 259
#     4   9  19  36  55  73  95 127 167 206 243 286
#     4   9  16  27  45  68  94 124 157 192 230 273
#
# _framework density 20.856862
#
# number of rings (size 3 to 8) (size 9 to 14) (size 15 to 20)
#    0.000    3.000    0.000    2.500    0.000    6.333 
#    0.000    4.167    0.000    2.000    0.000    5.833 
#    0.000    0.000    0.000    0.000    0.000    0.000 
#
# Total GULP energy -267727.699437 kJ/mol
# GULP energy per Si atom -5577.660405 kJ/mol
# Density = 2.080939 g / cm^3
# Si number density = 20.856862 Si / 1000 Ang^3
#
#
#
# Elastic Constant Matrix: (Units=GPa)
#
#
# Indices 1 2 3 4 5 6 
#
# 1 48.0061 -0.5762 6.2069 0.0000 0.0000 0.0000
# 2 -0.5762 213.5183 129.0505 0.0000 0.0000 0.0000
# 3 6.2069 129.0505 160.1668 0.0000 0.0000 0.0000
# 4 0.0000 0.0000 0.0000 -13.6196 0.0000 0.0000
# 5 0.0000 0.0000 0.0000 0.0000 0.1031 0.0000
# 6 0.0000 0.0000 0.0000 0.0000 0.0000 42.0884
#
#
#
# Elastic Compliance Matrix: (Units=1/GPa)
#
#
# Indices 1 2 3 4 5 6 
#
# 1 0.021061 0.001072 -0.001680 0.000000 0.000000 0.000000
# 2 0.001072 0.009184 -0.007441 0.000000 0.000000 0.000000
# 3 -0.001680 -0.007441 0.012304 0.000000 0.000000 0.000000
# 4 0.000000 0.000000 0.000000 -0.073423 0.000000 0.000000
# 5 0.000000 0.000000 0.000000 0.000000 9.700105 0.000000
# 6 0.000000 0.000000 0.000000 0.000000 0.000000 0.023760
#
#
# Mechanical properties :
#
#
# Convention : Reuss Voigt Hill
#
# Bulk Modulus (GPa) = 37.80616 76.78373 57.29495
# Shear Modulus (GPa) = 0.51451 24.84837 12.68144
#
# Velocity S-wave (km/s) = 0.49722 3.45538 2.46849
# Velocity P-wave (km/s) = 4.30064 7.26733 5.97116
#
# Compressibility (1/GPa) = 0.02645071
#
# Stress axis : x y z
#
# Youngs Moduli (GPa) = 47.48159 108.88770 81.27348
#
# Poissons Ratio (x) = -0.11676 0.13655
# Poissons Ratio (y) = -0.05092 0.60477
# Poissons Ratio (z) = 0.07978 0.81025
#
# Static dielectric constant tensor:
#      x y z
#    x 1.791420 0.000000 0.000000 
#    y 0.000000 1.746010 0.000000 
#    z 0.000000 0.000000 1.712800 
# 
# From -- ./inp_files/2495.got.cif
#   From: 2010.05.17/outbox.cif.g08.bks.cpg/sg47_2_cif.got.tgz:2495.got - 2010.06.03 20:15:42.
