data_PCOD9384284
_publ_section_title
;
Structure prediction by ZEFSAII (Michael W. Deem and Ramdas Pophale) SiO2 
 PCOD9384284
Probable space group: P M M M
;
_chemical_formula_sum "Si O2"
_cell_formula_units_Z 56
_cell_length_a 9.289854
_cell_length_b 19.604189
_cell_length_c 18.686170
_cell_angle_alpha 90.000000
_cell_angle_beta 90.000000
_cell_angle_gamma 90.000000
_cell_volume 3403.126282
_symmetry_space_group_name_H-M "P M M M"
_symmetry_group_IT_number 47
_symmetry_cell_setting 'orthorhombic'
loop_
_space_group_symop_operation_xyz
x,y,z
-x,-y,z
x,-y,-z
-x,y,-z
-x,-y,-z
x,y,-z
-x,y,z
x,-y,z
loop_
_atom_site_type_symbol
_atom_site_label
_atom_site_fract_x
_atom_site_fract_y
_atom_site_fract_z
Si Si1 0.328809 0.656603 0.582963
Si Si2 0.833818 0.075838 0.086928
Si Si3 0.170375 0.292227 0.798800
Si Si4 0.827171 0.216589 0.651638
Si Si5 0.174780 0.923882 0.583289
Si Si6 0.171655 0.578276 0.294149
Si Si7 0.328940 0.211841 0.084084
O O1 0.303374 0.640324 0.500000
O O2 0.500000 0.660769 0.595088
O O3 0.254502 0.728505 0.602768
O O4 0.257882 0.601744 0.635888
O O5 0.736581 0.139117 0.108496
O O6 0.000000 0.086722 0.108883
O O7 0.788669 0.000000 0.111075
O O8 0.832248 0.074446 0.000000
O O9 0.199038 0.239855 0.733177
O O10 0.206079 0.366908 0.767602
O O11 0.259256 0.269622 0.867165
O O12 0.000000 0.289732 0.814367
O O13 0.781023 0.140082 0.631504
O O14 0.000000 0.222590 0.639620
O O15 0.215620 0.912662 0.500000
O O16 0.000000 0.925061 0.584903
O O17 0.223878 0.000000 0.604750
O O18 0.201166 0.500000 0.275416
O O19 0.000000 0.585424 0.308182
O O20 0.500000 0.210948 0.091001
O O21 0.292967 0.220673 0.000000
#
# Coordination Sequence:
#
# PCOD9384284 Si02
#       7
#     8   8   8   8   8   8   8
#     4  10  20  31  45  70 102 132 162 196 234 278
#     4   8  14  26  45  68  93 121 153 190 233 278
#     4   9  18  32  50  72  95 120 153 193 238 287
#     4   9  17  30  48  68  92 125 165 205 243 285
#     4   8  13  22  40  67  94 120 156 203 247 280
#     4   9  19  36  56  76  97 123 157 194 231 277
#     4  10  20  32  48  71  97 126 160 197 237 284
#
# _framework density 16.455456999999999
#
# number of rings (size 3 to 8) (size 9 to 14) (size 15 to 20)
#    0.000    3.000    0.000    3.000    0.000    5.714 
#    0.000    3.571    0.000    3.429    0.000    5.000 
#    0.000    0.000    0.000    0.000    0.000    0.000 
#
# Total GULP energy -311957.529772 kJ/mol
# GULP energy per Si atom -5570.670175 kJ/mol
# Density = 1.641800 g / cm^3
# Si number density = 16.455457 Si / 1000 Ang^3
#
#
#
# Elastic Constant Matrix: (Units=GPa)
#
#
# Indices 1 2 3 4 5 6 
#
# 1 41.8045 47.4477 49.8111 0.0000 0.0000 0.0000
# 2 47.4477 144.8253 66.0973 0.0000 0.0000 0.0000
# 3 49.8111 66.0973 70.8405 0.0000 0.0000 0.0000
# 4 0.0000 0.0000 0.0000 12.0248 0.0000 0.0000
# 5 0.0000 0.0000 0.0000 0.0000 22.1453 0.0000
# 6 0.0000 0.0000 0.0000 0.0000 0.0000 7.7812
#
#
#
# Elastic Compliance Matrix: (Units=1/GPa)
#
#
# Indices 1 2 3 4 5 6 
#
# 1 0.147737 -0.001727 -0.102269 0.000000 0.000000 0.000000
# 2 -0.001727 0.012046 -0.010026 0.000000 0.000000 0.000000
# 3 -0.102269 -0.010026 0.095381 0.000000 0.000000 0.000000
# 4 0.000000 0.000000 0.000000 0.083162 0.000000 0.000000
# 5 0.000000 0.000000 0.000000 0.000000 0.045156 0.000000
# 6 0.000000 0.000000 0.000000 0.000000 0.000000 0.128514
#
#
# Mechanical properties :
#
#
# Convention : Reuss Voigt Hill
#
# Bulk Modulus (GPa) = 36.87226 64.90918 50.89072
# Shear Modulus (GPa) = 6.67487 14.66455 10.66971
#
# Velocity S-wave (km/s) = 2.01622 2.98848 2.54913
# Velocity P-wave (km/s) = 5.27979 7.17210 6.29743
#
# Compressibility (1/GPa) = 0.02712066
#
# Stress axis : x y z
#
# Youngs Moduli (GPa) = 6.76880 83.01436 10.48432
#
# Poissons Ratio (x) = 0.14332 1.07222
# Poissons Ratio (y) = 0.01169 0.10511
# Poissons Ratio (z) = 0.69224 0.83227
#
# Static dielectric constant tensor:
#      x y z
#    x 1.541170 0.000000 0.000000 
#    y 0.000000 1.567740 0.000000 
#    z 0.000000 0.000000 1.546420 
# 
# From -- ./inp_files/29916.got.cif
#   From: 2010.05.17/outbox.cif.g08.bks.cpg/sg47_15_cif.got.tgz:29916.got - 2010.06.03 20:15:42.
