data_PCOD9384690
_publ_section_title
;
Structure prediction by ZEFSAII (Michael W. Deem and Ramdas Pophale) SiO2 
 PCOD9384690
Probable space group: P M M M
;
_chemical_formula_sum "Si O2"
_cell_formula_units_Z 36
_cell_length_a 25.918038
_cell_length_b 7.659543
_cell_length_c 9.716329
_cell_angle_alpha 90.000000
_cell_angle_beta 90.000000
_cell_angle_gamma 90.000000
_cell_volume 1928.888806
_symmetry_space_group_name_H-M "P M M M"
_symmetry_group_IT_number 47
_symmetry_cell_setting 'orthorhombic'
loop_
_space_group_symop_operation_xyz
x,y,z
-x,-y,z
x,-y,-z
-x,y,-z
-x,-y,-z
x,y,-z
-x,y,z
x,-y,z
loop_
_atom_site_type_symbol
_atom_site_label
_atom_site_fract_x
_atom_site_fract_y
_atom_site_fract_z
Si Si1 0.136486 0.199717 0.167601
Si Si2 0.441639 0.710501 0.155944
Si Si3 0.059190 0.500000 0.831915
Si Si4 0.251773 0.213425 0.841932
Si Si5 0.345518 0.791810 0.345050
O O1 0.091717 0.330409 0.211613
O O2 0.194131 0.261742 0.205721
O O3 0.128728 0.000000 0.213457
O O4 0.136858 0.197312 0.000000
O O5 0.500000 0.769553 0.189001
O O6 0.442528 0.500000 0.153322
O O7 0.398493 0.763945 0.263430
O O8 0.429079 0.770138 0.000000
O O9 0.000000 0.500000 0.785978
O O10 0.058637 0.500000 0.000000
O O11 0.297526 0.276389 0.744494
O O12 0.252035 0.000000 0.844108
O O13 0.259675 0.270453 0.000000
O O14 0.347406 0.721284 0.500000
O O15 0.337970 0.000000 0.354215
#
# Coordination Sequence:
#
# PCOD9384690 Si02
#       5
#     8   8   4   8   8
#     4   8  14  25  40  58  84 121 160 196 239 289
#     4   9  19  36  54  70  91 123 164 204 240 285
#     4   9  16  24  36  60  93 123 154 195 240 289
#     4   8  14  27  46  64  87 122 159 194 234 283
#     4  10  20  32  48  73 102 127 154 195 247 299
#
# _framework density 18.663594
#
# number of rings (size 3 to 8) (size 9 to 14) (size 15 to 20)
#    0.000    3.222    0.000    2.667    0.000    3.111 
#    2.000    5.556    0.000    0.000    0.000    0.000 
#    0.000    1.778    0.000    8.667    0.000    8.889 
#
# Total GULP energy -200662.928400 kJ/mol
# GULP energy per Si atom -5573.970233 kJ/mol
# Density = 1.862112 g / cm^3
# Si number density = 18.663594 Si / 1000 Ang^3
#
#
#
# Elastic Constant Matrix: (Units=GPa)
#
#
# Indices 1 2 3 4 5 6 
#
# 1 189.4014 42.6963 92.3689 0.0000 0.0000 0.0000
# 2 42.6963 53.8454 22.5841 0.0000 0.0000 0.0000
# 3 92.3689 22.5841 82.1269 0.0000 0.0000 0.0000
# 4 0.0000 0.0000 0.0000 7.8276 0.0000 0.0000
# 5 0.0000 0.0000 0.0000 0.0000 -4.0360 0.0000
# 6 0.0000 0.0000 0.0000 0.0000 0.0000 31.7627
#
#
#
# Elastic Compliance Matrix: (Units=1/GPa)
#
#
# Indices 1 2 3 4 5 6 
#
# 1 0.012621 -0.004583 -0.012935 0.000000 0.000000 0.000000
# 2 -0.004583 0.022657 -0.001076 0.000000 0.000000 0.000000
# 3 -0.012935 -0.001076 0.027020 0.000000 0.000000 0.000000
# 4 0.000000 0.000000 0.000000 0.127752 0.000000 0.000000
# 5 0.000000 0.000000 0.000000 0.000000 -0.247768 0.000000
# 6 0.000000 0.000000 0.000000 0.000000 0.000000 0.031484
#
#
# Mechanical properties :
#
#
# Convention : Reuss Voigt Hill
#
# Bulk Modulus (GPa) = 39.82387 71.18581 55.50484
# Shear Modulus (GPa) = 258.74693 18.29248 138.51970
#
# Velocity S-wave (km/s) = 11.78721 3.13408 8.62440
# Velocity P-wave (km/s) = 14.37480 7.16386 11.35685
#
# Compressibility (1/GPa) = 0.02511057
#
# Stress axis : x y z
#
# Youngs Moduli (GPa) = 79.23331 44.13674 37.00944
#
# Poissons Ratio (x) = 0.20226 0.47871
# Poissons Ratio (y) = 0.36309 0.03984
# Poissons Ratio (z) = 1.02486 0.04751
#
# Static dielectric constant tensor:
#      x y z
#    x 1.637630 0.000000 0.000000 
#    y 0.000000 1.690260 0.000000 
#    z 0.000000 0.000000 1.621890 
# 
# From -- ./inp_files/19404.got.cif
#   From: 2010.05.17/outbox.cif.g08.bks.cpg/sg47_10_cif.got.tgz:19404.got - 2010.06.03 20:15:42.
