data_PCOD9384313
_publ_section_title
;
Structure prediction by ZEFSAII (Michael W. Deem and Ramdas Pophale) SiO2 
 PCOD9384313
Probable space group: P M M M
;
_chemical_formula_sum "Si O2"
_cell_formula_units_Z 44
_cell_length_a 7.585621
_cell_length_b 9.660043
_cell_length_c 29.026005
_cell_angle_alpha 90.000000
_cell_angle_beta 90.000000
_cell_angle_gamma 90.000000
_cell_volume 2126.950906
_symmetry_space_group_name_H-M "P M M M"
_symmetry_group_IT_number 47
_symmetry_cell_setting 'orthorhombic'
loop_
_space_group_symop_operation_xyz
x,y,z
-x,-y,z
x,-y,-z
-x,y,-z
-x,-y,-z
x,y,-z
-x,y,z
x,-y,z
loop_
_atom_site_type_symbol
_atom_site_label
_atom_site_fract_x
_atom_site_fract_y
_atom_site_fract_z
Si Si1 0.290308 0.342222 0.000000
Si Si2 0.215257 0.341397 0.722417
Si Si3 0.789323 0.156964 0.911085
Si Si4 0.215249 0.340745 0.173289
Si Si5 0.287613 0.657275 0.551752
Si Si6 0.790018 0.155173 0.638735
O O1 0.240038 0.254192 0.955101
O O2 0.218370 0.500000 0.000000
O O3 0.500000 0.352816 0.000000
O O4 0.268565 0.500000 0.713341
O O5 0.269029 0.304589 0.774532
O O6 0.279878 0.241072 0.682361
O O7 0.000000 0.339997 0.722066
O O8 0.721325 0.235595 0.865642
O O9 0.000000 0.146052 0.905653
O O10 0.721016 0.000000 0.916977
O O11 0.268293 0.500000 0.163717
O O12 0.000000 0.339920 0.172628
O O13 0.227581 0.695084 0.500000
O O14 0.500000 0.654034 0.550716
O O15 0.226716 0.500000 0.561605
O O16 0.235965 0.761199 0.591703
O O17 0.000000 0.145365 0.645652
O O18 0.718149 0.000000 0.635968
#
# Coordination Sequence:
#
# PCOD9384313 Si02
#       6
#     4   8   8   8   8   8
#     4  11  24  39  54  72  96 131 172 209 248 294
#     4   8  14  26  45  69  98 132 167 200 236 281
#     4  10  20  33  52  79 106 131 162 201 246 295
#     4   8  14  26  46  72 100 130 164 201 240 282
#     4   9  19  36  55  72  91 121 164 209 250 294
#     4  10  20  31  46  73 106 135 162 196 241 292
#
# _framework density 20.686890999999999
#
# number of rings (size 3 to 8) (size 9 to 14) (size 15 to 20)
#    0.000    2.818    0.000    3.273    0.000    5.818 
#    0.000    6.364    0.000    1.091    0.000    7.636 
#    0.000    0.000    0.000    0.000    0.000    0.000 
#
# Total GULP energy -245577.317897 kJ/mol
# GULP energy per Si atom -5581.302679 kJ/mol
# Density = 2.063981 g / cm^3
# Si number density = 20.686891 Si / 1000 Ang^3
#
#
#
# Elastic Constant Matrix: (Units=GPa)
#
#
# Indices 1 2 3 4 5 6 
#
# 1 45.1537 7.0967 1.1568 0.0000 0.0000 0.0000
# 2 7.0967 199.5135 158.9679 0.0000 0.0000 0.0000
# 3 1.1568 158.9679 199.8501 0.0000 0.0000 0.0000
# 4 0.0000 0.0000 0.0000 -15.2954 0.0000 0.0000
# 5 0.0000 0.0000 0.0000 0.0000 122.9267 0.0000
# 6 0.0000 0.0000 0.0000 0.0000 0.0000 4.5945
#
#
#
# Elastic Compliance Matrix: (Units=1/GPa)
#
#
# Indices 1 2 3 4 5 6 
#
# 1 0.022409 -0.001894 0.001377 0.000000 0.000000 0.000000
# 2 -0.001894 0.013847 -0.011003 0.000000 0.000000 0.000000
# 3 0.001377 -0.011003 0.013748 0.000000 0.000000 0.000000
# 4 0.000000 0.000000 0.000000 -0.065379 0.000000 0.000000
# 5 0.000000 0.000000 0.000000 0.000000 0.008135 0.000000
# 6 0.000000 0.000000 0.000000 0.000000 0.000000 0.217654
#
#
# Mechanical properties :
#
#
# Convention : Reuss Voigt Hill
#
# Bulk Modulus (GPa) = 37.08785 86.55112 61.81949
# Shear Modulus (GPa) = 20.62350 40.93154 30.77752
#
# Velocity S-wave (km/s) = 3.16085 4.45300 3.86136
# Velocity P-wave (km/s) = 5.59361 8.26852 7.05892
#
# Compressibility (1/GPa) = 0.02696301
#
# Stress axis : x y z
#
# Youngs Moduli (GPa) = 44.62486 72.21973 72.73747
#
# Poissons Ratio (x) = 0.13681 -0.10017
# Poissons Ratio (y) = 0.08453 0.80034
# Poissons Ratio (z) = -0.06145 0.79464
#
# Static dielectric constant tensor:
#      x y z
#    x 1.788250 0.000000 0.000000 
#    y 0.000000 1.725640 0.000000 
#    z 0.000000 0.000000 1.712330 
# 
# From -- ./inp_files/33900.got.cif
#   From: 2010.05.17/outbox.cif.g08.bks.cpg/sg47_17_cif.got.tgz:33900.got - 2010.06.03 20:15:42.
