data_PCOD9384500
_publ_section_title
;
Structure prediction by ZEFSAII (Michael W. Deem and Ramdas Pophale) SiO2 
 PCOD9384500
Probable space group: P M M M
;
_chemical_formula_sum "Si O2"
_cell_formula_units_Z 60
_cell_length_a 24.789472
_cell_length_b 19.062854
_cell_length_c 9.000646
_cell_angle_alpha 90.000000
_cell_angle_beta 90.000000
_cell_angle_gamma 90.000000
_cell_volume 4253.328042
_symmetry_space_group_name_H-M "P M M M"
_symmetry_group_IT_number 47
_symmetry_cell_setting 'orthorhombic'
loop_
_space_group_symop_operation_xyz
x,y,z
-x,-y,z
x,-y,-z
-x,y,-z
-x,-y,-z
x,y,-z
-x,y,z
x,-y,z
loop_
_atom_site_type_symbol
_atom_site_label
_atom_site_fract_x
_atom_site_fract_y
_atom_site_fract_z
Si Si1 0.724973 0.168500 0.821282
Si Si2 0.382744 0.080791 0.821800
Si Si3 0.059181 0.915051 0.325680
Si Si4 0.170267 0.918397 0.821110
Si Si5 0.500000 0.584917 0.331703
Si Si6 0.665387 0.292719 0.321965
Si Si7 0.386727 0.416949 0.823584
Si Si8 0.440686 0.795001 0.321650
O O1 0.675355 0.115643 0.787468
O O2 0.780273 0.130917 0.774489
O O3 0.711386 0.242000 0.742885
O O4 0.725842 0.178345 0.000000
O O5 0.427302 0.129082 0.745179
O O6 0.384457 0.000000 0.775299
O O7 0.389388 0.083791 0.000000
O O8 0.063790 0.897582 0.500000
O O9 0.112655 0.892875 0.239658
O O10 0.000000 0.890565 0.271931
O O11 0.058434 0.000000 0.315256
O O12 0.178818 0.000000 0.773983
O O13 0.168953 0.918640 0.000000
O O14 0.500000 0.500000 0.341114
O O15 0.500000 0.613942 0.500000
O O16 0.444753 0.602499 0.248040
O O17 0.668614 0.296419 0.500000
O O18 0.659009 0.369198 0.251038
O O19 0.609059 0.254261 0.277941
O O20 0.378447 0.500000 0.796971
O O21 0.388564 0.405341 0.000000
O O22 0.440030 0.798948 0.500000
O O23 0.500000 0.770420 0.274041
#
# Coordination Sequence:
#
# PCOD9384500 Si02
#       8
#     8   8   8   8   4   8   8   8
#     4   9  17  30  44  58  80 106 133 167 209 249
#     4   9  17  29  44  59  74  94 123 161 201 241
#     4   8  14  24  36  52  78 110 140 172 212 252
#     4   9  16  25  40  61  81 106 142 181 218 252
#     4   9  17  29  45  65  87 107 126 151 184 225
#     4  10  20  32  47  63  80 104 133 164 199 241
#     4  10  20  33  48  67  88 107 129 157 193 240
#     4   9  19  33  44  56  75  98 123 153 194 242
#
# _framework density 14.106601
#
# number of rings (size 3 to 8) (size 9 to 14) (size 15 to 20)
#    0.000    2.867    0.000    1.800    0.933    5.333 
#    0.000    2.667    0.000    2.400    0.000    0.000 
#    0.000    0.000    0.000    0.000    0.000    0.667 
#
# Total GULP energy -334287.409229 kJ/mol
# GULP energy per Si atom -5571.456820 kJ/mol
# Density = 1.407449 g / cm^3
# Si number density = 14.106601 Si / 1000 Ang^3
#
#
#
# Elastic Constant Matrix: (Units=GPa)
#
#
# Indices 1 2 3 4 5 6 
#
# 1 91.6056 29.6989 26.7291 0.0000 0.0000 0.0000
# 2 29.6989 63.9789 28.6696 0.0000 0.0000 0.0000
# 3 26.7291 28.6696 26.7088 0.0000 0.0000 0.0000
# 4 0.0000 0.0000 0.0000 17.6697 0.0000 0.0000
# 5 0.0000 0.0000 0.0000 0.0000 20.3445 0.0000
# 6 0.0000 0.0000 0.0000 0.0000 0.0000 13.0110
#
#
#
# Elastic Compliance Matrix: (Units=1/GPa)
#
#
# Indices 1 2 3 4 5 6 
#
# 1 0.015426 -0.000468 -0.014935 0.000000 0.000000 0.000000
# 2 -0.000468 0.030130 -0.031874 0.000000 0.000000 0.000000
# 3 -0.014935 -0.031874 0.086601 0.000000 0.000000 0.000000
# 4 0.000000 0.000000 0.000000 0.056594 0.000000 0.000000
# 5 0.000000 0.000000 0.000000 0.000000 0.049153 0.000000
# 6 0.000000 0.000000 0.000000 0.000000 0.000000 0.076858
#
#
# Mechanical properties :
#
#
# Convention : Reuss Voigt Hill
#
# Bulk Modulus (GPa) = 26.59353 39.16538 32.87945
# Shear Modulus (GPa) = 11.85250 16.68477 14.26864
#
# Velocity S-wave (km/s) = 2.90178 3.44286 3.18384
# Velocity P-wave (km/s) = 5.48816 6.60519 6.07241
#
# Compressibility (1/GPa) = 0.03760313
#
# Stress axis : x y z
#
# Youngs Moduli (GPa) = 64.82571 33.18902 11.54719
#
# Poissons Ratio (x) = 0.01554 0.17246
# Poissons Ratio (y) = 0.03034 0.36805
# Poissons Ratio (z) = 0.96819 1.05786
#
# Static dielectric constant tensor:
#      x y z
#    x 1.463610 0.000000 0.000000 
#    y 0.000000 1.470980 0.000000 
#    z 0.000000 0.000000 1.471630 
# 
# From -- ./inp_files/12904.got.cif
#   From: 2010.05.17/outbox.cif.g08.bks.cpg/sg47_7_cif.got.tgz:12904.got - 2010.06.03 20:15:42.
