data_PCOD9384085
_publ_section_title
;
Structure prediction by ZEFSAII (Michael W. Deem and Ramdas Pophale) SiO2 
 PCOD9384085
Probable space group: P M M M
;
_chemical_formula_sum "Si O2"
_cell_formula_units_Z 64
_cell_length_a 20.669335
_cell_length_b 20.753391
_cell_length_c 8.101349
_cell_angle_alpha 90.000000
_cell_angle_beta 90.000000
_cell_angle_gamma 90.000000
_cell_volume 3475.144872
_symmetry_space_group_name_H-M "P M M M"
_symmetry_group_IT_number 47
_symmetry_cell_setting 'orthorhombic'
loop_
_space_group_symop_operation_xyz
x,y,z
-x,-y,z
x,-y,-z
-x,y,-z
-x,-y,-z
x,y,-z
-x,y,z
x,-y,z
loop_
_atom_site_type_symbol
_atom_site_label
_atom_site_fract_x
_atom_site_fract_y
_atom_site_fract_z
Si Si1 0.789837 0.428379 0.695077
Si Si2 0.683180 0.331199 0.807013
Si Si3 0.573411 0.572034 0.301988
Si Si4 0.070049 0.898204 0.307002
Si Si5 0.250140 0.791942 0.799694
Si Si6 0.070932 0.613621 0.199613
Si Si7 0.787193 0.930258 0.803338
Si Si8 0.102226 0.759446 0.802452
O O1 0.776858 0.423519 0.500000
O O2 0.770624 0.500000 0.751231
O O3 0.747716 0.373989 0.782479
O O4 0.866013 0.419397 0.726347
O O5 0.624086 0.372803 0.739849
O O6 0.698249 0.260019 0.736013
O O7 0.671677 0.323090 0.000000
O O8 0.571054 0.568755 0.500000
O O9 0.500000 0.584571 0.242746
O O10 0.592901 0.500000 0.242788
O O11 0.074040 0.914848 0.500000
O O12 0.135531 0.922437 0.222585
O O13 0.072128 0.820818 0.286311
O O14 0.000000 0.920666 0.242790
O O15 0.247137 0.865533 0.736963
O O16 0.178829 0.762948 0.767997
O O17 0.256223 0.794990 0.000000
O O18 0.075798 0.689557 0.242103
O O19 0.000000 0.589094 0.249762
O O20 0.075390 0.608680 0.000000
O O21 0.767307 0.000000 0.735050
O O22 0.776186 0.930841 0.000000
O O23 0.092873 0.768169 0.000000
#
# Coordination Sequence:
#
# PCOD9384085 Si02
#       8
#     8   8   8   8   8   8   8   8
#     4  11  24  38  50  67  95 130 167 207 252 306
#     4  11  20  33  55  80 105 132 167 212 252 290
#     4   9  19  36  55  77 111 150 179 204 240 289
#     4  10  20  30  41  62  91 119 149 191 246 305
#     4   8  15  29  49  72  96 119 151 199 249 290
#     4  10  20  34  52  70  88 115 156 210 267 315
#     4   9  18  33  51  67  87 121 162 200 242 299
#     4   9  16  31  50  66  87 116 152 196 247 303
#
# _framework density 18.416498000000001
#
# number of rings (size 3 to 8) (size 9 to 14) (size 15 to 20)
#    0.000    2.375    1.250    3.000    0.000    6.000 
#    0.000    3.750    0.000    0.000    0.000    0.000 
#    0.000    0.500    0.000    6.250    0.000    1.000 
#
# Total GULP energy -356987.825376 kJ/mol
# GULP energy per Si atom -5577.934772 kJ/mol
# Density = 1.837458 g / cm^3
# Si number density = 18.416498 Si / 1000 Ang^3
#
#
#
# Elastic Constant Matrix: (Units=GPa)
#
#
# Indices 1 2 3 4 5 6 
#
# 1 81.2658 56.0875 5.5067 0.0000 0.0000 0.0000
# 2 56.0875 130.2426 5.3759 0.0000 0.0000 0.0000
# 3 5.5067 5.3759 8.7166 0.0000 0.0000 0.0000
# 4 0.0000 0.0000 0.0000 36.0109 0.0000 0.0000
# 5 0.0000 0.0000 0.0000 0.0000 21.6557 0.0000
# 6 0.0000 0.0000 0.0000 0.0000 0.0000 18.5102
#
#
#
# Elastic Compliance Matrix: (Units=1/GPa)
#
#
# Indices 1 2 3 4 5 6 
#
# 1 0.017885 -0.007425 -0.006720 0.000000 0.000000 0.000000
# 2 -0.007425 0.010961 -0.002069 0.000000 0.000000 0.000000
# 3 -0.006720 -0.002069 0.120245 0.000000 0.000000 0.000000
# 4 0.000000 0.000000 0.000000 0.027769 0.000000 0.000000
# 5 0.000000 0.000000 0.000000 0.000000 0.046177 0.000000
# 6 0.000000 0.000000 0.000000 0.000000 0.000000 0.054024
#
#
# Mechanical properties :
#
#
# Convention : Reuss Voigt Hill
#
# Bulk Modulus (GPa) = 8.57168 39.35168 23.96168
# Shear Modulus (GPa) = 14.35227 25.45234 19.90231
#
# Velocity S-wave (km/s) = 2.79465 3.72161 3.29093
# Velocity P-wave (km/s) = 3.88303 6.31516 5.24209
#
# Compressibility (1/GPa) = 0.11666324
#
# Stress axis : x y z
#
# Youngs Moduli (GPa) = 55.91319 91.23513 8.31634
#
# Poissons Ratio (x) = 0.67738 0.05588
# Poissons Ratio (y) = 0.41513 0.01721
# Poissons Ratio (z) = 0.37573 0.18880
#
# Static dielectric constant tensor:
#      x y z
#    x 1.623980 0.000000 0.000000 
#    y 0.000000 1.687240 0.000000 
#    z 0.000000 0.000000 1.655780 
# 
# From -- ./inp_files/11895.got.cif
#   From: 2010.05.17/outbox.cif.g08.bks.cpg/sg47_6_cif.got.tgz:11895.got - 2010.06.03 20:15:42.
