data_PCOD9384437
_publ_section_title
;
Structure prediction by ZEFSAII (Michael W. Deem and Ramdas Pophale) SiO2 
 PCOD9384437
Probable space group: P M M M
;
_chemical_formula_sum "Si O2"
_cell_formula_units_Z 64
_cell_length_a 8.903904
_cell_length_b 30.125848
_cell_length_c 14.596711
_cell_angle_alpha 90.000000
_cell_angle_beta 90.000000
_cell_angle_gamma 90.000000
_cell_volume 3915.387581
_symmetry_space_group_name_H-M "P M M M"
_symmetry_group_IT_number 47
_symmetry_cell_setting 'orthorhombic'
loop_
_space_group_symop_operation_xyz
x,y,z
-x,-y,z
x,-y,-z
-x,y,-z
-x,-y,-z
x,y,-z
-x,y,z
x,-y,z
loop_
_atom_site_type_symbol
_atom_site_label
_atom_site_fract_x
_atom_site_fract_y
_atom_site_fract_z
Si Si1 0.320650 0.726785 0.284371
Si Si2 0.320298 0.097393 0.604647
Si Si3 0.178023 0.547704 0.389206
Si Si4 0.182012 0.354701 0.392510
Si Si5 0.680862 0.225718 0.104967
Si Si6 0.825455 0.868419 0.109955
Si Si7 0.174997 0.191971 0.390070
Si Si8 0.680491 0.950567 0.785952
O O1 0.500000 0.722381 0.288875
O O2 0.245414 0.684053 0.329763
O O3 0.276102 0.737344 0.179303
O O4 0.268742 0.769919 0.341059
O O5 0.279883 0.085789 0.500000
O O6 0.500000 0.105338 0.607176
O O7 0.238065 0.143082 0.630606
O O8 0.286019 0.060289 0.679652
O O9 0.188316 0.547914 0.500000
O O10 0.241885 0.500000 0.357324
O O11 0.236040 0.596150 0.361240
O O12 0.000000 0.547249 0.367625
O O13 0.223616 0.348021 0.500000
O O14 0.000000 0.354316 0.389651
O O15 0.500000 0.222294 0.105698
O O16 0.746314 0.178016 0.134326
O O17 0.728896 0.234594 0.000000
O O18 0.750680 0.910968 0.155906
O O19 0.000000 0.866055 0.135370
O O20 0.813738 0.872631 0.000000
O O21 0.186379 0.197702 0.500000
O O22 0.000000 0.195384 0.364449
O O23 0.500000 0.949213 0.796812
O O24 0.732731 0.000000 0.811003
#
# Coordination Sequence:
#
# PCOD9384437 Si02
#       8
#     8   8   8   8   8   8   8   8
#     4  11  21  30  44  66  91 119 149 183 224 266
#     4   9  18  33  51  69  90 116 147 183 218 251
#     4   7  10  19  37  59  82 113 156 198 226 252
#     4   9  17  28  42  63  93 127 159 189 223 263
#     4   9  19  36  54  69  87 114 148 183 220 266
#     4  10  21  36  54  75  95 114 139 175 220 266
#     4  10  20  32  46  65  90 120 151 180 212 255
#     4  10  21  35  51  72  95 119 147 176 210 256
#
# _framework density 16.345763000000002
#
# number of rings (size 3 to 8) (size 9 to 14) (size 15 to 20)
#    0.000    2.625    0.000    3.375    0.000    8.500 
#    0.000    2.500    0.000    0.375    0.000    4.375 
#    0.000    0.500    0.000    6.250    0.000    0.250 
#
# Total GULP energy -356743.009605 kJ/mol
# GULP energy per Si atom -5574.109525 kJ/mol
# Density = 1.630856 g / cm^3
# Si number density = 16.345763 Si / 1000 Ang^3
#
#
#
# Elastic Constant Matrix: (Units=GPa)
#
#
# Indices 1 2 3 4 5 6 
#
# 1 18.1176 28.2053 24.2521 0.0000 0.0000 0.0000
# 2 28.2053 122.1816 59.4523 0.0000 0.0000 0.0000
# 3 24.2521 59.4523 56.4740 0.0000 0.0000 0.0000
# 4 0.0000 0.0000 0.0000 17.3405 0.0000 0.0000
# 5 0.0000 0.0000 0.0000 0.0000 15.9860 0.0000
# 6 0.0000 0.0000 0.0000 0.0000 0.0000 21.9945
#
#
#
# Elastic Compliance Matrix: (Units=1/GPa)
#
#
# Indices 1 2 3 4 5 6 
#
# 1 0.131877 -0.005918 -0.050403 0.000000 0.000000 0.000000
# 2 -0.005918 0.017046 -0.015403 0.000000 0.000000 0.000000
# 3 -0.050403 -0.015403 0.055568 0.000000 0.000000 0.000000
# 4 0.000000 0.000000 0.000000 0.057668 0.000000 0.000000
# 5 0.000000 0.000000 0.000000 0.000000 0.062555 0.000000
# 6 0.000000 0.000000 0.000000 0.000000 0.000000 0.045466
#
#
# Mechanical properties :
#
#
# Convention : Reuss Voigt Hill
#
# Bulk Modulus (GPa) = 16.38211 46.73249 31.55730
# Shear Modulus (GPa) = 9.36373 16.72178 13.04276
#
# Velocity S-wave (km/s) = 2.39603 3.20191 2.82783
# Velocity P-wave (km/s) = 4.20697 6.50551 5.47815
#
# Compressibility (1/GPa) = 0.06104219
#
# Stress axis : x y z
#
# Youngs Moduli (GPa) = 7.58283 58.66561 17.99602
#
# Poissons Ratio (x) = 0.34717 0.90705
# Poissons Ratio (y) = 0.04487 0.27720
# Poissons Ratio (z) = 0.38220 0.90365
#
# Static dielectric constant tensor:
#      x y z
#    x 1.551130 0.000000 0.000000 
#    y 0.000000 1.549650 0.000000 
#    z 0.000000 0.000000 1.563450 
# 
# From -- ./inp_files/22129.got.cif
#   From: 2010.05.17/outbox.cif.g08.bks.cpg/sg47_12_cif.got.tgz:22129.got - 2010.06.03 20:15:42.
