data_PCOD9384623
_publ_section_title
;
Structure prediction by ZEFSAII (Michael W. Deem and Ramdas Pophale) SiO2 
 PCOD9384623
Probable space group: P M M M
;
_chemical_formula_sum "Si O2"
_cell_formula_units_Z 44
_cell_length_a 15.774204
_cell_length_b 18.349443
_cell_length_c 7.885621
_cell_angle_alpha 90.000000
_cell_angle_beta 90.000000
_cell_angle_gamma 90.000000
_cell_volume 2282.476101
_symmetry_space_group_name_H-M "P M M M"
_symmetry_group_IT_number 47
_symmetry_cell_setting 'orthorhombic'
loop_
_space_group_symop_operation_xyz
x,y,z
-x,-y,z
x,-y,-z
-x,y,-z
-x,-y,-z
x,y,-z
-x,y,z
x,-y,z
loop_
_atom_site_type_symbol
_atom_site_label
_atom_site_fract_x
_atom_site_fract_y
_atom_site_fract_z
Si Si1 0.730621 0.202483 0.293122
Si Si2 0.853851 0.420214 0.804013
Si Si3 0.500000 0.586720 0.807330
Si Si4 0.595792 0.084178 0.292885
Si Si5 0.907390 0.259305 0.298469
Si Si6 0.318577 0.363964 0.302760
O O1 0.732919 0.197784 0.500000
O O2 0.670836 0.137046 0.233220
O O3 0.827620 0.212509 0.232325
O O4 0.688697 0.279938 0.249178
O O5 0.877063 0.500000 0.731726
O O6 0.889204 0.345752 0.724465
O O7 0.751849 0.410902 0.793498
O O8 0.879998 0.419461 0.000000
O O9 0.500000 0.500000 0.811289
O O10 0.413943 0.611068 0.719613
O O11 0.500000 0.614760 0.000000
O O12 0.596380 0.085806 0.500000
O O13 0.500000 0.106618 0.241385
O O14 0.608360 0.000000 0.242475
O O15 0.909890 0.246494 0.500000
O O16 0.000000 0.242283 0.226138
O O17 0.293913 0.368296 0.500000
#
# Coordination Sequence:
#
# PCOD9384623 Si02
#       6
#     8   8   4   8   8   8
#     4   8  15  27  43  64  91 121 152 191 234 276
#     4  10  20  33  48  66  91 120 150 193 248 295
#     4  11  23  35  45  61  90 125 160 202 247 283
#     4   8  13  21  37  64  97 128 152 180 226 282
#     4   9  18  32  48  66  89 121 160 198 239 285
#     4  10  20  32  48  68  89 121 162 200 237 281
#
# _framework density 19.27731
#
# number of rings (size 3 to 8) (size 9 to 14) (size 15 to 20)
#    0.000    2.818    0.000    3.545    1.273    5.091 
#    0.000    1.818    0.000    0.545    0.000    3.818 
#    0.000   18.909    0.000    6.545    0.000    7.273 
#
# Total GULP energy -245252.795641 kJ/mol
# GULP energy per Si atom -5573.927174 kJ/mol
# Density = 1.923343 g / cm^3
# Si number density = 19.277310 Si / 1000 Ang^3
#
#
#
# Elastic Constant Matrix: (Units=GPa)
#
#
# Indices 1 2 3 4 5 6 
#
# 1 155.9973 70.7576 -0.6277 0.0000 0.0000 0.0000
# 2 70.7576 93.8918 4.7327 0.0000 0.0000 0.0000
# 3 -0.6277 4.7327 22.6853 0.0000 0.0000 0.0000
# 4 0.0000 0.0000 0.0000 42.4516 0.0000 0.0000
# 5 0.0000 0.0000 0.0000 0.0000 -0.8834 0.0000
# 6 0.0000 0.0000 0.0000 0.0000 0.0000 1.3371
#
#
#
# Elastic Compliance Matrix: (Units=1/GPa)
#
#
# Indices 1 2 3 4 5 6 
#
# 1 0.009814 -0.007489 0.001834 0.000000 0.000000 0.000000
# 2 -0.007489 0.016478 -0.003645 0.000000 0.000000 0.000000
# 3 0.001834 -0.003645 0.044892 0.000000 0.000000 0.000000
# 4 0.000000 0.000000 0.000000 0.023556 0.000000 0.000000
# 5 0.000000 0.000000 0.000000 0.000000 -1.132014 0.000000
# 6 0.000000 0.000000 0.000000 0.000000 0.000000 0.747888
#
#
# Mechanical properties :
#
#
# Convention : Reuss Voigt Hill
#
# Bulk Modulus (GPa) = 19.01670 46.92220 32.96945
# Shear Modulus (GPa) = -19.74277 21.76185 1.00954
#
# Velocity S-wave (km/s) = -3.20370 3.36353 0.72445
# Velocity P-wave (km/s) = 1.94902 6.28315 4.22370
#
# Compressibility (1/GPa) = 0.05258537
#
# Stress axis : x y z
#
# Youngs Moduli (GPa) = 101.89014 60.68756 22.27545
#
# Poissons Ratio (x) = 0.45447 -0.04085
# Poissons Ratio (y) = 0.76303 0.08119
# Poissons Ratio (z) = -0.18685 0.22120
#
# Static dielectric constant tensor:
#      x y z
#    x 1.713720 0.000000 0.000000 
#    y 0.000000 1.648860 0.000000 
#    z 0.000000 0.000000 1.703730 
# 
# From -- ./inp_files/6157.got.cif
#   From: 2010.05.17/outbox.cif.g08.bks.cpg/sg47_4_cif.got.tgz:6157.got - 2010.06.03 20:15:42.
