data_PCOD9384922
_publ_section_title
;
Structure prediction by ZEFSAII (Michael W. Deem and Ramdas Pophale) SiO2 
 PCOD9384922
Probable space group: P M M M
;
_chemical_formula_sum "Si O2"
_cell_formula_units_Z 52
_cell_length_a 14.980048
_cell_length_b 24.175571
_cell_length_c 7.647205
_cell_angle_alpha 90.000000
_cell_angle_beta 90.000000
_cell_angle_gamma 90.000000
_cell_volume 2769.444575
_symmetry_space_group_name_H-M "P M M M"
_symmetry_group_IT_number 47
_symmetry_cell_setting 'orthorhombic'
loop_
_space_group_symop_operation_xyz
x,y,z
-x,-y,z
x,-y,-z
-x,y,-z
-x,-y,-z
x,y,-z
-x,y,z
x,-y,z
loop_
_atom_site_type_symbol
_atom_site_label
_atom_site_fract_x
_atom_site_fract_y
_atom_site_fract_z
Si Si1 0.601754 0.667945 0.788672
Si Si2 0.097903 0.403695 0.207052
Si Si3 0.608573 0.000000 0.798846
Si Si4 0.289835 0.439347 0.214163
Si Si5 0.600918 0.880423 0.208517
Si Si6 0.099100 0.726073 0.712207
Si Si7 0.281137 0.224501 0.705995
O O1 0.500000 0.671358 0.725917
O O2 0.651176 0.612380 0.726775
O O3 0.657751 0.721984 0.740486
O O4 0.599544 0.665792 0.000000
O O5 0.187646 0.431605 0.275406
O O6 0.109446 0.337638 0.229504
O O7 0.000000 0.418606 0.280304
O O8 0.094950 0.415808 0.000000
O O9 0.632088 0.940263 0.719560
O O10 0.500000 0.000000 0.802421
O O11 0.641417 0.000000 0.000000
O O12 0.323352 0.500000 0.264853
O O13 0.288780 0.437434 0.000000
O O14 0.500000 0.867677 0.274004
O O15 0.668074 0.830172 0.233591
O O16 0.592867 0.888078 0.000000
O O17 0.100873 0.725548 0.500000
O O18 0.182518 0.761793 0.778074
O O19 0.000000 0.744687 0.767115
O O20 0.270863 0.218331 0.500000
#
# Coordination Sequence:
#
# PCOD9384922 Si02
#       7
#     8   8   4   8   8   8   8
#     4  10  20  33  48  65  88 120 156 192 229 271
#     4   9  16  27  46  69  89 110 139 181 233 284
#     4   7  12  26  47  69  94 127 164 192 215 253
#     4   9  17  29  45  66  90 114 145 187 232 278
#     4   9  17  30  49  72  99 131 162 189 219 261
#     4   9  18  32  48  65  88 119 151 184 227 276
#     4  11  21  31  47  71  96 121 151 191 234 273
#
# _framework density 18.776329
#
# number of rings (size 3 to 8) (size 9 to 14) (size 15 to 20)
#    0.000    2.692    1.538    1.846    0.000    3.692 
#    0.000    3.462    0.000    3.231    0.000    3.769 
#    0.000    4.308    0.000    0.000    0.000    0.000 
#
# Total GULP energy -289917.364501 kJ/mol
# GULP energy per Si atom -5575.333933 kJ/mol
# Density = 1.873359 g / cm^3
# Si number density = 18.776329 Si / 1000 Ang^3
#
#
#
# Elastic Constant Matrix: (Units=GPa)
#
#
# Indices 1 2 3 4 5 6 
#
# 1 94.4353 52.3275 -3.5449 0.0000 0.0000 0.0000
# 2 52.3275 132.1454 -6.1496 0.0000 0.0000 0.0000
# 3 -3.5449 -6.1496 33.6795 0.0000 0.0000 0.0000
# 4 0.0000 0.0000 0.0000 3479.3917 0.0000 0.0000
# 5 0.0000 0.0000 0.0000 0.0000 12.3157 0.0000
# 6 0.0000 0.0000 0.0000 0.0000 0.0000 26.5171
#
#
#
# Elastic Compliance Matrix: (Units=1/GPa)
#
#
# Indices 1 2 3 4 5 6 
#
# 1 0.013573 -0.005354 0.000451 0.000000 0.000000 0.000000
# 2 -0.005354 0.009744 0.001216 0.000000 0.000000 0.000000
# 3 0.000451 0.001216 0.029961 0.000000 0.000000 0.000000
# 4 0.000000 0.000000 0.000000 0.000287 0.000000 0.000000
# 5 0.000000 0.000000 0.000000 0.000000 0.081197 0.000000
# 6 0.000000 0.000000 0.000000 0.000000 0.000000 0.037711
#
#
# Mechanical properties :
#
#
# Convention : Reuss Voigt Hill
#
# Bulk Modulus (GPa) = 21.78461 38.39180 30.08821
# Shear Modulus (GPa) = 25.62153 718.15340 371.88746
#
# Velocity S-wave (km/s) = 3.69801 19.57826 14.08871
# Velocity P-wave (km/s) = 5.46453 23.05578 16.75455
#
# Compressibility (1/GPa) = 0.04590396
#
# Stress axis : x y z
#
# Youngs Moduli (GPa) = 73.67754 102.62809 33.37665
#
# Poissons Ratio (x) = 0.54943 -0.01505
# Poissons Ratio (y) = 0.39444 -0.04058
# Poissons Ratio (z) = -0.03323 -0.12476
#
# Static dielectric constant tensor:
#      x y z
#    x 1.680290 0.000000 0.000000 
#    y 0.000000 1.666390 0.000000 
#    z 0.000000 0.000000 1.718590 
# 
# From -- ./inp_files/7630.got.cif
#   From: 2010.05.17/outbox.cif.g08.bks.cpg/sg47_4_cif.got.tgz:7630.got - 2010.06.03 20:15:42.
