data_PCOD9384545
_publ_section_title
;
Structure prediction by ZEFSAII (Michael W. Deem and Ramdas Pophale) SiO2 
 PCOD9384545
Probable space group: P M M M
;
_chemical_formula_sum "Si O2"
_cell_formula_units_Z 64
_cell_length_a 19.359082
_cell_length_b 21.611221
_cell_length_c 7.586948
_cell_angle_alpha 90.000000
_cell_angle_beta 90.000000
_cell_angle_gamma 90.000000
_cell_volume 3174.177226
_symmetry_space_group_name_H-M "P M M M"
_symmetry_group_IT_number 47
_symmetry_cell_setting 'orthorhombic'
loop_
_space_group_symop_operation_xyz
x,y,z
-x,-y,z
x,-y,-z
-x,y,-z
-x,-y,-z
x,y,-z
-x,y,z
x,-y,z
loop_
_atom_site_type_symbol
_atom_site_label
_atom_site_fract_x
_atom_site_fract_y
_atom_site_fract_z
Si Si1 0.578711 0.429925 0.212650
Si Si2 0.080597 0.066466 0.787956
Si Si3 0.921161 0.797994 0.291040
Si Si4 0.419398 0.933407 0.212053
Si Si5 0.671879 0.313004 0.708995
Si Si6 0.421365 0.201934 0.290579
Si Si7 0.828556 0.315841 0.716709
Si Si8 0.920982 0.569864 0.285184
O O1 0.500000 0.415774 0.271421
O O2 0.595855 0.500000 0.271329
O O3 0.631570 0.377311 0.268417
O O4 0.577915 0.430567 0.000000
O O5 0.108896 0.132966 0.733618
O O6 0.000000 0.067176 0.730565
O O7 0.110255 0.000000 0.727857
O O8 0.081186 0.065767 0.000000
O O9 0.927033 0.788139 0.500000
O O10 0.871824 0.744018 0.223709
O O11 0.000000 0.795641 0.218472
O O12 0.500000 0.932587 0.269728
O O13 0.390669 0.866931 0.266111
O O14 0.389913 0.000000 0.271965
O O15 0.418903 0.934131 0.000000
O O16 0.678355 0.301895 0.500000
O O17 0.625835 0.256727 0.782504
O O18 0.749691 0.314960 0.778527
O O19 0.427161 0.211508 0.500000
O O20 0.500000 0.203516 0.217974
O O21 0.828287 0.315953 0.500000
O O22 0.868566 0.377602 0.773259
O O23 0.920595 0.569925 0.500000
O O24 0.903653 0.500000 0.228883
O O25 0.000000 0.583580 0.232019
#
# Coordination Sequence:
#
# PCOD9384545 Si02
#       8
#     8   8   8   8   8   8   8   8
#     4   9  19  36  55  73  94 121 153 189 229 273
#     4   8  14  25  41  62  88 115 144 185 237 284
#     4   9  16  26  43  66  90 118 153 192 231 272
#     4   8  14  25  42  65  89 110 138 180 225 264
#     4  10  20  32  47  69  97 126 155 189 227 270
#     4   9  17  28  42  62  88 116 146 180 218 262
#     4   9  17  28  41  61  92 124 151 184 227 269
#     4   8  13  22  38  60  86 117 151 184 219 263
#
# _framework density 20.162706
#
# number of rings (size 3 to 8) (size 9 to 14) (size 15 to 20)
#    0.000    3.250    0.000    2.250    0.000    4.000 
#    0.000    6.250    0.000    0.750    0.000    5.250 
#    0.000    0.000    0.000    8.625    0.000    7.750 
#
# Total GULP energy -356583.110780 kJ/mol
# GULP energy per Si atom -5571.611106 kJ/mol
# Density = 2.011681 g / cm^3
# Si number density = 20.162706 Si / 1000 Ang^3
#
#
#
# Elastic Constant Matrix: (Units=GPa)
#
#
# Indices 1 2 3 4 5 6 
#
# 1 105.9036 115.4339 5.5612 0.0000 0.0000 0.0000
# 2 115.4339 208.3057 -0.6821 0.0000 0.0000 0.0000
# 3 5.5612 -0.6821 39.6677 0.0000 0.0000 0.0000
# 4 0.0000 0.0000 0.0000 204.5563 0.0000 0.0000
# 5 0.0000 0.0000 0.0000 0.0000 -5.7018 0.0000
# 6 0.0000 0.0000 0.0000 0.0000 0.0000 -5.7508
#
#
#
# Elastic Compliance Matrix: (Units=1/GPa)
#
#
# Indices 1 2 3 4 5 6 
#
# 1 0.024363 -0.013513 -0.003648 0.000000 0.000000 0.000000
# 2 -0.013513 0.012296 0.002106 0.000000 0.000000 0.000000
# 3 -0.003648 0.002106 0.025757 0.000000 0.000000 0.000000
# 4 0.000000 0.000000 0.000000 0.004889 0.000000 0.000000
# 5 0.000000 0.000000 0.000000 0.000000 -0.175382 0.000000
# 6 0.000000 0.000000 0.000000 0.000000 0.000000 -0.173888
#
#
# Mechanical properties :
#
#
# Convention : Reuss Voigt Hill
#
# Bulk Modulus (GPa) = 30.95403 66.05588 48.50496
# Shear Modulus (GPa) = -20.73942 54.19167 16.72612
#
# Velocity S-wave (km/s) = -3.21066 5.18994 2.88333
# Velocity P-wave (km/s) = 1.28100 8.29136 5.93243
#
# Compressibility (1/GPa) = 0.03230597
#
# Stress axis : x y z
#
# Youngs Moduli (GPa) = 41.04600 81.32905 38.82437
#
# Poissons Ratio (x) = 1.09898 0.14163
# Poissons Ratio (y) = 0.55465 -0.08176
# Poissons Ratio (z) = 0.14973 -0.17127
#
# Static dielectric constant tensor:
#      x y z
#    x 1.676940 0.000000 0.000000 
#    y 0.000000 1.738260 0.000000 
#    z 0.000000 0.000000 1.755140 
# 
# From -- ./inp_files/10010.got.cif
#   From: 2010.05.17/outbox.cif.g08.bks.cpg/sg47_6_cif.got.tgz:10010.got - 2010.06.03 20:15:42.
