data_PCOD9384775
_publ_section_title
;
Structure prediction by ZEFSAII (Michael W. Deem and Ramdas Pophale) SiO2 
 PCOD9384775
Probable space group: P M M M
;
_chemical_formula_sum "Si O2"
_cell_formula_units_Z 48
_cell_length_a 32.843892
_cell_length_b 7.516686
_cell_length_c 9.447367
_cell_angle_alpha 90.000000
_cell_angle_beta 90.000000
_cell_angle_gamma 90.000000
_cell_volume 2332.339731
_symmetry_space_group_name_H-M "P M M M"
_symmetry_group_IT_number 47
_symmetry_cell_setting 'orthorhombic'
loop_
_space_group_symop_operation_xyz
x,y,z
-x,-y,z
x,-y,-z
-x,y,-z
-x,-y,-z
x,y,-z
-x,y,z
x,-y,z
loop_
_atom_site_type_symbol
_atom_site_label
_atom_site_fract_x
_atom_site_fract_y
_atom_site_fract_z
Si Si1 0.954287 0.782980 0.663389
Si Si2 0.543842 0.785792 0.829536
Si Si3 0.279662 0.711846 0.838390
Si Si4 0.631265 0.785994 0.163700
Si Si5 0.877120 0.213751 0.839974
Si Si6 0.203389 0.713297 0.659962
O O1 0.947409 0.730191 0.500000
O O2 0.917944 0.720105 0.762864
O O3 0.000000 0.727720 0.705193
O O4 0.954004 0.000000 0.665241
O O5 0.500000 0.716894 0.776882
O O6 0.587886 0.721895 0.774869
O O7 0.543062 0.000000 0.809831
O O8 0.544520 0.756673 0.000000
O O9 0.274247 0.500000 0.849052
O O10 0.324755 0.740236 0.774762
O O11 0.242880 0.782681 0.743852
O O12 0.278484 0.783729 0.000000
O O13 0.629066 0.000000 0.160483
O O14 0.632917 0.722420 0.000000
O O15 0.837418 0.252365 0.747633
O O16 0.880641 0.000000 0.847184
O O17 0.872904 0.281354 0.000000
O O18 0.200502 0.782608 0.500000
O O19 0.207823 0.500000 0.651001
#
# Coordination Sequence:
#
# PCOD9384775 Si02
#       6
#     8   8   8   8   8   8
#     4   8  14  26  45  69  98 131 162 190 223 265
#     4   7   9  14  26  46  73 104 136 168 202 244
#     4   9  17  29  44  61  83 111 141 176 222 273
#     4   8  13  21  35  56  80 107 140 175 210 253
#     4  10  20  32  49  75 102 126 154 190 232 275
#     4  10  21  36  52  68  88 119 158 195 233 279
#
# _framework density 20.580192
#
# number of rings (size 3 to 8) (size 9 to 14) (size 15 to 20)
#    0.000    3.333    0.000    3.000    0.000    3.000 
#    0.000    3.333    0.000    1.000    0.000    7.000 
#    0.000    0.667    0.000    8.333    0.000    7.667 
#
# Total GULP energy -267400.139487 kJ/mol
# GULP energy per Si atom -5570.836239 kJ/mol
# Density = 2.053335 g / cm^3
# Si number density = 20.580192 Si / 1000 Ang^3
#
#
#
# Elastic Constant Matrix: (Units=GPa)
#
#
# Indices 1 2 3 4 5 6 
#
# 1 253.4972 2.2161 107.1946 0.0000 0.0000 0.0000
# 2 2.2161 52.5397 5.7807 0.0000 0.0000 0.0000
# 3 107.1946 5.7807 96.9163 0.0000 0.0000 0.0000
# 4 0.0000 0.0000 0.0000 6.3053 0.0000 0.0000
# 5 0.0000 0.0000 0.0000 0.0000 -51.7930 0.0000
# 6 0.0000 0.0000 0.0000 0.0000 0.0000 35.1249
#
#
#
# Elastic Compliance Matrix: (Units=1/GPa)
#
#
# Indices 1 2 3 4 5 6 
#
# 1 0.007429 0.000595 -0.008253 0.000000 0.000000 0.000000
# 2 0.000595 0.019207 -0.001803 0.000000 0.000000 0.000000
# 3 -0.008253 -0.001803 0.019554 0.000000 0.000000 0.000000
# 4 0.000000 0.000000 0.000000 0.158596 0.000000 0.000000
# 5 0.000000 0.000000 0.000000 0.000000 -0.019308 0.000000
# 6 0.000000 0.000000 0.000000 0.000000 0.000000 0.028470
#
#
# Mechanical properties :
#
#
# Convention : Reuss Voigt Hill
#
# Bulk Modulus (GPa) = 36.67460 70.37066 53.52263
# Shear Modulus (GPa) = 20.66460 17.11158 18.88809
#
# Velocity S-wave (km/s) = 3.17219 2.88663 3.03278
# Velocity P-wave (km/s) = 5.59250 6.73631 6.19088
#
# Compressibility (1/GPa) = 0.02726683
#
# Stress axis : x y z
#
# Youngs Moduli (GPa) = 134.59990 52.06558 51.14098
#
# Poissons Ratio (x) = -0.03096 0.42206
# Poissons Ratio (y) = -0.08004 0.09222
# Poissons Ratio (z) = 1.11083 0.09389
#
# Static dielectric constant tensor:
#      x y z
#    x 1.771750 0.000000 0.000000 
#    y 0.000000 1.788950 0.000000 
#    z 0.000000 0.000000 1.710800 
# 
# From -- ./inp_files/13166.got.cif
#   From: 2010.05.17/outbox.cif.g08.bks.cpg/sg47_7_cif.got.tgz:13166.got - 2010.06.03 20:15:42.
