data_PCOD9384333
_publ_section_title
;
Structure prediction by ZEFSAII (Michael W. Deem and Ramdas Pophale) SiO2 
 PCOD9384333
Probable space group: P M M M
;
_chemical_formula_sum "Si O2"
_cell_formula_units_Z 64
_cell_length_a 26.324045
_cell_length_b 14.966224
_cell_length_c 7.496973
_cell_angle_alpha 90.000000
_cell_angle_beta 90.000000
_cell_angle_gamma 90.000000
_cell_volume 2953.594104
_symmetry_space_group_name_H-M "P M M M"
_symmetry_group_IT_number 47
_symmetry_cell_setting 'orthorhombic'
loop_
_space_group_symop_operation_xyz
x,y,z
-x,-y,z
x,-y,-z
-x,y,-z
-x,-y,-z
x,y,-z
-x,y,z
x,-y,z
loop_
_atom_site_type_symbol
_atom_site_label
_atom_site_fract_x
_atom_site_fract_y
_atom_site_fract_z
Si Si1 0.579827 0.902008 0.285252
Si Si2 0.135828 0.745598 0.213366
Si Si3 0.343018 0.604371 0.218438
Si Si4 0.248686 0.719721 0.795599
Si Si5 0.699420 0.097716 0.715028
Si Si6 0.056368 0.102316 0.285848
Si Si7 0.056404 0.397777 0.217555
Si Si8 0.445312 0.701245 0.208649
O O1 0.574565 0.901378 0.500000
O O2 0.639723 0.898460 0.241420
O O3 0.557553 0.808928 0.219922
O O4 0.560928 0.000000 0.223895
O O5 0.192674 0.732000 0.285295
O O6 0.104366 0.836519 0.241110
O O7 0.099261 0.667993 0.283012
O O8 0.139797 0.736928 0.000000
O O9 0.344347 0.500000 0.266688
O O10 0.291750 0.654155 0.282387
O O11 0.393733 0.656733 0.281155
O O12 0.342675 0.609504 0.000000
O O13 0.272651 0.818268 0.794961
O O14 0.241975 0.688925 0.000000
O O15 0.703347 0.103239 0.500000
O O16 0.718913 0.000000 0.770262
O O17 0.054080 0.100499 0.500000
O O18 0.000000 0.134460 0.222984
O O19 0.062547 0.000000 0.223914
O O20 0.064567 0.500000 0.270872
O O21 0.000000 0.369843 0.274256
O O22 0.056788 0.396076 0.000000
O O23 0.500000 0.673088 0.286250
O O24 0.446072 0.677107 0.000000
#
# Coordination Sequence:
#
# PCOD9384333 Si02
#       8
#     8   8   8   8   8   8   8   8
#     4   9  18  33  53  76 102 134 169 204 249 304
#     4  10  20  31  48  77 107 132 165 210 256 302
#     4   9  18  34  54  74 100 135 173 213 259 309
#     4  10  20  33  50  75 104 134 168 207 255 306
#     4   9  18  33  53  74  96 128 169 206 243 294
#     4   9  19  36  55  74 100 138 180 215 251 299
#     4   8  14  26  45  69  97 127 157 193 241 293
#     4  10  20  33  52  79 107 135 171 214 258 306
#
# _framework density 21.668516
#
# number of rings (size 3 to 8) (size 9 to 14) (size 15 to 20)
#    0.000    2.750    1.250    1.875    0.000    3.750 
#    0.000    9.375    0.000    1.875    0.000    4.375 
#    0.000    0.000    0.000    0.000    0.000    0.000 
#
# Total GULP energy -357025.553228 kJ/mol
# GULP energy per Si atom -5578.524269 kJ/mol
# Density = 2.161920 g / cm^3
# Si number density = 21.668516 Si / 1000 Ang^3
#
#
#
# Elastic Constant Matrix: (Units=GPa)
#
#
# Indices 1 2 3 4 5 6 
#
# 1 205.4108 105.6411 12.9519 0.0000 0.0000 0.0000
# 2 105.6411 133.7235 -1.7282 0.0000 0.0000 0.0000
# 3 12.9519 -1.7282 56.3621 0.0000 0.0000 0.0000
# 4 0.0000 0.0000 0.0000 38.8119 0.0000 0.0000
# 5 0.0000 0.0000 0.0000 0.0000 -3.9639 0.0000
# 6 0.0000 0.0000 0.0000 0.0000 0.0000 17.2176
#
#
#
# Elastic Compliance Matrix: (Units=1/GPa)
#
#
# Indices 1 2 3 4 5 6 
#
# 1 0.008452 -0.006705 -0.002148 0.000000 0.000000 0.000000
# 2 -0.006705 0.012800 0.001933 0.000000 0.000000 0.000000
# 3 -0.002148 0.001933 0.018295 0.000000 0.000000 0.000000
# 4 0.000000 0.000000 0.000000 0.025765 0.000000 0.000000
# 5 0.000000 0.000000 0.000000 0.000000 -0.252277 0.000000
# 6 0.000000 0.000000 0.000000 0.000000 0.000000 0.058080
#
#
# Mechanical properties :
#
#
# Convention : Reuss Voigt Hill
#
# Bulk Modulus (GPa) = 38.89794 69.91399 54.40597
# Shear Modulus (GPa) = -46.95868 28.98855 -8.98506
#
# Velocity S-wave (km/s) = -4.66030 3.66159 -2.03853
# Velocity P-wave (km/s) = 3.31173 7.08601 4.42967
#
# Compressibility (1/GPa) = 0.02570830
#
# Stress axis : x y z
#
# Youngs Moduli (GPa) = 118.31640 78.12608 54.65896
#
# Poissons Ratio (x) = 0.52381 0.11740
# Poissons Ratio (y) = 0.79328 -0.10567
# Poissons Ratio (z) = 0.25412 -0.15103
#
# Static dielectric constant tensor:
#      x y z
#    x 1.802300 0.000000 0.000000 
#    y 0.000000 1.758950 0.000000 
#    z 0.000000 0.000000 1.839110 
# 
# From -- ./inp_files/12757.got.cif
#   From: 2010.05.17/outbox.cif.g08.bks.cpg/sg47_7_cif.got.tgz:12757.got - 2010.06.03 20:15:42.
