data_PCOD9384873
_publ_section_title
;
Structure prediction by ZEFSAII (Michael W. Deem and Ramdas Pophale) SiO2 
 PCOD9384873
Probable space group: P M M M
;
_chemical_formula_sum "Si O2"
_cell_formula_units_Z 44
_cell_length_a 7.986760
_cell_length_b 18.239396
_cell_length_c 15.906936
_cell_angle_alpha 90.000000
_cell_angle_beta 90.000000
_cell_angle_gamma 90.000000
_cell_volume 2317.221879
_symmetry_space_group_name_H-M "P M M M"
_symmetry_group_IT_number 47
_symmetry_cell_setting 'orthorhombic'
loop_
_space_group_symop_operation_xyz
x,y,z
-x,-y,z
x,-y,-z
-x,y,-z
-x,-y,-z
x,y,-z
-x,y,z
x,-y,z
loop_
_atom_site_type_symbol
_atom_site_label
_atom_site_fract_x
_atom_site_fract_y
_atom_site_fract_z
Si Si1 0.204226 0.416020 0.500000
Si Si2 0.801096 0.198729 0.265260
Si Si3 0.796240 0.358787 0.321028
Si Si4 0.701789 0.258733 0.906917
Si Si5 0.298777 0.915925 0.406409
Si Si6 0.698922 0.580077 0.852034
O O1 0.255165 0.500000 0.500000
O O2 0.259795 0.379776 0.586261
O O3 0.000000 0.413378 0.500000
O O4 0.738390 0.276573 0.301072
O O5 0.750512 0.203394 0.167498
O O6 0.746762 0.134460 0.327602
O O7 0.000000 0.200084 0.267799
O O8 0.728993 0.410860 0.247646
O O9 0.000000 0.361838 0.317523
O O10 0.500000 0.262733 0.906210
O O11 0.764859 0.342465 0.888991
O O12 0.757414 0.236551 0.000000
O O13 0.240400 0.890220 0.500000
O O14 0.500000 0.917609 0.409658
O O15 0.239988 0.000000 0.395593
O O16 0.500000 0.579301 0.869239
O O17 0.765695 0.500000 0.879666
#
# Coordination Sequence:
#
# PCOD9384873 Si02
#       6
#     4   8   8   8   8   8
#     4   9  16  26  41  59  82 119 166 208 239 277
#     4  10  20  32  51  77 105 135 166 209 256 300
#     4   9  18  30  44  63  89 126 168 205 244 297
#     4   9  18  33  52  72  97 133 175 215 258 311
#     4   9  19  36  57  81 109 140 171 201 237 290
#     4   9  17  29  45  66  93 122 159 213 267 307
#
# _framework density 18.988256
#
# number of rings (size 3 to 8) (size 9 to 14) (size 15 to 20)
#    0.000    2.818    0.000    1.636    1.273    3.273 
#    0.000    3.182    0.000    2.182    0.000    8.909 
#    0.000    0.000    0.000    0.000    0.000    0.000 
#
# Total GULP energy -245174.462020 kJ/mol
# GULP energy per Si atom -5572.146864 kJ/mol
# Density = 1.894504 g / cm^3
# Si number density = 18.988256 Si / 1000 Ang^3
#
#
#
# Elastic Constant Matrix: (Units=GPa)
#
#
# Indices 1 2 3 4 5 6 
#
# 1 15.6646 10.2536 9.2315 0.0000 0.0000 0.0000
# 2 10.2536 85.9529 68.2627 0.0000 0.0000 0.0000
# 3 9.2315 68.2627 164.0896 0.0000 0.0000 0.0000
# 4 0.0000 0.0000 0.0000 8.2682 0.0000 0.0000
# 5 0.0000 0.0000 0.0000 0.0000 -1.8389 0.0000
# 6 0.0000 0.0000 0.0000 0.0000 0.0000 12.2724
#
#
#
# Elastic Compliance Matrix: (Units=1/GPa)
#
#
# Indices 1 2 3 4 5 6 
#
# 1 0.069297 -0.007722 -0.000686 0.000000 0.000000 0.000000
# 2 -0.007722 0.018235 -0.007152 0.000000 0.000000 0.000000
# 3 -0.000686 -0.007152 0.009108 0.000000 0.000000 0.000000
# 4 0.000000 0.000000 0.000000 0.120946 0.000000 0.000000
# 5 0.000000 0.000000 0.000000 0.000000 -0.543804 0.000000
# 6 0.000000 0.000000 0.000000 0.000000 0.000000 0.081484
#
#
# Mechanical properties :
#
#
# Convention : Reuss Voigt Hill
#
# Bulk Modulus (GPa) = 15.26224 49.02251 32.14237
# Shear Modulus (GPa) = -26.07216 15.60429 -5.23394
#
# Velocity S-wave (km/s) = -3.70951 2.86979 -1.66204
# Velocity P-wave (km/s) = 3.20814 6.07077 3.64432
#
# Compressibility (1/GPa) = 0.06552118
#
# Stress axis : x y z
#
# Youngs Moduli (GPa) = 14.43063 54.83936 109.79421
#
# Poissons Ratio (x) = 0.42345 0.07536
# Poissons Ratio (y) = 0.11143 0.78520
# Poissons Ratio (z) = 0.00990 0.39219
#
# Static dielectric constant tensor:
#      x y z
#    x 1.675850 0.000000 0.000000 
#    y 0.000000 1.664070 0.000000 
#    z 0.000000 0.000000 1.688830 
# 
# From -- ./inp_files/20906.got.cif
#   From: 2010.05.17/outbox.cif.g08.bks.cpg/sg47_11_cif.got.tgz:20906.got - 2010.06.03 20:15:42.
