data_PCOD9384033
_publ_section_title
;
Structure prediction by ZEFSAII (Michael W. Deem and Ramdas Pophale) SiO2 
 PCOD9384033
Probable space group: P M M M
;
_chemical_formula_sum "Si O2"
_cell_formula_units_Z 33
_cell_length_a 11.779742
_cell_length_b 9.051063
_cell_length_c 17.366495
_cell_angle_alpha 90.000000
_cell_angle_beta 90.000000
_cell_angle_gamma 90.000000
_cell_volume 1851.601577
_symmetry_space_group_name_H-M "P M M M"
_symmetry_group_IT_number 47
_symmetry_cell_setting 'orthorhombic'
loop_
_space_group_symop_operation_xyz
x,y,z
-x,-y,z
x,-y,-z
-x,y,-z
-x,-y,-z
x,y,-z
-x,y,z
x,-y,z
loop_
_atom_site_type_symbol
_atom_site_label
_atom_site_fract_x
_atom_site_fract_y
_atom_site_fract_z
Si Si1 0.261745 0.164404 0.000000
Si Si2 0.000000 0.826388 0.408361
Si Si3 0.636019 0.829305 0.413022
Si Si4 0.195891 0.675185 0.688624
Si Si5 0.500000 0.000000 0.000000
Si Si6 0.134269 0.176923 0.850074
O O1 0.396187 0.127319 0.000000
O O2 0.212232 0.230385 0.921360
O O3 0.205718 0.000000 0.000000
O O4 0.107321 0.748049 0.370416
O O5 0.000000 0.812275 0.500000
O O6 0.000000 0.000000 0.388550
O O7 0.672016 0.785232 0.500000
O O8 0.500000 0.828313 0.411941
O O9 0.684878 0.727026 0.346683
O O10 0.673434 0.000000 0.401465
O O11 0.184528 0.500000 0.689916
O O12 0.170219 0.741586 0.772209
O O13 0.000000 0.200655 0.865194
O O14 0.151151 0.000000 0.838435
#
# Coordination Sequence:
#
# PCOD9384033 Si02
#       6
#     4   4   8   8   1   8
#     4   8  17  34  59  89 116 145 183 238 294 336
#     4  11  23  39  59  80 109 154 205 251 296 347
#     4   9  19  38  61  82 106 145 200 251 291 341
#     4  12  24  36  53  84 123 155 189 239 298 354
#     4   8  16  36  58  96 130 128 186 254 294 336
#     4  10  19  35  59  84 114 150 196 239 281 341
#
# _framework density 17.822409
#
# number of rings (size 3 to 8) (size 9 to 14) (size 15 to 20)
#    0.364    1.576    1.212    4.364    0.000    6.303 
#    2.182    1.818    0.000    1.455    0.000    0.848 
#    0.000    0.000    0.000    0.000    0.000    0.000 
#
# Total GULP energy -183728.624152 kJ/mol
# GULP energy per Si atom -5567.534065 kJ/mol
# Density = 1.778184 g / cm^3
# Si number density = 17.822409 Si / 1000 Ang^3
#
#
#
# Elastic Constant Matrix: (Units=GPa)
#
#
# Indices 1 2 3 4 5 6 
#
# 1 89.2720 44.1975 63.6267 0.0000 0.0000 0.0000
# 2 44.1975 90.5320 71.0279 0.0000 0.0000 0.0000
# 3 63.6267 71.0279 119.9000 0.0000 0.0000 0.0000
# 4 0.0000 0.0000 0.0000 -13.0078 0.0000 0.0000
# 5 0.0000 0.0000 0.0000 0.0000 -111.8549 0.0000
# 6 0.0000 0.0000 0.0000 0.0000 0.0000 -12.0914
#
#
#
# Elastic Compliance Matrix: (Units=1/GPa)
#
#
# Indices 1 2 3 4 5 6 
#
# 1 0.018304 -0.002457 -0.008257 0.000000 0.000000 0.000000
# 2 -0.002457 0.020967 -0.011117 0.000000 0.000000 0.000000
# 3 -0.008257 -0.011117 0.019308 0.000000 0.000000 0.000000
# 4 0.000000 0.000000 0.000000 -0.076877 0.000000 0.000000
# 5 0.000000 0.000000 0.000000 0.000000 -0.008940 0.000000
# 6 0.000000 0.000000 0.000000 0.000000 0.000000 -0.082704
#
#
# Mechanical properties :
#
#
# Convention : Reuss Voigt Hill
#
# Bulk Modulus (GPa) = 67.04436 73.04536 70.04486
# Shear Modulus (GPa) = -81.55714 -19.33403 -50.44558
#
# Velocity S-wave (km/s) = -6.77203 -3.29723 -5.32598
# Velocity P-wave (km/s) = 4.84226 5.15543 1.25120
#
# Compressibility (1/GPa) = 0.01491550
#
# Stress axis : x y z
#
# Youngs Moduli (GPa) = 54.63409 47.69309 51.79275
#
# Poissons Ratio (x) = 0.11720 0.42767
# Poissons Ratio (y) = 0.13426 0.57577
# Poissons Ratio (z) = 0.45113 0.53020
#
# Static dielectric constant tensor:
#      x y z
#    x 1.672130 0.000000 0.000000 
#    y 0.000000 1.599220 0.000000 
#    z 0.000000 0.000000 1.619070 
# 
# From -- ./inp_files/18184.got.cif
#   From: 2010.05.17/outbox.cif.g08.bks.cpg/sg47_10_cif.got.tgz:18184.got - 2010.06.03 20:15:42.
