data_PCOD9384989
_publ_section_title
;
Structure prediction by ZEFSAII (Michael W. Deem and Ramdas Pophale) SiO2 
 PCOD9384989
Probable space group: P M M M
;
_chemical_formula_sum "Si O2"
_cell_formula_units_Z 44
_cell_length_a 9.016546
_cell_length_b 29.495507
_cell_length_c 9.341565
_cell_angle_alpha 90.000000
_cell_angle_beta 90.000000
_cell_angle_gamma 90.000000
_cell_volume 2484.366751
_symmetry_space_group_name_H-M "P M M M"
_symmetry_group_IT_number 47
_symmetry_cell_setting 'orthorhombic'
loop_
_space_group_symop_operation_xyz
x,y,z
-x,-y,z
x,-y,-z
-x,y,-z
-x,-y,-z
x,y,-z
-x,y,z
x,-y,z
loop_
_atom_site_type_symbol
_atom_site_label
_atom_site_fract_x
_atom_site_fract_y
_atom_site_fract_z
Si Si1 0.171229 0.000000 0.825191
Si Si2 0.678758 0.729726 0.667798
Si Si3 0.319389 0.550629 0.666371
Si Si4 0.680973 0.360888 0.835659
Si Si5 0.823214 0.813691 0.830454
Si Si6 0.670641 0.907588 0.174332
O O1 0.252045 0.954048 0.777722
O O2 0.000000 0.000000 0.781959
O O3 0.174618 0.000000 0.000000
O O4 0.714880 0.727922 0.500000
O O5 0.500000 0.733442 0.681261
O O6 0.725385 0.683224 0.745691
O O7 0.752572 0.772618 0.743369
O O8 0.277946 0.557233 0.500000
O O9 0.500000 0.550768 0.670326
O O10 0.271927 0.500000 0.711565
O O11 0.268234 0.592382 0.762544
O O12 0.500000 0.361686 0.834594
O O13 0.728807 0.357479 0.000000
O O14 0.756130 0.862011 0.783511
O O15 0.000000 0.814368 0.814408
O O16 0.789257 0.807897 0.000000
O O17 0.500000 0.905869 0.220146
O O18 0.672555 0.908468 0.000000
#
# Coordination Sequence:
#
# PCOD9384989 Si02
#       6
#     4   8   8   8   8   8
#     4   9  15  23  37  61  96 133 166 201 242 287
#     4  10  20  33  49  68  91 122 160 200 243 294
#     4   8  13  21  33  51  80 119 158 194 235 285
#     4   9  16  25  39  60  86 117 154 197 243 290
#     4  10  20  33  49  70  96 125 158 199 248 297
#     4   9  16  26  42  65  94 128 164 201 242 289
#
# _framework density 17.710750000000001
#
# number of rings (size 3 to 8) (size 9 to 14) (size 15 to 20)
#    0.000    2.818    0.000    3.000    0.000    8.000 
#    0.000    1.818    0.000    0.000    0.000    0.636 
#    0.000    5.818    0.000    7.636    0.000   10.545 
#
# Total GULP energy -245293.331824 kJ/mol
# GULP energy per Si atom -5574.848451 kJ/mol
# Density = 1.767044 g / cm^3
# Si number density = 17.710750 Si / 1000 Ang^3
#
#
#
# Elastic Constant Matrix: (Units=GPa)
#
#
# Indices 1 2 3 4 5 6 
#
# 1 41.3865 59.6217 42.1844 0.0000 0.0000 0.0000
# 2 59.6217 222.2442 99.2892 0.0000 0.0000 0.0000
# 3 42.1844 99.2892 84.9219 0.0000 0.0000 0.0000
# 4 0.0000 0.0000 0.0000 -16.3748 0.0000 0.0000
# 5 0.0000 0.0000 0.0000 0.0000 10.9141 0.0000
# 6 0.0000 0.0000 0.0000 0.0000 0.0000 -8.9237
#
#
#
# Elastic Compliance Matrix: (Units=1/GPa)
#
#
# Indices 1 2 3 4 5 6 
#
# 1 0.051461 -0.004993 -0.019725 0.000000 0.000000 0.000000
# 2 -0.004993 0.009905 -0.009100 0.000000 0.000000 0.000000
# 3 -0.019725 -0.009100 0.032213 0.000000 0.000000 0.000000
# 4 0.000000 0.000000 0.000000 -0.061070 0.000000 0.000000
# 5 0.000000 0.000000 0.000000 0.000000 0.091625 0.000000
# 6 0.000000 0.000000 0.000000 0.000000 0.000000 -0.112061
#
#
# Mechanical properties :
#
#
# Convention : Reuss Voigt Hill
#
# Bulk Modulus (GPa) = 38.54659 83.41593 60.98126
# Shear Modulus (GPa) = 56.58935 6.95361 31.77148
#
# Velocity S-wave (km/s) = 5.65874 1.98362 4.24005
# Velocity P-wave (km/s) = 8.03162 7.24207 7.64704
#
# Compressibility (1/GPa) = 0.02594263
#
# Stress axis : x y z
#
# Youngs Moduli (GPa) = 19.43224 100.96409 31.04333
#
# Poissons Ratio (x) = 0.50414 0.61232
# Poissons Ratio (y) = 0.09703 0.28249
# Poissons Ratio (z) = 0.38330 0.91875
#
# Static dielectric constant tensor:
#      x y z
#    x 1.588980 0.000000 0.000000 
#    y 0.000000 1.591960 0.000000 
#    z 0.000000 0.000000 1.591010 
# 
# From -- ./inp_files/2306.got.cif
#   From: 2010.05.17/outbox.cif.g08.bks.cpg/sg47_2_cif.got.tgz:2306.got - 2010.06.03 20:15:42.
