data_PCOD9384583
_publ_section_title
;
Structure prediction by ZEFSAII (Michael W. Deem and Ramdas Pophale) SiO2 
 PCOD9384583
Probable space group: P M M M
;
_chemical_formula_sum "Si O2"
_cell_formula_units_Z 44
_cell_length_a 9.799838
_cell_length_b 7.591747
_cell_length_c 29.451741
_cell_angle_alpha 90.000000
_cell_angle_beta 90.000000
_cell_angle_gamma 90.000000
_cell_volume 2191.147409
_symmetry_space_group_name_H-M "P M M M"
_symmetry_group_IT_number 47
_symmetry_cell_setting 'orthorhombic'
loop_
_space_group_symop_operation_xyz
x,y,z
-x,-y,z
x,-y,-z
-x,y,-z
-x,-y,-z
x,y,-z
-x,y,z
x,-y,z
loop_
_atom_site_type_symbol
_atom_site_label
_atom_site_fract_x
_atom_site_fract_y
_atom_site_fract_z
Si Si1 0.344716 0.208797 0.234956
Si Si2 0.846127 0.291564 0.318729
Si Si3 0.157599 0.284917 0.949415
Si Si4 0.345058 0.288278 0.132449
Si Si5 0.665801 0.703295 0.500000
Si Si6 0.657996 0.716467 0.400577
O O1 0.500000 0.280957 0.240692
O O2 0.239813 0.272044 0.272693
O O3 0.298652 0.248278 0.183588
O O4 0.353101 0.000000 0.239768
O O5 0.857917 0.500000 0.327021
O O6 0.756264 0.221268 0.360589
O O7 0.000000 0.219501 0.315616
O O8 0.159503 0.500000 0.948886
O O9 0.249672 0.222066 0.907929
O O10 0.000000 0.232074 0.943879
O O11 0.203851 0.231282 0.000000
O O12 0.500000 0.221240 0.128095
O O13 0.349380 0.500000 0.128528
O O14 0.712593 0.500000 0.500000
O O15 0.500000 0.701599 0.500000
O O16 0.703296 0.778246 0.450829
O O17 0.500000 0.767768 0.392607
O O18 0.658019 0.500000 0.401555
#
# Coordination Sequence:
#
# PCOD9384583 Si02
#       6
#     8   8   8   8   4   8
#     4  10  21  36  52  69  91 122 160 200 242 287
#     4  10  20  32  47  70  98 126 158 195 235 281
#     4   8  14  25  42  66  95 123 150 182 221 266
#     4   9  17  29  47  71  95 118 148 189 234 277
#     4   7  10  18  35  61  90 119 152 187 224 268
#     4   8  13  23  41  64  91 123 156 190 228 271
#
# _framework density 20.080803
#
# number of rings (size 3 to 8) (size 9 to 14) (size 15 to 20)
#    0.000    3.182    0.000    2.727    0.000    3.273 
#    0.000    4.091    0.000    3.273    0.000    4.455 
#    0.000    5.091    0.000    0.000    0.000    0.000 
#
# Total GULP energy -245284.558141 kJ/mol
# GULP energy per Si atom -5574.649049 kJ/mol
# Density = 2.003510 g / cm^3
# Si number density = 20.080803 Si / 1000 Ang^3
#
#
#
# Elastic Constant Matrix: (Units=GPa)
#
#
# Indices 1 2 3 4 5 6 
#
# 1 113.4037 4.9899 128.0478 0.0000 0.0000 0.0000
# 2 4.9899 42.9984 -1.9531 0.0000 0.0000 0.0000
# 3 128.0478 -1.9531 223.0885 0.0000 0.0000 0.0000
# 4 0.0000 0.0000 0.0000 -47.9410 0.0000 0.0000
# 5 0.0000 0.0000 0.0000 0.0000 12.1639 0.0000
# 6 0.0000 0.0000 0.0000 0.0000 0.0000 0.9559
#
#
#
# Elastic Compliance Matrix: (Units=1/GPa)
#
#
# Indices 1 2 3 4 5 6 
#
# 1 0.025616 -0.003642 -0.014735 0.000000 0.000000 0.000000
# 2 -0.003642 0.023784 0.002299 0.000000 0.000000 0.000000
# 3 -0.014735 0.002299 0.012960 0.000000 0.000000 0.000000
# 4 0.000000 0.000000 0.000000 -0.020859 0.000000 0.000000
# 5 0.000000 0.000000 0.000000 0.000000 0.082210 0.000000
# 6 0.000000 0.000000 0.000000 0.000000 0.000000 1.046182
#
#
# Mechanical properties :
#
#
# Convention : Reuss Voigt Hill
#
# Bulk Modulus (GPa) = 33.10887 71.29554 52.20220
# Shear Modulus (GPa) = 4.12501 9.59615 6.86058
#
# Velocity S-wave (km/s) = 1.43481 2.18841 1.85038
# Velocity P-wave (km/s) = 4.38959 6.47819 5.53333
#
# Compressibility (1/GPa) = 0.03020339
#
# Stress axis : x y z
#
# Youngs Moduli (GPa) = 39.03827 42.04557 77.15978
#
# Poissons Ratio (x) = 0.15313 1.13694
# Poissons Ratio (y) = 0.14218 -0.17736
# Poissons Ratio (z) = 0.57522 -0.09665
#
# Static dielectric constant tensor:
#      x y z
#    x 1.676360 0.000000 0.000000 
#    y 0.000000 1.747100 0.000000 
#    z 0.000000 0.000000 1.708710 
# 
# From -- ./inp_files/2290.got.cif
#   From: 2010.05.17/outbox.cif.g08.bks.cpg/sg47_2_cif.got.tgz:2290.got - 2010.06.03 20:15:42.
