data_PCOD9384853
_publ_section_title
;
Structure prediction by ZEFSAII (Michael W. Deem and Ramdas Pophale) SiO2 
 PCOD9384853
Probable space group: P M M M
;
_chemical_formula_sum "Si O2"
_cell_formula_units_Z 40
_cell_length_a 8.235165
_cell_length_b 9.166444
_cell_length_c 28.671175
_cell_angle_alpha 90.000000
_cell_angle_beta 90.000000
_cell_angle_gamma 90.000000
_cell_volume 2164.306114
_symmetry_space_group_name_H-M "P M M M"
_symmetry_group_IT_number 47
_symmetry_cell_setting 'orthorhombic'
loop_
_space_group_symop_operation_xyz
x,y,z
-x,-y,z
x,-y,-z
-x,y,-z
-x,-y,-z
x,y,-z
-x,y,z
x,-y,z
loop_
_atom_site_type_symbol
_atom_site_label
_atom_site_fract_x
_atom_site_fract_y
_atom_site_fract_z
Si Si1 0.193753 0.835097 0.500000
Si Si2 0.311840 0.178525 0.114342
Si Si3 0.000000 0.822162 0.946194
Si Si4 0.693721 0.665186 0.591531
Si Si5 0.193445 0.831897 0.683165
Si Si6 0.305063 0.167369 0.218179
O O1 0.246586 0.752539 0.453428
O O2 0.000000 0.841903 0.500000
O O3 0.259462 0.000000 0.500000
O O4 0.500000 0.221372 0.103361
O O5 0.166854 0.223024 0.079804
O O6 0.268518 0.229434 0.167006
O O7 0.313998 0.000000 0.115428
O O8 0.000000 0.000000 0.945407
O O9 0.000000 0.775695 0.000000
O O10 0.500000 0.659934 0.589227
O O11 0.758207 0.500000 0.590516
O O12 0.741984 0.743183 0.639421
O O13 0.241615 0.767189 0.733634
O O14 0.000000 0.836324 0.680393
O O15 0.255444 0.000000 0.680864
O O16 0.500000 0.162729 0.220822
O O17 0.242012 0.000000 0.217790
#
# Coordination Sequence:
#
# PCOD9384853 Si02
#       6
#     4   8   4   8   8   8
#     4  11  24  41  62  86 108 131 166 211 254 296
#     4   8  14  23  34  49  72 105 147 195 247 299
#     4   9  16  22  30  46  70 106 151 198 247 296
#     4  11  24  40  57  78 105 138 173 205 245 300
#     4  10  20  32  50  77 103 128 163 208 255 302
#     4   8  14  25  41  61  85 115 151 196 249 297
#
# _framework density 18.481676
#
# number of rings (size 3 to 8) (size 9 to 14) (size 15 to 20)
#    0.000    2.600    0.000    3.600    1.400    7.600 
#    0.000    2.000    0.000    0.000    0.000    0.000 
#    0.000    0.000    0.000    0.000    0.000    2.000 
#
# Total GULP energy -222906.601536 kJ/mol
# GULP energy per Si atom -5572.665038 kJ/mol
# Density = 1.843961 g / cm^3
# Si number density = 18.481676 Si / 1000 Ang^3
#
#
#
# Elastic Constant Matrix: (Units=GPa)
#
#
# Indices 1 2 3 4 5 6 
#
# 1 78.3234 24.5269 81.7123 0.0000 0.0000 0.0000
# 2 24.5269 51.9371 51.2280 0.0000 0.0000 0.0000
# 3 81.7123 51.2280 196.3074 0.0000 0.0000 0.0000
# 4 0.0000 0.0000 0.0000 -8.3175 0.0000 0.0000
# 5 0.0000 0.0000 0.0000 0.0000 41.1184 0.0000
# 6 0.0000 0.0000 0.0000 0.0000 0.0000 14.3962
#
#
#
# Elastic Compliance Matrix: (Units=1/GPa)
#
#
# Indices 1 2 3 4 5 6 
#
# 1 0.022704 -0.001886 -0.008958 0.000000 0.000000 0.000000
# 2 -0.001886 0.026084 -0.006022 0.000000 0.000000 0.000000
# 3 -0.008958 -0.006022 0.010394 0.000000 0.000000 0.000000
# 4 0.000000 0.000000 0.000000 -0.120229 0.000000 0.000000
# 5 0.000000 0.000000 0.000000 0.000000 0.024320 0.000000
# 6 0.000000 0.000000 0.000000 0.000000 0.000000 0.069463
#
#
# Mechanical properties :
#
#
# Convention : Reuss Voigt Hill
#
# Bulk Modulus (GPa) = 39.29177 71.27804 55.28490
# Shear Modulus (GPa) = 66.70863 20.71280 43.71072
#
# Velocity S-wave (km/s) = 6.01439 3.35135 4.86849
# Velocity P-wave (km/s) = 8.33885 7.32298 7.84737
#
# Compressibility (1/GPa) = 0.02545062
#
# Stress axis : x y z
#
# Youngs Moduli (GPa) = 44.04483 38.33717 96.20519
#
# Poissons Ratio (x) = 0.07229 0.86185
# Poissons Ratio (y) = 0.08306 0.57935
# Poissons Ratio (z) = 0.39457 0.23087
#
# Static dielectric constant tensor:
#      x y z
#    x 1.634220 0.000000 0.000000 
#    y 0.000000 1.632520 0.000000 
#    z 0.000000 0.000000 1.688000 
# 
# From -- ./inp_files/33032.got.cif
#   From: 2010.05.17/outbox.cif.g08.bks.cpg/sg47_17_cif.got.tgz:33032.got - 2010.06.03 20:15:42.
