data_PCOD9384530
_publ_section_title
;
Structure prediction by ZEFSAII (Michael W. Deem and Ramdas Pophale) SiO2 
 PCOD9384530
Probable space group: P M M M
;
_chemical_formula_sum "Si O2"
_cell_formula_units_Z 48
_cell_length_a 32.838046
_cell_length_b 7.353850
_cell_length_c 9.505134
_cell_angle_alpha 90.000000
_cell_angle_beta 90.000000
_cell_angle_gamma 90.000000
_cell_volume 2295.357403
_symmetry_space_group_name_H-M "P M M M"
_symmetry_group_IT_number 47
_symmetry_cell_setting 'orthorhombic'
loop_
_space_group_symop_operation_xyz
x,y,z
-x,-y,z
x,-y,-z
-x,y,-z
-x,-y,-z
x,y,-z
-x,y,z
x,-y,z
loop_
_atom_site_type_symbol
_atom_site_label
_atom_site_fract_x
_atom_site_fract_y
_atom_site_fract_z
Si Si1 0.131536 0.218288 0.831168
Si Si2 0.700818 0.222445 0.338505
Si Si3 0.375542 0.785564 0.157827
Si Si4 0.220486 0.221920 0.163639
Si Si5 0.956115 0.779379 0.832518
Si Si6 0.545719 0.718622 0.659751
O O1 0.175881 0.283026 0.782604
O O2 0.087720 0.285468 0.776053
O O3 0.131271 0.000000 0.811261
O O4 0.131568 0.249280 0.000000
O O5 0.700175 0.280748 0.500000
O O6 0.660846 0.285966 0.255028
O O7 0.741624 0.279530 0.257451
O O8 0.700701 0.000000 0.339190
O O9 0.418858 0.767770 0.233666
O O10 0.367508 0.000000 0.145749
O O11 0.375832 0.709889 0.000000
O O12 0.219999 0.000000 0.163906
O O13 0.225557 0.275672 0.000000
O O14 0.000000 0.716889 0.774997
O O15 0.955953 0.000000 0.822053
O O16 0.956256 0.738284 0.000000
O O17 0.554757 0.781209 0.500000
O O18 0.500000 0.780810 0.697606
O O19 0.544544 0.500000 0.655687
#
# Coordination Sequence:
#
# PCOD9384530 Si02
#       6
#     8   8   8   8   8   8
#     4   7   9  12  18  29  45  67  95 127 168 219
#     4   9  16  25  37  53  74 100 129 161 199 243
#     4  10  20  32  47  69  95 120 147 180 217 256
#     4   8  12  18  28  41  59  83 110 142 183 232
#     4   7   8   9  13  22  38  60  86 119 162 212
#     4   9  19  36  55  73  94 121 151 180 211 249
#
# _framework density 20.911774999999999
#
# number of rings (size 3 to 8) (size 9 to 14) (size 15 to 20)
#    0.000    3.667    0.000    4.000    0.000    4.000 
#    0.000    2.500    0.000    0.000    0.000    0.000 
#    0.000    0.667    0.000    9.333    0.000    8.333 
#
# Total GULP energy -267404.010392 kJ/mol
# GULP energy per Si atom -5570.916883 kJ/mol
# Density = 2.086418 g / cm^3
# Si number density = 20.911775 Si / 1000 Ang^3
#
#
#
# Elastic Constant Matrix: (Units=GPa)
#
#
# Indices 1 2 3 4 5 6 
#
# 1 245.0429 2.9016 117.7436 0.0000 0.0000 0.0000
# 2 2.9016 72.9539 4.6502 0.0000 0.0000 0.0000
# 3 117.7436 4.6502 109.1761 0.0000 0.0000 0.0000
# 4 0.0000 0.0000 0.0000 17.6714 0.0000 0.0000
# 5 0.0000 0.0000 0.0000 0.0000 -219.1424 0.0000
# 6 0.0000 0.0000 0.0000 0.0000 0.0000 144.3515
#
#
#
# Elastic Compliance Matrix: (Units=1/GPa)
#
#
# Indices 1 2 3 4 5 6 
#
# 1 0.008475 0.000246 -0.009150 0.000000 0.000000 0.000000
# 2 0.000246 0.013752 -0.000851 0.000000 0.000000 0.000000
# 3 -0.009150 -0.000851 0.019064 0.000000 0.000000 0.000000
# 4 0.000000 0.000000 0.000000 0.056589 0.000000 0.000000
# 5 0.000000 0.000000 0.000000 0.000000 -0.004563 0.000000
# 6 0.000000 0.000000 0.000000 0.000000 0.000000 0.006928
#
#
# Mechanical properties :
#
#
# Convention : Reuss Voigt Hill
#
# Bulk Modulus (GPa) = 45.91384 75.30708 60.61046
# Shear Modulus (GPa) = 39.36576 8.70129 24.03352
#
# Velocity S-wave (km/s) = 4.34345 2.04205 3.39378
# Velocity P-wave (km/s) = 6.86715 6.45368 6.66362
#
# Compressibility (1/GPa) = 0.02177993
#
# Stress axis : x y z
#
# Youngs Moduli (GPa) = 117.99813 72.71804 52.45470
#
# Poissons Ratio (x) = -0.01790 0.47997
# Poissons Ratio (y) = -0.02905 0.04465
# Poissons Ratio (z) = 1.07971 0.06190
#
# Static dielectric constant tensor:
#      x y z
#    x 1.788280 0.000000 0.000000 
#    y 0.000000 1.862070 0.000000 
#    z 0.000000 0.000000 1.695070 
# 
# From -- ./inp_files/14067.got.cif
#   From: 2010.05.17/outbox.cif.g08.bks.cpg/sg47_8_cif.got.tgz:14067.got - 2010.06.03 20:15:42.
