data_PCOD9384814
_publ_section_title
;
Structure prediction by ZEFSAII (Michael W. Deem and Ramdas Pophale) SiO2 
 PCOD9384814
Probable space group: P M M M
;
_chemical_formula_sum "Si O2"
_cell_formula_units_Z 48
_cell_length_a 7.867551
_cell_length_b 32.260506
_cell_length_c 9.422781
_cell_angle_alpha 90.000000
_cell_angle_beta 90.000000
_cell_angle_gamma 90.000000
_cell_volume 2391.607129
_symmetry_space_group_name_H-M "P M M M"
_symmetry_group_IT_number 47
_symmetry_cell_setting 'orthorhombic'
loop_
_space_group_symop_operation_xyz
x,y,z
-x,-y,z
x,-y,-z
-x,y,-z
-x,-y,-z
x,y,-z
-x,y,z
x,-y,z
loop_
_atom_site_type_symbol
_atom_site_label
_atom_site_fract_x
_atom_site_fract_y
_atom_site_fract_z
Si Si1 0.292578 0.546572 0.836105
Si Si2 0.705335 0.625816 0.661424
Si Si3 0.202622 0.785493 0.339801
Si Si4 0.795357 0.955340 0.166577
Si Si5 0.204873 0.292863 0.161480
Si Si6 0.701066 0.134776 0.837461
O O1 0.500000 0.546739 0.833822
O O2 0.238851 0.500000 0.795089
O O3 0.233351 0.583513 0.735653
O O4 0.242390 0.553845 0.000000
O O5 0.767318 0.629917 0.500000
O O6 0.500000 0.623827 0.657313
O O7 0.752939 0.665384 0.754834
O O8 0.272095 0.786108 0.500000
O O9 0.270561 0.747127 0.247268
O O10 0.230065 0.828539 0.258849
O O11 0.000000 0.779410 0.350191
O O12 0.735718 0.911203 0.223536
O O13 0.000000 0.955154 0.171286
O O14 0.737609 0.000000 0.226796
O O15 0.744086 0.955247 0.000000
O O16 0.000000 0.289662 0.154610
O O17 0.269443 0.293831 0.000000
O O18 0.500000 0.139990 0.846101
O O19 0.770791 0.136940 0.000000
#
# Coordination Sequence:
#
# PCOD9384814 Si02
#       6
#     8   8   8   8   8   8
#     4   8  14  26  45  69  98 133 172 212 252 294
#     4  10  20  32  49  76 107 137 168 204 250 302
#     4  10  21  37  56  75  96 127 167 208 251 300
#     4   8  14  26  46  72 101 134 172 212 251 291
#     4  10  21  37  57  78  99 128 167 209 254 303
#     4  10  20  32  49  76 107 137 168 204 250 301
#
# _framework density 20.070184000000001
#
# number of rings (size 3 to 8) (size 9 to 14) (size 15 to 20)
#    0.000    2.667    0.000    3.000    0.000    5.333 
#    0.000    3.333    0.000    1.000    0.000    7.000 
#    0.000    0.000    0.000    0.000    0.000    0.000 
#
# Total GULP energy -267743.500002 kJ/mol
# GULP energy per Si atom -5577.989583 kJ/mol
# Density = 2.002450 g / cm^3
# Si number density = 20.070184 Si / 1000 Ang^3
#
#
#
# Elastic Constant Matrix: (Units=GPa)
#
#
# Indices 1 2 3 4 5 6 
#
# 1 18.4949 1.0831 8.7250 0.0000 0.0000 0.0000
# 2 1.0831 205.2936 117.1984 0.0000 0.0000 0.0000
# 3 8.7250 117.1984 147.1608 0.0000 0.0000 0.0000
# 4 0.0000 0.0000 0.0000 -18.6286 0.0000 0.0000
# 5 0.0000 0.0000 0.0000 0.0000 14.3298 0.0000
# 6 0.0000 0.0000 0.0000 0.0000 0.0000 24.8559
#
#
#
# Elastic Compliance Matrix: (Units=1/GPa)
#
#
# Indices 1 2 3 4 5 6 
#
# 1 0.056592 0.002965 -0.005716 0.000000 0.000000 0.000000
# 2 0.002965 0.009087 -0.007413 0.000000 0.000000 0.000000
# 3 -0.005716 -0.007413 0.013038 0.000000 0.000000 0.000000
# 4 0.000000 0.000000 0.000000 -0.053681 0.000000 0.000000
# 5 0.000000 0.000000 0.000000 0.000000 0.069785 0.000000
# 6 0.000000 0.000000 0.000000 0.000000 0.000000 0.040232
#
#
# Mechanical properties :
#
#
# Convention : Reuss Voigt Hill
#
# Bulk Modulus (GPa) = 17.12674 69.44027 43.28350
# Shear Modulus (GPa) = 28.59680 20.37426 24.48553
#
# Velocity S-wave (km/s) = 3.77880 3.18960 3.49663
# Velocity P-wave (km/s) = 5.25272 6.94540 6.15750
#
# Compressibility (1/GPa) = 0.05838823
#
# Stress axis : x y z
#
# Youngs Moduli (GPa) = 17.67030 110.04348 76.69992
#
# Poissons Ratio (x) = -0.32626 0.43845
# Poissons Ratio (y) = -0.05239 0.56857
# Poissons Ratio (z) = 0.10101 0.81574
#
# Static dielectric constant tensor:
#      x y z
#    x 1.742490 0.000000 0.000000 
#    y 0.000000 1.703120 0.000000 
#    z 0.000000 0.000000 1.697780 
# 
# From -- ./inp_files/2470.got.cif
#   From: 2010.05.17/outbox.cif.g08.bks.cpg/sg47_2_cif.got.tgz:2470.got - 2010.06.03 20:15:42.
