data_PCOD9384300
_publ_section_title
;
Structure prediction by ZEFSAII (Michael W. Deem and Ramdas Pophale) SiO2 
 PCOD9384300
Probable space group: P M M M
;
_chemical_formula_sum "Si O2"
_cell_formula_units_Z 56
_cell_length_a 7.881691
_cell_length_b 22.576427
_cell_length_c 14.529956
_cell_angle_alpha 90.000000
_cell_angle_beta 90.000000
_cell_angle_gamma 90.000000
_cell_volume 2585.466495
_symmetry_space_group_name_H-M "P M M M"
_symmetry_group_IT_number 47
_symmetry_cell_setting 'orthorhombic'
loop_
_space_group_symop_operation_xyz
x,y,z
-x,-y,z
x,-y,-z
-x,y,-z
-x,-y,-z
x,y,-z
-x,y,z
x,-y,z
loop_
_atom_site_type_symbol
_atom_site_label
_atom_site_fract_x
_atom_site_fract_y
_atom_site_fract_z
Si Si1 0.202106 0.435834 0.692476
Si Si2 0.297302 0.719086 0.151998
Si Si3 0.692630 0.153901 0.847716
Si Si4 0.316018 0.182674 0.370342
Si Si5 0.000000 0.899484 0.401598
Si Si6 0.702259 0.588389 0.098387
Si Si7 0.806328 0.308578 0.646193
Si Si8 0.000000 0.068575 0.185829
O O1 0.269408 0.500000 0.661667
O O2 0.227368 0.432023 0.803205
O O3 0.268270 0.375248 0.645220
O O4 0.000000 0.434819 0.676173
O O5 0.500000 0.721072 0.174687
O O6 0.257374 0.782712 0.108441
O O7 0.272779 0.659213 0.096623
O O8 0.194508 0.707445 0.245240
O O9 0.500000 0.136924 0.875553
O O10 0.685793 0.172798 0.740005
O O11 0.834505 0.103489 0.851758
O O12 0.500000 0.162690 0.401612
O O13 0.162941 0.142886 0.402990
O O14 0.289467 0.251789 0.393519
O O15 0.000000 0.928525 0.299175
O O16 0.000000 0.933152 0.500000
O O17 0.500000 0.576691 0.101941
O O18 0.767216 0.565264 0.000000
O O19 0.000000 0.308950 0.612382
O O20 0.000000 0.000000 0.159369
#
# Coordination Sequence:
#
# PCOD9384300 Si02
#       8
#     8   8   8   8   4   8   8   4
#     4   9  18  29  39  54  81 117 152 186 222 265
#     4   8  14  24  39  59  79 103 137 181 234 276
#     4   8  15  27  44  64  86 112 143 182 226 264
#     4   9  16  28  46  67  89 113 144 184 228 262
#     4  10  20  33  48  68  95 125 154 176 198 240
#     4   9  17  28  40  55  79 112 150 190 227 267
#     4   9  14  23  41  61  80 105 140 184 233 273
#     4  10  20  31  46  68  93 123 152 176 204 238
#
# _framework density 21.659535000000002
#
# number of rings (size 3 to 8) (size 9 to 14) (size 15 to 20)
#    0.000    3.143    0.714    1.286    3.000    2.143 
#    0.000    1.429    0.000    0.000    0.000    4.000 
#    0.000    2.286    0.000    6.857    0.000    0.286 
#
# Total GULP energy -311840.707248 kJ/mol
# GULP energy per Si atom -5568.584058 kJ/mol
# Density = 2.161024 g / cm^3
# Si number density = 21.659535 Si / 1000 Ang^3
#
#
#
# Elastic Constant Matrix: (Units=GPa)
#
#
# Indices 1 2 3 4 5 6 
#
# 1 87.5376 59.1606 -0.7500 0.0000 0.0000 0.0000
# 2 59.1606 176.1161 -8.4355 0.0000 0.0000 0.0000
# 3 -0.7500 -8.4355 33.8052 0.0000 0.0000 0.0000
# 4 0.0000 0.0000 0.0000 -4.8485 0.0000 0.0000
# 5 0.0000 0.0000 0.0000 0.0000 0.6848 0.0000
# 6 0.0000 0.0000 0.0000 0.0000 0.0000 -25.8251
#
#
#
# Elastic Compliance Matrix: (Units=1/GPa)
#
#
# Indices 1 2 3 4 5 6 
#
# 1 0.014807 -0.005018 -0.000924 0.000000 0.000000 0.000000
# 2 -0.005018 0.007447 0.001747 0.000000 0.000000 0.000000
# 3 -0.000924 0.001747 0.029997 0.000000 0.000000 0.000000
# 4 0.000000 0.000000 0.000000 -0.206250 0.000000 0.000000
# 5 0.000000 0.000000 0.000000 0.000000 1.460186 0.000000
# 6 0.000000 0.000000 0.000000 0.000000 0.000000 -0.038722
#
#
# Mechanical properties :
#
#
# Convention : Reuss Voigt Hill
#
# Bulk Modulus (GPa) = 22.79901 44.15658 33.47779
# Shear Modulus (GPa) = 3.87454 10.50116 7.18785
#
# Velocity S-wave (km/s) = 1.33893 2.20427 1.82367
# Velocity P-wave (km/s) = 3.59711 5.18742 4.46366
#
# Compressibility (1/GPa) = 0.04386156
#
# Stress axis : x y z
#
# Youngs Moduli (GPa) = 67.53445 134.27363 33.33701
#
# Poissons Ratio (x) = 0.67382 0.03079
# Poissons Ratio (y) = 0.33891 -0.05824
# Poissons Ratio (z) = 0.06238 -0.23458
#
# Static dielectric constant tensor:
#      x y z
#    x 1.772740 0.000000 0.000000 
#    y 0.000000 1.812430 0.000000 
#    z 0.000000 0.000000 1.841270 
# 
# From -- ./inp_files/11777.got.cif
#   From: 2010.05.17/outbox.cif.g08.bks.cpg/sg47_6_cif.got.tgz:11777.got - 2010.06.03 20:15:42.
