data_PCOD9384919
_publ_section_title
;
Structure prediction by ZEFSAII (Michael W. Deem and Ramdas Pophale) SiO2 
 PCOD9384919
Probable space group: P M M M
;
_chemical_formula_sum "Si O2"
_cell_formula_units_Z 48
_cell_length_a 9.083055
_cell_length_b 16.847368
_cell_length_c 22.608275
_cell_angle_alpha 90.000000
_cell_angle_beta 90.000000
_cell_angle_gamma 90.000000
_cell_volume 3459.644172
_symmetry_space_group_name_H-M "P M M M"
_symmetry_group_IT_number 47
_symmetry_cell_setting 'orthorhombic'
loop_
_space_group_symop_operation_xyz
x,y,z
-x,-y,z
x,-y,-z
-x,y,-z
-x,-y,-z
x,y,-z
-x,y,z
x,-y,z
loop_
_atom_site_type_symbol
_atom_site_label
_atom_site_fract_x
_atom_site_fract_y
_atom_site_fract_z
Si Si1 0.676575 0.165532 0.930213
Si Si2 0.331974 0.403935 0.619318
Si Si3 0.828481 0.300283 0.147542
Si Si4 0.168032 0.000000 0.928701
Si Si5 0.829923 0.596882 0.500000
Si Si6 0.338794 0.594573 0.932079
Si Si7 0.822250 0.592243 0.256741
O O1 0.500000 0.163563 0.927636
O O2 0.739975 0.229352 0.883885
O O3 0.744996 0.080152 0.913731
O O4 0.716320 0.182311 0.000000
O O5 0.500000 0.375473 0.622192
O O6 0.336475 0.500000 0.615513
O O7 0.251366 0.376409 0.559710
O O8 0.244352 0.387256 0.679427
O O9 0.798597 0.371923 0.102278
O O10 0.778077 0.340769 0.209107
O O11 0.000000 0.279337 0.152076
O O12 0.000000 0.000000 0.905991
O O13 0.160030 0.000000 0.000000
O O14 0.827481 0.500000 0.500000
O O15 0.000000 0.620955 0.500000
O O16 0.500000 0.620865 0.907864
O O17 0.337865 0.500000 0.930810
O O18 0.334006 0.620626 0.000000
O O19 0.777713 0.500000 0.241674
O O20 0.000000 0.591993 0.259299
#
# Coordination Sequence:
#
# PCOD9384919 Si02
#       7
#     8   8   8   4   4   8   8
#     4  10  20  33  48  65  85 107 130 159 200 250
#     4   9  16  25  38  56  75  96 128 169 206 240
#     4  11  21  30  42  60  80 103 134 170 204 240
#     4   9  17  31  51  71  87 101 121 154 197 244
#     4   9  15  23  37  55  75  99 125 158 203 246
#     4   9  18  31  43  54  71  97 129 166 208 249
#     4   9  18  31  42  53  75 107 140 173 210 248
#
# _framework density 13.874259
#
# number of rings (size 3 to 8) (size 9 to 14) (size 15 to 20)
#    0.000    2.500    0.000    3.500    0.000    9.667 
#    0.000    2.500    0.000    0.000    0.000    0.000 
#    0.000    0.000    0.000    0.000    0.000    0.833 
#
# Total GULP energy -267221.507829 kJ/mol
# GULP energy per Si atom -5567.114746 kJ/mol
# Density = 1.384268 g / cm^3
# Si number density = 13.874259 Si / 1000 Ang^3
#
#
#
# Elastic Constant Matrix: (Units=GPa)
#
#
# Indices 1 2 3 4 5 6 
#
# 1 52.6630 30.8880 41.4972 0.0000 0.0000 0.0000
# 2 30.8880 62.3856 44.2496 0.0000 0.0000 0.0000
# 3 41.4972 44.2496 95.1285 0.0000 0.0000 0.0000
# 4 0.0000 0.0000 0.0000 9.5110 0.0000 0.0000
# 5 0.0000 0.0000 0.0000 0.0000 14.4607 0.0000
# 6 0.0000 0.0000 0.0000 0.0000 0.0000 19.9478
#
#
#
# Elastic Compliance Matrix: (Units=1/GPa)
#
#
# Indices 1 2 3 4 5 6 
#
# 1 0.031898 -0.008840 -0.009802 0.000000 0.000000 0.000000
# 2 -0.008840 0.026372 -0.008411 0.000000 0.000000 0.000000
# 3 -0.009802 -0.008411 0.018700 0.000000 0.000000 0.000000
# 4 0.000000 0.000000 0.000000 0.105141 0.000000 0.000000
# 5 0.000000 0.000000 0.000000 0.000000 0.069153 0.000000
# 6 0.000000 0.000000 0.000000 0.000000 0.000000 0.050131
#
#
# Mechanical properties :
#
#
# Convention : Reuss Voigt Hill
#
# Bulk Modulus (GPa) = 43.73823 49.27183 46.50503
# Shear Modulus (GPa) = 13.76945 15.02007 14.39476
#
# Velocity S-wave (km/s) = 3.15373 3.29384 3.22454
# Velocity P-wave (km/s) = 6.69735 7.07503 6.88878
#
# Compressibility (1/GPa) = 0.02286329
#
# Stress axis : x y z
#
# Youngs Moduli (GPa) = 31.35023 37.91904 53.47472
#
# Poissons Ratio (x) = 0.33521 0.52418
# Poissons Ratio (y) = 0.27714 0.44976
# Poissons Ratio (z) = 0.30731 0.31893
#
# Static dielectric constant tensor:
#      x y z
#    x 1.484370 0.000000 0.000000 
#    y 0.000000 1.453900 0.000000 
#    z 0.000000 0.000000 1.454170 
# 
# From -- ./inp_files/9760.got.cif
#   From: 2010.05.17/outbox.cif.g08.bks.cpg/sg47_5_cif.got.tgz:9760.got - 2010.06.03 20:15:42.
