data_PCOD9384544
_publ_section_title
;
Structure prediction by ZEFSAII (Michael W. Deem and Ramdas Pophale) SiO2 
 PCOD9384544
Probable space group: P M M M
;
_chemical_formula_sum "Si O2"
_cell_formula_units_Z 56
_cell_length_a 19.216596
_cell_length_b 18.497353
_cell_length_c 9.366478
_cell_angle_alpha 90.000000
_cell_angle_beta 90.000000
_cell_angle_gamma 90.000000
_cell_volume 3329.372300
_symmetry_space_group_name_H-M "P M M M"
_symmetry_group_IT_number 47
_symmetry_cell_setting 'orthorhombic'
loop_
_space_group_symop_operation_xyz
x,y,z
-x,-y,z
x,-y,-z
-x,y,-z
-x,-y,-z
x,y,-z
-x,y,z
x,-y,z
loop_
_atom_site_type_symbol
_atom_site_label
_atom_site_fract_x
_atom_site_fract_y
_atom_site_fract_z
Si Si1 0.292809 0.844724 0.830011
Si Si2 0.286753 0.586688 0.666269
Si Si3 0.204454 0.297987 0.169647
Si Si4 0.421755 0.412170 0.162784
Si Si5 0.168114 0.082075 0.332498
Si Si6 0.581379 0.085129 0.670614
Si Si7 0.080557 0.222134 0.669688
O O1 0.262520 0.764377 0.801420
O O2 0.233903 0.896922 0.763517
O O3 0.365198 0.864690 0.755264
O O4 0.297968 0.853934 0.000000
O O5 0.280621 0.605035 0.500000
O O6 0.280662 0.500000 0.681249
O O7 0.230434 0.628748 0.758685
O O8 0.362178 0.608974 0.727944
O O9 0.133103 0.271336 0.241022
O O10 0.197252 0.304581 0.000000
O O11 0.500000 0.387633 0.197837
O O12 0.423336 0.500000 0.161877
O O13 0.404949 0.389410 0.000000
O O14 0.188517 0.088471 0.500000
O O15 0.107458 0.140161 0.307335
O O16 0.146130 0.000000 0.306557
O O17 0.590867 0.093985 0.500000
O O18 0.500000 0.099333 0.703004
O O19 0.594942 0.000000 0.703110
O O20 0.087859 0.237199 0.500000
O O21 0.000000 0.230366 0.708633
#
# Coordination Sequence:
#
# PCOD9384544 Si02
#       7
#     8   8   8   8   8   8   8
#     4  10  20  32  47  69  96 127 166 208 246 287
#     4  10  20  33  52  78 103 127 161 207 253 295
#     4  10  21  36  53  73  99 132 166 199 240 295
#     4   8  14  26  45  69  98 131 162 191 229 280
#     4   9  17  29  47  72 101 133 166 198 236 285
#     4   9  18  32  49  69  94 127 168 212 257 301
#     4   9  18  33  53  76 102 132 164 200 242 285
#
# _framework density 16.819987999999999
#
# number of rings (size 3 to 8) (size 9 to 14) (size 15 to 20)
#    0.000    2.714    0.000    2.571    0.000    6.000 
#    0.000    4.286    0.000    1.286    0.000    7.000 
#    0.000    0.000    0.000    0.000    0.000    0.000 
#
# Total GULP energy -312214.649411 kJ/mol
# GULP energy per Si atom -5575.261597 kJ/mol
# Density = 1.678171 g / cm^3
# Si number density = 16.819988 Si / 1000 Ang^3
#
#
#
# Elastic Constant Matrix: (Units=GPa)
#
#
# Indices 1 2 3 4 5 6 
#
# 1 113.8074 37.9333 67.4786 0.0000 0.0000 0.0000
# 2 37.9333 35.5449 41.2625 0.0000 0.0000 0.0000
# 3 67.4786 41.2625 73.5618 0.0000 0.0000 0.0000
# 4 0.0000 0.0000 0.0000 22.5354 0.0000 0.0000
# 5 0.0000 0.0000 0.0000 0.0000 14.4006 0.0000
# 6 0.0000 0.0000 0.0000 0.0000 0.0000 11.5825
#
#
#
# Elastic Compliance Matrix: (Units=1/GPa)
#
#
# Indices 1 2 3 4 5 6 
#
# 1 0.019265 -0.000129 -0.017599 0.000000 0.000000 0.000000
# 2 -0.000129 0.080647 -0.045118 0.000000 0.000000 0.000000
# 3 -0.017599 -0.045118 0.055046 0.000000 0.000000 0.000000
# 4 0.000000 0.000000 0.000000 0.044375 0.000000 0.000000
# 5 0.000000 0.000000 0.000000 0.000000 0.069442 0.000000
# 6 0.000000 0.000000 0.000000 0.000000 0.000000 0.086337
#
#
# Mechanical properties :
#
#
# Convention : Reuss Voigt Hill
#
# Bulk Modulus (GPa) = 34.17144 57.36254 45.76699
# Shear Modulus (GPa) = 10.19248 14.78636 12.48942
#
# Velocity S-wave (km/s) = 2.46433 2.96817 2.72790
# Velocity P-wave (km/s) = 5.33454 6.77676 6.09843
#
# Compressibility (1/GPa) = 0.02926420
#
# Stress axis : x y z
#
# Youngs Moduli (GPa) = 51.90841 12.39976 18.16675
#
# Poissons Ratio (x) = 0.00160 0.31972
# Poissons Ratio (y) = 0.00670 0.81965
# Poissons Ratio (z) = 0.91355 0.55945
#
# Static dielectric constant tensor:
#      x y z
#    x 1.551400 0.000000 0.000000 
#    y 0.000000 1.574540 0.000000 
#    z 0.000000 0.000000 1.557220 
# 
# From -- ./inp_files/9848.got.cif
#   From: 2010.05.17/outbox.cif.g08.bks.cpg/sg47_5_cif.got.tgz:9848.got - 2010.06.03 20:15:42.
