data_PCOD9384458
_publ_section_title
;
Structure prediction by ZEFSAII (Michael W. Deem and Ramdas Pophale) SiO2 
 PCOD9384458
Probable space group: P M M M
;
_chemical_formula_sum "Si O2"
_cell_formula_units_Z 52
_cell_length_a 7.508042
_cell_length_b 35.073470
_cell_length_c 9.531035
_cell_angle_alpha 90.000000
_cell_angle_beta 90.000000
_cell_angle_gamma 90.000000
_cell_volume 2509.836858
_symmetry_space_group_name_H-M "P M M M"
_symmetry_group_IT_number 47
_symmetry_cell_setting 'orthorhombic'
loop_
_space_group_symop_operation_xyz
x,y,z
-x,-y,z
x,-y,-z
-x,y,-z
-x,-y,-z
x,y,-z
-x,y,z
x,-y,z
loop_
_atom_site_type_symbol
_atom_site_label
_atom_site_fract_x
_atom_site_fract_y
_atom_site_fract_z
Si Si1 0.285334 0.761678 0.162019
Si Si2 0.781737 0.615482 0.161109
Si Si3 0.210869 0.928214 0.840066
Si Si4 0.286184 0.844881 0.162934
Si Si5 0.782976 0.542909 0.338450
Si Si6 0.211449 0.687236 0.341794
Si Si7 0.781335 0.000000 0.661146
O O1 0.500000 0.762615 0.156957
O O2 0.225096 0.803492 0.216332
O O3 0.235335 0.726721 0.259779
O O4 0.224206 0.756489 0.000000
O O5 0.724519 0.576507 0.236494
O O6 0.719600 0.651951 0.249917
O O7 0.000000 0.615657 0.160967
O O8 0.724899 0.617691 0.000000
O O9 0.233860 0.885812 0.777028
O O10 0.279284 0.962314 0.744074
O O11 0.000000 0.934324 0.852255
O O12 0.284491 0.929029 0.000000
O O13 0.500000 0.844336 0.164487
O O14 0.226864 0.845811 0.000000
O O15 0.729933 0.550166 0.500000
O O16 0.726485 0.500000 0.299581
O O17 0.000000 0.542966 0.337055
O O18 0.284043 0.688491 0.500000
O O19 0.000000 0.680949 0.353090
O O20 0.724501 0.000000 0.500000
O O21 0.000000 0.000000 0.660446
#
# Coordination Sequence:
#
# PCOD9384458 Si02
#       7
#     8   8   8   8   8   8   4
#     4   9  18  33  52  72  94 121 153 190 233 281
#     4   9  16  25  38  57  82 113 149 190 234 275
#     4   9  16  27  46  70  91 114 149 187 217 253
#     4   8  15  29  48  69  92 116 143 179 224 270
#     4   8  13  21  33  50  76 112 149 182 221 273
#     4  10  20  32  46  66  93 124 157 193 233 278
#     4   9  17  29  44  63  90 122 150 179 220 262
#
# _framework density 20.718478000000001
#
# number of rings (size 3 to 8) (size 9 to 14) (size 15 to 20)
#    0.000    3.154    0.000    2.538    0.000    4.923 
#    0.000    4.231    0.000    5.538    0.000    0.000 
#    0.000    0.615    0.000    6.462    0.000    8.923 
#
# Total GULP energy -289950.124041 kJ/mol
# GULP energy per Si atom -5575.963924 kJ/mol
# Density = 2.067132 g / cm^3
# Si number density = 20.718478 Si / 1000 Ang^3
#
#
#
# Elastic Constant Matrix: (Units=GPa)
#
#
# Indices 1 2 3 4 5 6 
#
# 1 51.5056 1.3455 6.4847 0.0000 0.0000 0.0000
# 2 1.3455 239.2058 131.9638 0.0000 0.0000 0.0000
# 3 6.4847 131.9638 141.9019 0.0000 0.0000 0.0000
# 4 0.0000 0.0000 0.0000 -39.7056 0.0000 0.0000
# 5 0.0000 0.0000 0.0000 0.0000 0.7461 0.0000
# 6 0.0000 0.0000 0.0000 0.0000 0.0000 38.4125
#
#
#
# Elastic Compliance Matrix: (Units=1/GPa)
#
#
# Indices 1 2 3 4 5 6 
#
# 1 0.019600 0.000788 -0.001629 0.000000 0.000000 0.000000
# 2 0.000788 0.008617 -0.008049 0.000000 0.000000 0.000000
# 3 -0.001629 -0.008049 0.014607 0.000000 0.000000 0.000000
# 4 0.000000 0.000000 0.000000 -0.025185 0.000000 0.000000
# 5 0.000000 0.000000 0.000000 0.000000 1.340351 0.000000
# 6 0.000000 0.000000 0.000000 0.000000 0.000000 0.026033
#
#
# Mechanical properties :
#
#
# Convention : Reuss Voigt Hill
#
# Bulk Modulus (GPa) = 39.92948 79.13349 59.53149
# Shear Modulus (GPa) = 3.54572 19.41189 11.47880
#
# Velocity S-wave (km/s) = 1.30962 3.06426 2.35635
# Velocity P-wave (km/s) = 4.64769 7.12721 6.01657
#
# Compressibility (1/GPa) = 0.02504415
#
# Stress axis : x y z
#
# Youngs Moduli (GPa) = 51.02083 116.05558 68.46053
#
# Poissons Ratio (x) = -0.09149 0.11151
# Poissons Ratio (y) = -0.04022 0.55105
# Poissons Ratio (z) = 0.08310 0.93415
#
# Static dielectric constant tensor:
#      x y z
#    x 1.803180 0.000000 0.000000 
#    y 0.000000 1.746320 0.000000 
#    z 0.000000 0.000000 1.704390 
# 
# From -- ./inp_files/4520.got.cif
#   From: 2010.05.17/outbox.cif.g08.bks.cpg/sg47_3_cif.got.tgz:4520.got - 2010.06.03 20:15:42.
