data_PCOD9384932
_publ_section_title
;
Structure prediction by ZEFSAII (Michael W. Deem and Ramdas Pophale) SiO2 
 PCOD9384932
Probable space group: P M M M
;
_chemical_formula_sum "Si O2"
_cell_formula_units_Z 52
_cell_length_a 20.875544
_cell_length_b 16.275565
_cell_length_c 9.120645
_cell_angle_alpha 90.000000
_cell_angle_beta 90.000000
_cell_angle_gamma 90.000000
_cell_volume 3098.841958
_symmetry_space_group_name_H-M "P M M M"
_symmetry_group_IT_number 47
_symmetry_cell_setting 'orthorhombic'
loop_
_space_group_symop_operation_xyz
x,y,z
-x,-y,z
x,-y,-z
-x,y,-z
-x,-y,-z
x,y,-z
-x,y,z
x,-y,z
loop_
_atom_site_type_symbol
_atom_site_label
_atom_site_fract_x
_atom_site_fract_y
_atom_site_fract_z
Si Si1 0.299231 0.590256 0.176537
Si Si2 0.071491 0.098769 0.171427
Si Si3 0.835774 0.379165 0.669941
Si Si4 0.426378 0.906837 0.821595
Si Si5 0.186636 0.811711 0.669885
Si Si6 0.320797 0.775218 0.177381
Si Si7 0.924115 0.500000 0.169145
O O1 0.327800 0.500000 0.216140
O O2 0.229058 0.594327 0.248017
O O3 0.330452 0.678526 0.218446
O O4 0.293830 0.591510 0.000000
O O5 0.131710 0.132971 0.259129
O O6 0.000000 0.125520 0.222424
O O7 0.072407 0.000000 0.178208
O O8 0.077442 0.122361 0.000000
O O9 0.832369 0.403302 0.500000
O O10 0.839183 0.281380 0.676670
O O11 0.894461 0.421978 0.749504
O O12 0.500000 0.892526 0.775777
O O13 0.377855 0.835672 0.774424
O O14 0.407808 0.000000 0.776800
O O15 0.426084 0.906357 0.000000
O O16 0.197619 0.833628 0.500000
O O17 0.254154 0.807918 0.755315
O O18 0.316381 0.778405 0.000000
O O19 0.000000 0.500000 0.175551
O O20 0.903300 0.500000 0.000000
#
# Coordination Sequence:
#
# PCOD9384932 Si02
#       7
#     8   8   8   8   8   8   4
#     4   9  16  27  45  66  90 121 156 195 238 286
#     4   9  19  36  55  72  91 121 163 205 244 292
#     4  10  20  33  48  66  90 120 154 193 237 287
#     4   8  14  26  46  72 100 130 165 204 245 290
#     4  10  21  34  49  73 102 128 157 199 250 298
#     4   9  17  29  47  72  98 126 164 207 247 290
#     4  11  23  35  47  65  89 119 156 197 242 291
#
# _framework density 16.780462
#
# number of rings (size 3 to 8) (size 9 to 14) (size 15 to 20)
#    0.000    2.692    0.769    2.077    0.000    4.308 
#    0.000    5.385    0.000    0.923    0.000    4.308 
#    0.000    0.000    0.000    7.692    0.000    8.000 
#
# Total GULP energy -289555.830392 kJ/mol
# GULP energy per Si atom -5568.381354 kJ/mol
# Density = 1.674227 g / cm^3
# Si number density = 16.780462 Si / 1000 Ang^3
#
#
#
# Elastic Constant Matrix: (Units=GPa)
#
#
# Indices 1 2 3 4 5 6 
#
# 1 88.4751 70.5228 29.4617 0.0000 0.0000 0.0000
# 2 70.5228 105.2771 30.1928 0.0000 0.0000 0.0000
# 3 29.4617 30.1928 25.5597 0.0000 0.0000 0.0000
# 4 0.0000 0.0000 0.0000 4.5928 0.0000 0.0000
# 5 0.0000 0.0000 0.0000 0.0000 -5.5277 0.0000
# 6 0.0000 0.0000 0.0000 0.0000 0.0000 35.0866
#
#
#
# Elastic Compliance Matrix: (Units=1/GPa)
#
#
# Indices 1 2 3 4 5 6 
#
# 1 0.027635 -0.014181 -0.015103 0.000000 0.000000 0.000000
# 2 -0.014181 0.021642 -0.009220 0.000000 0.000000 0.000000
# 3 -0.015103 -0.009220 0.067423 0.000000 0.000000 0.000000
# 4 0.000000 0.000000 0.000000 0.217732 0.000000 0.000000
# 5 0.000000 0.000000 0.000000 0.000000 -0.180907 0.000000
# 6 0.000000 0.000000 0.000000 0.000000 0.000000 0.028501
#
#
# Mechanical properties :
#
#
# Convention : Reuss Voigt Hill
#
# Bulk Modulus (GPa) = 25.19241 53.29629 39.24435
# Shear Modulus (GPa) = 18.36446 12.77264 15.56855
#
# Velocity S-wave (km/s) = 3.31175 2.76191 3.04925
# Velocity P-wave (km/s) = 5.44694 6.48080 5.98623
#
# Compressibility (1/GPa) = 0.03969449
#
# Stress axis : x y z
#
# Youngs Moduli (GPa) = 36.18572 46.20582 14.83165
#
# Poissons Ratio (x) = 0.65524 0.22400
# Poissons Ratio (y) = 0.51314 0.13674
# Poissons Ratio (z) = 0.54651 0.42600
#
# Static dielectric constant tensor:
#      x y z
#    x 1.535130 0.000000 0.000000 
#    y 0.000000 1.608640 0.000000 
#    z 0.000000 0.000000 1.560540 
# 
# From -- ./inp_files/9547.got.cif
#   From: 2010.05.17/outbox.cif.g08.bks.cpg/sg47_5_cif.got.tgz:9547.got - 2010.06.03 20:15:42.
