data_PCOD9384270
_publ_section_title
;
Structure prediction by ZEFSAII (Michael W. Deem and Ramdas Pophale) SiO2 
 PCOD9384270
Probable space group: P M M M
;
_chemical_formula_sum "Si O2"
_cell_formula_units_Z 36
_cell_length_a 9.274455
_cell_length_b 24.084987
_cell_length_c 9.578751
_cell_angle_alpha 90.000000
_cell_angle_beta 90.000000
_cell_angle_gamma 90.000000
_cell_volume 2139.654732
_symmetry_space_group_name_H-M "P M M M"
_symmetry_group_IT_number 47
_symmetry_cell_setting 'orthorhombic'
loop_
_space_group_symop_operation_xyz
x,y,z
-x,-y,z
x,-y,-z
-x,y,-z
-x,-y,-z
x,y,-z
-x,y,z
x,-y,z
loop_
_atom_site_type_symbol
_atom_site_label
_atom_site_fract_x
_atom_site_fract_y
_atom_site_fract_z
Si Si1 0.332322 0.938315 0.330464
Si Si2 0.323735 0.500000 0.339677
Si Si3 0.171074 0.827263 0.666368
Si Si4 0.324439 0.394664 0.839528
Si Si5 0.328647 0.269284 0.166986
O O1 0.327628 0.939058 0.500000
O O2 0.500000 0.930647 0.291030
O O3 0.238240 0.886047 0.285623
O O4 0.285510 0.000000 0.283589
O O5 0.500000 0.500000 0.337515
O O6 0.278172 0.500000 0.500000
O O7 0.276427 0.555474 0.259121
O O8 0.200051 0.821534 0.500000
O O9 0.243793 0.777027 0.748795
O O10 0.000000 0.827478 0.686345
O O11 0.500000 0.394751 0.839763
O O12 0.282299 0.332331 0.796317
O O13 0.279624 0.404197 0.000000
O O14 0.500000 0.264141 0.194987
O O15 0.308948 0.263173 0.000000
#
# Coordination Sequence:
#
# PCOD9384270 Si02
#       5
#     8   4   8   8   8
#     4   8  14  26  45  68  93 122 156 192 230 274
#     4   9  15  21  33  59  92 119 144 179 226 276
#     4  10  20  31  45  69  98 126 156 191 235 284
#     4   8  14  25  40  58  83 116 151 186 226 273
#     4   9  18  32  49  68  90 121 162 201 236 277
#
# _framework density 16.825144000000002
#
# number of rings (size 3 to 8) (size 9 to 14) (size 15 to 20)
#    0.000    3.222    0.000    3.000    0.000    4.444 
#    0.000    4.444    0.000    0.667    0.000    5.444 
#    0.000    6.222    0.000    0.000    0.000    0.000 
#
# Total GULP energy -200476.239991 kJ/mol
# GULP energy per Si atom -5568.784444 kJ/mol
# Density = 1.678685 g / cm^3
# Si number density = 16.825144 Si / 1000 Ang^3
#
#
#
# Elastic Constant Matrix: (Units=GPa)
#
#
# Indices 1 2 3 4 5 6 
#
# 1 37.2932 68.8915 35.9054 0.0000 0.0000 0.0000
# 2 68.8915 213.3444 87.4024 0.0000 0.0000 0.0000
# 3 35.9054 87.4024 52.6860 0.0000 0.0000 0.0000
# 4 0.0000 0.0000 0.0000 80.7513 0.0000 0.0000
# 5 0.0000 0.0000 0.0000 0.0000 15.2113 0.0000
# 6 0.0000 0.0000 0.0000 0.0000 0.0000 -4.6342
#
#
#
# Elastic Compliance Matrix: (Units=1/GPa)
#
#
# Indices 1 2 3 4 5 6 
#
# 1 0.086573 -0.011814 -0.039401 0.000000 0.000000 0.000000
# 2 -0.011814 0.016243 -0.018894 0.000000 0.000000 0.000000
# 3 -0.039401 -0.018894 0.077177 0.000000 0.000000 0.000000
# 4 0.000000 0.000000 0.000000 0.012384 0.000000 0.000000
# 5 0.000000 0.000000 0.000000 0.000000 0.065741 0.000000
# 6 0.000000 0.000000 0.000000 0.000000 0.000000 -0.215787
#
#
# Mechanical properties :
#
#
# Convention : Reuss Voigt Hill
#
# Bulk Modulus (GPa) = 25.14227 76.41356 50.77792
# Shear Modulus (GPa) = 25.53557 25.67397 25.60477
#
# Velocity S-wave (km/s) = 3.90000 3.91055 3.90528
# Velocity P-wave (km/s) = 5.93765 8.11818 7.11198
#
# Compressibility (1/GPa) = 0.03977365
#
# Stress axis : x y z
#
# Youngs Moduli (GPa) = 11.55100 61.56627 12.95726
#
# Poissons Ratio (x) = 0.72732 0.51053
# Poissons Ratio (y) = 0.13646 0.24482
# Poissons Ratio (z) = 0.45512 1.16326
#
# Static dielectric constant tensor:
#      x y z
#    x 1.545710 0.000000 0.000000 
#    y 0.000000 1.575670 0.000000 
#    z 0.000000 0.000000 1.557390 
# 
# From -- ./inp_files/1398.got.cif
#   From: 2010.05.17/outbox.cif.g08.bks.cpg/sg47_1_cif.got.tgz:1398.got - 2010.06.03 20:15:42.
