data_PCOD9384081
_publ_section_title
;
Structure prediction by ZEFSAII (Michael W. Deem and Ramdas Pophale) SiO2 
 PCOD9384081
Probable space group: P M M M
;
_chemical_formula_sum "Si O2"
_cell_formula_units_Z 64
_cell_length_a 9.397613
_cell_length_b 15.492624
_cell_length_c 30.491136
_cell_angle_alpha 90.000000
_cell_angle_beta 90.000000
_cell_angle_gamma 90.000000
_cell_volume 4439.316841
_symmetry_space_group_name_H-M "P M M M"
_symmetry_group_IT_number 47
_symmetry_cell_setting 'orthorhombic'
loop_
_space_group_symop_operation_xyz
x,y,z
-x,-y,z
x,-y,-z
-x,y,-z
-x,-y,-z
x,y,-z
-x,y,z
x,-y,z
loop_
_atom_site_type_symbol
_atom_site_label
_atom_site_fract_x
_atom_site_fract_y
_atom_site_fract_z
Si Si1 0.670562 0.398152 0.613964
Si Si2 0.831309 0.733393 0.447710
Si Si3 0.335686 0.903444 0.553217
Si Si4 0.335391 0.097014 0.053241
Si Si5 0.837163 0.395077 0.797917
Si Si6 0.668838 0.603012 0.886072
Si Si7 0.336405 0.395020 0.286460
Si Si8 0.832901 0.267060 0.947228
O O1 0.500000 0.388166 0.608809
O O2 0.702596 0.500000 0.609195
O O3 0.753956 0.341376 0.579169
O O4 0.705947 0.371047 0.664039
O O5 0.805205 0.723411 0.500000
O O6 0.764956 0.825262 0.433446
O O7 0.000000 0.731907 0.440698
O O8 0.333629 0.904993 0.500000
O O9 0.500000 0.887681 0.566195
O O10 0.294209 0.000000 0.567912
O O11 0.500000 0.112852 0.066079
O O12 0.233962 0.175017 0.066828
O O13 0.294697 0.000000 0.067662
O O14 0.333049 0.095942 0.000000
O O15 0.839373 0.500000 0.796473
O O16 0.741210 0.372465 0.839766
O O17 0.765607 0.365479 0.752522
O O18 0.000000 0.365825 0.802679
O O19 0.500000 0.619377 0.885300
O O20 0.689643 0.500000 0.892399
O O21 0.746015 0.657534 0.923587
O O22 0.500000 0.368174 0.278607
O O23 0.336824 0.500000 0.285994
O O24 0.000000 0.271866 0.936581
O O25 0.818374 0.273837 0.000000
#
# Coordination Sequence:
#
# PCOD9384081 Si02
#       8
#     8   8   8   8   8   8   8   8
#     4   9  18  31  45  60  80 111 149 183 211 243
#     4  10  20  30  40  58  85 115 144 176 214 253
#     4   8  14  26  44  62  78 100 133 172 212 253
#     4   8  14  26  44  63  82 106 137 173 212 253
#     4   9  16  26  42  63  84 105 131 167 213 259
#     4  10  20  32  45  60  81 113 150 183 212 246
#     4   8  14  26  43  61  80 102 132 171 213 253
#     4  10  20  31  43  61  86 115 145 179 217 254
#
# _framework density 14.416632999999999
#
# number of rings (size 3 to 8) (size 9 to 14) (size 15 to 20)
#    0.000    3.000    0.000    3.000    0.000    5.500 
#    0.000    6.250    0.000    0.000    0.000    0.000 
#    0.000    1.000    0.000    8.750    0.000    5.625 
#
# Total GULP energy -356306.831735 kJ/mol
# GULP energy per Si atom -5567.294246 kJ/mol
# Density = 1.438382 g / cm^3
# Si number density = 14.416633 Si / 1000 Ang^3
#
#
#
# Elastic Constant Matrix: (Units=GPa)
#
#
# Indices 1 2 3 4 5 6 
#
# 1 102.0101 64.0296 56.6151 0.0000 0.0000 0.0000
# 2 64.0296 73.1243 42.9989 0.0000 0.0000 0.0000
# 3 56.6151 42.9989 54.3819 0.0000 0.0000 0.0000
# 4 0.0000 0.0000 0.0000 -1.5339 0.0000 0.0000
# 5 0.0000 0.0000 0.0000 0.0000 22.6614 0.0000
# 6 0.0000 0.0000 0.0000 0.0000 0.0000 17.2397
#
#
#
# Elastic Compliance Matrix: (Units=1/GPa)
#
#
# Indices 1 2 3 4 5 6 
#
# 1 0.029776 -0.014661 -0.019406 0.000000 0.000000 0.000000
# 2 -0.014661 0.032778 -0.010653 0.000000 0.000000 0.000000
# 3 -0.019406 -0.010653 0.047015 0.000000 0.000000 0.000000
# 4 0.000000 0.000000 0.000000 -0.651915 0.000000 0.000000
# 5 0.000000 0.000000 0.000000 0.000000 0.044128 0.000000
# 6 0.000000 0.000000 0.000000 0.000000 0.000000 0.058006
#
#
# Mechanical properties :
#
#
# Convention : Reuss Voigt Hill
#
# Bulk Modulus (GPa) = 49.68500 61.86705 55.77602
# Shear Modulus (GPa) = -14.53220 12.06496 -1.23362
#
# Velocity S-wave (km/s) = -3.17837 2.89602 -0.92604
# Velocity P-wave (km/s) = 4.59011 7.36135 6.13427
#
# Compressibility (1/GPa) = 0.02012680
#
# Stress axis : x y z
#
# Youngs Moduli (GPa) = 33.58442 30.50872 21.26984
#
# Poissons Ratio (x) = 0.44729 0.41276
# Poissons Ratio (y) = 0.49239 0.22660
# Poissons Ratio (z) = 0.65174 0.32502
#
# Static dielectric constant tensor:
#      x y z
#    x 1.479110 0.000000 0.000000 
#    y 0.000000 1.468600 0.000000 
#    z 0.000000 0.000000 1.465890 
# 
# From -- ./inp_files/8226.got.cif
#   From: 2010.05.17/outbox.cif.g08.bks.cpg/sg47_5_cif.got.tgz:8226.got - 2010.06.03 20:15:42.
