data_PCOD9384867
_publ_section_title
;
Structure prediction by ZEFSAII (Michael W. Deem and Ramdas Pophale) SiO2 
 PCOD9384867
Probable space group: P M M M
;
_chemical_formula_sum "Si O2"
_cell_formula_units_Z 52
_cell_length_a 21.418933
_cell_length_b 8.184268
_cell_length_c 15.026757
_cell_angle_alpha 90.000000
_cell_angle_beta 90.000000
_cell_angle_gamma 90.000000
_cell_volume 2634.164775
_symmetry_space_group_name_H-M "P M M M"
_symmetry_group_IT_number 47
_symmetry_cell_setting 'orthorhombic'
loop_
_space_group_symop_operation_xyz
x,y,z
-x,-y,z
x,-y,-z
-x,y,-z
-x,-y,-z
x,y,-z
-x,y,z
x,-y,z
loop_
_atom_site_type_symbol
_atom_site_label
_atom_site_fract_x
_atom_site_fract_y
_atom_site_fract_z
Si Si1 0.573028 0.192088 0.776478
Si Si2 0.067481 0.803778 0.287228
Si Si3 0.700018 0.811998 0.289345
Si Si4 0.257316 0.694156 0.099197
Si Si5 0.814178 0.691566 0.400087
Si Si6 0.113822 0.801888 0.097424
Si Si7 0.574615 0.500000 0.098698
O O1 0.500000 0.212427 0.751033
O O2 0.626013 0.220622 0.701895
O O3 0.587823 0.331791 0.849409
O O4 0.579917 0.000000 0.804987
O O5 0.127821 0.760037 0.344413
O O6 0.077289 0.748690 0.185089
O O7 0.000000 0.743581 0.320921
O O8 0.065176 0.000000 0.285488
O O9 0.714741 0.782528 0.184957
O O10 0.749225 0.715000 0.347997
O O11 0.711752 0.000000 0.310390
O O12 0.268653 0.500000 0.107879
O O13 0.183148 0.727802 0.102361
O O14 0.278252 0.748140 0.000000
O O15 0.811001 0.761640 0.500000
O O16 0.825327 0.500000 0.406522
O O17 0.119477 0.000000 0.100714
O O18 0.087073 0.760203 0.000000
O O19 0.500000 0.500000 0.090957
O O20 0.601958 0.500000 0.000000
#
# Coordination Sequence:
#
# PCOD9384867 Si02
#       7
#     8   8   8   8   8   8   4
#     4   9  20  37  56  83 118 158 204 250 299 357
#     4  10  21  37  59  87 118 155 196 237 285 341
#     4  11  22  37  61  87 114 152 194 241 296 352
#     4  10  20  32  50  79 115 153 192 237 285 334
#     4  11  25  43  63  87 114 146 188 240 300 365
#     4   9  17  31  52  79 114 153 192 232 276 332
#     4   9  18  32  52  80 117 165 212 251 297 349
#
# _framework density 19.740604000000001
#
# number of rings (size 3 to 8) (size 9 to 14) (size 15 to 20)
#    0.000    2.077    1.538    1.385    2.154    4.000 
#    0.000    6.154    0.000    0.462    0.000    6.462 
#    0.000    0.000    0.000    0.000    0.000    0.000 
#
# Total GULP energy -289952.198306 kJ/mol
# GULP energy per Si atom -5576.003814 kJ/mol
# Density = 1.969567 g / cm^3
# Si number density = 19.740604 Si / 1000 Ang^3
#
#
#
# Elastic Constant Matrix: (Units=GPa)
#
#
# Indices 1 2 3 4 5 6 
#
# 1 123.6232 30.4321 57.2209 0.0000 0.0000 0.0000
# 2 30.4321 42.0197 18.7638 0.0000 0.0000 0.0000
# 3 57.2209 18.7638 96.2595 0.0000 0.0000 0.0000
# 4 0.0000 0.0000 0.0000 16.5505 0.0000 0.0000
# 5 0.0000 0.0000 0.0000 0.0000 2.4965 0.0000
# 6 0.0000 0.0000 0.0000 0.0000 0.0000 1.1258
#
#
#
# Elastic Compliance Matrix: (Units=1/GPa)
#
#
# Indices 1 2 3 4 5 6 
#
# 1 0.012512 -0.006288 -0.006212 0.000000 0.000000 0.000000
# 2 -0.006288 0.029227 -0.001959 0.000000 0.000000 0.000000
# 3 -0.006212 -0.001959 0.014463 0.000000 0.000000 0.000000
# 4 0.000000 0.000000 0.000000 0.060421 0.000000 0.000000
# 5 0.000000 0.000000 0.000000 0.000000 0.400558 0.000000
# 6 0.000000 0.000000 0.000000 0.000000 0.000000 0.888219
#
#
# Mechanical properties :
#
#
# Convention : Reuss Voigt Hill
#
# Bulk Modulus (GPa) = 36.65167 52.74845 44.70006
# Shear Modulus (GPa) = 3.46401 14.40027 8.93214
#
# Velocity S-wave (km/s) = 1.32611 2.70381 2.12945
# Velocity P-wave (km/s) = 4.57730 6.04369 5.36087
#
# Compressibility (1/GPa) = 0.02728388
#
# Stress axis : x y z
#
# Youngs Moduli (GPa) = 79.92074 34.21467 69.14018
#
# Poissons Ratio (x) = 0.21514 0.42951
# Poissons Ratio (y) = 0.50253 0.13548
# Poissons Ratio (z) = 0.49649 0.06704
#
# Static dielectric constant tensor:
#      x y z
#    x 1.725310 0.000000 0.000000 
#    y 0.000000 1.685870 0.000000 
#    z 0.000000 0.000000 1.701570 
# 
# From -- ./inp_files/24973.got.cif
#   From: 2010.05.17/outbox.cif.g08.bks.cpg/sg47_13_cif.got.tgz:24973.got - 2010.06.03 20:15:42.
