data_PCOD9384678
_publ_section_title
;
Structure prediction by ZEFSAII (Michael W. Deem and Ramdas Pophale) SiO2 
 PCOD9384678
Probable space group: P M M M
;
_chemical_formula_sum "Si O2"
_cell_formula_units_Z 52
_cell_length_a 7.320738
_cell_length_b 9.552017
_cell_length_c 34.512700
_cell_angle_alpha 90.000000
_cell_angle_beta 90.000000
_cell_angle_gamma 90.000000
_cell_volume 2413.397660
_symmetry_space_group_name_H-M "P M M M"
_symmetry_group_IT_number 47
_symmetry_cell_setting 'orthorhombic'
loop_
_space_group_symop_operation_xyz
x,y,z
-x,-y,z
x,-y,-z
-x,y,-z
-x,-y,-z
x,y,-z
-x,y,z
x,-y,z
loop_
_atom_site_type_symbol
_atom_site_label
_atom_site_fract_x
_atom_site_fract_y
_atom_site_fract_z
Si Si1 0.277527 0.339111 0.456163
Si Si2 0.776763 0.839507 0.000000
Si Si3 0.777735 0.661212 0.073536
Si Si4 0.217491 0.658878 0.307683
Si Si5 0.223286 0.161118 0.234346
Si Si6 0.777762 0.338537 0.160618
Si Si7 0.281481 0.158410 0.384027
O O1 0.221410 0.302689 0.500000
O O2 0.500000 0.337813 0.455881
O O3 0.223181 0.500000 0.448202
O O4 0.213615 0.234960 0.422831
O O5 0.717089 0.759337 0.961283
O O6 0.000000 0.837099 0.000000
O O7 0.719880 0.000000 0.000000
O O8 0.723906 0.500000 0.066836
O O9 0.720553 0.701515 0.117063
O O10 0.000000 0.663373 0.073474
O O11 0.288890 0.500000 0.309769
O O12 0.285423 0.747483 0.270999
O O13 0.246866 0.745039 0.346914
O O14 0.000000 0.648193 0.302443
O O15 0.281368 0.235911 0.194629
O O16 0.000000 0.160787 0.234577
O O17 0.281020 0.000000 0.237007
O O18 0.723163 0.500000 0.167810
O O19 0.000000 0.337914 0.160786
O O20 0.500000 0.149389 0.387868
O O21 0.212262 0.000000 0.379098
#
# Coordination Sequence:
#
# PCOD9384678 Si02
#       7
#     8   4   8   8   8   8   8
#     4   8  14  26  45  68  93 121 152 184 217 255
#     4   9  15  19  23  33  49  69  97 137 184 233
#     4   8  13  20  28  36  49  73 104 139 182 232
#     4  10  20  33  49  67  88 118 154 188 223 265
#     4   9  16  25  38  56  77 100 127 164 210 255
#     4   8  13  21  32  45  61  83 114 152 193 239
#     4  10  20  32  48  72  99 124 150 183 224 267
#
# _framework density 21.546388
#
# number of rings (size 3 to 8) (size 9 to 14) (size 15 to 20)
#    0.000    3.154    0.000    3.000    0.000    5.538 
#    0.000    4.615    0.000    0.462    0.000    3.231 
#    0.000    0.000    0.000    0.000    0.000    0.000 
#
# Total GULP energy -290398.800146 kJ/mol
# GULP energy per Si atom -5584.592310 kJ/mol
# Density = 2.149735 g / cm^3
# Si number density = 21.546388 Si / 1000 Ang^3
#
#
#
# Elastic Constant Matrix: (Units=GPa)
#
#
# Indices 1 2 3 4 5 6 
#
# 1 86.2963 7.8414 3.8526 0.0000 0.0000 0.0000
# 2 7.8414 215.9672 170.5208 0.0000 0.0000 0.0000
# 3 3.8526 170.5208 226.7706 0.0000 0.0000 0.0000
# 4 0.0000 0.0000 0.0000 25.4893 0.0000 0.0000
# 5 0.0000 0.0000 0.0000 0.0000 5.1569 0.0000
# 6 0.0000 0.0000 0.0000 0.0000 0.0000 -5.4138
#
#
#
# Elastic Compliance Matrix: (Units=1/GPa)
#
#
# Indices 1 2 3 4 5 6 
#
# 1 0.011634 -0.000656 0.000295 0.000000 0.000000 0.000000
# 2 -0.000656 0.011434 -0.008587 0.000000 0.000000 0.000000
# 3 0.000295 -0.008587 0.010861 0.000000 0.000000 0.000000
# 4 0.000000 0.000000 0.000000 0.039232 0.000000 0.000000
# 5 0.000000 0.000000 0.000000 0.000000 0.193916 0.000000
# 6 0.000000 0.000000 0.000000 0.000000 0.000000 -0.184713
#
#
# Mechanical properties :
#
#
# Convention : Reuss Voigt Hill
#
# Bulk Modulus (GPa) = 62.35996 99.27373 80.81685
# Shear Modulus (GPa) = 47.34652 28.16776 37.75714
#
# Velocity S-wave (km/s) = 4.69275 3.61959 4.19067
# Velocity P-wave (km/s) = 7.63987 7.97766 7.81059
#
# Compressibility (1/GPa) = 0.01603593
#
# Stress axis : x y z
#
# Youngs Moduli (GPa) = 85.95228 87.46006 92.06919
#
# Poissons Ratio (x) = 0.05734 -0.02719
# Poissons Ratio (y) = 0.05635 0.79056
# Poissons Ratio (z) = -0.02538 0.75098
#
# Static dielectric constant tensor:
#      x y z
#    x 1.998240 0.000000 0.000000 
#    y 0.000000 1.717390 0.000000 
#    z 0.000000 0.000000 1.736870 
# 
# From -- ./inp_files/34529.got.cif
#   From: 2010.05.17/outbox.cif.g08.bks.cpg/sg47_18_cif.got.tgz:34529.got - 2010.06.03 20:15:42.
