data_PCOD9384954
_publ_section_title
;
Structure prediction by ZEFSAII (Michael W. Deem and Ramdas Pophale) SiO2 
 PCOD9384954
Probable space group: P M M M
;
_chemical_formula_sum "Si O2"
_cell_formula_units_Z 48
_cell_length_a 8.758562
_cell_length_b 15.647576
_cell_length_c 18.126807
_cell_angle_alpha 90.000000
_cell_angle_beta 90.000000
_cell_angle_gamma 90.000000
_cell_volume 2484.283695
_symmetry_space_group_name_H-M "P M M M"
_symmetry_group_IT_number 47
_symmetry_cell_setting 'orthorhombic'
loop_
_space_group_symop_operation_xyz
x,y,z
-x,-y,z
x,-y,-z
-x,y,-z
-x,-y,-z
x,y,-z
-x,y,z
x,-y,z
loop_
_atom_site_type_symbol
_atom_site_label
_atom_site_fract_x
_atom_site_fract_y
_atom_site_fract_z
Si Si1 0.173294 0.903983 0.134285
Si Si2 0.684679 0.596331 0.166805
Si Si3 0.180151 0.280717 0.291214
Si Si4 0.673725 0.617477 0.000000
Si Si5 0.319814 0.904046 0.709043
Si Si6 0.328561 0.181517 0.000000
Si Si7 0.681043 0.399324 0.585938
O O1 0.283708 0.903928 0.203891
O O2 0.236455 0.844704 0.071669
O O3 0.000000 0.882658 0.157522
O O4 0.170496 0.000000 0.103748
O O5 0.500000 0.606510 0.165274
O O6 0.717150 0.500000 0.196684
O O7 0.749531 0.672433 0.218124
O O8 0.740265 0.596446 0.081066
O O9 0.242891 0.186046 0.312245
O O10 0.223864 0.342725 0.358348
O O11 0.000000 0.275116 0.280796
O O12 0.661168 0.718235 0.000000
O O13 0.500000 0.584371 0.000000
O O14 0.500000 0.899168 0.694590
O O15 0.266770 0.000000 0.682801
O O16 0.500000 0.143917 0.000000
O O17 0.710060 0.379076 0.500000
O O18 0.500000 0.385795 0.600036
O O19 0.711191 0.500000 0.596382
#
# Coordination Sequence:
#
# PCOD9384954 Si02
#       7
#     8   8   8   4   8   4   8
#     4  10  20  33  48  68  97 131 170 225 291 347
#     4  10  20  36  58  80 106 145 195 247 292 337
#     4  12  24  36  56  87 122 156 188 228 283 347
#     4   9  19  34  51  72  98 135 186 240 287 325
#     4  10  21  38  59  80 104 139 186 236 281 332
#     4  11  20  29  45  67  94 133 181 227 273 339
#     4   9  19  38  64  92 122 157 196 237 281 330
#
# _framework density 19.321463999999999
#
# number of rings (size 3 to 8) (size 9 to 14) (size 15 to 20)
#    0.000    1.833    0.000    5.250    0.000    8.333 
#    0.000    2.083    0.000    1.500    0.000    3.500 
#    0.000    0.000    0.000    0.000    0.000    0.000 
#
# Total GULP energy -267613.243664 kJ/mol
# GULP energy per Si atom -5575.275910 kJ/mol
# Density = 1.927749 g / cm^3
# Si number density = 19.321464 Si / 1000 Ang^3
#
#
#
# Elastic Constant Matrix: (Units=GPa)
#
#
# Indices 1 2 3 4 5 6 
#
# 1 59.9979 49.3290 25.8194 0.0000 0.0000 0.0000
# 2 49.3290 114.8371 39.1011 0.0000 0.0000 0.0000
# 3 25.8194 39.1011 49.1002 0.0000 0.0000 0.0000
# 4 0.0000 0.0000 0.0000 23.2619 0.0000 0.0000
# 5 0.0000 0.0000 0.0000 0.0000 85.8576 0.0000
# 6 0.0000 0.0000 0.0000 0.0000 0.0000 107.8411
#
#
#
# Elastic Compliance Matrix: (Units=1/GPa)
#
#
# Indices 1 2 3 4 5 6 
#
# 1 0.027372 -0.009408 -0.006902 0.000000 0.000000 0.000000
# 2 -0.009408 0.015181 -0.007142 0.000000 0.000000 0.000000
# 3 -0.006902 -0.007142 0.029684 0.000000 0.000000 0.000000
# 4 0.000000 0.000000 0.000000 0.042989 0.000000 0.000000
# 5 0.000000 0.000000 0.000000 0.000000 0.011647 0.000000
# 6 0.000000 0.000000 0.000000 0.000000 0.000000 0.009273
#
#
# Mechanical properties :
#
#
# Convention : Reuss Voigt Hill
#
# Bulk Modulus (GPa) = 39.47413 50.27045 44.87229
# Shear Modulus (GPa) = 26.11040 50.70449 38.40744
#
# Velocity S-wave (km/s) = 3.68008 5.12831 4.46333
# Velocity P-wave (km/s) = 6.20741 7.81924 7.05947
#
# Compressibility (1/GPa) = 0.02533305
#
# Stress axis : x y z
#
# Youngs Moduli (GPa) = 36.53320 65.87103 33.68859
#
# Poissons Ratio (x) = 0.61972 0.23251
# Poissons Ratio (y) = 0.34370 0.24062
# Poissons Ratio (z) = 0.25214 0.47048
#
# Static dielectric constant tensor:
#      x y z
#    x 1.668880 0.000000 0.000000 
#    y 0.000000 1.718320 0.000000 
#    z 0.000000 0.000000 1.792070 
# 
# From -- ./inp_files/26511.got.cif
#   From: 2010.05.17/outbox.cif.g08.bks.cpg/sg47_14_cif.got.tgz:26511.got - 2010.06.03 20:15:42.
