data_PCOD9384761
_publ_section_title
;
Structure prediction by ZEFSAII (Michael W. Deem and Ramdas Pophale) SiO2 
 PCOD9384761
Probable space group: P M M M
;
_chemical_formula_sum "Si O2"
_cell_formula_units_Z 52
_cell_length_a 8.806369
_cell_length_b 20.965446
_cell_length_c 16.265323
_cell_angle_alpha 90.000000
_cell_angle_beta 90.000000
_cell_angle_gamma 90.000000
_cell_volume 3003.057700
_symmetry_space_group_name_H-M "P M M M"
_symmetry_group_IT_number 47
_symmetry_cell_setting 'orthorhombic'
loop_
_space_group_symop_operation_xyz
x,y,z
-x,-y,z
x,-y,-z
-x,y,-z
-x,-y,-z
x,y,-z
-x,y,z
x,-y,z
loop_
_atom_site_type_symbol
_atom_site_label
_atom_site_fract_x
_atom_site_fract_y
_atom_site_fract_z
Si Si1 0.323305 0.323027 0.622346
Si Si2 0.817902 0.172242 0.223459
Si Si3 0.818344 0.811624 0.590407
Si Si4 0.820463 0.429272 0.901460
Si Si5 0.324733 0.691888 0.185787
Si Si6 0.682720 0.925080 0.906472
Si Si7 0.684503 0.429372 0.500000
O O1 0.500000 0.310096 0.600019
O O2 0.225141 0.262870 0.594814
O O3 0.317346 0.329743 0.719503
O O4 0.272718 0.387124 0.578083
O O5 0.764012 0.163796 0.319309
O O6 0.761019 0.240230 0.187529
O O7 0.757633 0.117601 0.163409
O O8 0.000000 0.172574 0.224636
O O9 0.762908 0.835860 0.500000
O O10 0.000000 0.819327 0.590209
O O11 0.764793 0.500000 0.873291
O O12 0.742068 0.366470 0.865876
O O13 0.000000 0.426030 0.882431
O O14 0.804659 0.428245 0.000000
O O15 0.500000 0.703195 0.162748
O O16 0.500000 0.918772 0.901525
O O17 0.719148 0.000000 0.896146
O O18 0.727916 0.906519 0.000000
O O19 0.747076 0.500000 0.500000
O O20 0.500000 0.433518 0.500000
#
# Coordination Sequence:
#
# PCOD9384761 Si02
#       7
#     8   8   8   8   8   8   4
#     4   9  17  29  45  65  89 121 160 199 241 295
#     4  10  20  33  52  80 109 137 174 216 256 303
#     4   9  17  30  49  71  98 132 166 206 253 296
#     4   9  19  36  54  69  89 123 166 209 257 313
#     4  10  20  32  49  74 101 129 165 210 257 303
#     4   9  19  37  59  81 108 142 174 207 254 308
#     4   9  16  26  41  61  87 119 154 195 242 291
#
# _framework density 17.315684000000001
#
# number of rings (size 3 to 8) (size 9 to 14) (size 15 to 20)
#    0.000    2.692    0.769    1.846    0.000    3.692 
#    0.000    3.077    0.000    1.385    0.000    3.231 
#    0.000    0.000    0.000    0.000    0.000    0.000 
#
# Total GULP energy -289498.660939 kJ/mol
# GULP energy per Si atom -5567.281941 kJ/mol
# Density = 1.727627 g / cm^3
# Si number density = 17.315684 Si / 1000 Ang^3
#
#
#
# Elastic Constant Matrix: (Units=GPa)
#
#
# Indices 1 2 3 4 5 6 
#
# 1 29.6017 30.1237 34.9070 0.0000 0.0000 0.0000
# 2 30.1237 89.4019 71.5627 0.0000 0.0000 0.0000
# 3 34.9070 71.5627 107.6994 0.0000 0.0000 0.0000
# 4 0.0000 0.0000 0.0000 1.8486 0.0000 0.0000
# 5 0.0000 0.0000 0.0000 0.0000 15.5974 0.0000
# 6 0.0000 0.0000 0.0000 0.0000 0.0000 24.4365
#
#
#
# Elastic Compliance Matrix: (Units=1/GPa)
#
#
# Indices 1 2 3 4 5 6 
#
# 1 0.058341 -0.009659 -0.012491 0.000000 0.000000 0.000000
# 2 -0.009659 0.025494 -0.013809 0.000000 0.000000 0.000000
# 3 -0.012491 -0.013809 0.022509 0.000000 0.000000 0.000000
# 4 0.000000 0.000000 0.000000 0.540951 0.000000 0.000000
# 5 0.000000 0.000000 0.000000 0.000000 0.064113 0.000000
# 6 0.000000 0.000000 0.000000 0.000000 0.000000 0.040922
#
#
# Mechanical properties :
#
#
# Convention : Reuss Voigt Hill
#
# Bulk Modulus (GPa) = 29.04821 55.54334 42.29577
# Shear Modulus (GPa) = 5.98283 14.38379 10.18331
#
# Velocity S-wave (km/s) = 1.86082 2.88528 2.42770
# Velocity P-wave (km/s) = 4.62914 6.57619 5.68662
#
# Compressibility (1/GPa) = 0.03442553
#
# Stress axis : x y z
#
# Youngs Moduli (GPa) = 17.14054 39.22545 44.42632
#
# Poissons Ratio (x) = 0.37889 0.55493
# Poissons Ratio (y) = 0.16557 0.61348
# Poissons Ratio (z) = 0.21410 0.54166
#
# Static dielectric constant tensor:
#      x y z
#    x 1.596170 0.000000 0.000000 
#    y 0.000000 1.562960 0.000000 
#    z 0.000000 0.000000 1.619210 
# 
# From -- ./inp_files/7004.got.cif
#   From: 2010.05.17/outbox.cif.g08.bks.cpg/sg47_4_cif.got.tgz:7004.got - 2010.06.03 20:15:42.
