data_PCOD9384409
_publ_section_title
;
Structure prediction by ZEFSAII (Michael W. Deem and Ramdas Pophale) SiO2 
 PCOD9384409
Probable space group: P M M M
;
_chemical_formula_sum "Si O2"
_cell_formula_units_Z 52
_cell_length_a 9.051947
_cell_length_b 28.874025
_cell_length_c 12.212927
_cell_angle_alpha 90.000000
_cell_angle_beta 90.000000
_cell_angle_gamma 90.000000
_cell_volume 3192.045637
_symmetry_space_group_name_H-M "P M M M"
_symmetry_group_IT_number 47
_symmetry_cell_setting 'orthorhombic'
loop_
_space_group_symop_operation_xyz
x,y,z
-x,-y,z
x,-y,-z
-x,y,-z
-x,-y,-z
x,y,-z
-x,y,z
x,-y,z
loop_
_atom_site_type_symbol
_atom_site_label
_atom_site_fract_x
_atom_site_fract_y
_atom_site_fract_z
Si Si1 0.834448 0.054320 0.500000
Si Si2 0.830919 0.728246 0.367076
Si Si3 0.677127 0.079474 0.275432
Si Si4 0.677155 0.175327 0.371488
Si Si5 0.176346 0.000000 0.869145
Si Si6 0.831268 0.443892 0.000000
Si Si7 0.329469 0.634506 0.631829
Si Si8 0.179223 0.446304 0.239814
O O1 0.740126 0.064314 0.392669
O O2 0.000000 0.076283 0.500000
O O3 0.856435 0.000000 0.500000
O O4 0.831497 0.726679 0.500000
O O5 0.751957 0.776439 0.339671
O O6 0.745727 0.682320 0.329761
O O7 0.000000 0.727660 0.329553
O O8 0.500000 0.073969 0.269116
O O9 0.711544 0.134471 0.285017
O O10 0.752598 0.045928 0.186427
O O11 0.720148 0.164206 0.500000
O O12 0.500000 0.180489 0.373452
O O13 0.000000 0.000000 0.847575
O O14 0.200095 0.000000 0.000000
O O15 0.765772 0.432139 0.882188
O O16 0.839323 0.500000 0.000000
O O17 0.000000 0.426335 0.000000
O O18 0.324724 0.634398 0.500000
O O19 0.500000 0.632960 0.665830
O O20 0.243673 0.589985 0.675731
O O21 0.220328 0.500000 0.260872
O O22 0.000000 0.444743 0.239302
#
# Coordination Sequence:
#
# PCOD9384409 Si02
#       8
#     4   8   8   8   4   4   8   8
#     4  11  21  31  47  75 110 140 162 194 247 294
#     4   9  17  29  46  69  95 127 166 202 237 285
#     4  11  21  34  54  78 104 134 169 205 246 298
#     4   9  17  30  47  73 106 132 156 193 246 298
#     4  11  25  42  55  72 101 137 177 217 254 293
#     4   7  12  26  47  69  91 115 147 191 243 288
#     4  10  20  32  45  64  96 136 168 198 239 286
#     4   9  17  30  49  71  94 122 159 203 247 294
#
# _framework density 16.290493000000001
#
# number of rings (size 3 to 8) (size 9 to 14) (size 15 to 20)
#    0.000    2.385    1.538    2.769    0.000    5.538 
#    0.000    1.923    0.000    1.385    2.000    0.000 
#    0.000    0.000    0.000    0.000    0.000    0.000 
#
# Total GULP energy -289481.765811 kJ/mol
# GULP energy per Si atom -5566.957035 kJ/mol
# Density = 1.625342 g / cm^3
# Si number density = 16.290493 Si / 1000 Ang^3
#
#
#
# Elastic Constant Matrix: (Units=GPa)
#
#
# Indices 1 2 3 4 5 6 
#
# 1 65.9580 63.8417 33.2134 0.0000 0.0000 0.0000
# 2 63.8417 134.7548 39.7707 0.0000 0.0000 0.0000
# 3 33.2134 39.7707 49.0060 0.0000 0.0000 0.0000
# 4 0.0000 0.0000 0.0000 4.5815 0.0000 0.0000
# 5 0.0000 0.0000 0.0000 0.0000 16.0235 0.0000
# 6 0.0000 0.0000 0.0000 0.0000 0.0000 29.1327
#
#
#
# Elastic Compliance Matrix: (Units=1/GPa)
#
#
# Indices 1 2 3 4 5 6 
#
# 1 0.033145 -0.011931 -0.012782 0.000000 0.000000 0.000000
# 2 -0.011931 0.014053 -0.003318 0.000000 0.000000 0.000000
# 3 -0.012782 -0.003318 0.031761 0.000000 0.000000 0.000000
# 4 0.000000 0.000000 0.000000 0.218271 0.000000 0.000000
# 5 0.000000 0.000000 0.000000 0.000000 0.062408 0.000000
# 6 0.000000 0.000000 0.000000 0.000000 0.000000 0.034326
#
#
# Mechanical properties :
#
#
# Convention : Reuss Voigt Hill
#
# Bulk Modulus (GPa) = 43.67236 58.15226 50.91231
# Shear Modulus (GPa) = 10.92519 17.47372 14.19946
#
# Velocity S-wave (km/s) = 2.59250 3.27866 2.95556
# Velocity P-wave (km/s) = 5.98566 7.07866 6.55498
#
# Compressibility (1/GPa) = 0.02289778
#
# Stress axis : x y z
#
# Youngs Moduli (GPa) = 30.17025 71.16131 31.48489
#
# Poissons Ratio (x) = 0.84900 0.40243
# Poissons Ratio (y) = 0.35995 0.10448
# Poissons Ratio (z) = 0.38562 0.23614
#
# Static dielectric constant tensor:
#      x y z
#    x 1.567040 0.000000 0.000000 
#    y 0.000000 1.558650 0.000000 
#    z 0.000000 0.000000 1.544840 
# 
# From -- ./inp_files/15692.got.cif
#   From: 2010.05.17/outbox.cif.g08.bks.cpg/sg47_8_cif.got.tgz:15692.got - 2010.06.03 20:15:42.
