data_PCOD9384446
_publ_section_title
;
Structure prediction by ZEFSAII (Michael W. Deem and Ramdas Pophale) SiO2 
 PCOD9384446
Probable space group: P M M M
;
_chemical_formula_sum "Si O2"
_cell_formula_units_Z 64
_cell_length_a 7.623367
_cell_length_b 18.534472
_cell_length_c 20.689281
_cell_angle_alpha 90.000000
_cell_angle_beta 90.000000
_cell_angle_gamma 90.000000
_cell_volume 2923.293660
_symmetry_space_group_name_H-M "P M M M"
_symmetry_group_IT_number 47
_symmetry_cell_setting 'orthorhombic'
loop_
_space_group_symop_operation_xyz
x,y,z
-x,-y,z
x,-y,-z
-x,y,-z
-x,-y,-z
x,y,-z
-x,y,z
x,-y,z
loop_
_atom_site_type_symbol
_atom_site_label
_atom_site_fract_x
_atom_site_fract_y
_atom_site_fract_z
Si Si1 0.297482 0.576814 0.620692
Si Si2 0.704767 0.922332 0.284911
Si Si3 0.712951 0.220500 0.212253
Si Si4 0.799300 0.112861 0.572919
Si Si5 0.295460 0.578275 0.903280
Si Si6 0.794685 0.616088 0.240570
Si Si7 0.285778 0.738361 0.930091
Si Si8 0.301730 0.725729 0.423674
O O1 0.500000 0.579075 0.597477
O O2 0.221335 0.500000 0.599527
O O3 0.294565 0.581157 0.697796
O O4 0.214748 0.652470 0.600378
O O5 0.500000 0.923369 0.266957
O O6 0.776757 0.849770 0.251324
O O7 0.713510 0.918104 0.362855
O O8 0.782599 0.000000 0.265355
O O9 0.500000 0.221733 0.214374
O O10 0.771998 0.297036 0.241719
O O11 0.767897 0.222985 0.136501
O O12 0.725315 0.099897 0.500000
O O13 0.793470 0.198893 0.584996
O O14 0.000000 0.088469 0.571737
O O15 0.500000 0.577042 0.922145
O O16 0.219412 0.500000 0.921519
O O17 0.283367 0.587102 0.826045
O O18 0.223089 0.654821 0.927478
O O19 0.000000 0.598791 0.241917
O O20 0.500000 0.736607 0.928212
O O21 0.234291 0.769274 0.000000
O O22 0.318685 0.716782 0.500000
O O23 0.500000 0.733489 0.395203
#
# Coordination Sequence:
#
# PCOD9384446 Si02
#       8
#     8   8   8   8   8   8   8   8
#     4  10  20  32  46  65  91 123 159 203 253 297
#     4  10  21  36  55  79 105 133 164 198 238 287
#     4   9  18  34  54  74  99 130 163 201 244 291
#     4  10  21  36  54  77 105 135 165 199 241 290
#     4   9  17  29  45  66  95 130 165 203 248 293
#     4  11  21  31  46  68  93 123 163 205 243 289
#     4   8  14  26  47  74  99 127 167 209 246 288
#     4   9  18  33  52  71  91 120 160 202 242 288
#
# _framework density 21.893115000000002
#
# number of rings (size 3 to 8) (size 9 to 14) (size 15 to 20)
#    0.000    2.500    0.000    3.375    0.000    7.750 
#    0.000    3.750    0.000    6.375    0.000    8.750 
#    0.000    0.000    0.000    5.625    0.000    6.250 
#
# Total GULP energy -357040.878761 kJ/mol
# GULP energy per Si atom -5578.763731 kJ/mol
# Density = 2.184329 g / cm^3
# Si number density = 21.893115 Si / 1000 Ang^3
#
#
#
# Elastic Constant Matrix: (Units=GPa)
#
#
# Indices 1 2 3 4 5 6 
#
# 1 57.2792 2.5899 -2.8338 0.0000 0.0000 0.0000
# 2 2.5899 137.3944 57.5115 0.0000 0.0000 0.0000
# 3 -2.8338 57.5115 65.2459 0.0000 0.0000 0.0000
# 4 0.0000 0.0000 0.0000 7.0921 0.0000 0.0000
# 5 0.0000 0.0000 0.0000 0.0000 -36.3110 0.0000
# 6 0.0000 0.0000 0.0000 0.0000 0.0000 45.8903
#
#
#
# Elastic Compliance Matrix: (Units=1/GPa)
#
#
# Indices 1 2 3 4 5 6 
#
# 1 0.017588 -0.001032 0.001674 0.000000 0.000000 0.000000
# 2 -0.001032 0.011595 -0.010265 0.000000 0.000000 0.000000
# 3 0.001674 -0.010265 0.024447 0.000000 0.000000 0.000000
# 4 0.000000 0.000000 0.000000 0.141002 0.000000 0.000000
# 5 0.000000 0.000000 0.000000 0.000000 -0.027540 0.000000
# 6 0.000000 0.000000 0.000000 0.000000 0.000000 0.021791
#
#
# Mechanical properties :
#
#
# Convention : Reuss Voigt Hill
#
# Bulk Modulus (GPa) = 29.08413 41.60607 35.34510
# Shear Modulus (GPa) = 22.76964 16.84442 19.80703
#
# Velocity S-wave (km/s) = 3.22846 2.77680 3.01111
# Velocity P-wave (km/s) = 5.21639 5.41537 5.31681
#
# Compressibility (1/GPa) = 0.03438301
#
# Stress axis : x y z
#
# Youngs Moduli (GPa) = 56.85760 86.24753 40.90409
#
# Poissons Ratio (x) = 0.08902 -0.06846
# Poissons Ratio (y) = 0.05868 0.41988
# Poissons Ratio (z) = -0.09516 0.88532
#
# Static dielectric constant tensor:
#      x y z
#    x 1.832080 0.000000 0.000000 
#    y 0.000000 1.842710 0.000000 
#    z 0.000000 0.000000 1.802370 
# 
# From -- ./inp_files/11622.got.cif
#   From: 2010.05.17/outbox.cif.g08.bks.cpg/sg47_6_cif.got.tgz:11622.got - 2010.06.03 20:15:42.
