data_PCOD9384338
_publ_section_title
;
Structure prediction by ZEFSAII (Michael W. Deem and Ramdas Pophale) SiO2 
 PCOD9384338
Probable space group: P M M M
;
_chemical_formula_sum "Si O2"
_cell_formula_units_Z 56
_cell_length_a 15.509464
_cell_length_b 24.582610
_cell_length_c 8.044647
_cell_angle_alpha 90.000000
_cell_angle_beta 90.000000
_cell_angle_gamma 90.000000
_cell_volume 3067.127092
_symmetry_space_group_name_H-M "P M M M"
_symmetry_group_IT_number 47
_symmetry_cell_setting 'orthorhombic'
loop_
_space_group_symop_operation_xyz
x,y,z
-x,-y,z
x,-y,-z
-x,y,-z
-x,-y,-z
x,y,-z
-x,y,z
x,-y,z
loop_
_atom_site_type_symbol
_atom_site_label
_atom_site_fract_x
_atom_site_fract_y
_atom_site_fract_z
Si Si1 0.172267 0.139160 0.308030
Si Si2 0.594533 0.302900 0.301002
Si Si3 0.592940 0.100486 0.000000
Si Si4 0.905397 0.252038 0.299831
Si Si5 0.096424 0.438389 0.300589
Si Si6 0.369177 0.822254 0.307587
Si Si7 0.775489 0.655325 0.805651
Si Si8 0.788918 0.063097 0.000000
O O1 0.154597 0.121223 0.500000
O O2 0.109636 0.188732 0.260204
O O3 0.266872 0.166938 0.310123
O O4 0.176649 0.093438 0.166036
O O5 0.591041 0.303710 0.500000
O O6 0.500000 0.319665 0.236162
O O7 0.610774 0.239595 0.256641
O O8 0.677573 0.337744 0.253608
O O9 0.595699 0.137628 0.166379
O O10 0.500000 0.071069 0.000000
O O11 0.683863 0.068654 0.000000
O O12 0.903638 0.255886 0.500000
O O13 0.829598 0.290446 0.237333
O O14 0.000000 0.269998 0.241042
O O15 0.091722 0.440664 0.500000
O O16 0.113647 0.500000 0.240320
O O17 0.169941 0.395382 0.260809
O O18 0.000000 0.422079 0.240880
O O19 0.398911 0.830789 0.500000
O O20 0.772606 0.649653 0.000000
O O21 0.812187 0.000000 0.000000
#
# Coordination Sequence:
#
# PCOD9384338 Si02
#       8
#     8   8   4   8   8   8   8   4
#     4   9  18  34  56  78 105 140 178 224 277 330
#     4  10  20  34  53  75 105 147 190 231 274 325
#     4  10  20  31  50  75 103 136 174 226 275 327
#     4  10  20  35  56  81 111 147 183 223 276 337
#     4   9  19  38  62  83 107 148 199 241 276 323
#     4   9  17  31  50  73 103 139 179 220 269 330
#     4  12  24  33  51  83 122 154 180 225 282 340
#     4  10  22  37  55  76 102 141 185 226 275 333
#
# _framework density 18.258129
#
# number of rings (size 3 to 8) (size 9 to 14) (size 15 to 20)
#    0.000    2.143    1.429    2.571    2.000    4.143 
#    0.000    0.714    0.000    1.286    0.000    9.000 
#    0.000    0.000    0.000    0.000    0.000    0.000 
#
# Total GULP energy -312248.909887 kJ/mol
# GULP energy per Si atom -5575.873391 kJ/mol
# Density = 1.821657 g / cm^3
# Si number density = 18.258129 Si / 1000 Ang^3
#
#
#
# Elastic Constant Matrix: (Units=GPa)
#
#
# Indices 1 2 3 4 5 6 
#
# 1 102.3698 49.7046 25.6377 0.0000 0.0000 0.0000
# 2 49.7046 95.0432 39.2251 0.0000 0.0000 0.0000
# 3 25.6377 39.2251 59.2196 0.0000 0.0000 0.0000
# 4 0.0000 0.0000 0.0000 24.1249 0.0000 0.0000
# 5 0.0000 0.0000 0.0000 0.0000 -9.0504 0.0000
# 6 0.0000 0.0000 0.0000 0.0000 0.0000 6.0154
#
#
#
# Elastic Compliance Matrix: (Units=1/GPa)
#
#
# Indices 1 2 3 4 5 6 
#
# 1 0.013199 -0.006254 -0.001572 0.000000 0.000000 0.000000
# 2 -0.006254 0.017443 -0.008846 0.000000 0.000000 0.000000
# 3 -0.001572 -0.008846 0.023426 0.000000 0.000000 0.000000
# 4 0.000000 0.000000 0.000000 0.041451 0.000000 0.000000
# 5 0.000000 0.000000 0.000000 0.000000 -0.110493 0.000000
# 6 0.000000 0.000000 0.000000 0.000000 0.000000 0.166241
#
#
# Mechanical properties :
#
#
# Convention : Reuss Voigt Hill
#
# Bulk Modulus (GPa) = 48.25250 53.97414 51.11332
# Shear Modulus (GPa) = 26.10717 13.68899 19.89808
#
# Velocity S-wave (km/s) = 3.78549 2.74112 3.30482
# Velocity P-wave (km/s) = 6.75218 6.29637 6.52825
#
# Compressibility (1/GPa) = 0.02072432
#
# Stress axis : x y z
#
# Youngs Moduli (GPa) = 75.76563 57.32962 42.68725
#
# Poissons Ratio (x) = 0.35853 0.06709
# Poissons Ratio (y) = 0.47382 0.37762
# Poissons Ratio (z) = 0.11908 0.50715
#
# Static dielectric constant tensor:
#      x y z
#    x 1.574470 0.000000 0.000000 
#    y 0.000000 1.631380 0.000000 
#    z 0.000000 0.000000 1.635290 
# 
# From -- ./inp_files/7378.got.cif
#   From: 2010.05.17/outbox.cif.g08.bks.cpg/sg47_4_cif.got.tgz:7378.got - 2010.06.03 20:15:42.
