data_PCOD9384587
_publ_section_title
;
Structure prediction by ZEFSAII (Michael W. Deem and Ramdas Pophale) SiO2 
 PCOD9384587
Probable space group: P M M M
;
_chemical_formula_sum "Si O2"
_cell_formula_units_Z 44
_cell_length_a 29.500525
_cell_length_b 9.830937
_cell_length_c 7.670998
_cell_angle_alpha 90.000000
_cell_angle_beta 90.000000
_cell_angle_gamma 90.000000
_cell_volume 2224.725985
_symmetry_space_group_name_H-M "P M M M"
_symmetry_group_IT_number 47
_symmetry_cell_setting 'orthorhombic'
loop_
_space_group_symop_operation_xyz
x,y,z
-x,-y,z
x,-y,-z
-x,y,-z
-x,-y,-z
x,y,-z
-x,y,z
x,-y,z
loop_
_atom_site_type_symbol
_atom_site_label
_atom_site_fract_x
_atom_site_fract_y
_atom_site_fract_z
Si Si1 0.401242 0.344318 0.789389
Si Si2 0.049943 0.154728 0.209320
Si Si3 0.133431 0.652931 0.708739
Si Si4 0.500000 0.334733 0.200513
Si Si5 0.765156 0.657270 0.287037
Si Si6 0.316529 0.154566 0.290941
O O1 0.391844 0.500000 0.729841
O O2 0.451019 0.299009 0.722201
O O3 0.361601 0.241234 0.743979
O O4 0.404536 0.350028 0.000000
O O5 0.092142 0.248485 0.252730
O O6 0.000000 0.202602 0.270653
O O7 0.056455 0.000000 0.272959
O O8 0.047964 0.149335 0.000000
O O9 0.136716 0.645241 0.500000
O O10 0.124572 0.500000 0.774929
O O11 0.183765 0.695151 0.769610
O O12 0.500000 0.500000 0.195787
O O13 0.500000 0.285264 0.000000
O O14 0.764255 0.659040 0.500000
O O15 0.756561 0.500000 0.235811
O O16 0.726564 0.759559 0.224234
O O17 0.311636 0.146454 0.500000
O O18 0.318718 0.000000 0.223676
#
# Coordination Sequence:
#
# PCOD9384587 Si02
#       6
#     8   8   8   4   8   8
#     4   9  17  31  52  74  94 120 157 199 240 281
#     4   9  19  35  51  68  95 131 166 196 229 275
#     4   9  18  32  51  76 100 120 151 198 244 283
#     4   7  12  26  48  71  92 116 152 197 238 277
#     4   8  15  30  50  69  92 124 159 194 234 280
#     4  10  20  32  47  70  99 129 160 193 232 280
#
# _framework density 19.777716000000002
#
# number of rings (size 3 to 8) (size 9 to 14) (size 15 to 20)
#    0.000    3.182    0.000    3.273    0.000    3.636 
#    0.000    6.364    0.000    5.455    0.000    0.000 
#    0.000    0.000    0.000    0.000    0.000    0.000 
#
# Total GULP energy -245209.403857 kJ/mol
# GULP energy per Si atom -5572.940997 kJ/mol
# Density = 1.973270 g / cm^3
# Si number density = 19.777716 Si / 1000 Ang^3
#
#
#
# Elastic Constant Matrix: (Units=GPa)
#
#
# Indices 1 2 3 4 5 6 
#
# 1 236.3620 139.7997 6.2952 0.0000 0.0000 0.0000
# 2 139.7997 131.1729 6.3343 0.0000 0.0000 0.0000
# 3 6.2952 6.3343 32.9680 0.0000 0.0000 0.0000
# 4 0.0000 0.0000 0.0000 19.4096 0.0000 0.0000
# 5 0.0000 0.0000 0.0000 0.0000 24.8551 0.0000
# 6 0.0000 0.0000 0.0000 0.0000 0.0000 -34.2543
#
#
#
# Elastic Compliance Matrix: (Units=1/GPa)
#
#
# Indices 1 2 3 4 5 6 
#
# 1 0.011447 -0.012207 0.000160 0.000000 0.000000 0.000000
# 2 -0.012207 0.020713 -0.001649 0.000000 0.000000 0.000000
# 3 0.000160 -0.001649 0.030619 0.000000 0.000000 0.000000
# 4 0.000000 0.000000 0.000000 0.051521 0.000000 0.000000
# 5 0.000000 0.000000 0.000000 0.000000 0.040233 0.000000
# 6 0.000000 0.000000 0.000000 0.000000 0.000000 -0.029193
#
#
# Mechanical properties :
#
#
# Convention : Reuss Voigt Hill
#
# Bulk Modulus (GPa) = 28.25972 78.37349 53.31661
# Shear Modulus (GPa) = 30.39015 18.54033 24.46524
#
# Velocity S-wave (km/s) = 3.92418 3.06508 3.52093
# Velocity P-wave (km/s) = 5.90356 7.22769 6.59892
#
# Compressibility (1/GPa) = 0.03538605
#
# Stress axis : x y z
#
# Youngs Moduli (GPa) = 87.36177 48.27854 32.65971
#
# Poissons Ratio (x) = 0.58934 -0.00522
# Poissons Ratio (y) = 1.06644 0.05385
# Poissons Ratio (z) = -0.01395 0.07960
#
# Static dielectric constant tensor:
#      x y z
#    x 1.712740 0.000000 0.000000 
#    y 0.000000 1.673190 0.000000 
#    z 0.000000 0.000000 1.755440 
# 
# From -- ./inp_files/2053.got.cif
#   From: 2010.05.17/outbox.cif.g08.bks.cpg/sg47_2_cif.got.tgz:2053.got - 2010.06.03 20:15:42.
