data_PCOD9384793
_publ_section_title
;
Structure prediction by ZEFSAII (Michael W. Deem and Ramdas Pophale) SiO2 
 PCOD9384793
Probable space group: P M M M
;
_chemical_formula_sum "Si O2"
_cell_formula_units_Z 53
_cell_length_a 9.621137
_cell_length_b 18.315994
_cell_length_c 17.155370
_cell_angle_alpha 90.000000
_cell_angle_beta 90.000000
_cell_angle_gamma 90.000000
_cell_volume 3023.131097
_symmetry_space_group_name_H-M "P M M M"
_symmetry_group_IT_number 47
_symmetry_cell_setting 'orthorhombic'
loop_
_space_group_symop_operation_xyz
x,y,z
-x,-y,z
x,-y,-z
-x,y,-z
-x,-y,-z
x,y,-z
-x,y,z
x,-y,z
loop_
_atom_site_type_symbol
_atom_site_label
_atom_site_fract_x
_atom_site_fract_y
_atom_site_fract_z
Si Si1 0.341611 0.772051 0.188185
Si Si2 0.500000 0.500000 0.000000
Si Si3 0.834422 0.144851 0.411873
Si Si4 0.340463 0.717304 0.365978
Si Si5 0.216433 0.500000 0.913000
Si Si6 0.156720 0.416080 0.594203
Si Si7 0.837808 0.340051 0.090666
Si Si8 0.334780 0.916566 0.268469
O O1 0.500000 0.771426 0.158618
O O2 0.340968 0.738544 0.275096
O O3 0.247004 0.721559 0.135103
O O4 0.297424 0.855925 0.203739
O O5 0.378316 0.500000 0.933169
O O6 0.816774 0.115997 0.500000
O O7 0.759605 0.223742 0.407032
O O8 0.756439 0.098484 0.345476
O O9 0.000000 0.150635 0.396651
O O10 0.500000 0.721135 0.394208
O O11 0.272884 0.638518 0.376157
O O12 0.179965 0.422316 0.875717
O O13 0.147294 0.500000 0.000000
O O14 0.159021 0.414113 0.500000
O O15 0.178596 0.500000 0.618028
O O16 0.000000 0.393820 0.618683
O O17 0.000000 0.322293 0.092352
O O18 0.790701 0.343722 0.000000
O O19 0.500000 0.904713 0.286497
O O20 0.317596 0.000000 0.243213
#
# Coordination Sequence:
#
# PCOD9384793 Si02
#       8
#     8   1   8   8   4   8   8   8
#     4   9  20  35  53  76 102 133 170 209 252 309
#     4   8  16  28  50  84 104 140 172 204 242 304
#     4  10  20  32  49  75 104 134 169 210 257 310
#     4  10  20  34  49  70  98 130 170 216 260 306
#     4   8  17  30  50  77 107 136 171 200 244 298
#     4   9  18  32  49  68  92 127 171 216 261 309
#     4  10  20  34  54  79 109 138 171 213 254 300
#     4   9  19  37  57  77 104 137 172 213 261 310
#
# _framework density 17.531492
#
# number of rings (size 3 to 8) (size 9 to 14) (size 15 to 20)
#    0.226    2.415    0.000    2.943    1.057    8.453 
#    1.358    2.264    0.000    0.453    0.000    3.170 
#    0.000    0.000    0.000    0.000    0.000    0.000 
#
# Total GULP energy -295035.874280 kJ/mol
# GULP energy per Si atom -5566.714609 kJ/mol
# Density = 1.749159 g / cm^3
# Si number density = 17.531492 Si / 1000 Ang^3
#
#
#
# Elastic Constant Matrix: (Units=GPa)
#
#
# Indices 1 2 3 4 5 6 
#
# 1 89.9419 57.7446 27.2057 0.0000 0.0000 0.0000
# 2 57.7446 136.3997 39.4299 0.0000 0.0000 0.0000
# 3 27.2057 39.4299 37.9082 0.0000 0.0000 0.0000
# 4 0.0000 0.0000 0.0000 10.9502 0.0000 0.0000
# 5 0.0000 0.0000 0.0000 0.0000 26.3950 0.0000
# 6 0.0000 0.0000 0.0000 0.0000 0.0000 18.3235
#
#
#
# Elastic Compliance Matrix: (Units=1/GPa)
#
#
# Indices 1 2 3 4 5 6 
#
# 1 0.016306 -0.005034 -0.006467 0.000000 0.000000 0.000000
# 2 -0.005034 0.012038 -0.008908 0.000000 0.000000 0.000000
# 3 -0.006467 -0.008908 0.040286 0.000000 0.000000 0.000000
# 4 0.000000 0.000000 0.000000 0.091323 0.000000 0.000000
# 5 0.000000 0.000000 0.000000 0.000000 0.037886 0.000000
# 6 0.000000 0.000000 0.000000 0.000000 0.000000 0.054575
#
#
# Mechanical properties :
#
#
# Convention : Reuss Voigt Hill
#
# Bulk Modulus (GPa) = 35.95470 57.00111 46.47791
# Shear Modulus (GPa) = 16.52884 20.45837 18.49361
#
# Velocity S-wave (km/s) = 3.07385 3.41977 3.25141
# Velocity P-wave (km/s) = 5.75771 6.94098 6.37685
#
# Compressibility (1/GPa) = 0.02781277
#
# Stress axis : x y z
#
# Youngs Moduli (GPa) = 61.32659 83.07305 24.82239
#
# Poissons Ratio (x) = 0.41818 0.16052
# Poissons Ratio (y) = 0.30871 0.22112
# Poissons Ratio (z) = 0.39657 0.74003
#
# Static dielectric constant tensor:
#      x y z
#    x 1.591990 0.000000 0.000000 
#    y 0.000000 1.624060 0.000000 
#    z 0.000000 0.000000 1.597960 
# 
# From -- ./inp_files/26800.got.cif
#   From: 2010.05.17/outbox.cif.g08.bks.cpg/sg47_14_cif.got.tgz:26800.got - 2010.06.03 20:15:42.
