data_PCOD9384479
_publ_section_title
;
Structure prediction by ZEFSAII (Michael W. Deem and Ramdas Pophale) SiO2 
 PCOD9384479
Probable space group: P M M M
;
_chemical_formula_sum "Si O2"
_cell_formula_units_Z 52
_cell_length_a 30.958689
_cell_length_b 10.619043
_cell_length_c 9.194990
_cell_angle_alpha 90.000000
_cell_angle_beta 90.000000
_cell_angle_gamma 90.000000
_cell_volume 3022.868132
_symmetry_space_group_name_H-M "P M M M"
_symmetry_group_IT_number 47
_symmetry_cell_setting 'orthorhombic'
loop_
_space_group_symop_operation_xyz
x,y,z
-x,-y,z
x,-y,-z
-x,y,-z
-x,-y,-z
x,y,-z
-x,y,z
x,-y,z
loop_
_atom_site_type_symbol
_atom_site_label
_atom_site_fract_x
_atom_site_fract_y
_atom_site_fract_z
Si Si1 0.786145 0.845860 0.832351
Si Si2 0.610111 0.148056 0.825565
Si Si3 0.949622 0.241707 0.826115
Si Si4 0.948047 0.500000 0.334827
Si Si5 0.448392 0.355691 0.326859
Si Si6 0.699737 0.847549 0.666266
Si Si7 0.129961 0.146936 0.337273
O O1 0.743431 0.805157 0.745764
O O2 0.829702 0.799975 0.753215
O O3 0.786256 0.000000 0.833274
O O4 0.785010 0.806043 0.000000
O O5 0.576214 0.246723 0.759527
O O6 0.656740 0.180889 0.757009
O O7 0.600754 0.000000 0.789133
O O8 0.611525 0.157124 0.000000
O O9 0.937886 0.376995 0.758054
O O10 0.914625 0.154481 0.750207
O O11 0.000000 0.213363 0.791300
O O12 0.945612 0.241058 0.000000
O O13 0.930759 0.500000 0.500000
O O14 0.000000 0.500000 0.347216
O O15 0.440146 0.341700 0.500000
O O16 0.500000 0.344990 0.305244
O O17 0.435968 0.500000 0.286047
O O18 0.696964 0.802035 0.500000
O O19 0.702099 0.000000 0.660865
O O20 0.125731 0.201261 0.500000
O O21 0.140094 0.000000 0.353274
#
# Coordination Sequence:
#
# PCOD9384479 Si02
#       7
#     8   8   8   4   8   8   8
#     4   9  16  27  44  66  94 126 159 197 241 288
#     4  10  20  32  48  75 108 137 169 212 261 309
#     4  10  20  33  49  69  93 121 155 196 241 287
#     4   9  17  31  51  71  89 111 145 189 233 277
#     4   9  19  36  55  74  99 135 179 221 260 307
#     4   9  16  27  45  69  97 128 162 201 245 291
#     4  10  20  32  46  67  96 129 164 198 235 285
#
# _framework density 17.202204999999999
#
# number of rings (size 3 to 8) (size 9 to 14) (size 15 to 20)
#    0.000    2.538    0.000    3.000    0.000    8.615 
#    0.000    3.846    0.000    0.000    2.000    0.000 
#    0.000    0.000    0.000    0.000    0.000    0.000 
#
# Total GULP energy -289652.613053 kJ/mol
# GULP energy per Si atom -5570.242559 kJ/mol
# Density = 1.716305 g / cm^3
# Si number density = 17.202205 Si / 1000 Ang^3
#
#
#
# Elastic Constant Matrix: (Units=GPa)
#
#
# Indices 1 2 3 4 5 6 
#
# 1 106.6307 41.5499 75.7013 0.0000 0.0000 0.0000
# 2 41.5499 45.5255 40.9881 0.0000 0.0000 0.0000
# 3 75.7013 40.9881 130.6165 0.0000 0.0000 0.0000
# 4 0.0000 0.0000 0.0000 19.5235 0.0000 0.0000
# 5 0.0000 0.0000 0.0000 0.0000 30.4987 0.0000
# 6 0.0000 0.0000 0.0000 0.0000 0.0000 -5.2535
#
#
#
# Elastic Compliance Matrix: (Units=1/GPa)
#
#
# Indices 1 2 3 4 5 6 
#
# 1 0.018846 -0.010267 -0.007701 0.000000 0.000000 0.000000
# 2 -0.010267 0.036209 -0.005412 0.000000 0.000000 0.000000
# 3 -0.007701 -0.005412 0.013817 0.000000 0.000000 0.000000
# 4 0.000000 0.000000 0.000000 0.051220 0.000000 0.000000
# 5 0.000000 0.000000 0.000000 0.000000 0.032788 0.000000
# 6 0.000000 0.000000 0.000000 0.000000 0.000000 -0.190348
#
#
# Mechanical properties :
#
#
# Convention : Reuss Voigt Hill
#
# Bulk Modulus (GPa) = 45.22298 66.58347 55.90323
# Shear Modulus (GPa) = 300.08481 17.25597 158.67039
#
# Velocity S-wave (km/s) = 13.22211 3.17065 9.61450
# Velocity P-wave (km/s) = 16.10730 7.22457 12.48278
#
# Compressibility (1/GPa) = 0.02211265
#
# Stress axis : x y z
#
# Youngs Moduli (GPa) = 53.06240 27.61767 72.37260
#
# Poissons Ratio (x) = 0.28355 0.55731
# Poissons Ratio (y) = 0.54479 0.39169
# Poissons Ratio (z) = 0.40861 0.14947
#
# Static dielectric constant tensor:
#      x y z
#    x 1.571700 0.000000 0.000000 
#    y 0.000000 1.633310 0.000000 
#    z 0.000000 0.000000 1.590950 
# 
# From -- ./inp_files/13236.got.cif
#   From: 2010.05.17/outbox.cif.g08.bks.cpg/sg47_7_cif.got.tgz:13236.got - 2010.06.03 20:15:42.
