data_PCOD9384279
_publ_section_title
;
Structure prediction by ZEFSAII (Michael W. Deem and Ramdas Pophale) SiO2 
 PCOD9384279
Probable space group: P M M M
;
_chemical_formula_sum "Si O2"
_cell_formula_units_Z 48
_cell_length_a 9.921881
_cell_length_b 7.529329
_cell_length_c 31.134939
_cell_angle_alpha 90.000000
_cell_angle_beta 90.000000
_cell_angle_gamma 90.000000
_cell_volume 2325.938929
_symmetry_space_group_name_H-M "P M M M"
_symmetry_group_IT_number 47
_symmetry_cell_setting 'orthorhombic'
loop_
_space_group_symop_operation_xyz
x,y,z
-x,-y,z
x,-y,-z
-x,y,-z
-x,-y,-z
x,y,-z
-x,y,z
x,-y,z
loop_
_atom_site_type_symbol
_atom_site_label
_atom_site_fract_x
_atom_site_fract_y
_atom_site_fract_z
Si Si1 0.651454 0.213938 0.451124
Si Si2 0.151831 0.210959 0.876366
Si Si3 0.346590 0.783179 0.950952
Si Si4 0.348283 0.286169 0.798680
Si Si5 0.848316 0.710928 0.626365
Si Si6 0.346842 0.716937 0.299231
O O1 0.678537 0.274171 0.500000
O O2 0.500000 0.274996 0.438898
O O3 0.763385 0.265750 0.417020
O O4 0.648162 0.000000 0.451958
O O5 0.240160 0.281954 0.916055
O O6 0.236965 0.234540 0.833020
O O7 0.000000 0.282874 0.873692
O O8 0.140993 0.000000 0.883399
O O9 0.500000 0.728472 0.940472
O O10 0.346098 0.000000 0.950314
O O11 0.316540 0.730090 0.000000
O O12 0.500000 0.224227 0.810412
O O13 0.352302 0.500000 0.797918
O O14 0.319134 0.227657 0.749838
O O15 0.859152 0.500000 0.633409
O O16 0.760219 0.782062 0.666080
O O17 0.000000 0.783044 0.623681
O O18 0.500000 0.770371 0.310327
O O19 0.345428 0.500000 0.299638
#
# Coordination Sequence:
#
# PCOD9384279 Si02
#       6
#     8   8   8   8   8   8
#     4   9  19  36  55  73  95 127 167 205 239 280
#     4  10  20  31  45  70 102 131 158 192 237 287
#     4   8  14  26  45  67  90 120 159 199 238 281
#     4   9  18  33  53  74  94 122 163 204 240 283
#     4  10  20  32  49  76 105 129 156 194 240 288
#     4   8  15  30  51  72  94 123 161 202 240 280
#
# _framework density 20.636827
#
# number of rings (size 3 to 8) (size 9 to 14) (size 15 to 20)
#    0.000    3.000    0.000    3.000    0.000    4.333 
#    0.000    6.667    0.000    1.500    0.000    3.500 
#    0.000    0.000    0.000    0.000    0.000    0.000 
#
# Total GULP energy -267869.742797 kJ/mol
# GULP energy per Si atom -5580.619642 kJ/mol
# Density = 2.058986 g / cm^3
# Si number density = 20.636827 Si / 1000 Ang^3
#
#
#
# Elastic Constant Matrix: (Units=GPa)
#
#
# Indices 1 2 3 4 5 6 
#
# 1 224.0276 7.3399 155.2322 0.0000 0.0000 0.0000
# 2 7.3399 50.7129 0.5491 0.0000 0.0000 0.0000
# 3 155.2322 0.5491 155.6629 0.0000 0.0000 0.0000
# 4 0.0000 0.0000 0.0000 15.5226 0.0000 0.0000
# 5 0.0000 0.0000 0.0000 0.0000 -14.8424 0.0000
# 6 0.0000 0.0000 0.0000 0.0000 0.0000 12.3673
#
#
#
# Elastic Compliance Matrix: (Units=1/GPa)
#
#
# Indices 1 2 3 4 5 6 
#
# 1 0.014638 -0.001961 -0.014591 0.000000 0.000000 0.000000
# 2 -0.001961 0.019982 0.001885 0.000000 0.000000 0.000000
# 3 -0.014591 0.001885 0.020968 0.000000 0.000000 0.000000
# 4 0.000000 0.000000 0.000000 0.064422 0.000000 0.000000
# 5 0.000000 0.000000 0.000000 0.000000 -0.067375 0.000000
# 6 0.000000 0.000000 0.000000 0.000000 0.000000 0.080859
#
#
# Mechanical properties :
#
#
# Convention : Reuss Voigt Hill
#
# Bulk Modulus (GPa) = 38.08807 84.07173 61.07990
# Shear Modulus (GPa) = 29.14110 20.42831 24.78471
#
# Velocity S-wave (km/s) = 3.76186 3.14967 3.46930
# Velocity P-wave (km/s) = 6.11271 7.35217 6.76090
#
# Compressibility (1/GPa) = 0.02625494
#
# Stress axis : x y z
#
# Youngs Moduli (GPa) = 68.31511 50.04449 47.69229
#
# Poissons Ratio (x) = 0.09812 0.69586
# Poissons Ratio (y) = 0.13394 -0.08989
# Poissons Ratio (z) = 0.99676 -0.09432
#
# Static dielectric constant tensor:
#      x y z
#    x 1.724330 0.000000 0.000000 
#    y 0.000000 1.807670 0.000000 
#    z 0.000000 0.000000 1.709450 
# 
# From -- ./inp_files/2419.got.cif
#   From: 2010.05.17/outbox.cif.g08.bks.cpg/sg47_2_cif.got.tgz:2419.got - 2010.06.03 20:15:42.
