data_PCOD9384261
_publ_section_title
;
Structure prediction by ZEFSAII (Michael W. Deem and Ramdas Pophale) SiO2 
 PCOD9384261
Probable space group: P M M M
;
_chemical_formula_sum "Si O2"
_cell_formula_units_Z 40
_cell_length_a 26.212056
_cell_length_b 10.004661
_cell_length_c 7.378583
_cell_angle_alpha 90.000000
_cell_angle_beta 90.000000
_cell_angle_gamma 90.000000
_cell_volume 1934.979782
_symmetry_space_group_name_H-M "P M M M"
_symmetry_group_IT_number 47
_symmetry_cell_setting 'orthorhombic'
loop_
_space_group_symop_operation_xyz
x,y,z
-x,-y,z
x,-y,-z
-x,y,-z
-x,-y,-z
x,y,-z
-x,y,z
x,-y,z
loop_
_atom_site_type_symbol
_atom_site_label
_atom_site_fract_x
_atom_site_fract_y
_atom_site_fract_z
Si Si1 0.262219 0.651382 0.282102
Si Si2 0.146745 0.347069 0.279168
Si Si3 0.558524 0.348537 0.779006
Si Si4 0.645446 0.849173 0.785773
Si Si5 0.057064 0.154165 0.279120
O O1 0.260975 0.645853 0.500000
O O2 0.275121 0.500000 0.218853
O O3 0.204621 0.684846 0.221335
O O4 0.303520 0.761805 0.233548
O O5 0.146730 0.343005 0.500000
O O6 0.136009 0.500000 0.227046
O O7 0.102880 0.247544 0.216303
O O8 0.500000 0.322490 0.725265
O O9 0.572372 0.500000 0.723340
O O10 0.598595 0.239277 0.712799
O O11 0.559353 0.348204 0.000000
O O12 0.649524 0.000000 0.712752
O O13 0.636159 0.861259 0.000000
O O14 0.057519 0.156376 0.500000
O O15 0.000000 0.196957 0.223667
O O16 0.064251 0.000000 0.225155
#
# Coordination Sequence:
#
# PCOD9384261 Si02
#       5
#     8   8   8   8   8
#     4   9  18  32  48  65  87 118 155 190 223 263
#     4   8  14  24  37  54  76 103 138 178 216 254
#     4   8  14  26  45  67  89 115 147 180 216 260
#     4  10  20  31  45  69  97 121 147 181 221 264
#     4   8  13  20  30  47  73 104 136 169 207 253
#
# _framework density 20.672049999999999
#
# number of rings (size 3 to 8) (size 9 to 14) (size 15 to 20)
#    0.000    3.400    0.000    3.000    0.000    3.200 
#    0.000    6.000    0.000    0.600    0.000    4.200 
#    0.000    0.800    0.000    8.800    0.000   14.400 
#
# Total GULP energy -223143.601110 kJ/mol
# GULP energy per Si atom -5578.590028 kJ/mol
# Density = 2.062500 g / cm^3
# Si number density = 20.672050 Si / 1000 Ang^3
#
#
#
# Elastic Constant Matrix: (Units=GPa)
#
#
# Indices 1 2 3 4 5 6 
#
# 1 185.8688 159.5440 2.4825 0.0000 0.0000 0.0000
# 2 159.5440 188.4459 6.6081 0.0000 0.0000 0.0000
# 3 2.4825 6.6081 71.9605 0.0000 0.0000 0.0000
# 4 0.0000 0.0000 0.0000 3.3903 0.0000 0.0000
# 5 0.0000 0.0000 0.0000 0.0000 9.7207 0.0000
# 6 0.0000 0.0000 0.0000 0.0000 0.0000 -62.3906
#
#
#
# Elastic Compliance Matrix: (Units=1/GPa)
#
#
# Indices 1 2 3 4 5 6 
#
# 1 0.019740 -0.016742 0.000856 0.000000 0.000000 0.000000
# 2 -0.016742 0.019524 -0.001215 0.000000 0.000000 0.000000
# 3 0.000856 -0.001215 0.013979 0.000000 0.000000 0.000000
# 4 0.000000 0.000000 0.000000 0.294961 0.000000 0.000000
# 5 0.000000 0.000000 0.000000 0.000000 0.102873 0.000000
# 6 0.000000 0.000000 0.000000 0.000000 0.000000 -0.016028
#
#
# Mechanical properties :
#
#
# Convention : Reuss Voigt Hill
#
# Bulk Modulus (GPa) = 52.52160 87.06050 69.79105
# Shear Modulus (GPa) = 10.51310 8.65344 9.58327
#
# Velocity S-wave (km/s) = 2.25759 2.04821 2.15544
# Velocity P-wave (km/s) = 5.67960 6.91376 6.32684
#
# Compressibility (1/GPa) = 0.01903979
#
# Stress axis : x y z
#
# Youngs Moduli (GPa) = 50.65890 51.21951 71.53808
#
# Poissons Ratio (x) = 0.85754 -0.06127
# Poissons Ratio (y) = 0.84815 0.08694
# Poissons Ratio (z) = -0.04339 0.06225
#
# Static dielectric constant tensor:
#      x y z
#    x 1.712490 0.000000 0.000000 
#    y 0.000000 1.712020 0.000000 
#    z 0.000000 0.000000 1.854550 
# 
# From -- ./inp_files/1667.got.cif
#   From: 2010.05.17/outbox.cif.g08.bks.cpg/sg47_1_cif.got.tgz:1667.got - 2010.06.03 20:15:42.
