data_PCOD9384999
_publ_section_title
;
Structure prediction by ZEFSAII (Michael W. Deem and Ramdas Pophale) SiO2 
 PCOD9384999
Probable space group: P M M M
;
_chemical_formula_sum "Si O2"
_cell_formula_units_Z 52
_cell_length_a 20.070316
_cell_length_b 7.504176
_cell_length_c 16.326995
_cell_angle_alpha 90.000000
_cell_angle_beta 90.000000
_cell_angle_gamma 90.000000
_cell_volume 2459.028042
_symmetry_space_group_name_H-M "P M M M"
_symmetry_group_IT_number 47
_symmetry_cell_setting 'orthorhombic'
loop_
_space_group_symop_operation_xyz
x,y,z
-x,-y,z
x,-y,-z
-x,y,-z
-x,-y,-z
x,y,-z
-x,y,z
x,-y,z
loop_
_atom_site_type_symbol
_atom_site_label
_atom_site_fract_x
_atom_site_fract_y
_atom_site_fract_z
Si Si1 0.209310 0.217867 0.408388
Si Si2 0.292375 0.780980 0.251992
Si Si3 0.926830 0.784348 0.327919
Si Si4 0.926174 0.291635 0.865011
Si Si5 0.575118 0.790648 0.179717
Si Si6 0.779923 0.206514 0.911830
Si Si7 0.422974 0.712399 0.000000
O O1 0.226058 0.276203 0.500000
O O2 0.258481 0.275885 0.336143
O O3 0.135077 0.274704 0.382067
O O4 0.209686 0.000000 0.408470
O O5 0.368359 0.720513 0.239783
O O6 0.250935 0.719410 0.172036
O O7 0.291002 0.000000 0.251901
O O8 0.919365 0.727486 0.233396
O O9 0.000000 0.726364 0.356564
O O10 0.925859 0.000000 0.327366
O O11 0.925717 0.500000 0.885999
O O12 0.860065 0.211082 0.903644
O O13 0.000000 0.219959 0.886747
O O14 0.500000 0.713541 0.182469
O O15 0.603805 0.773197 0.087234
O O16 0.568912 0.000000 0.195884
O O17 0.759450 0.000000 0.913974
O O18 0.760733 0.287496 0.000000
O O19 0.422769 0.500000 0.000000
O O20 0.500000 0.777575 0.000000
#
# Coordination Sequence:
#
# PCOD9384999 Si02
#       7
#     8   8   8   8   8   8   4
#     4   9  16  27  47  74  98 121 152 194 245 290
#     4   9  17  30  48  70  98 125 155 197 239 281
#     4   9  16  28  48  71  94 120 154 196 238 285
#     4  10  20  33  49  68  94 128 162 198 240 282
#     4   9  17  29  48  71  95 129 168 199 231 278
#     4  10  20  33  50  70  92 124 164 201 238 280
#     4   9  17  29  45  69 101 129 156 195 238 279
#
# _framework density 21.146566
#
# number of rings (size 3 to 8) (size 9 to 14) (size 15 to 20)
#    0.000    2.692    1.538    0.692    1.077    2.769 
#    0.000    3.846    0.000    0.923    0.000    5.385 
#    0.000    0.000    0.000    3.846    0.000    4.000 
#
# Total GULP energy -290215.818077 kJ/mol
# GULP energy per Si atom -5581.073425 kJ/mol
# Density = 2.109844 g / cm^3
# Si number density = 21.146566 Si / 1000 Ang^3
#
#
#
# Elastic Constant Matrix: (Units=GPa)
#
#
# Indices 1 2 3 4 5 6 
#
# 1 136.1111 5.1356 88.0285 0.0000 0.0000 0.0000
# 2 5.1356 59.1855 2.3444 0.0000 0.0000 0.0000
# 3 88.0285 2.3444 160.1184 0.0000 0.0000 0.0000
# 4 0.0000 0.0000 0.0000 -52.3535 0.0000 0.0000
# 5 0.0000 0.0000 0.0000 0.0000 15.4269 0.0000
# 6 0.0000 0.0000 0.0000 0.0000 0.0000 -16.4759
#
#
#
# Elastic Compliance Matrix: (Units=1/GPa)
#
#
# Indices 1 2 3 4 5 6 
#
# 1 0.011433 -0.000744 -0.006275 0.000000 0.000000 0.000000
# 2 -0.000744 0.016954 0.000161 0.000000 0.000000 0.000000
# 3 -0.006275 0.000161 0.009693 0.000000 0.000000 0.000000
# 4 0.000000 0.000000 0.000000 -0.019101 0.000000 0.000000
# 5 0.000000 0.000000 0.000000 0.000000 0.064822 0.000000
# 6 0.000000 0.000000 0.000000 0.000000 0.000000 -0.060695
#
#
# Mechanical properties :
#
#
# Convention : Reuss Voigt Hill
#
# Bulk Modulus (GPa) = 41.04318 60.71466 50.87892
# Shear Modulus (GPa) = 111.25256 6.64661 58.94959
#
# Velocity S-wave (km/s) = 7.26116 1.77481 5.28556
# Velocity P-wave (km/s) = 9.47366 5.74227 7.83339
#
# Compressibility (1/GPa) = 0.02436459
#
# Stress axis : x y z
#
# Youngs Moduli (GPa) = 87.46540 58.98248 103.17063
#
# Poissons Ratio (x) = 0.04385 0.64737
# Poissons Ratio (y) = 0.06503 -0.01656
# Poissons Ratio (z) = 0.54882 -0.00947
#
# Static dielectric constant tensor:
#      x y z
#    x 1.791950 0.000000 0.000000 
#    y 0.000000 1.769050 0.000000 
#    z 0.000000 0.000000 1.742240 
# 
# From -- ./inp_files/24965.got.cif
#   From: 2010.05.17/outbox.cif.g08.bks.cpg/sg47_13_cif.got.tgz:24965.got - 2010.06.03 20:15:42.
