data_PCOD9384674
_publ_section_title
;
Structure prediction by ZEFSAII (Michael W. Deem and Ramdas Pophale) SiO2 
 PCOD9384674
Probable space group: P M M M
;
_chemical_formula_sum "Si O2"
_cell_formula_units_Z 52
_cell_length_a 8.031484
_cell_length_b 37.036690
_cell_length_c 9.707834
_cell_angle_alpha 90.000000
_cell_angle_beta 90.000000
_cell_angle_gamma 90.000000
_cell_volume 2887.688255
_symmetry_space_group_name_H-M "P M M M"
_symmetry_group_IT_number 47
_symmetry_cell_setting 'orthorhombic'
loop_
_space_group_symop_operation_xyz
x,y,z
-x,-y,z
x,-y,-z
-x,y,-z
-x,-y,-z
x,y,-z
-x,y,z
x,-y,z
loop_
_atom_site_type_symbol
_atom_site_label
_atom_site_fract_x
_atom_site_fract_y
_atom_site_fract_z
Si Si1 0.799928 0.828090 0.156181
Si Si2 0.801915 0.684056 0.658068
Si Si3 0.296649 0.540329 0.159341
Si Si4 0.302036 0.761366 0.343132
Si Si5 0.807838 0.908888 0.832159
Si Si6 0.500000 0.041633 0.831918
Si Si7 0.300040 0.393237 0.342297
O O1 0.750200 0.795422 0.253398
O O2 0.753116 0.868204 0.207065
O O3 0.000000 0.828877 0.148696
O O4 0.735294 0.823039 0.000000
O O5 0.734475 0.684625 0.500000
O O6 0.751583 0.722650 0.718673
O O7 0.741103 0.646186 0.718740
O O8 0.000000 0.682734 0.653296
O O9 0.500000 0.540742 0.161984
O O10 0.245372 0.500000 0.204428
O O11 0.237128 0.573118 0.253562
O O12 0.247483 0.545117 0.000000
O O13 0.233216 0.763991 0.500000
O O14 0.500000 0.761104 0.351356
O O15 0.667909 0.937401 0.788256
O O16 0.000000 0.915713 0.787676
O O17 0.811597 0.908894 0.000000
O O18 0.500000 0.000000 0.788104
O O19 0.500000 0.042071 0.000000
O O20 0.236082 0.394669 0.500000
O O21 0.500000 0.395950 0.348055
#
# Coordination Sequence:
#
# PCOD9384674 Si02
#       7
#     8   8   8   8   8   4   8
#     4   9  18  32  49  69  94 127 164 197 236 288
#     4   9  17  30  47  64  86 119 152 182 224 275
#     4   8  14  25  41  62  88 115 140 169 212 264
#     4  10  20  32  48  72  98 123 156 198 240 283
#     4   8  15  27  41  60  89 123 158 198 243 292
#     4   9  16  24  38  62  89 123 165 201 241 295
#     4   9  16  26  43  66  87 107 138 181 220 256
#
# _framework density 18.007484999999999
#
# number of rings (size 3 to 8) (size 9 to 14) (size 15 to 20)
#    0.000    3.154    0.000    2.308    1.077    3.692 
#    0.000    3.846    0.000    3.692    0.000    3.231 
#    0.000    1.231    0.000    3.385    0.000    3.385 
#
# Total GULP energy -289528.550550 kJ/mol
# GULP energy per Si atom -5567.856741 kJ/mol
# Density = 1.796650 g / cm^3
# Si number density = 18.007485 Si / 1000 Ang^3
#
#
#
# Elastic Constant Matrix: (Units=GPa)
#
#
# Indices 1 2 3 4 5 6 
#
# 1 40.7050 51.8749 14.3574 0.0000 0.0000 0.0000
# 2 51.8749 212.4130 57.0470 0.0000 0.0000 0.0000
# 3 14.3574 57.0470 30.8796 0.0000 0.0000 0.0000
# 4 0.0000 0.0000 0.0000 78.7949 0.0000 0.0000
# 5 0.0000 0.0000 0.0000 0.0000 10.6422 0.0000
# 6 0.0000 0.0000 0.0000 0.0000 0.0000 489.2057
#
#
#
# Elastic Compliance Matrix: (Units=1/GPa)
#
#
# Indices 1 2 3 4 5 6 
#
# 1 0.035683 -0.008452 -0.000976 0.000000 0.000000 0.000000
# 2 -0.008452 0.011346 -0.017030 0.000000 0.000000 0.000000
# 3 -0.000976 -0.017030 0.064299 0.000000 0.000000 0.000000
# 4 0.000000 0.000000 0.000000 0.012691 0.000000 0.000000
# 5 0.000000 0.000000 0.000000 0.000000 0.093965 0.000000
# 6 0.000000 0.000000 0.000000 0.000000 0.000000 0.002044
#
#
# Mechanical properties :
#
#
# Convention : Reuss Voigt Hill
#
# Bulk Modulus (GPa) = 17.12010 58.95069 38.03539
# Shear Modulus (GPa) = 17.09893 126.44312 71.77102
#
# Velocity S-wave (km/s) = 3.08481 8.38865 6.32003
# Velocity P-wave (km/s) = 4.71338 11.25316 8.62698
#
# Compressibility (1/GPa) = 0.05841087
#
# Stress axis : x y z
#
# Youngs Moduli (GPa) = 28.02459 88.13874 15.55227
#
# Poissons Ratio (x) = 0.74497 0.01518
# Poissons Ratio (y) = 0.23687 0.26486
# Poissons Ratio (z) = 0.02735 1.50103
#
# Static dielectric constant tensor:
#      x y z
#    x 1.640700 0.000000 0.000000 
#    y 0.000000 1.637350 0.000000 
#    z 0.000000 0.000000 1.483540 
# 
# From -- ./inp_files/15472.got.cif
#   From: 2010.05.17/outbox.cif.g08.bks.cpg/sg47_8_cif.got.tgz:15472.got - 2010.06.03 20:15:42.
