data_PCOD9384750
_publ_section_title
;
Structure prediction by ZEFSAII (Michael W. Deem and Ramdas Pophale) SiO2 
 PCOD9384750
Probable space group: P M M M
;
_chemical_formula_sum "Si O2"
_cell_formula_units_Z 56
_cell_length_a 15.809106
_cell_length_b 7.596118
_cell_length_c 21.234088
_cell_angle_alpha 90.000000
_cell_angle_beta 90.000000
_cell_angle_gamma 90.000000
_cell_volume 2549.955649
_symmetry_space_group_name_H-M "P M M M"
_symmetry_group_IT_number 47
_symmetry_cell_setting 'orthorhombic'
loop_
_space_group_symop_operation_xyz
x,y,z
-x,-y,z
x,-y,-z
-x,y,-z
-x,-y,-z
x,y,-z
-x,y,z
x,-y,z
loop_
_atom_site_type_symbol
_atom_site_label
_atom_site_fract_x
_atom_site_fract_y
_atom_site_fract_z
Si Si1 0.650496 0.287799 0.338045
Si Si2 0.150066 0.209759 0.661940
Si Si3 0.100160 0.289425 0.931909
Si Si4 0.500000 0.715442 0.572046
Si Si5 0.601189 0.295815 0.067099
Si Si6 0.000000 0.216500 0.572697
Si Si7 0.638063 0.697714 0.798629
Si Si8 0.175304 0.795321 0.202094
O O1 0.645427 0.500000 0.334285
O O2 0.749946 0.247817 0.348335
O O3 0.584869 0.228689 0.391133
O O4 0.619021 0.221266 0.269370
O O5 0.127044 0.261612 0.734210
O O6 0.083566 0.277712 0.610709
O O7 0.141692 0.000000 0.659015
O O8 0.112900 0.500000 0.930571
O O9 0.133991 0.219100 0.866086
O O10 0.000000 0.255630 0.932663
O O11 0.134693 0.225730 0.000000
O O12 0.500000 0.500000 0.572176
O O13 0.500000 0.773617 0.500000
O O14 0.500000 0.301630 0.063840
O O15 0.632426 0.500000 0.069191
O O16 0.619611 0.212365 0.134640
O O17 0.631666 0.220209 0.000000
O O18 0.000000 0.272051 0.500000
O O19 0.000000 0.000000 0.572309
O O20 0.600370 0.500000 0.800918
O O21 0.739004 0.687170 0.798173
O O22 0.198009 0.000000 0.211727
#
# Coordination Sequence:
#
# PCOD9384750 Si02
#       8
#     8   8   8   4   8   4   8   8
#     4   9  18  32  51  75 103 135 173 213 255 306
#     4   9  19  35  54  77 107 138 171 215 264 310
#     4   9  19  35  52  71  97 129 166 209 254 297
#     4   9  18  32  51  77 106 138 174 211 261 320
#     4   8  14  24  40  65  92 116 149 197 246 284
#     4   9  18  34  57  81 102 133 176 212 253 315
#     4   9  17  29  47  69  94 124 163 204 247 296
#     4  10  20  32  49  72 100 131 166 205 251 304
#
# _framework density 21.961168000000001
#
# number of rings (size 3 to 8) (size 9 to 14) (size 15 to 20)
#    0.000    3.000    0.000    1.286    2.000    2.286 
#    0.000    2.857    0.000    1.286    0.000    1.000 
#    0.000    0.000    0.000    0.000    0.000    0.000 
#
# Total GULP energy -311942.071321 kJ/mol
# GULP energy per Si atom -5570.394131 kJ/mol
# Density = 2.191118 g / cm^3
# Si number density = 21.961168 Si / 1000 Ang^3
#
#
#
# Elastic Constant Matrix: (Units=GPa)
#
#
# Indices 1 2 3 4 5 6 
#
# 1 77.2205 7.2425 93.8137 0.0000 0.0000 0.0000
# 2 7.2425 42.7439 16.1773 0.0000 0.0000 0.0000
# 3 93.8137 16.1773 266.6903 0.0000 0.0000 0.0000
# 4 0.0000 0.0000 0.0000 55.2427 0.0000 0.0000
# 5 0.0000 0.0000 0.0000 0.0000 52.0421 0.0000
# 6 0.0000 0.0000 0.0000 0.0000 0.0000 26.3673
#
#
#
# Elastic Compliance Matrix: (Units=1/GPa)
#
#
# Indices 1 2 3 4 5 6 
#
# 1 0.022644 -0.000841 -0.007914 0.000000 0.000000 0.000000
# 2 -0.000841 0.023976 -0.001158 0.000000 0.000000 0.000000
# 3 -0.007914 -0.001158 0.006604 0.000000 0.000000 0.000000
# 4 0.000000 0.000000 0.000000 0.018102 0.000000 0.000000
# 5 0.000000 0.000000 0.000000 0.000000 0.019215 0.000000
# 6 0.000000 0.000000 0.000000 0.000000 0.000000 0.037926
#
#
# Mechanical properties :
#
#
# Convention : Reuss Voigt Hill
#
# Bulk Modulus (GPa) = 29.94407 69.01352 49.47880
# Shear Modulus (GPa) = 31.36226 44.69184 38.02705
#
# Velocity S-wave (km/s) = 3.78309 4.51604 4.16571
# Velocity P-wave (km/s) = 5.72250 7.66069 6.76141
#
# Compressibility (1/GPa) = 0.03339559
#
# Stress axis : x y z
#
# Youngs Moduli (GPa) = 44.16198 41.70815 151.42360
#
# Poissons Ratio (x) = 0.03509 1.19843
# Poissons Ratio (y) = 0.03716 0.17541
# Poissons Ratio (z) = 0.34952 0.04831
#
# Static dielectric constant tensor:
#      x y z
#    x 1.773410 0.000000 0.000000 
#    y 0.000000 1.838910 0.000000 
#    z 0.000000 0.000000 1.873870 
# 
# From -- ./inp_files/31089.got.cif
#   From: 2010.05.17/outbox.cif.g08.bks.cpg/sg47_16_cif.got.tgz:31089.got - 2010.06.03 20:15:42.
