data_PCOD9384673
_publ_section_title
;
Structure prediction by ZEFSAII (Michael W. Deem and Ramdas Pophale) SiO2 
 PCOD9384673
Probable space group: P M M M
;
_chemical_formula_sum "Si O2"
_cell_formula_units_Z 44
_cell_length_a 33.789843
_cell_length_b 8.011468
_cell_length_c 7.631819
_cell_angle_alpha 90.000000
_cell_angle_beta 90.000000
_cell_angle_gamma 90.000000
_cell_volume 2065.981071
_symmetry_space_group_name_H-M "P M M M"
_symmetry_group_IT_number 47
_symmetry_cell_setting 'orthorhombic'
loop_
_space_group_symop_operation_xyz
x,y,z
-x,-y,z
x,-y,-z
-x,y,-z
-x,-y,-z
x,y,-z
-x,y,z
x,-y,z
loop_
_atom_site_type_symbol
_atom_site_label
_atom_site_fract_x
_atom_site_fract_y
_atom_site_fract_z
Si Si1 0.000000 0.802335 0.200965
Si Si2 0.743877 0.806984 0.284588
Si Si3 0.830005 0.200923 0.694988
Si Si4 0.401777 0.500000 0.285269
Si Si5 0.917536 0.301322 0.194136
Si Si6 0.310800 0.500000 0.713972
Si Si7 0.545549 0.188592 0.713697
O O1 0.041748 0.751661 0.287064
O O2 0.000000 0.000000 0.189375
O O3 0.000000 0.727960 0.000000
O O4 0.745095 0.808678 0.500000
O O5 0.787947 0.755566 0.218995
O O6 0.712352 0.667730 0.231460
O O7 0.735739 0.000000 0.232935
O O8 0.827176 0.270904 0.500000
O O9 0.873503 0.251001 0.753537
O O10 0.829467 0.000000 0.691060
O O11 0.402033 0.500000 0.500000
O O12 0.356279 0.500000 0.229122
O O13 0.425282 0.334463 0.228196
O O14 0.918132 0.500000 0.190247
O O15 0.921479 0.226922 0.000000
O O16 0.310592 0.500000 0.500000
O O17 0.545956 0.189235 0.500000
O O18 0.500000 0.221028 0.766008
O O19 0.556269 0.000000 0.768726
#
# Coordination Sequence:
#
# PCOD9384673 Si02
#       7
#     4   8   8   4   8   4   8
#     4   9  17  31  50  67  88 121 150 172 208 257
#     4   8  15  27  40  55  76 100 130 168 206 252
#     4   9  18  32  49  68  88 114 149 183 217 260
#     4   9  15  20  27  42  60  79 110 152 194 246
#     4  10  20  32  48  72  97 118 143 177 216 259
#     4   9  16  23  34  51  69  94 124 155 207 262
#     4   8  13  20  28  37  52  78 111 148 194 244
#
# _framework density 21.297388999999999
#
# number of rings (size 3 to 8) (size 9 to 14) (size 15 to 20)
#    0.000    3.182    0.000    2.727    1.273    4.364 
#    0.000    4.091    0.000    2.727    0.000    0.000 
#    0.000    0.000    0.000    0.000    0.000    0.000 
#
# Total GULP energy -245059.809313 kJ/mol
# GULP energy per Si atom -5569.541121 kJ/mol
# Density = 2.124891 g / cm^3
# Si number density = 21.297389 Si / 1000 Ang^3
#
#
#
# Elastic Constant Matrix: (Units=GPa)
#
#
# Indices 1 2 3 4 5 6 
#
# 1 241.3365 130.1698 13.3876 0.0000 0.0000 0.0000
# 2 130.1698 126.7224 5.1531 0.0000 0.0000 0.0000
# 3 13.3876 5.1531 32.5783 0.0000 0.0000 0.0000
# 4 0.0000 0.0000 0.0000 0.0219 0.0000 0.0000
# 5 0.0000 0.0000 0.0000 0.0000 -8.6709 0.0000
# 6 0.0000 0.0000 0.0000 0.0000 0.0000 29.2949
#
#
#
# Elastic Compliance Matrix: (Units=1/GPa)
#
#
# Indices 1 2 3 4 5 6 
#
# 1 0.009470 -0.009631 -0.002368 0.000000 0.000000 0.000000
# 2 -0.009631 0.017737 0.001152 0.000000 0.000000 0.000000
# 3 -0.002368 0.001152 0.031486 0.000000 0.000000 0.000000
# 4 0.000000 0.000000 0.000000 45.559518 0.000000 0.000000
# 5 0.000000 0.000000 0.000000 0.000000 -0.115328 0.000000
# 6 0.000000 0.000000 0.000000 0.000000 0.000000 0.034136
#
#
# Mechanical properties :
#
#
# Convention : Reuss Voigt Hill
#
# Bulk Modulus (GPa) = 27.02753 77.56202 52.29478
# Shear Modulus (GPa) = 0.10972 20.92431 10.51701
#
# Velocity S-wave (km/s) = 0.22722 3.13786 2.22461
# Velocity P-wave (km/s) = 3.57588 7.04456 5.58627
#
# Compressibility (1/GPa) = 0.03699931
#
# Stress axis : x y z
#
# Youngs Moduli (GPa) = 105.60145 56.37837 31.76004
#
# Poissons Ratio (x) = 0.54297 0.07521
# Poissons Ratio (y) = 1.01704 -0.03659
# Poissons Ratio (z) = 0.25006 -0.06495
#
# Static dielectric constant tensor:
#      x y z
#    x 1.811240 0.000000 0.000000 
#    y 0.000000 1.726840 0.000000 
#    z 0.000000 0.000000 1.890880 
# 
# From -- ./inp_files/13715.got.cif
#   From: 2010.05.17/outbox.cif.g08.bks.cpg/sg47_7_cif.got.tgz:13715.got - 2010.06.03 20:15:42.
