data_PCOD9384145
_publ_section_title
;
Structure prediction by ZEFSAII (Michael W. Deem and Ramdas Pophale) SiO2 
 PCOD9384145
Probable space group: P M M M
;
_chemical_formula_sum "Si O2"
_cell_formula_units_Z 44
_cell_length_a 9.255134
_cell_length_b 23.356349
_cell_length_c 15.442339
_cell_angle_alpha 90.000000
_cell_angle_beta 90.000000
_cell_angle_gamma 90.000000
_cell_volume 3338.110810
_symmetry_space_group_name_H-M "P M M M"
_symmetry_group_IT_number 47
_symmetry_cell_setting 'orthorhombic'
loop_
_space_group_symop_operation_xyz
x,y,z
-x,-y,z
x,-y,-z
-x,y,-z
-x,-y,-z
x,y,-z
-x,y,z
x,-y,z
loop_
_atom_site_type_symbol
_atom_site_label
_atom_site_fract_x
_atom_site_fract_y
_atom_site_fract_z
Si Si1 0.167370 0.430526 0.096788
Si Si2 0.332926 0.000000 0.605501
Si Si3 0.832824 0.115023 0.605573
Si Si4 0.666546 0.770461 0.605289
Si Si5 0.329401 0.568520 0.270070
Si Si6 0.828589 0.653509 0.396742
O O1 0.170052 0.500000 0.095341
O O2 0.267567 0.413073 0.176310
O O3 0.000000 0.413871 0.111620
O O4 0.210663 0.411370 0.000000
O O5 0.249619 0.057398 0.632843
O O6 0.500000 0.000000 0.632921
O O7 0.332897 0.000000 0.500000
O O8 0.832502 0.115207 0.500000
O O9 0.748700 0.172082 0.633749
O O10 0.000000 0.115271 0.632736
O O11 0.665055 0.771881 0.500000
O O12 0.500000 0.769091 0.634099
O O13 0.752514 0.713142 0.629283
O O14 0.500000 0.579696 0.276014
O O15 0.307131 0.500000 0.278554
O O16 0.243827 0.602555 0.343434
O O17 0.806581 0.645801 0.500000
O O18 0.000000 0.656276 0.381096
#
# Coordination Sequence:
#
# PCOD9384145 Si02
#       6
#     8   4   8   8   8   8
#     4   8  14  26  44  63  81 100 120 143 175 218
#     4   9  15  21  29  43  63  85 109 139 178 219
#     4   9  15  22  32  46  64  85 110 141 178 219
#     4   9  16  26  39  52  66  86 114 149 187 224
#     4  10  20  31  43  60  80 100 122 152 191 232
#     4  10  20  32  44  56  71  95 128 163 196 230
#
# _framework density 13.181108
#
# number of rings (size 3 to 8) (size 9 to 14) (size 15 to 20)
#    0.000    2.818    0.000    3.000    0.000    8.364 
#    0.000    3.636    0.000    0.000    0.000    0.000 
#    0.000    0.000    0.000    0.000    0.000    0.000 
#
# Total GULP energy -245013.016219 kJ/mol
# GULP energy per Si atom -5568.477641 kJ/mol
# Density = 1.315111 g / cm^3
# Si number density = 13.181108 Si / 1000 Ang^3
#
#
#
# Elastic Constant Matrix: (Units=GPa)
#
#
# Indices 1 2 3 4 5 6 
#
# 1 129.1808 67.5271 45.1253 0.0000 0.0000 0.0000
# 2 67.5271 72.7715 33.5814 0.0000 0.0000 0.0000
# 3 45.1253 33.5814 35.9796 0.0000 0.0000 0.0000
# 4 0.0000 0.0000 0.0000 -0.5951 0.0000 0.0000
# 5 0.0000 0.0000 0.0000 0.0000 13.7576 0.0000
# 6 0.0000 0.0000 0.0000 0.0000 0.0000 25.1346
#
#
#
# Elastic Compliance Matrix: (Units=1/GPa)
#
#
# Indices 1 2 3 4 5 6 
#
# 1 0.017544 -0.010760 -0.011960 0.000000 0.000000 0.000000
# 2 -0.010760 0.030738 -0.015194 0.000000 0.000000 0.000000
# 3 -0.011960 -0.015194 0.056975 0.000000 0.000000 0.000000
# 4 0.000000 0.000000 0.000000 -1.680400 0.000000 0.000000
# 5 0.000000 0.000000 0.000000 0.000000 0.072687 0.000000
# 6 0.000000 0.000000 0.000000 0.000000 0.000000 0.039786
#
#
# Mechanical properties :
#
#
# Convention : Reuss Voigt Hill
#
# Bulk Modulus (GPa) = 33.98093 58.93328 46.45710
# Shear Modulus (GPa) = -3.63099 13.77262 5.07081
#
# Velocity S-wave (km/s) = -1.66153 3.23596 1.96351
# Velocity P-wave (km/s) = 4.70692 7.66612 6.36099
#
# Compressibility (1/GPa) = 0.02942827
#
# Stress axis : x y z
#
# Youngs Moduli (GPa) = 57.00043 32.53342 17.55163
#
# Poissons Ratio (x) = 0.35007 0.20992
# Poissons Ratio (y) = 0.61334 0.26667
# Poissons Ratio (z) = 0.68174 0.49430
#
# Static dielectric constant tensor:
#      x y z
#    x 1.440130 0.000000 0.000000 
#    y 0.000000 1.424350 0.000000 
#    z 0.000000 0.000000 1.406640 
# 
# From -- ./inp_files/10863.got.cif
#   From: 2010.05.17/outbox.cif.g08.bks.cpg/sg47_6_cif.got.tgz:10863.got - 2010.06.03 20:15:42.
