data_PCOD9384983
_publ_section_title
;
Structure prediction by ZEFSAII (Michael W. Deem and Ramdas Pophale) SiO2 
 PCOD9384983
Probable space group: P M M M
;
_chemical_formula_sum "Si O2"
_cell_formula_units_Z 48
_cell_length_a 18.192006
_cell_length_b 21.507907
_cell_length_c 7.661303
_cell_angle_alpha 90.000000
_cell_angle_beta 90.000000
_cell_angle_gamma 90.000000
_cell_volume 2997.653142
_symmetry_space_group_name_H-M "P M M M"
_symmetry_group_IT_number 47
_symmetry_cell_setting 'orthorhombic'
loop_
_space_group_symop_operation_xyz
x,y,z
-x,-y,z
x,-y,-z
-x,y,-z
-x,-y,-z
x,y,-z
-x,y,z
x,-y,z
loop_
_atom_site_type_symbol
_atom_site_label
_atom_site_fract_x
_atom_site_fract_y
_atom_site_fract_z
Si Si1 0.685137 0.754684 0.199797
Si Si2 0.587276 0.804666 0.500000
Si Si3 0.083274 0.429944 0.710118
Si Si4 0.826650 0.309249 0.207883
Si Si5 0.321135 0.067920 0.500000
Si Si6 0.777477 0.116176 0.801212
Si Si7 0.916452 0.189440 0.213288
O O1 0.619502 0.769164 0.330936
O O2 0.743604 0.703802 0.269406
O O3 0.734300 0.817716 0.194479
O O4 0.662216 0.741209 0.000000
O O5 0.500000 0.807603 0.500000
O O6 0.622787 0.874073 0.500000
O O7 0.081069 0.431545 0.500000
O O8 0.101477 0.500000 0.770424
O O9 0.139534 0.376385 0.759863
O O10 0.000000 0.415057 0.771196
O O11 0.881587 0.255120 0.273956
O O12 0.822122 0.300047 0.000000
O O13 0.268199 0.075209 0.332439
O O14 0.356743 0.000000 0.500000
O O15 0.859268 0.135020 0.739858
O O16 0.779688 0.092260 0.000000
O O17 0.000000 0.181835 0.272549
O O18 0.917096 0.190626 0.000000
#
# Coordination Sequence:
#
# PCOD9384983 Si02
#       7
#     8   4   8   8   4   8   8
#     4   8  16  30  47  70  95 117 146 185 224 267
#     4  10  20  33  52  75  96 121 141 162 215 278
#     4   9  18  29  37  52  87 132 169 199 232 266
#     4   9  16  26  43  64  85 114 154 196 232 268
#     4  10  20  33  49  68  90 116 149 182 203 244
#     4   8  15  29  46  63  87 118 148 182 226 264
#     4   8  13  23  41  63  85 109 142 189 238 274
#
# _framework density 16.012526000000001
#
# number of rings (size 3 to 8) (size 9 to 14) (size 15 to 20)
#    0.000    3.333    0.000    3.000    1.167    2.167 
#    1.500    1.250    0.000    1.000    0.000    7.000 
#    0.000    1.333    0.000    3.667    0.000    0.000 
#
# Total GULP energy -267241.641434 kJ/mol
# GULP energy per Si atom -5567.534197 kJ/mol
# Density = 1.597608 g / cm^3
# Si number density = 16.012526 Si / 1000 Ang^3
#
#
#
# Elastic Constant Matrix: (Units=GPa)
#
#
# Indices 1 2 3 4 5 6 
#
# 1 129.8921 44.3170 41.2095 0.0000 0.0000 0.0000
# 2 44.3170 65.2762 18.7811 0.0000 0.0000 0.0000
# 3 41.2095 18.7811 57.9317 0.0000 0.0000 0.0000
# 4 0.0000 0.0000 0.0000 17.6364 0.0000 0.0000
# 5 0.0000 0.0000 0.0000 0.0000 5.2191 0.0000
# 6 0.0000 0.0000 0.0000 0.0000 0.0000 12.3580
#
#
#
# Elastic Compliance Matrix: (Units=1/GPa)
#
#
# Indices 1 2 3 4 5 6 
#
# 1 0.011850 -0.006198 -0.006420 0.000000 0.000000 0.000000
# 2 -0.006198 0.020137 -0.002119 0.000000 0.000000 0.000000
# 3 -0.006420 -0.002119 0.022516 0.000000 0.000000 0.000000
# 4 0.000000 0.000000 0.000000 0.056701 0.000000 0.000000
# 5 0.000000 0.000000 0.000000 0.000000 0.191606 0.000000
# 6 0.000000 0.000000 0.000000 0.000000 0.000000 0.080920
#
#
# Mechanical properties :
#
#
# Convention : Reuss Voigt Hill
#
# Bulk Modulus (GPa) = 39.95538 51.30167 45.62853
# Shear Modulus (GPa) = 11.86105 16.96217 14.41161
#
# Velocity S-wave (km/s) = 2.72460 3.25823 3.00329
# Velocity P-wave (km/s) = 5.90802 6.80167 6.37054
#
# Compressibility (1/GPa) = 0.02502792
#
# Stress axis : x y z
#
# Youngs Moduli (GPa) = 84.38620 49.65905 44.41320
#
# Poissons Ratio (x) = 0.30779 0.28514
# Poissons Ratio (y) = 0.52304 0.09413
# Poissons Ratio (z) = 0.54178 0.10525
#
# Static dielectric constant tensor:
#      x y z
#    x 1.528200 0.000000 0.000000 
#    y 0.000000 1.536990 0.000000 
#    z 0.000000 0.000000 1.583570 
# 
# From -- ./inp_files/9758.got.cif
#   From: 2010.05.17/outbox.cif.g08.bks.cpg/sg47_5_cif.got.tgz:9758.got - 2010.06.03 20:15:42.
