data_PCOD9384320
_publ_section_title
;
Structure prediction by ZEFSAII (Michael W. Deem and Ramdas Pophale) SiO2 
 PCOD9384320
Probable space group: P M M M
;
_chemical_formula_sum "Si O2"
_cell_formula_units_Z 60
_cell_length_a 16.191667
_cell_length_b 7.468826
_cell_length_c 24.093232
_cell_angle_alpha 90.000000
_cell_angle_beta 90.000000
_cell_angle_gamma 90.000000
_cell_volume 2913.660645
_symmetry_space_group_name_H-M "P M M M"
_symmetry_group_IT_number 47
_symmetry_cell_setting 'orthorhombic'
loop_
_space_group_symop_operation_xyz
x,y,z
-x,-y,z
x,-y,-z
-x,y,-z
-x,-y,-z
x,y,-z
-x,y,z
x,-y,z
loop_
_atom_site_type_symbol
_atom_site_label
_atom_site_fract_x
_atom_site_fract_y
_atom_site_fract_z
Si Si1 0.092741 0.286552 0.873643
Si Si2 0.744355 0.280733 0.063850
Si Si3 0.500000 0.293301 0.567697
Si Si4 0.679464 0.715734 0.562972
Si Si5 0.755179 0.212526 0.326447
Si Si6 0.092456 0.215402 0.744438
Si Si7 0.590867 0.788282 0.730136
Si Si8 0.592038 0.716128 0.860517
O O1 0.089032 0.500000 0.882437
O O2 0.168567 0.219068 0.910362
O O3 0.111446 0.256155 0.808687
O O4 0.000000 0.215424 0.884788
O O5 0.744649 0.500000 0.065297
O O6 0.667133 0.221027 0.101302
O O7 0.735712 0.227256 0.000000
O O8 0.500000 0.500000 0.586031
O O9 0.500000 0.293647 0.500000
O O10 0.410992 0.214151 0.582813
O O11 0.694643 0.777475 0.500000
O O12 0.672683 0.500000 0.560855
O O13 0.747959 0.762053 0.607847
O O14 0.836262 0.284157 0.296074
O O15 0.670512 0.288633 0.300550
O O16 0.754652 0.000000 0.315404
O O17 0.000000 0.283427 0.732652
O O18 0.089604 0.000000 0.739435
O O19 0.500000 0.713592 0.715690
O O20 0.602905 0.767488 0.796224
O O21 0.587725 0.000000 0.718232
O O22 0.500000 0.776578 0.877892
O O23 0.592181 0.500000 0.862637
#
# Coordination Sequence:
#
# PCOD9384320 Si02
#       8
#     8   8   4   8   8   8   8   8
#     4   9  17  29  47  70  92 115 147 186 227 276
#     4   9  17  28  43  65  92 119 147 184 229 271
#     4   7  12  26  45  63  87 121 157 185 210 251
#     4   9  18  32  49  69  95 128 161 190 224 267
#     4  10  20  31  47  71  95 121 154 192 231 274
#     4   9  18  33  51  70  93 121 153 190 234 280
#     4   9  18  31  45  64  93 123 147 179 229 281
#     4   9  17  29  45  64  85 113 153 193 223 260
#
# _framework density 20.592652000000001
#
# number of rings (size 3 to 8) (size 9 to 14) (size 15 to 20)
#    0.000    3.000    0.000    1.600    0.933    1.867 
#    0.000    2.667    0.000    3.200    0.000    6.533 
#    0.000    0.000    0.000    0.000    0.000    0.000 
#
# Total GULP energy -334805.305191 kJ/mol
# GULP energy per Si atom -5580.088420 kJ/mol
# Density = 2.054578 g / cm^3
# Si number density = 20.592652 Si / 1000 Ang^3
#
#
#
# Elastic Constant Matrix: (Units=GPa)
#
#
# Indices 1 2 3 4 5 6 
#
# 1 121.1382 8.2304 80.8793 0.0000 0.0000 0.0000
# 2 8.2304 62.4187 -4.7533 0.0000 0.0000 0.0000
# 3 80.8793 -4.7533 90.2185 0.0000 0.0000 0.0000
# 4 0.0000 0.0000 0.0000 21.4690 0.0000 0.0000
# 5 0.0000 0.0000 0.0000 0.0000 -2.2417 0.0000
# 6 0.0000 0.0000 0.0000 0.0000 0.0000 -16.1597
#
#
#
# Elastic Compliance Matrix: (Units=1/GPa)
#
#
# Indices 1 2 3 4 5 6 
#
# 1 0.021682 -0.004357 -0.019667 0.000000 0.000000 0.000000
# 2 -0.004357 0.016961 0.004799 0.000000 0.000000 0.000000
# 3 -0.019667 0.004799 0.028968 0.000000 0.000000 0.000000
# 4 0.000000 0.000000 0.000000 0.046579 0.000000 0.000000
# 5 0.000000 0.000000 0.000000 0.000000 -0.446091 0.000000
# 6 0.000000 0.000000 0.000000 0.000000 0.000000 -0.061882
#
#
# Mechanical properties :
#
#
# Convention : Reuss Voigt Hill
#
# Bulk Modulus (GPa) = 34.29109 49.16537 41.72823
# Shear Modulus (GPa) = -14.46703 13.24144 -0.61279
#
# Velocity S-wave (km/s) = -2.65341 2.53853 -0.54610
# Velocity P-wave (km/s) = 2.70200 5.70256 4.46206
#
# Compressibility (1/GPa) = 0.02916209
#
# Stress axis : x y z
#
# Youngs Moduli (GPa) = 46.12127 58.95960 34.52059
#
# Poissons Ratio (x) = 0.25686 0.67892
# Poissons Ratio (y) = 0.20093 -0.16567
# Poissons Ratio (z) = 0.90707 -0.28296
#
# Static dielectric constant tensor:
#      x y z
#    x 1.769820 0.000000 0.000000 
#    y 0.000000 1.792240 0.000000 
#    z 0.000000 0.000000 1.702220 
# 
# From -- ./inp_files/31218.got.cif
#   From: 2010.05.17/outbox.cif.g08.bks.cpg/sg47_16_cif.got.tgz:31218.got - 2010.06.03 20:15:42.
