data_PCOD9384522
_publ_section_title
;
Structure prediction by ZEFSAII (Michael W. Deem and Ramdas Pophale) SiO2 
 PCOD9384522
Probable space group: P M M M
;
_chemical_formula_sum "Si O2"
_cell_formula_units_Z 48
_cell_length_a 7.623312
_cell_length_b 32.485369
_cell_length_c 9.785496
_cell_angle_alpha 90.000000
_cell_angle_beta 90.000000
_cell_angle_gamma 90.000000
_cell_volume 2423.339953
_symmetry_space_group_name_H-M "P M M M"
_symmetry_group_IT_number 47
_symmetry_cell_setting 'orthorhombic'
loop_
_space_group_symop_operation_xyz
x,y,z
-x,-y,z
x,-y,-z
-x,y,-z
-x,-y,-z
x,y,-z
-x,y,z
x,-y,z
loop_
_atom_site_type_symbol
_atom_site_label
_atom_site_fract_x
_atom_site_fract_y
_atom_site_fract_z
Si Si1 0.214277 0.786333 0.158199
Si Si2 0.708349 0.455755 0.834634
Si Si3 0.710528 0.954727 0.344581
Si Si4 0.790135 0.121786 0.153632
Si Si5 0.288291 0.633976 0.842998
Si Si6 0.210020 0.288270 0.344970
O O1 0.271335 0.832640 0.197370
O O2 0.277754 0.750932 0.259476
O O3 0.000000 0.785470 0.160104
O O4 0.265573 0.778906 0.000000
O O5 0.500000 0.456369 0.803244
O O6 0.781585 0.500000 0.786930
O O7 0.777503 0.410957 0.792751
O O8 0.722901 0.455421 0.000000
O O9 0.774831 0.949010 0.500000
O O10 0.500000 0.956613 0.350221
O O11 0.753051 0.916108 0.251405
O O12 0.772316 0.000000 0.295673
O O13 0.000000 0.124985 0.145455
O O14 0.723072 0.114005 0.000000
O O15 0.500000 0.631347 0.849048
O O16 0.242696 0.670748 0.742402
O O17 0.227650 0.641366 0.000000
O O18 0.278309 0.290632 0.500000
O O19 0.000000 0.283444 0.353747
#
# Coordination Sequence:
#
# PCOD9384522 Si02
#       6
#     8   8   8   8   8   8
#     4   8  15  30  50  69  91 120 153 190 232 276
#     4   7  10  19  38  64  90 113 141 182 229 272
#     4   9  19  35  51  68  95 131 166 195 224 265
#     4   9  18  32  51  76 100 119 147 192 240 281
#     4   9  17  29  47  71  95 119 150 189 233 278
#     4  10  20  32  47  68  93 123 159 193 226 271
#
# _framework density 19.807373999999999
#
# number of rings (size 3 to 8) (size 9 to 14) (size 15 to 20)
#    0.000    3.333    0.000    3.500    0.000    3.333 
#    0.000    5.000    0.000    2.000    0.000    5.833 
#    0.000    0.000    0.000    0.000    0.000    0.000 
#
# Total GULP energy -267368.667571 kJ/mol
# GULP energy per Si atom -5570.180574 kJ/mol
# Density = 1.976229 g / cm^3
# Si number density = 19.807374 Si / 1000 Ang^3
#
#
#
# Elastic Constant Matrix: (Units=GPa)
#
#
# Indices 1 2 3 4 5 6 
#
# 1 37.1105 6.8818 5.5604 0.0000 0.0000 0.0000
# 2 6.8818 249.3892 128.3114 0.0000 0.0000 0.0000
# 3 5.5604 128.3114 108.0958 0.0000 0.0000 0.0000
# 4 0.0000 0.0000 0.0000 -19.5008 0.0000 0.0000
# 5 0.0000 0.0000 0.0000 0.0000 16.4590 0.0000
# 6 0.0000 0.0000 0.0000 0.0000 0.0000 20.2393
#
#
#
# Elastic Compliance Matrix: (Units=1/GPa)
#
#
# Indices 1 2 3 4 5 6 
#
# 1 0.027156 -0.000079 -0.001303 0.000000 0.000000 0.000000
# 2 -0.000079 0.010301 -0.012223 0.000000 0.000000 0.000000
# 3 -0.001303 -0.012223 0.023827 0.000000 0.000000 0.000000
# 4 0.000000 0.000000 0.000000 -0.051280 0.000000 0.000000
# 5 0.000000 0.000000 0.000000 0.000000 0.060757 0.000000
# 6 0.000000 0.000000 0.000000 0.000000 0.000000 0.049409
#
#
# Mechanical properties :
#
#
# Convention : Reuss Voigt Hill
#
# Bulk Modulus (GPa) = 29.34813 75.12253 52.23533
# Shear Modulus (GPa) = 31.49822 20.36229 25.93025
#
# Velocity S-wave (km/s) = 3.99209 3.20975 3.62210
# Velocity P-wave (km/s) = 6.00816 7.19344 6.62735
#
# Compressibility (1/GPa) = 0.03407372
#
# Stress axis : x y z
#
# Youngs Moduli (GPa) = 36.82368 97.07953 41.96882
#
# Poissons Ratio (x) = 0.00765 0.05470
# Poissons Ratio (y) = 0.00290 0.51299
# Poissons Ratio (z) = 0.04800 1.18662
#
# Static dielectric constant tensor:
#      x y z
#    x 1.765220 0.000000 0.000000 
#    y 0.000000 1.731620 0.000000 
#    z 0.000000 0.000000 1.670510 
# 
# From -- ./inp_files/2512.got.cif
#   From: 2010.05.17/outbox.cif.g08.bks.cpg/sg47_2_cif.got.tgz:2512.got - 2010.06.03 20:15:42.
