data_PCOD9384041
_publ_section_title
;
Structure prediction by ZEFSAII (Michael W. Deem and Ramdas Pophale) SiO2 
 PCOD9384041
Probable space group: P M M M
;
_chemical_formula_sum "Si O2"
_cell_formula_units_Z 48
_cell_length_a 20.917302
_cell_length_b 14.442697
_cell_length_c 8.847306
_cell_angle_alpha 90.000000
_cell_angle_beta 90.000000
_cell_angle_gamma 90.000000
_cell_volume 2672.791092
_symmetry_space_group_name_H-M "P M M M"
_symmetry_group_IT_number 47
_symmetry_cell_setting 'orthorhombic'
loop_
_space_group_symop_operation_xyz
x,y,z
-x,-y,z
x,-y,-z
-x,y,-z
-x,-y,-z
x,y,-z
-x,y,z
x,-y,z
loop_
_atom_site_type_symbol
_atom_site_label
_atom_site_fract_x
_atom_site_fract_y
_atom_site_fract_z
Si Si1 0.623576 0.705356 0.817848
Si Si2 0.170198 0.106433 0.181616
Si Si3 0.241455 0.389859 0.821436
Si Si4 0.000000 0.608128 0.818707
Si Si5 0.878711 0.288549 0.321090
Si Si6 0.500000 0.392346 0.318976
Si Si7 0.319591 0.103337 0.183695
O O1 0.688497 0.649008 0.783899
O O2 0.562756 0.658598 0.742892
O O3 0.636932 0.811096 0.767573
O O4 0.615330 0.704479 0.000000
O O5 0.128358 0.183712 0.261851
O O6 0.245152 0.119691 0.223983
O O7 0.153401 0.000000 0.217203
O O8 0.166063 0.117840 0.000000
O O9 0.239345 0.500000 0.800463
O O10 0.186373 0.340199 0.727836
O O11 0.230374 0.369689 0.000000
O O12 0.062526 0.658875 0.756073
O O13 0.000000 0.500000 0.773596
O O14 0.000000 0.612205 0.000000
O O15 0.886321 0.290221 0.500000
O O16 0.500000 0.500000 0.269967
O O17 0.500000 0.390002 0.500000
O O18 0.338015 0.000000 0.235006
O O19 0.320863 0.102757 0.000000
#
# Coordination Sequence:
#
# PCOD9384041 Si02
#       7
#     8   8   8   4   8   4   8
#     4  10  19  35  60  85 109 142 191 241 280 328
#     4   9  17  34  61  88 116 152 193 235 279 333
#     4  10  20  35  57  84 112 144 191 245 286 332
#     4  11  25  45  66  83 108 153 205 250 288 335
#     4  12  24  37  57  87 123 155 186 232 291 353
#     4  11  25  41  54  73 110 154 191 233 292 355
#     4   8  14  28  55  88 115 140 178 231 282 326
#
# _framework density 17.958755
#
# number of rings (size 3 to 8) (size 9 to 14) (size 15 to 20)
#    0.000    2.000    1.667    4.000    0.000    5.333 
#    0.000    0.833    0.000    5.500    0.000    0.000 
#    0.000    0.000    0.000    0.000    0.000    0.000 
#
# Total GULP energy -268020.770640 kJ/mol
# GULP energy per Si atom -5583.766055 kJ/mol
# Density = 1.791788 g / cm^3
# Si number density = 17.958755 Si / 1000 Ang^3
#
#
#
# Elastic Constant Matrix: (Units=GPa)
#
#
# Indices 1 2 3 4 5 6 
#
# 1 120.6537 86.9700 51.6583 0.0000 0.0000 0.0000
# 2 86.9700 167.5529 59.6942 0.0000 0.0000 0.0000
# 3 51.6583 59.6942 51.1767 0.0000 0.0000 0.0000
# 4 0.0000 0.0000 0.0000 10.4579 0.0000 0.0000
# 5 0.0000 0.0000 0.0000 0.0000 909.8264 0.0000
# 6 0.0000 0.0000 0.0000 0.0000 0.0000 30.7911
#
#
#
# Elastic Compliance Matrix: (Units=1/GPa)
#
#
# Indices 1 2 3 4 5 6 
#
# 1 0.016334 -0.004456 -0.011290 0.000000 0.000000 0.000000
# 2 -0.004456 0.011428 -0.008832 0.000000 0.000000 0.000000
# 3 -0.011290 -0.008832 0.041238 0.000000 0.000000 0.000000
# 4 0.000000 0.000000 0.000000 0.095622 0.000000 0.000000
# 5 0.000000 0.000000 0.000000 0.000000 0.001099 0.000000
# 6 0.000000 0.000000 0.000000 0.000000 0.000000 0.032477
#
#
# Mechanical properties :
#
#
# Convention : Reuss Voigt Hill
#
# Bulk Modulus (GPa) = 50.39257 81.78091 66.08674
# Shear Modulus (GPa) = 19.68749 199.61911 109.65330
#
# Velocity S-wave (km/s) = 3.31458 10.55441 7.82247
# Velocity P-wave (km/s) = 6.53985 13.93429 10.88426
#
# Compressibility (1/GPa) = 0.01984419
#
# Stress axis : x y z
#
# Youngs Moduli (GPa) = 61.22150 87.50694 24.24936
#
# Poissons Ratio (x) = 0.38993 0.27378
# Poissons Ratio (y) = 0.27280 0.21416
# Poissons Ratio (z) = 0.69120 0.77283
#
# Static dielectric constant tensor:
#      x y z
#    x 1.578330 0.000000 0.000000 
#    y 0.000000 1.629720 0.000000 
#    z 0.000000 0.000000 1.599250 
# 
# From -- ./inp_files/9214.got.cif
#   From: 2010.05.17/outbox.cif.g08.bks.cpg/sg47_5_cif.got.tgz:9214.got - 2010.06.03 20:15:42.
