data_PCOD9384415
_publ_section_title
;
Structure prediction by ZEFSAII (Michael W. Deem and Ramdas Pophale) SiO2 
 PCOD9384415
Probable space group: P M M M
;
_chemical_formula_sum "Si O2"
_cell_formula_units_Z 64
_cell_length_a 24.862883
_cell_length_b 9.231224
_cell_length_c 19.305222
_cell_angle_alpha 90.000000
_cell_angle_beta 90.000000
_cell_angle_gamma 90.000000
_cell_volume 4430.834982
_symmetry_space_group_name_H-M "P M M M"
_symmetry_group_IT_number 47
_symmetry_cell_setting 'orthorhombic'
loop_
_space_group_symop_operation_xyz
x,y,z
-x,-y,z
x,-y,-z
-x,y,-z
-x,-y,-z
x,y,-z
-x,y,z
x,-y,z
loop_
_atom_site_type_symbol
_atom_site_label
_atom_site_fract_x
_atom_site_fract_y
_atom_site_fract_z
Si Si1 0.059216 0.829725 0.916063
Si Si2 0.389514 0.673111 0.079032
Si Si3 0.335180 0.329428 0.579907
Si Si4 0.672393 0.172678 0.716563
Si Si5 0.560793 0.826148 0.789440
Si Si6 0.559866 0.161084 0.582890
Si Si7 0.722000 0.326818 0.152487
Si Si8 0.166823 0.326203 0.918776
O O1 0.111748 0.744653 0.891934
O O2 0.000000 0.778720 0.892088
O O3 0.063991 0.000000 0.899872
O O4 0.058819 0.817386 0.000000
O O5 0.398636 0.500000 0.084401
O O6 0.423949 0.754096 0.137228
O O7 0.326847 0.698973 0.098535
O O8 0.400547 0.717551 0.000000
O O9 0.321531 0.288076 0.500000
O O10 0.326040 0.500000 0.587521
O O11 0.310185 0.238772 0.642770
O O12 0.397844 0.288344 0.590763
O O13 0.609816 0.209765 0.736967
O O14 0.706836 0.242996 0.777981
O O15 0.677586 0.000000 0.716640
O O16 0.500000 0.782962 0.769493
O O17 0.561525 0.000000 0.796542
O O18 0.555491 0.147834 0.500000
O O19 0.500000 0.185978 0.610354
O O20 0.578332 0.000000 0.607980
O O21 0.722855 0.500000 0.165529
O O22 0.779392 0.282942 0.121588
O O23 0.162152 0.500000 0.915142
O O24 0.173276 0.287529 0.000000
#
# Coordination Sequence:
#
# PCOD9384415 Si02
#       8
#     8   8   8   8   8   8   8   8
#     4   8  14  24  36  52  79 114 147 179 215 248
#     4   9  17  29  45  63  81 101 127 162 203 246
#     4  10  20  32  46  64  83 101 123 153 191 237
#     4  10  20  33  48  63  79 102 132 164 199 243
#     4   9  19  34  47  59  77 101 128 158 196 243
#     4   8  14  25  40  57  77  99 120 143 174 214
#     4   9  17  30  45  60  82 109 135 167 209 250
#     4   9  16  25  40  62  84 109 144 182 216 249
#
# _framework density 14.444229
#
# number of rings (size 3 to 8) (size 9 to 14) (size 15 to 20)
#    0.000    3.000    0.000    1.875    0.000    5.000 
#    0.000    5.000    0.000    2.250    0.000    0.000 
#    0.000    0.000    0.000    0.000    0.000    0.625 
#
# Total GULP energy -356289.168360 kJ/mol
# GULP energy per Si atom -5567.018256 kJ/mol
# Density = 1.441135 g / cm^3
# Si number density = 14.444229 Si / 1000 Ang^3
#
#
#
# Elastic Constant Matrix: (Units=GPa)
#
#
# Indices 1 2 3 4 5 6 
#
# 1 87.2718 26.4872 30.5150 0.0000 0.0000 0.0000
# 2 26.4872 26.0445 33.5052 0.0000 0.0000 0.0000
# 3 30.5150 33.5052 98.2933 0.0000 0.0000 0.0000
# 4 0.0000 0.0000 0.0000 18.1121 0.0000 0.0000
# 5 0.0000 0.0000 0.0000 0.0000 7.7081 0.0000
# 6 0.0000 0.0000 0.0000 0.0000 0.0000 19.9758
#
#
#
# Elastic Compliance Matrix: (Units=1/GPa)
#
#
# Indices 1 2 3 4 5 6 
#
# 1 0.016638 -0.018301 0.001073 0.000000 0.000000 0.000000
# 2 -0.018301 0.088513 -0.024490 0.000000 0.000000 0.000000
# 3 0.001073 -0.024490 0.018188 0.000000 0.000000 0.000000
# 4 0.000000 0.000000 0.000000 0.055212 0.000000 0.000000
# 5 0.000000 0.000000 0.000000 0.000000 0.129733 0.000000
# 6 0.000000 0.000000 0.000000 0.000000 0.000000 0.050061
#
#
# Mechanical properties :
#
#
# Convention : Reuss Voigt Hill
#
# Bulk Modulus (GPa) = 25.06046 43.62493 34.34269
# Shear Modulus (GPa) = 10.98707 17.23269 14.10988
#
# Velocity S-wave (km/s) = 2.76099 3.45780 3.12885
# Velocity P-wave (km/s) = 5.24896 6.79778 6.07294
#
# Compressibility (1/GPa) = 0.03990350
#
# Stress axis : x y z
#
# Youngs Moduli (GPa) = 60.10489 11.29781 54.98033
#
# Poissons Ratio (x) = 0.20676 -0.05900
# Poissons Ratio (y) = 1.09997 1.34646
# Poissons Ratio (z) = -0.06450 0.27668
#
# Static dielectric constant tensor:
#      x y z
#    x 1.481160 0.000000 0.000000 
#    y 0.000000 1.481980 0.000000 
#    z 0.000000 0.000000 1.498450 
# 
# From -- ./inp_files/31559.got.cif
#   From: 2010.05.17/outbox.cif.g08.bks.cpg/sg47_16_cif.got.tgz:31559.got - 2010.06.03 20:15:42.
