data_PCOD9384679
_publ_section_title
;
Structure prediction by ZEFSAII (Michael W. Deem and Ramdas Pophale) SiO2 
 PCOD9384679
Probable space group: P M M M
;
_chemical_formula_sum "Si O2"
_cell_formula_units_Z 44
_cell_length_a 33.421177
_cell_length_b 7.762493
_cell_length_c 9.280032
_cell_angle_alpha 90.000000
_cell_angle_beta 90.000000
_cell_angle_gamma 90.000000
_cell_volume 2407.534037
_symmetry_space_group_name_H-M "P M M M"
_symmetry_group_IT_number 47
_symmetry_cell_setting 'orthorhombic'
loop_
_space_group_symop_operation_xyz
x,y,z
-x,-y,z
x,-y,-z
-x,y,-z
-x,-y,-z
x,y,-z
-x,y,z
x,-y,z
loop_
_atom_site_type_symbol
_atom_site_label
_atom_site_fract_x
_atom_site_fract_y
_atom_site_fract_z
Si Si1 0.000000 0.711230 0.334712
Si Si2 0.754249 0.801932 0.324260
Si Si3 0.842866 0.207370 0.663852
Si Si4 0.396416 0.500000 0.323715
Si Si5 0.922024 0.293349 0.162491
Si Si6 0.304518 0.500000 0.675962
Si Si7 0.545411 0.196969 0.675415
O O1 0.959920 0.769897 0.253935
O O2 0.000000 0.500000 0.334126
O O3 0.000000 0.766517 0.500000
O O4 0.754898 0.804244 0.500000
O O5 0.798815 0.739448 0.282235
O O6 0.720135 0.669312 0.278691
O O7 0.747867 0.000000 0.277538
O O8 0.848800 0.272022 0.500000
O O9 0.880114 0.256382 0.761057
O O10 0.841010 0.000000 0.657152
O O11 0.396102 0.500000 0.500000
O O12 0.350467 0.500000 0.276334
O O13 0.421427 0.332463 0.276993
O O14 0.926114 0.500000 0.155404
O O15 0.922762 0.225215 0.000000
O O16 0.304721 0.500000 0.500000
O O17 0.545663 0.198314 0.500000
O O18 0.500000 0.244917 0.718478
O O19 0.553112 0.000000 0.720280
#
# Coordination Sequence:
#
# PCOD9384679 Si02
#       7
#     4   8   8   4   8   4   8
#     4   9  17  31  50  71  96 127 160 188 220 267
#     4   8  15  27  40  56  79 103 132 174 217 263
#     4   9  18  32  49  68  88 114 151 189 224 268
#     4   9  15  20  27  42  62  83 114 158 208 265
#     4  10  20  32  48  72  99 124 150 185 229 273
#     4   9  16  23  34  53  73  98 128 161 218 281
#     4   8  13  20  28  37  52  80 119 161 206 256
#
# _framework density 18.275960000000001
#
# number of rings (size 3 to 8) (size 9 to 14) (size 15 to 20)
#    0.000    3.182    0.000    2.727    1.273    4.364 
#    0.000    4.091    0.000    2.727    0.000    0.000 
#    0.000    0.000    0.000    0.000    0.000    0.000 
#
# Total GULP energy -245179.838115 kJ/mol
# GULP energy per Si atom -5572.269048 kJ/mol
# Density = 1.823436 g / cm^3
# Si number density = 18.275960 Si / 1000 Ang^3
#
#
#
# Elastic Constant Matrix: (Units=GPa)
#
#
# Indices 1 2 3 4 5 6 
#
# 1 211.1993 82.1073 53.1961 0.0000 0.0000 0.0000
# 2 82.1073 72.8719 21.3340 0.0000 0.0000 0.0000
# 3 53.1961 21.3340 47.6704 0.0000 0.0000 0.0000
# 4 0.0000 0.0000 0.0000 4.9284 0.0000 0.0000
# 5 0.0000 0.0000 0.0000 0.0000 -5.1432 0.0000
# 6 0.0000 0.0000 0.0000 0.0000 0.0000 31.3606
#
#
#
# Elastic Compliance Matrix: (Units=1/GPa)
#
#
# Indices 1 2 3 4 5 6 
#
# 1 0.010187 -0.009379 -0.007171 0.000000 0.000000 0.000000
# 2 -0.009379 0.024427 -0.000465 0.000000 0.000000 0.000000
# 3 -0.007171 -0.000465 0.029188 0.000000 0.000000 0.000000
# 4 0.000000 0.000000 0.000000 0.202904 0.000000 0.000000
# 5 0.000000 0.000000 0.000000 0.000000 -0.194432 0.000000
# 6 0.000000 0.000000 0.000000 0.000000 0.000000 0.031887
#
#
# Mechanical properties :
#
#
# Convention : Reuss Voigt Hill
#
# Bulk Modulus (GPa) = 33.58966 71.66850 52.62908
# Shear Modulus (GPa) = 33.75749 17.90278 25.83014
#
# Velocity S-wave (km/s) = 4.30245 3.13322 3.76352
# Velocity P-wave (km/s) = 6.56510 7.23804 6.90976
#
# Compressibility (1/GPa) = 0.02977107
#
# Stress axis : x y z
#
# Youngs Moduli (GPa) = 98.16195 40.93892 34.26111
#
# Poissons Ratio (x) = 0.38397 0.24568
# Poissons Ratio (y) = 0.92066 0.01595
# Poissons Ratio (z) = 0.70389 0.01906
#
# Static dielectric constant tensor:
#      x y z
#    x 1.620580 0.000000 0.000000 
#    y 0.000000 1.659540 0.000000 
#    z 0.000000 0.000000 1.600910 
# 
# From -- ./inp_files/13769.got.cif
#   From: 2010.05.17/outbox.cif.g08.bks.cpg/sg47_7_cif.got.tgz:13769.got - 2010.06.03 20:15:42.
