data_PCOD9384173
_publ_section_title
;
Structure prediction by ZEFSAII (Michael W. Deem and Ramdas Pophale) SiO2 
 PCOD9384173
Probable space group: P M M M
;
_chemical_formula_sum "Si O2"
_cell_formula_units_Z 64
_cell_length_a 8.835821
_cell_length_b 32.408351
_cell_length_c 14.611788
_cell_angle_alpha 90.000000
_cell_angle_beta 90.000000
_cell_angle_gamma 90.000000
_cell_volume 4184.149615
_symmetry_space_group_name_H-M "P M M M"
_symmetry_group_IT_number 47
_symmetry_cell_setting 'orthorhombic'
loop_
_space_group_symop_operation_xyz
x,y,z
-x,-y,z
x,-y,-z
-x,y,-z
-x,-y,-z
x,y,-z
-x,y,z
x,-y,z
loop_
_atom_site_type_symbol
_atom_site_label
_atom_site_fract_x
_atom_site_fract_y
_atom_site_fract_z
Si Si1 0.315965 0.455507 0.892102
Si Si2 0.681371 0.204634 0.780616
Si Si3 0.317602 0.122776 0.894000
Si Si4 0.819143 0.045909 0.213665
Si Si5 0.820211 0.830763 0.395280
Si Si6 0.180131 0.720306 0.892272
Si Si7 0.323717 0.634035 0.888722
Si Si8 0.681057 0.077933 0.604159
O O1 0.500000 0.454624 0.888159
O O2 0.266412 0.500000 0.852804
O O3 0.266240 0.410854 0.855138
O O4 0.276300 0.456271 0.000000
O O5 0.500000 0.205126 0.773811
O O6 0.726735 0.163835 0.838515
O O7 0.754205 0.199390 0.680901
O O8 0.738770 0.244794 0.833341
O O9 0.500000 0.120035 0.890167
O O10 0.249726 0.082355 0.846968
O O11 0.271939 0.126004 0.000000
O O12 0.758273 0.051774 0.316639
O O13 0.000000 0.049512 0.213855
O O14 0.777689 0.000000 0.180512
O O15 0.794502 0.817026 0.500000
O O16 0.738752 0.875064 0.384642
O O17 0.000000 0.836390 0.382283
O O18 0.230901 0.674451 0.862718
O O19 0.000000 0.724456 0.884619
O O20 0.221436 0.725087 0.000000
O O21 0.500000 0.639188 0.862678
O O22 0.320294 0.631966 0.000000
O O23 0.717882 0.064959 0.500000
O O24 0.500000 0.076928 0.615027
#
# Coordination Sequence:
#
# PCOD9384173 Si02
#       8
#     8   8   8   8   8   8   8   8
#     4   7   9  14  27  48  71  97 136 187 237 279
#     4  11  21  34  54  76  96 120 153 189 225 269
#     4  10  22  39  57  76  96 121 154 191 229 267
#     4  11  24  39  55  76 101 128 156 186 224 270
#     4  10  20  34  54  79 104 126 147 175 215 264
#     4  10  20  31  43  62  90 124 159 195 237 280
#     4   8  13  22  36  53  76 108 147 192 237 278
#     4  10  20  35  56  80 103 127 154 182 216 260
#
# _framework density 15.295821
#
# number of rings (size 3 to 8) (size 9 to 14) (size 15 to 20)
#    0.000    2.375    1.250    3.375    0.000    5.000 
#    0.000    2.500    0.000    0.375    0.000    2.625 
#    0.000    0.000    0.000    0.000    0.000    0.625 
#
# Total GULP energy -356754.441351 kJ/mol
# GULP energy per Si atom -5574.288146 kJ/mol
# Density = 1.526101 g / cm^3
# Si number density = 15.295821 Si / 1000 Ang^3
#
#
#
# Elastic Constant Matrix: (Units=GPa)
#
#
# Indices 1 2 3 4 5 6 
#
# 1 22.5037 25.8087 20.0351 0.0000 0.0000 0.0000
# 2 25.8087 119.1396 40.0229 0.0000 0.0000 0.0000
# 3 20.0351 40.0229 58.9862 0.0000 0.0000 0.0000
# 4 0.0000 0.0000 0.0000 2.4327 0.0000 0.0000
# 5 0.0000 0.0000 0.0000 0.0000 19.1821 0.0000
# 6 0.0000 0.0000 0.0000 0.0000 0.0000 76.4676
#
#
#
# Elastic Compliance Matrix: (Units=1/GPa)
#
#
# Indices 1 2 3 4 5 6 
#
# 1 0.071040 -0.009434 -0.017728 0.000000 0.000000 0.000000
# 2 -0.009434 0.012124 -0.005022 0.000000 0.000000 0.000000
# 3 -0.017728 -0.005022 0.026382 0.000000 0.000000 0.000000
# 4 0.000000 0.000000 0.000000 0.411061 0.000000 0.000000
# 5 0.000000 0.000000 0.000000 0.000000 0.052132 0.000000
# 6 0.000000 0.000000 0.000000 0.000000 0.000000 0.013077
#
#
# Mechanical properties :
#
#
# Convention : Reuss Voigt Hill
#
# Bulk Modulus (GPa) = 22.13466 41.37366 31.75416
# Shear Modulus (GPa) = 7.51604 27.26733 17.39168
#
# Velocity S-wave (km/s) = 2.21911 4.22674 3.37563
# Velocity P-wave (km/s) = 4.59003 7.13640 5.99986
#
# Compressibility (1/GPa) = 0.04517802
#
# Stress axis : x y z
#
# Youngs Moduli (GPa) = 14.07660 82.47964 37.90408
#
# Poissons Ratio (x) = 0.77807 0.67198
# Poissons Ratio (y) = 0.13279 0.19036
# Poissons Ratio (z) = 0.24956 0.41424
#
# Static dielectric constant tensor:
#      x y z
#    x 1.508890 0.000000 0.000000 
#    y 0.000000 1.529350 0.000000 
#    z 0.000000 0.000000 1.496130 
# 
# From -- ./inp_files/14321.got.cif
#   From: 2010.05.17/outbox.cif.g08.bks.cpg/sg47_8_cif.got.tgz:14321.got - 2010.06.03 20:15:42.
