data_PCOD9384231
_publ_section_title
;
Structure prediction by ZEFSAII (Michael W. Deem and Ramdas Pophale) SiO2 
 PCOD9384231
Probable space group: P M M M
;
_chemical_formula_sum "Si O2"
_cell_formula_units_Z 40
_cell_length_a 8.909899
_cell_length_b 27.983139
_cell_length_c 7.399027
_cell_angle_alpha 90.000000
_cell_angle_beta 90.000000
_cell_angle_gamma 90.000000
_cell_volume 1844.776777
_symmetry_space_group_name_H-M "P M M M"
_symmetry_group_IT_number 47
_symmetry_cell_setting 'orthorhombic'
loop_
_space_group_symop_operation_xyz
x,y,z
-x,-y,z
x,-y,-z
-x,y,-z
-x,-y,-z
x,y,-z
-x,y,z
x,-y,z
loop_
_atom_site_type_symbol
_atom_site_label
_atom_site_fract_x
_atom_site_fract_y
_atom_site_fract_z
Si Si1 0.676431 0.897528 0.279948
Si Si2 0.165546 0.691552 0.785214
Si Si3 0.828618 0.500000 0.220477
Si Si4 0.665980 0.788070 0.283554
Si Si5 0.000000 0.055874 0.718882
Si Si6 0.670430 0.402877 0.220982
O O1 0.673850 0.900718 0.500000
O O2 0.500000 0.911171 0.226596
O O3 0.697521 0.842112 0.223207
O O4 0.834220 0.923332 0.223193
O O5 0.225742 0.744882 0.760397
O O6 0.264233 0.647723 0.715951
O O7 0.000000 0.687775 0.708664
O O8 0.157861 0.684485 0.000000
O O9 0.754923 0.450542 0.280378
O O10 0.000000 0.500000 0.273991
O O11 0.820827 0.500000 0.000000
O O12 0.662117 0.791297 0.500000
O O13 0.500000 0.774754 0.217880
O O14 0.000000 0.061375 0.500000
O O15 0.000000 0.000000 0.764027
O O16 0.500000 0.406615 0.276743
O O17 0.675023 0.402776 0.000000
#
# Coordination Sequence:
#
# PCOD9384231 Si02
#       6
#     8   8   4   8   4   8
#     4   8  15  27  41  60  88 119 153 193 232 275
#     4  10  20  31  44  67  97 124 152 191 238 281
#     4   9  15  23  37  57  82 111 144 183 226 275
#     4   9  18  32  49  68  90 122 162 196 230 277
#     4   9  16  24  38  62  89 121 157 188 229 280
#     4   9  16  26  40  58  83 116 150 184 226 275
#
# _framework density 21.682839000000001
#
# number of rings (size 3 to 8) (size 9 to 14) (size 15 to 20)
#    0.000    3.000    0.000    2.700    1.400    5.600 
#    0.000    2.000    0.000    0.000    0.000    0.700 
#    0.000    7.200    0.000    4.400    0.000    4.400 
#
# Total GULP energy -222871.281554 kJ/mol
# GULP energy per Si atom -5571.782039 kJ/mol
# Density = 2.163349 g / cm^3
# Si number density = 21.682839 Si / 1000 Ang^3
#
#
#
# Elastic Constant Matrix: (Units=GPa)
#
#
# Indices 1 2 3 4 5 6 
#
# 1 223.1057 123.2200 6.2466 0.0000 0.0000 0.0000
# 2 123.2200 134.6643 2.2050 0.0000 0.0000 0.0000
# 3 6.2466 2.2050 70.4919 0.0000 0.0000 0.0000
# 4 0.0000 0.0000 0.0000 -1.0326 0.0000 0.0000
# 5 0.0000 0.0000 0.0000 0.0000 -0.9814 0.0000
# 6 0.0000 0.0000 0.0000 0.0000 0.0000 53.2852
#
#
#
# Elastic Compliance Matrix: (Units=1/GPa)
#
#
# Indices 1 2 3 4 5 6 
#
# 1 0.009082 -0.008302 -0.000545 0.000000 0.000000 0.000000
# 2 -0.008302 0.015018 0.000266 0.000000 0.000000 0.000000
# 3 -0.000545 0.000266 0.014226 0.000000 0.000000 0.000000
# 4 0.000000 0.000000 0.000000 -0.968450 0.000000 0.000000
# 5 0.000000 0.000000 0.000000 0.000000 -1.018965 0.000000
# 6 0.000000 0.000000 0.000000 0.000000 0.000000 0.018767
#
#
# Mechanical properties :
#
#
# Convention : Reuss Voigt Hill
#
# Bulk Modulus (GPa) = 47.24938 76.84501 62.04720
# Shear Modulus (GPa) = -2.62315 30.02692 13.70189
#
# Velocity S-wave (km/s) = -1.10109 3.72536 2.51654
# Velocity P-wave (km/s) = 4.49688 7.34995 6.09277
#
# Compressibility (1/GPa) = 0.02116430
#
# Stress axis : x y z
#
# Youngs Moduli (GPa) = 110.10353 66.58855 70.29369
#
# Poissons Ratio (x) = 0.55279 0.03832
# Poissons Ratio (y) = 0.91403 -0.01869
# Poissons Ratio (z) = 0.06002 -0.01771
#
# Static dielectric constant tensor:
#      x y z
#    x 1.798710 0.000000 0.000000 
#    y 0.000000 1.756970 0.000000 
#    z 0.000000 0.000000 1.911490 
# 
# From -- ./inp_files/1707.got.cif
#   From: 2010.05.17/outbox.cif.g08.bks.cpg/sg47_1_cif.got.tgz:1707.got - 2010.06.03 20:15:42.
