data_PCOD9384057
_publ_section_title
;
Structure prediction by ZEFSAII (Michael W. Deem and Ramdas Pophale) SiO2 
 PCOD9384057
Probable space group: P M M M
;
_chemical_formula_sum "Si O2"
_cell_formula_units_Z 60
_cell_length_a 14.077924
_cell_length_b 18.863557
_cell_length_c 13.029041
_cell_angle_alpha 90.000000
_cell_angle_beta 90.000000
_cell_angle_gamma 90.000000
_cell_volume 3459.988503
_symmetry_space_group_name_H-M "P M M M"
_symmetry_group_IT_number 47
_symmetry_cell_setting 'orthorhombic'
loop_
_space_group_symop_operation_xyz
x,y,z
-x,-y,z
x,-y,-z
-x,y,-z
-x,-y,-z
x,y,-z
-x,y,z
x,-y,z
loop_
_atom_site_type_symbol
_atom_site_label
_atom_site_fract_x
_atom_site_fract_y
_atom_site_fract_z
Si Si1 0.675175 0.578690 0.116153
Si Si2 0.604112 0.732566 0.120092
Si Si3 0.110125 0.083297 0.877577
Si Si4 0.108894 0.285189 0.378881
Si Si5 0.391065 0.414469 0.500000
Si Si6 0.766874 0.418003 0.334035
Si Si7 0.610012 0.082814 0.376942
Si Si8 0.246768 0.182333 0.253848
O O1 0.630100 0.500000 0.124768
O O2 0.609497 0.647185 0.125949
O O3 0.745721 0.584261 0.212504
O O4 0.716758 0.582469 0.000000
O O5 0.500000 0.756377 0.155176
O O6 0.687226 0.767022 0.185120
O O7 0.614935 0.751238 0.000000
O O8 0.182211 0.132117 0.816679
O O9 0.000000 0.099413 0.851742
O O10 0.126084 0.000000 0.855311
O O11 0.120982 0.092847 0.000000
O O12 0.111343 0.270479 0.500000
O O13 0.150565 0.363805 0.361453
O O14 0.177581 0.230831 0.321437
O O15 0.000000 0.279919 0.343190
O O16 0.398265 0.500000 0.500000
O O17 0.500000 0.386870 0.500000
O O18 0.327293 0.396000 0.600034
O O19 0.787195 0.500000 0.361570
O O20 0.618288 0.089777 0.500000
O O21 0.500000 0.098476 0.349745
O O22 0.683582 0.133923 0.321679
O O23 0.627839 0.000000 0.351322
#
# Coordination Sequence:
#
# PCOD9384057 Si02
#       8
#     8   8   8   8   4   8   8   8
#     4   9  18  34  55  77 104 141 184 228 272 324
#     4  10  21  34  50  78 113 146 180 219 264 319
#     4   9  19  36  58  84 109 134 174 225 269 315
#     4  11  24  39  54  78 111 144 185 237 283 325
#     4   9  18  32  53  81 109 135 173 232 288 329
#     4  10  19  36  58  80 106 143 189 234 284 334
#     4   9  19  36  57  81 108 139 178 219 257 310
#     4  12  20  35  56  80 108 148 178 213 269 332
#
# _framework density 17.341099
#
# number of rings (size 3 to 8) (size 9 to 14) (size 15 to 20)
#    0.000    2.067    2.000    2.800    0.000    1.067 
#    0.000    3.333    0.000    1.200    0.000   13.067 
#    0.000    0.000    0.000    0.000    0.000    0.000 
#
# Total GULP energy -334540.143944 kJ/mol
# GULP energy per Si atom -5575.669066 kJ/mol
# Density = 1.730163 g / cm^3
# Si number density = 17.341099 Si / 1000 Ang^3
#
#
#
# Elastic Constant Matrix: (Units=GPa)
#
#
# Indices 1 2 3 4 5 6 
#
# 1 146.4234 84.9008 64.4322 0.0000 0.0000 0.0000
# 2 84.9008 102.9361 48.6745 0.0000 0.0000 0.0000
# 3 64.4322 48.6745 80.3628 0.0000 0.0000 0.0000
# 4 0.0000 0.0000 0.0000 14.1231 0.0000 0.0000
# 5 0.0000 0.0000 0.0000 0.0000 20.4301 0.0000
# 6 0.0000 0.0000 0.0000 0.0000 0.0000 15.4196
#
#
#
# Elastic Compliance Matrix: (Units=1/GPa)
#
#
# Indices 1 2 3 4 5 6 
#
# 1 0.015126 -0.009447 -0.006406 0.000000 0.000000 0.000000
# 2 -0.009447 0.019514 -0.004245 0.000000 0.000000 0.000000
# 3 -0.006406 -0.004245 0.020151 0.000000 0.000000 0.000000
# 4 0.000000 0.000000 0.000000 0.070806 0.000000 0.000000
# 5 0.000000 0.000000 0.000000 0.000000 0.048947 0.000000
# 6 0.000000 0.000000 0.000000 0.000000 0.000000 0.064853
#
#
# Mechanical properties :
#
#
# Convention : Reuss Voigt Hill
#
# Bulk Modulus (GPa) = 68.51567 80.63749 74.57658
# Shear Modulus (GPa) = 17.57746 18.77556 18.17651
#
# Velocity S-wave (km/s) = 3.18721 3.29404 3.24107
# Velocity P-wave (km/s) = 7.28977 7.81469 7.55679
#
# Compressibility (1/GPa) = 0.01459520
#
# Stress axis : x y z
#
# Youngs Moduli (GPa) = 66.11311 51.24649 49.62636
#
# Poissons Ratio (x) = 0.48410 0.31789
# Poissons Ratio (y) = 0.62454 0.21067
# Poissons Ratio (z) = 0.42349 0.21755
#
# Static dielectric constant tensor:
#      x y z
#    x 1.565230 0.000000 0.000000 
#    y 0.000000 1.583870 0.000000 
#    z 0.000000 0.000000 1.587150 
# 
# From -- ./inp_files/16600.got.cif
#   From: 2010.05.17/outbox.cif.g08.bks.cpg/sg47_9_cif.got.tgz:16600.got - 2010.06.03 20:15:42.
