data_PCOD9384126
_publ_section_title
;
Structure prediction by ZEFSAII (Michael W. Deem and Ramdas Pophale) SiO2 
 PCOD9384126
Probable space group: P M M M
;
_chemical_formula_sum "Si O2"
_cell_formula_units_Z 52
_cell_length_a 25.182704
_cell_length_b 18.403668
_cell_length_c 9.320194
_cell_angle_alpha 90.000000
_cell_angle_beta 90.000000
_cell_angle_gamma 90.000000
_cell_volume 4319.482344
_symmetry_space_group_name_H-M "P M M M"
_symmetry_group_IT_number 47
_symmetry_cell_setting 'orthorhombic'
loop_
_space_group_symop_operation_xyz
x,y,z
-x,-y,z
x,-y,-z
-x,y,-z
-x,-y,-z
x,y,-z
-x,y,z
x,-y,z
loop_
_atom_site_type_symbol
_atom_site_label
_atom_site_fract_x
_atom_site_fract_y
_atom_site_fract_z
Si Si1 0.064432 0.418450 0.665943
Si Si2 0.114198 0.137994 0.327933
Si Si3 0.336847 0.911455 0.165204
Si Si4 0.231219 0.914480 0.330209
Si Si5 0.064119 0.274480 0.831353
Si Si6 0.441116 0.911713 0.332577
Si Si7 0.936247 0.000000 0.168416
O O1 0.079981 0.404904 0.500000
O O2 0.082057 0.500000 0.706777
O O3 0.080603 0.352970 0.768848
O O4 0.000000 0.419487 0.667979
O O5 0.105590 0.134779 0.500000
O O6 0.177154 0.128501 0.301351
O O7 0.091329 0.211357 0.260419
O O8 0.085714 0.070643 0.249630
O O9 0.282887 0.889171 0.244582
O O10 0.390625 0.886199 0.242801
O O11 0.337342 0.000000 0.170920
O O12 0.336324 0.889689 0.000000
O O13 0.242524 0.910768 0.500000
O O14 0.221362 0.000000 0.296078
O O15 0.000000 0.268086 0.816250
O O16 0.076455 0.267738 0.000000
O O17 0.435259 0.892345 0.500000
O O18 0.500000 0.888314 0.282981
O O19 0.440967 0.000000 0.326459
O O20 0.000000 0.000000 0.173784
O O21 0.920403 0.000000 0.000000
#
# Coordination Sequence:
#
# PCOD9384126 Si02
#       7
#     8   8   8   8   8   8   4
#     4   8  14  26  44  63  80  98 119 140 164 201
#     4  11  21  33  46  58  70  91 123 154 184 219
#     4   9  16  23  33  50  66  82 105 134 172 211
#     4   9  17  30  42  51  64  83 113 149 182 216
#     4  10  20  31  42  59  81 100 117 141 179 222
#     4   8  13  21  32  45  62  85 108 129 160 202
#     4  11  23  35  45  57  73  91 112 145 190 233
#
# _framework density 12.03848
#
# number of rings (size 3 to 8) (size 9 to 14) (size 15 to 20)
#    0.000    2.692    0.769    3.000    0.000    7.077 
#    0.000    3.077    0.000    0.000    0.000    0.000 
#    0.000    0.000    0.000    0.000    0.000    0.000 
#
# Total GULP energy -289589.294210 kJ/mol
# GULP energy per Si atom -5569.024889 kJ/mol
# Density = 1.201108 g / cm^3
# Si number density = 12.038480 Si / 1000 Ang^3
#
#
#
# Elastic Constant Matrix: (Units=GPa)
#
#
# Indices 1 2 3 4 5 6 
#
# 1 75.3225 29.0165 58.3653 0.0000 0.0000 0.0000
# 2 29.0165 61.0586 42.2558 0.0000 0.0000 0.0000
# 3 58.3653 42.2558 81.8144 0.0000 0.0000 0.0000
# 4 0.0000 0.0000 0.0000 12.1223 0.0000 0.0000
# 5 0.0000 0.0000 0.0000 0.0000 8.0710 0.0000
# 6 0.0000 0.0000 0.0000 0.0000 0.0000 -0.4201
#
#
#
# Elastic Compliance Matrix: (Units=1/GPa)
#
#
# Indices 1 2 3 4 5 6 
#
# 1 0.029715 0.000855 -0.021640 0.000000 0.000000 0.000000
# 2 0.000855 0.025513 -0.013786 0.000000 0.000000 0.000000
# 3 -0.021640 -0.013786 0.034781 0.000000 0.000000 0.000000
# 4 0.000000 0.000000 0.000000 0.082492 0.000000 0.000000
# 5 0.000000 0.000000 0.000000 0.000000 0.123901 0.000000
# 6 0.000000 0.000000 0.000000 0.000000 0.000000 -2.380594
#
#
# Mechanical properties :
#
#
# Convention : Reuss Voigt Hill
#
# Bulk Modulus (GPa) = 47.92677 53.05230 50.48954
# Shear Modulus (GPa) = -2.48992 9.85851 3.68429
#
# Velocity S-wave (km/s) = -1.43972 2.86478 1.75131
# Velocity P-wave (km/s) = 6.09377 7.42342 6.79122
#
# Compressibility (1/GPa) = 0.02086516
#
# Stress axis : x y z
#
# Youngs Moduli (GPa) = 33.65311 39.19632 28.75161
#
# Poissons Ratio (x) = -0.03349 0.62217
# Poissons Ratio (y) = -0.02876 0.39638
# Poissons Ratio (z) = 0.72824 0.54038
#
# Static dielectric constant tensor:
#      x y z
#    x 1.387690 0.000000 0.000000 
#    y 0.000000 1.370300 0.000000 
#    z 0.000000 0.000000 1.401230 
# 
# From -- ./inp_files/10087.got.cif
#   From: 2010.05.17/outbox.cif.g08.bks.cpg/sg47_6_cif.got.tgz:10087.got - 2010.06.03 20:15:42.
