data_PCOD9384558
_publ_section_title
;
Structure prediction by ZEFSAII (Michael W. Deem and Ramdas Pophale) SiO2 
 PCOD9384558
Probable space group: P M M M
;
_chemical_formula_sum "Si O2"
_cell_formula_units_Z 52
_cell_length_a 8.066606
_cell_length_b 18.263587
_cell_length_c 19.269397
_cell_angle_alpha 90.000000
_cell_angle_beta 90.000000
_cell_angle_gamma 90.000000
_cell_volume 2838.867005
_symmetry_space_group_name_H-M "P M M M"
_symmetry_group_IT_number 47
_symmetry_cell_setting 'orthorhombic'
loop_
_space_group_symop_operation_xyz
x,y,z
-x,-y,z
x,-y,-z
-x,y,-z
-x,-y,-z
x,y,-z
-x,y,z
x,-y,z
loop_
_atom_site_type_symbol
_atom_site_label
_atom_site_fract_x
_atom_site_fract_y
_atom_site_fract_z
Si Si1 0.197749 0.767643 0.922988
Si Si2 0.305668 0.918995 0.857516
Si Si3 0.299884 0.914569 0.422813
Si Si4 0.195116 0.150657 0.279715
Si Si5 0.313837 0.412171 0.672153
Si Si6 0.000000 0.410774 0.579661
Si Si7 0.200456 0.693736 0.215634
O O1 0.226633 0.850923 0.897855
O O2 0.258799 0.714092 0.861905
O O3 0.000000 0.757131 0.925717
O O4 0.266896 0.756190 0.000000
O O5 0.500000 0.918688 0.874097
O O6 0.284523 0.901715 0.775702
O O7 0.237919 0.000000 0.873118
O O8 0.246418 0.890556 0.500000
O O9 0.500000 0.911614 0.420924
O O10 0.232336 0.869572 0.358396
O O11 0.252142 0.000000 0.414705
O O12 0.240502 0.233869 0.260871
O O13 0.000000 0.142889 0.265799
O O14 0.500000 0.393722 0.647598
O O15 0.303645 0.500000 0.677953
O O16 0.165619 0.387877 0.620903
O O17 0.280990 0.374450 0.745998
O O18 0.000000 0.500000 0.578810
O O19 0.000000 0.385917 0.500000
O O20 0.000000 0.684819 0.215249
#
# Coordination Sequence:
#
# PCOD9384558 Si02
#       7
#     8   8   8   8   8   4   8
#     4   9  19  35  54  77 104 135 173 217 265 317
#     4  10  20  32  47  69  98 133 172 214 262 317
#     4   9  18  32  48  66  92 128 168 211 260 311
#     4  10  20  32  49  72  96 126 168 216 261 311
#     4  10  20  34  57  87 113 144 187 225 263 318
#     4   9  18  34  56  82 115 149 176 215 267 309
#     4   9  18  34  54  75 104 140 173 214 268 320
#
# _framework density 18.317166
#
# number of rings (size 3 to 8) (size 9 to 14) (size 15 to 20)
#    0.000    2.538    0.769    2.769    0.000    7.692 
#    0.000    4.615    0.000    0.462    0.000    3.231 
#    0.000    0.000    0.000    0.000    0.000    0.000 
#
# Total GULP energy -289971.414367 kJ/mol
# GULP energy per Si atom -5576.373353 kJ/mol
# Density = 1.827548 g / cm^3
# Si number density = 18.317166 Si / 1000 Ang^3
#
#
#
# Elastic Constant Matrix: (Units=GPa)
#
#
# Indices 1 2 3 4 5 6 
#
# 1 56.1300 25.1102 35.4517 0.0000 0.0000 0.0000
# 2 25.1102 24.9646 30.7856 0.0000 0.0000 0.0000
# 3 35.4517 30.7856 142.0098 0.0000 0.0000 0.0000
# 4 0.0000 0.0000 0.0000 12.7454 0.0000 0.0000
# 5 0.0000 0.0000 0.0000 0.0000 12.7052 0.0000
# 6 0.0000 0.0000 0.0000 0.0000 0.0000 23.1941
#
#
#
# Elastic Compliance Matrix: (Units=1/GPa)
#
#
# Indices 1 2 3 4 5 6 
#
# 1 0.032595 -0.031051 -0.001406 0.000000 0.000000 0.000000
# 2 -0.031051 0.084254 -0.010513 0.000000 0.000000 0.000000
# 3 -0.001406 -0.010513 0.009672 0.000000 0.000000 0.000000
# 4 0.000000 0.000000 0.000000 0.078460 0.000000 0.000000
# 5 0.000000 0.000000 0.000000 0.000000 0.078708 0.000000
# 6 0.000000 0.000000 0.000000 0.000000 0.000000 0.043114
#
#
# Mechanical properties :
#
#
# Convention : Reuss Voigt Hill
#
# Bulk Modulus (GPa) = 24.64283 45.08883 34.86583
# Shear Modulus (GPa) = 11.72969 18.51275 15.12122
#
# Velocity S-wave (km/s) = 2.53329 3.18256 2.87631
# Velocity P-wave (km/s) = 4.69461 6.17851 5.48696
#
# Compressibility (1/GPa) = 0.04057975
#
# Stress axis : x y z
#
# Youngs Moduli (GPa) = 30.67993 11.86893 103.39408
#
# Poissons Ratio (x) = 0.36855 0.14532
# Poissons Ratio (y) = 0.95266 1.08700
# Poissons Ratio (z) = 0.04312 0.12478
#
# Static dielectric constant tensor:
#      x y z
#    x 1.657960 0.000000 0.000000 
#    y 0.000000 1.617810 0.000000 
#    z 0.000000 0.000000 1.643320 
# 
# From -- ./inp_files/26749.got.cif
#   From: 2010.05.17/outbox.cif.g08.bks.cpg/sg47_14_cif.got.tgz:26749.got - 2010.06.03 20:15:42.
