data_PCOD9384444
_publ_section_title
;
Structure prediction by ZEFSAII (Michael W. Deem and Ramdas Pophale) SiO2 
 PCOD9384444
Probable space group: P M M M
;
_chemical_formula_sum "Si O2"
_cell_formula_units_Z 56
_cell_length_a 9.016369
_cell_length_b 20.532160
_cell_length_c 15.787372
_cell_angle_alpha 90.000000
_cell_angle_beta 90.000000
_cell_angle_gamma 90.000000
_cell_volume 2922.645623
_symmetry_space_group_name_H-M "P M M M"
_symmetry_group_IT_number 47
_symmetry_cell_setting 'orthorhombic'
loop_
_space_group_symop_operation_xyz
x,y,z
-x,-y,z
x,-y,-z
-x,y,-z
-x,-y,-z
x,y,-z
-x,y,z
x,-y,z
loop_
_atom_site_type_symbol
_atom_site_label
_atom_site_fract_x
_atom_site_fract_y
_atom_site_fract_z
Si Si1 0.177494 0.178136 0.276347
Si Si2 0.165876 0.428967 0.206729
Si Si3 0.674746 0.427454 0.379038
Si Si4 0.662684 0.338285 0.903518
Si Si5 0.821789 0.711043 0.593069
Si Si6 0.323968 0.922923 0.598344
Si Si7 0.672406 0.817905 0.095418
O O1 0.227599 0.244503 0.326879
O O2 0.231009 0.120546 0.337746
O O3 0.241870 0.166256 0.182126
O O4 0.000000 0.180785 0.271038
O O5 0.172907 0.500000 0.163974
O O6 0.286496 0.428375 0.280018
O O7 0.204268 0.370629 0.145781
O O8 0.000000 0.422256 0.243237
O O9 0.500000 0.422261 0.395498
O O10 0.723925 0.500000 0.409035
O O11 0.754961 0.361538 0.407508
O O12 0.500000 0.355639 0.867413
O O13 0.673292 0.260711 0.904787
O O14 0.666068 0.361269 0.000000
O O15 0.785042 0.740771 0.500000
O O16 0.000000 0.706417 0.598254
O O17 0.286675 0.909389 0.500000
O O18 0.500000 0.909794 0.609437
O O19 0.301097 0.000000 0.612507
O O20 0.500000 0.838804 0.102650
O O21 0.725251 0.838264 0.000000
#
# Coordination Sequence:
#
# PCOD9384444 Si02
#       7
#     8   8   8   8   8   8   8
#     4  11  22  35  56  87 120 151 185 229 280 331
#     4  10  20  32  46  65  90 122 162 208 262 328
#     4  10  21  36  53  72  95 128 175 229 279 326
#     4   9  18  32  49  69  93 123 163 213 269 326
#     4  10  22  38  54  77 111 147 182 222 273 335
#     4   9  19  37  61  89 121 158 198 233 267 318
#     4   9  19  36  56  78 106 142 184 228 274 326
#
# _framework density 19.160720999999999
#
# number of rings (size 3 to 8) (size 9 to 14) (size 15 to 20)
#    0.000    2.286    0.000    3.857    0.000    8.286 
#    0.000    5.000    0.000    0.429    0.000    3.000 
#    0.000    0.000    0.000    0.000    0.000    0.000 
#
# Total GULP energy -311994.338769 kJ/mol
# GULP energy per Si atom -5571.327478 kJ/mol
# Density = 1.911711 g / cm^3
# Si number density = 19.160721 Si / 1000 Ang^3
#
#
#
# Elastic Constant Matrix: (Units=GPa)
#
#
# Indices 1 2 3 4 5 6 
#
# 1 41.6447 23.8938 45.0774 0.0000 0.0000 0.0000
# 2 23.8938 53.3670 42.1629 0.0000 0.0000 0.0000
# 3 45.0774 42.1629 123.7653 0.0000 0.0000 0.0000
# 4 0.0000 0.0000 0.0000 17.2883 0.0000 0.0000
# 5 0.0000 0.0000 0.0000 0.0000 22.7979 0.0000
# 6 0.0000 0.0000 0.0000 0.0000 0.0000 26.6071
#
#
#
# Elastic Compliance Matrix: (Units=1/GPa)
#
#
# Indices 1 2 3 4 5 6 
#
# 1 0.042812 -0.009371 -0.012400 0.000000 0.000000 0.000000
# 2 -0.009371 0.027690 -0.006020 0.000000 0.000000 0.000000
# 3 -0.012400 -0.006020 0.014647 0.000000 0.000000 0.000000
# 4 0.000000 0.000000 0.000000 0.057843 0.000000 0.000000
# 5 0.000000 0.000000 0.000000 0.000000 0.043864 0.000000
# 6 0.000000 0.000000 0.000000 0.000000 0.000000 0.037584
#
#
# Mechanical properties :
#
#
# Convention : Reuss Voigt Hill
#
# Bulk Modulus (GPa) = 33.82258 49.00503 41.41380
# Shear Modulus (GPa) = 17.24869 20.51486 18.88177
#
# Velocity S-wave (km/s) = 3.00361 3.27566 3.14258
# Velocity P-wave (km/s) = 5.45153 6.31965 5.90157
#
# Compressibility (1/GPa) = 0.02956605
#
# Stress axis : x y z
#
# Youngs Moduli (GPa) = 23.35805 36.11421 68.27306
#
# Poissons Ratio (x) = 0.33843 0.84661
# Poissons Ratio (y) = 0.21889 0.41100
# Poissons Ratio (z) = 0.28965 0.21741
#
# Static dielectric constant tensor:
#      x y z
#    x 1.675360 0.000000 0.000000 
#    y 0.000000 1.666700 0.000000 
#    z 0.000000 0.000000 1.708050 
# 
# From -- ./inp_files/7372.got.cif
#   From: 2010.05.17/outbox.cif.g08.bks.cpg/sg47_4_cif.got.tgz:7372.got - 2010.06.03 20:15:42.
