data_PCOD9384591
_publ_section_title
;
Structure prediction by ZEFSAII (Michael W. Deem and Ramdas Pophale) SiO2 
 PCOD9384591
Probable space group: P M M M
;
_chemical_formula_sum "Si O2"
_cell_formula_units_Z 40
_cell_length_a 7.643395
_cell_length_b 26.659086
_cell_length_c 9.726259
_cell_angle_alpha 90.000000
_cell_angle_beta 90.000000
_cell_angle_gamma 90.000000
_cell_volume 1981.880158
_symmetry_space_group_name_H-M "P M M M"
_symmetry_group_IT_number 47
_symmetry_cell_setting 'orthorhombic'
loop_
_space_group_symop_operation_xyz
x,y,z
-x,-y,z
x,-y,-z
-x,y,-z
-x,-y,-z
x,y,-z
-x,y,z
x,-y,z
loop_
_atom_site_type_symbol
_atom_site_label
_atom_site_fract_x
_atom_site_fract_y
_atom_site_fract_z
Si Si1 0.207639 0.798890 0.154735
Si Si2 0.790168 0.408057 0.343886
Si Si3 0.707935 0.294184 0.655799
Si Si4 0.797578 0.000000 0.332844
Si Si5 0.785327 0.500000 0.157719
Si Si6 0.785018 0.890310 0.659191
O O1 0.230146 0.747684 0.238897
O O2 0.276750 0.845459 0.244196
O O3 0.000000 0.807365 0.143874
O O4 0.279302 0.796051 0.000000
O O5 0.722742 0.415134 0.500000
O O6 0.751271 0.351042 0.301824
O O7 0.726971 0.450603 0.240252
O O8 0.000000 0.413036 0.349976
O O9 0.778874 0.286514 0.500000
O O10 0.500000 0.290012 0.648599
O O11 0.723393 0.054295 0.294211
O O12 0.798133 0.000000 0.500000
O O13 0.000000 0.000000 0.286908
O O14 0.000000 0.500000 0.157097
O O15 0.728535 0.500000 0.000000
O O16 0.734144 0.881991 0.500000
O O17 0.000000 0.891459 0.659673
#
# Coordination Sequence:
#
# PCOD9384591 Si02
#       6
#     8   8   8   4   4   8
#     4  10  20  32  47  70  99 130 164 200 240 289
#     4   9  17  31  52  75  98 125 157 194 237 283
#     4  10  21  36  53  73  96 125 164 207 249 291
#     4   7  10  18  35  61  90 119 152 191 236 282
#     4   9  17  29  48  75 102 126 156 193 230 273
#     4   8  13  23  41  64  91 123 158 196 237 282
#
# _framework density 20.182855
#
# number of rings (size 3 to 8) (size 9 to 14) (size 15 to 20)
#    0.000    3.000    0.000    2.700    0.000    4.400 
#    0.000    3.000    0.000    6.000    0.000    0.700 
#    0.000    5.600    0.000    0.000    0.000    0.000 
#
# Total GULP energy -223074.424269 kJ/mol
# GULP energy per Si atom -5576.860607 kJ/mol
# Density = 2.013692 g / cm^3
# Si number density = 20.182855 Si / 1000 Ang^3
#
#
#
# Elastic Constant Matrix: (Units=GPa)
#
#
# Indices 1 2 3 4 5 6 
#
# 1 37.6958 -1.5390 6.1255 0.0000 0.0000 0.0000
# 2 -1.5390 211.9912 141.7263 0.0000 0.0000 0.0000
# 3 6.1255 141.7263 139.1551 0.0000 0.0000 0.0000
# 4 0.0000 0.0000 0.0000 4.3790 0.0000 0.0000
# 5 0.0000 0.0000 0.0000 0.0000 2.7893 0.0000
# 6 0.0000 0.0000 0.0000 0.0000 0.0000 -51.5832
#
#
#
# Elastic Compliance Matrix: (Units=1/GPa)
#
#
# Indices 1 2 3 4 5 6 
#
# 1 0.027373 0.003147 -0.004410 0.000000 0.000000 0.000000
# 2 0.003147 0.015145 -0.015563 0.000000 0.000000 0.000000
# 3 -0.004410 -0.015563 0.023231 0.000000 0.000000 0.000000
# 4 0.000000 0.000000 0.000000 0.228365 0.000000 0.000000
# 5 0.000000 0.000000 0.000000 0.000000 0.358513 0.000000
# 6 0.000000 0.000000 0.000000 0.000000 0.000000 -0.019386
#
#
# Mechanical properties :
#
#
# Convention : Reuss Voigt Hill
#
# Bulk Modulus (GPa) = 31.15587 75.71864 53.43726
# Shear Modulus (GPa) = 7.37907 7.28563 7.33235
#
# Velocity S-wave (km/s) = 1.91417 1.90201 1.90810
# Velocity P-wave (km/s) = 4.51173 6.51316 5.60254
#
# Compressibility (1/GPa) = 0.03209668
#
# Stress axis : x y z
#
# Youngs Moduli (GPa) = 36.53191 66.02988 43.04602
#
# Poissons Ratio (x) = -0.20781 0.18985
# Poissons Ratio (y) = -0.11498 0.66993
# Poissons Ratio (z) = 0.16112 1.02762
#
# Static dielectric constant tensor:
#      x y z
#    x 1.744210 0.000000 0.000000 
#    y 0.000000 1.709990 0.000000 
#    z 0.000000 0.000000 1.691600 
# 
# From -- ./inp_files/1787.got.cif
#   From: 2010.05.17/outbox.cif.g08.bks.cpg/sg47_1_cif.got.tgz:1787.got - 2010.06.03 20:15:42.
