data_PCOD9384237
_publ_section_title
;
Structure prediction by ZEFSAII (Michael W. Deem and Ramdas Pophale) SiO2 
 PCOD9384237
Probable space group: P M M M
;
_chemical_formula_sum "Si O2"
_cell_formula_units_Z 44
_cell_length_a 7.786797
_cell_length_b 9.204435
_cell_length_c 31.699137
_cell_angle_alpha 90.000000
_cell_angle_beta 90.000000
_cell_angle_gamma 90.000000
_cell_volume 2271.974365
_symmetry_space_group_name_H-M "P M M M"
_symmetry_group_IT_number 47
_symmetry_cell_setting 'orthorhombic'
loop_
_space_group_symop_operation_xyz
x,y,z
-x,-y,z
x,-y,-z
-x,y,-z
-x,-y,-z
x,y,-z
-x,y,z
x,-y,z
loop_
_atom_site_type_symbol
_atom_site_label
_atom_site_fract_x
_atom_site_fract_y
_atom_site_fract_z
Si Si1 0.291359 0.668575 0.811996
Si Si2 0.000000 0.671424 0.050421
Si Si3 0.295605 0.826410 0.102266
Si Si4 0.293797 0.334908 0.719175
Si Si5 0.293996 0.168934 0.545355
Si Si6 0.796963 0.837169 0.635536
O O1 0.500000 0.668318 0.811555
O O2 0.237834 0.500000 0.817898
O O3 0.243113 0.767515 0.851382
O O4 0.233337 0.718443 0.765348
O O5 0.169262 0.747354 0.069734
O O6 0.000000 0.500000 0.061198
O O7 0.000000 0.685797 0.000000
O O8 0.500000 0.793545 0.095826
O O9 0.275632 0.000000 0.099985
O O10 0.500000 0.339958 0.721520
O O11 0.230398 0.500000 0.714282
O O12 0.251305 0.244566 0.677972
O O13 0.234057 0.230494 0.500000
O O14 0.500000 0.166203 0.543985
O O15 0.248220 0.235223 0.590557
O O16 0.233293 0.000000 0.546608
O O17 0.000000 0.849792 0.635570
O O18 0.719151 0.000000 0.636186
#
# Coordination Sequence:
#
# PCOD9384237 Si02
#       6
#     8   4   8   8   8   8
#     4   8  15  31  55  80 106 139 182 227 270 325
#     4  11  25  43  63  89 121 161 209 251 288 341
#     4  10  21  38  62  92 124 157 194 243 304 358
#     4   9  18  33  53  75  99 133 176 217 259 309
#     4   8  14  26  45  67  89 117 158 207 257 309
#     4  10  20  31  44  68 101 133 165 203 253 313
#
# _framework density 19.366416999999998
#
# number of rings (size 3 to 8) (size 9 to 14) (size 15 to 20)
#    0.000    2.818    0.000    3.000    0.000    4.727 
#    1.636    5.455    0.000    0.545    0.000    3.818 
#    0.000    0.000    0.000    0.000    0.000    0.000 
#
# Total GULP energy -245099.632421 kJ/mol
# GULP energy per Si atom -5570.446191 kJ/mol
# Density = 1.932234 g / cm^3
# Si number density = 19.366417 Si / 1000 Ang^3
#
#
#
# Elastic Constant Matrix: (Units=GPa)
#
#
# Indices 1 2 3 4 5 6 
#
# 1 56.5762 32.2922 49.9035 0.0000 0.0000 0.0000
# 2 32.2922 66.7642 76.8250 0.0000 0.0000 0.0000
# 3 49.9035 76.8250 183.9996 0.0000 0.0000 0.0000
# 4 0.0000 0.0000 0.0000 20.9955 0.0000 0.0000
# 5 0.0000 0.0000 0.0000 0.0000 86.6176 0.0000
# 6 0.0000 0.0000 0.0000 0.0000 0.0000 16.0997
#
#
#
# Elastic Compliance Matrix: (Units=1/GPa)
#
#
# Indices 1 2 3 4 5 6 
#
# 1 0.025472 -0.008413 -0.003396 0.000000 0.000000 0.000000
# 2 -0.008413 0.031607 -0.010915 0.000000 0.000000 0.000000
# 3 -0.003396 -0.010915 0.010913 0.000000 0.000000 0.000000
# 4 0.000000 0.000000 0.000000 0.047629 0.000000 0.000000
# 5 0.000000 0.000000 0.000000 0.000000 0.011545 0.000000
# 6 0.000000 0.000000 0.000000 0.000000 0.000000 0.062113
#
#
# Mechanical properties :
#
#
# Convention : Reuss Voigt Hill
#
# Bulk Modulus (GPa) = 44.35557 69.48685 56.92121
# Shear Modulus (GPa) = 20.64043 34.63051 27.63547
#
# Velocity S-wave (km/s) = 3.26818 4.23327 3.78164
# Velocity P-wave (km/s) = 6.09872 7.73641 6.96586
#
# Compressibility (1/GPa) = 0.02254508
#
# Stress axis : x y z
#
# Youngs Moduli (GPa) = 39.25803 31.63840 91.63162
#
# Poissons Ratio (x) = 0.26616 0.31118
# Poissons Ratio (y) = 0.33027 1.00018
# Poissons Ratio (z) = 0.13332 0.34534
#
# Static dielectric constant tensor:
#      x y z
#    x 1.692540 0.000000 0.000000 
#    y 0.000000 1.697340 0.000000 
#    z 0.000000 0.000000 1.717360 
# 
# From -- ./inp_files/33933.got.cif
#   From: 2010.05.17/outbox.cif.g08.bks.cpg/sg47_17_cif.got.tgz:33933.got - 2010.06.03 20:15:42.
