data_PCOD9384163
_publ_section_title
;
Structure prediction by ZEFSAII (Michael W. Deem and Ramdas Pophale) SiO2 
 PCOD9384163
Probable space group: P M M M
;
_chemical_formula_sum "Si O2"
_cell_formula_units_Z 64
_cell_length_a 32.536792
_cell_length_b 8.617810
_cell_length_c 14.859043
_cell_angle_alpha 90.000000
_cell_angle_beta 90.000000
_cell_angle_gamma 90.000000
_cell_volume 4166.414608
_symmetry_space_group_name_H-M "P M M M"
_symmetry_group_IT_number 47
_symmetry_cell_setting 'orthorhombic'
loop_
_space_group_symop_operation_xyz
x,y,z
-x,-y,z
x,-y,-z
-x,y,-z
-x,-y,-z
x,y,-z
-x,y,z
x,-y,z
loop_
_atom_site_type_symbol
_atom_site_label
_atom_site_fract_x
_atom_site_fract_y
_atom_site_fract_z
Si Si1 0.876052 0.812540 0.103800
Si Si2 0.279625 0.684685 0.104080
Si Si3 0.174080 0.686922 0.399098
Si Si4 0.954301 0.687850 0.790948
Si Si5 0.796059 0.814620 0.784306
Si Si6 0.077790 0.688546 0.599388
Si Si7 0.633294 0.181167 0.890672
Si Si8 0.455678 0.188785 0.893706
O O1 0.917741 0.751673 0.148300
O O2 0.836557 0.759146 0.161075
O O3 0.876581 0.000000 0.105852
O O4 0.872460 0.763079 0.000000
O O5 0.275902 0.500000 0.104146
O O6 0.244429 0.755446 0.165881
O O7 0.325422 0.730719 0.135428
O O8 0.274793 0.739819 0.000000
O O9 0.186994 0.733601 0.500000
O O10 0.175822 0.500000 0.394202
O O11 0.199499 0.756935 0.317627
O O12 0.125850 0.730702 0.389066
O O13 0.952378 0.500000 0.792440
O O14 0.946635 0.739087 0.687479
O O15 0.000000 0.735004 0.820238
O O16 0.796151 0.000000 0.785695
O O17 0.064024 0.741912 0.500000
O O18 0.075962 0.500000 0.597864
O O19 0.588729 0.241412 0.857524
O O20 0.637467 0.000000 0.866182
O O21 0.631343 0.187856 0.000000
O O22 0.500000 0.239943 0.855306
O O23 0.454763 0.000000 0.889230
O O24 0.456454 0.228129 0.000000
#
# Coordination Sequence:
#
# PCOD9384163 Si02
#       8
#     8   8   8   8   8   8   8   8
#     4  10  22  38  52  66  86 115 147 178 215 256
#     4  10  20  31  43  61  86 117 151 187 229 273
#     4   9  17  31  52  74  95 118 141 167 204 254
#     4  10  20  33  51  74  95 114 141 176 208 244
#     4  11  21  33  51  71  90 112 143 184 221 259
#     4   8  14  27  48  72  96 118 137 161 197 242
#     4   8  13  22  36  53  76 107 143 185 228 266
#     4   7   9  14  27  48  71  97 135 182 226 264
#
# _framework density 15.360929
#
# number of rings (size 3 to 8) (size 9 to 14) (size 15 to 20)
#    0.000    2.875    1.250    3.000    0.000    3.000 
#    0.000    2.500    0.000    0.750    0.000    3.500 
#    0.000    0.000    0.000    0.000    0.000    0.625 
#
# Total GULP energy -356388.900107 kJ/mol
# GULP energy per Si atom -5568.576564 kJ/mol
# Density = 1.532597 g / cm^3
# Si number density = 15.360929 Si / 1000 Ang^3
#
#
#
# Elastic Constant Matrix: (Units=GPa)
#
#
# Indices 1 2 3 4 5 6 
#
# 1 133.7659 24.7780 56.7894 0.0000 0.0000 0.0000
# 2 24.7780 13.0624 18.4637 0.0000 0.0000 0.0000
# 3 56.7894 18.4637 78.6982 0.0000 0.0000 0.0000
# 4 0.0000 0.0000 0.0000 14.3085 0.0000 0.0000
# 5 0.0000 0.0000 0.0000 0.0000 2.6688 0.0000
# 6 0.0000 0.0000 0.0000 0.0000 0.0000 10.7767
#
#
#
# Elastic Compliance Matrix: (Units=1/GPa)
#
#
# Indices 1 2 3 4 5 6 
#
# 1 0.012860 -0.016873 -0.005322 0.000000 0.000000 0.000000
# 2 -0.016873 0.136678 -0.019891 0.000000 0.000000 0.000000
# 3 -0.005322 -0.019891 0.021214 0.000000 0.000000 0.000000
# 4 0.000000 0.000000 0.000000 0.069888 0.000000 0.000000
# 5 0.000000 0.000000 0.000000 0.000000 0.374698 0.000000
# 6 0.000000 0.000000 0.000000 0.000000 0.000000 0.092793
#
#
# Mechanical properties :
#
#
# Convention : Reuss Voigt Hill
#
# Bulk Modulus (GPa) = 11.54988 47.28764 29.41876
# Shear Modulus (GPa) = 6.08893 13.91715 10.00304
#
# Velocity S-wave (km/s) = 1.99312 3.01327 2.55463
# Velocity P-wave (km/s) = 3.58218 6.55420 5.28155
#
# Compressibility (1/GPa) = 0.08658096
#
# Stress axis : x y z
#
# Youngs Moduli (GPa) = 77.75794 7.31648 47.13960
#
# Poissons Ratio (x) = 0.12345 0.25086
# Poissons Ratio (y) = 1.31200 0.93765
# Poissons Ratio (z) = 0.41380 0.14553
#
# Static dielectric constant tensor:
#      x y z
#    x 1.532780 0.000000 0.000000 
#    y 0.000000 1.524990 0.000000 
#    z 0.000000 0.000000 1.499640 
# 
# From -- ./inp_files/25901.got.cif
#   From: 2010.05.17/outbox.cif.g08.bks.cpg/sg47_13_cif.got.tgz:25901.got - 2010.06.03 20:15:42.
