data_PCOD9384459
_publ_section_title
;
Structure prediction by ZEFSAII (Michael W. Deem and Ramdas Pophale) SiO2 
 PCOD9384459
Probable space group: P M M M
;
_chemical_formula_sum "Si O2"
_cell_formula_units_Z 36
_cell_length_a 9.538396
_cell_length_b 7.400799
_cell_length_c 24.156474
_cell_angle_alpha 90.000000
_cell_angle_beta 90.000000
_cell_angle_gamma 90.000000
_cell_volume 1705.247812
_symmetry_space_group_name_H-M "P M M M"
_symmetry_group_IT_number 47
_symmetry_cell_setting 'orthorhombic'
loop_
_space_group_symop_operation_xyz
x,y,z
-x,-y,z
x,-y,-z
-x,y,-z
-x,-y,-z
x,y,-z
-x,y,z
x,-y,z
loop_
_atom_site_type_symbol
_atom_site_label
_atom_site_fract_x
_atom_site_fract_y
_atom_site_fract_z
Si Si1 0.338622 0.220271 0.937562
Si Si2 0.341380 0.283913 0.725481
Si Si3 0.829522 0.709684 0.500000
Si Si4 0.158337 0.783768 0.834267
Si Si5 0.162601 0.278590 0.621010
O O1 0.500000 0.274166 0.927084
O O2 0.236782 0.284223 0.889213
O O3 0.337238 0.000000 0.937128
O O4 0.299904 0.275854 0.000000
O O5 0.500000 0.214170 0.730265
O O6 0.349980 0.500000 0.719396
O O7 0.251457 0.250121 0.780306
O O8 0.259275 0.217163 0.671263
O O9 0.785144 0.500000 0.500000
O O10 0.788958 0.784489 0.559991
O O11 0.000000 0.712621 0.500000
O O12 0.000000 0.714232 0.828140
O O13 0.149456 0.000000 0.840138
O O14 0.163417 0.500000 0.619753
O O15 0.000000 0.226283 0.629662
#
# Coordination Sequence:
#
# PCOD9384459 Si02
#       5
#     8   8   4   8   8
#     4   8  14  26  45  68  93 120 148 180 222 270
#     4  10  20  32  46  66  93 125 158 189 226 273
#     4   7  10  18  35  59  84 111 144 181 222 266
#     4  10  20  32  48  71  95 120 153 191 229 269
#     4   8  13  23  40  61  86 116 149 185 224 266
#
# _framework density 21.111301999999998
#
# number of rings (size 3 to 8) (size 9 to 14) (size 15 to 20)
#    0.000    3.222    0.000    3.333    0.000    3.111 
#    0.000    2.778    0.000    4.000    0.000    5.444 
#    0.000    6.222    0.000    0.000    0.000    0.000 
#
# Total GULP energy -200853.645111 kJ/mol
# GULP energy per Si atom -5579.267920 kJ/mol
# Density = 2.106325 g / cm^3
# Si number density = 21.111302 Si / 1000 Ang^3
#
#
#
# Elastic Constant Matrix: (Units=GPa)
#
#
# Indices 1 2 3 4 5 6 
#
# 1 170.5590 6.5462 148.6418 0.0000 0.0000 0.0000
# 2 6.5462 71.4696 4.6108 0.0000 0.0000 0.0000
# 3 148.6418 4.6108 240.6789 0.0000 0.0000 0.0000
# 4 0.0000 0.0000 0.0000 14.5941 0.0000 0.0000
# 5 0.0000 0.0000 0.0000 0.0000 50.7106 0.0000
# 6 0.0000 0.0000 0.0000 0.0000 0.0000 4.3810
#
#
#
# Elastic Compliance Matrix: (Units=1/GPa)
#
#
# Indices 1 2 3 4 5 6 
#
# 1 0.012728 -0.000660 -0.007848 0.000000 0.000000 0.000000
# 2 -0.000660 0.014043 0.000138 0.000000 0.000000 0.000000
# 3 -0.007848 0.000138 0.008999 0.000000 0.000000 0.000000
# 4 0.000000 0.000000 0.000000 0.068521 0.000000 0.000000
# 5 0.000000 0.000000 0.000000 0.000000 0.019720 0.000000
# 6 0.000000 0.000000 0.000000 0.000000 0.000000 0.228258
#
#
# Mechanical properties :
#
#
# Convention : Reuss Voigt Hill
#
# Bulk Modulus (GPa) = 52.54314 89.14502 70.84408
# Shear Modulus (GPa) = 13.32085 35.46439 24.39262
#
# Velocity S-wave (km/s) = 2.51466 4.10308 3.40285
# Velocity P-wave (km/s) = 5.77703 8.04766 7.00496
#
# Compressibility (1/GPa) = 0.01903198
#
# Stress axis : x y z
#
# Youngs Moduli (GPa) = 78.56702 71.20759 111.12098
#
# Poissons Ratio (x) = 0.04696 0.87209
# Poissons Ratio (y) = 0.05182 -0.01536
# Poissons Ratio (z) = 0.61660 -0.00985
#
# Static dielectric constant tensor:
#      x y z
#    x 1.754240 0.000000 0.000000 
#    y 0.000000 1.869030 0.000000 
#    z 0.000000 0.000000 1.745110 
# 
# From -- ./inp_files/4194.got.cif
#   From: 2010.05.17/outbox.cif.g08.bks.cpg/sg47_3_cif.got.tgz:4194.got - 2010.06.03 20:15:42.
