data_PCOD9384339
_publ_section_title
;
Structure prediction by ZEFSAII (Michael W. Deem and Ramdas Pophale) SiO2 
 PCOD9384339
Probable space group: P M M M
;
_chemical_formula_sum "Si O2"
_cell_formula_units_Z 44
_cell_length_a 7.588362
_cell_length_b 15.526580
_cell_length_c 17.670678
_cell_angle_alpha 90.000000
_cell_angle_beta 90.000000
_cell_angle_gamma 90.000000
_cell_volume 2081.982425
_symmetry_space_group_name_H-M "P M M M"
_symmetry_group_IT_number 47
_symmetry_cell_setting 'orthorhombic'
loop_
_space_group_symop_operation_xyz
x,y,z
-x,-y,z
x,-y,-z
-x,y,-z
-x,-y,-z
x,y,-z
-x,y,z
x,-y,z
loop_
_atom_site_type_symbol
_atom_site_label
_atom_site_fract_x
_atom_site_fract_y
_atom_site_fract_z
Si Si1 0.287567 0.277844 0.140570
Si Si2 0.713246 0.091743 0.089171
Si Si3 0.715349 0.900482 0.586521
Si Si4 0.702951 0.750109 0.306405
Si Si5 0.212903 0.404657 0.412089
Si Si6 0.207138 0.402771 0.000000
O O1 0.500000 0.277118 0.140145
O O2 0.221650 0.182213 0.119462
O O3 0.224184 0.286600 0.227145
O O4 0.245887 0.347306 0.075736
O O5 0.500000 0.092396 0.097510
O O6 0.775927 0.000000 0.121806
O O7 0.750375 0.091042 0.000000
O O8 0.769417 0.877568 0.500000
O O9 0.500000 0.897633 0.586654
O O10 0.780025 0.833194 0.649823
O O11 0.765463 0.000000 0.600664
O O12 0.500000 0.774381 0.290184
O O13 0.708827 0.672208 0.364850
O O14 0.261608 0.397149 0.500000
O O15 0.265715 0.500000 0.385257
O O16 0.000000 0.399648 0.407761
O O17 0.285984 0.500000 0.000000
O O18 0.000000 0.412961 0.000000
#
# Coordination Sequence:
#
# PCOD9384339 Si02
#       6
#     8   8   8   8   8   4
#     4  10  20  35  55  80 109 137 168 211 263 314
#     4   8  13  24  47  76 102 130 164 200 240 292
#     4   8  14  26  45  72 110 151 182 208 244 293
#     4  10  20  31  50  82 112 137 169 213 262 308
#     4   9  19  36  55  73  97 134 176 214 258 313
#     4  11  25  43  60  75  94 130 179 223 266 319
#
# _framework density 21.133704999999999
#
# number of rings (size 3 to 8) (size 9 to 14) (size 15 to 20)
#    0.000    2.818    0.909    2.455    0.000    4.364 
#    0.000    8.182    0.000    1.636    0.000    5.091 
#    0.000    0.000    0.000    0.000    0.000    0.000 
#
# Total GULP energy -245191.298613 kJ/mol
# GULP energy per Si atom -5572.529514 kJ/mol
# Density = 2.108560 g / cm^3
# Si number density = 21.133705 Si / 1000 Ang^3
#
#
#
# Elastic Constant Matrix: (Units=GPa)
#
#
# Indices 1 2 3 4 5 6 
#
# 1 45.7077 7.0768 13.1247 0.0000 0.0000 0.0000
# 2 7.0768 158.4107 92.4815 0.0000 0.0000 0.0000
# 3 13.1247 92.4815 124.1515 0.0000 0.0000 0.0000
# 4 0.0000 0.0000 0.0000 -9.9336 0.0000 0.0000
# 5 0.0000 0.0000 0.0000 0.0000 -46.0854 0.0000
# 6 0.0000 0.0000 0.0000 0.0000 0.0000 40.1903
#
#
#
# Elastic Compliance Matrix: (Units=1/GPa)
#
#
# Indices 1 2 3 4 5 6 
#
# 1 0.022605 0.000682 -0.002897 0.000000 0.000000 0.000000
# 2 0.000682 0.011191 -0.008408 0.000000 0.000000 0.000000
# 3 -0.002897 -0.008408 0.014625 0.000000 0.000000 0.000000
# 4 0.000000 0.000000 0.000000 -0.100668 0.000000 0.000000
# 5 0.000000 0.000000 0.000000 0.000000 -0.021699 0.000000
# 6 0.000000 0.000000 0.000000 0.000000 0.000000 0.024882
#
#
# Mechanical properties :
#
#
# Convention : Reuss Voigt Hill
#
# Bulk Modulus (GPa) = 36.80273 61.51508 49.15890
# Shear Modulus (GPa) = -266.53696 11.20670 -127.66513
#
# Velocity S-wave (km/s) = -11.24247 2.30527 -7.78071
# Velocity P-wave (km/s) = 12.29114 6.02133 7.57680
#
# Compressibility (1/GPa) = 0.02717190
#
# Stress axis : x y z
#
# Youngs Moduli (GPa) = 44.23876 89.35603 68.37831
#
# Poissons Ratio (x) = -0.06092 0.19812
# Poissons Ratio (y) = -0.03016 0.57496
# Poissons Ratio (z) = 0.12818 0.75135
#
# Static dielectric constant tensor:
#      x y z
#    x 1.821840 0.000000 0.000000 
#    y 0.000000 1.413730 0.000000 
#    z 0.000000 0.000000 1.783820 
# 
# From -- ./inp_files/26359.got.cif
#   From: 2010.05.17/outbox.cif.g08.bks.cpg/sg47_14_cif.got.tgz:26359.got - 2010.06.03 20:15:42.
