data_PCOD9384495
_publ_section_title
;
Structure prediction by ZEFSAII (Michael W. Deem and Ramdas Pophale) SiO2 
 PCOD9384495
Probable space group: P M M M
;
_chemical_formula_sum "Si O2"
_cell_formula_units_Z 44
_cell_length_a 9.147130
_cell_length_b 19.350752
_cell_length_c 14.324645
_cell_angle_alpha 90.000000
_cell_angle_beta 90.000000
_cell_angle_gamma 90.000000
_cell_volume 2535.517231
_symmetry_space_group_name_H-M "P M M M"
_symmetry_group_IT_number 47
_symmetry_cell_setting 'orthorhombic'
loop_
_space_group_symop_operation_xyz
x,y,z
-x,-y,z
x,-y,-z
-x,y,-z
-x,-y,-z
x,y,-z
-x,y,z
x,-y,z
loop_
_atom_site_type_symbol
_atom_site_label
_atom_site_fract_x
_atom_site_fract_y
_atom_site_fract_z
Si Si1 0.174843 0.807329 0.606376
Si Si2 0.164905 0.416474 0.500000
Si Si3 0.326133 0.580804 0.692700
Si Si4 0.826557 0.296724 0.225636
Si Si5 0.325260 0.080925 0.728284
Si Si6 0.824717 0.165054 0.891913
O O1 0.213829 0.790157 0.500000
O O2 0.207563 0.746948 0.680313
O O3 0.256499 0.875021 0.643986
O O4 0.000000 0.818842 0.611035
O O5 0.154454 0.500000 0.500000
O O6 0.250200 0.399423 0.405612
O O7 0.000000 0.387239 0.500000
O O8 0.500000 0.587558 0.684245
O O9 0.292385 0.500000 0.711037
O O10 0.262530 0.632779 0.769274
O O11 0.792861 0.243222 0.142559
O O12 0.000000 0.311348 0.224874
O O13 0.500000 0.089082 0.728977
O O14 0.257784 0.113506 0.822515
O O15 0.290241 0.000000 0.721278
O O16 0.000000 0.155587 0.880028
O O17 0.787837 0.154993 0.000000
#
# Coordination Sequence:
#
# PCOD9384495 Si02
#       6
#     8   4   8   8   8   8
#     4   9  19  35  53  74 101 136 177 217 254 294
#     4   9  17  29  45  65  91 127 168 205 244 289
#     4  10  20  32  46  69 102 135 169 209 251 298
#     4   9  18  32  52  76 100 129 167 211 256 304
#     4  10  21  35  51  76 109 139 169 207 250 300
#     4   9  19  37  59  80 101 128 165 210 259 308
#
# _framework density 17.353460999999999
#
# number of rings (size 3 to 8) (size 9 to 14) (size 15 to 20)
#    0.000    2.636    0.000    2.455    1.273    8.000 
#    0.000    3.636    0.000    0.545    0.000    3.818 
#    0.000    0.000    0.000    0.000    0.000    0.000 
#
# Total GULP energy -245421.449524 kJ/mol
# GULP energy per Si atom -5577.760216 kJ/mol
# Density = 1.731396 g / cm^3
# Si number density = 17.353461 Si / 1000 Ang^3
#
#
#
# Elastic Constant Matrix: (Units=GPa)
#
#
# Indices 1 2 3 4 5 6 
#
# 1 32.5628 31.6115 3.4895 0.0000 0.0000 0.0000
# 2 31.6115 69.8538 -5.1837 0.0000 0.0000 0.0000
# 3 3.4895 -5.1837 43.9882 0.0000 0.0000 0.0000
# 4 0.0000 0.0000 0.0000 13.5865 0.0000 0.0000
# 5 0.0000 0.0000 0.0000 0.0000 15.5100 0.0000
# 6 0.0000 0.0000 0.0000 0.0000 0.0000 30.1485
#
#
#
# Elastic Compliance Matrix: (Units=1/GPa)
#
#
# Indices 1 2 3 4 5 6 
#
# 1 0.057220 -0.026462 -0.007658 0.000000 0.000000 0.000000
# 2 -0.026462 0.026680 0.005243 0.000000 0.000000 0.000000
# 3 -0.007658 0.005243 0.023959 0.000000 0.000000 0.000000
# 4 0.000000 0.000000 0.000000 0.073603 0.000000 0.000000
# 5 0.000000 0.000000 0.000000 0.000000 0.064475 0.000000
# 6 0.000000 0.000000 0.000000 0.000000 0.000000 0.033169
#
#
# Mechanical properties :
#
#
# Convention : Reuss Voigt Hill
#
# Bulk Modulus (GPa) = 19.95806 22.91551 21.43679
# Shear Modulus (GPa) = 14.14188 19.61483 16.87835
#
# Velocity S-wave (km/s) = 2.85780 3.36566 3.12207
# Velocity P-wave (km/s) = 4.73447 5.32329 5.03749
#
# Compressibility (1/GPa) = 0.05010506
#
# Stress axis : x y z
#
# Youngs Moduli (GPa) = 17.47646 37.48137 41.73851
#
# Poissons Ratio (x) = 0.99185 0.31961
# Poissons Ratio (y) = 0.46247 -0.21885
# Poissons Ratio (z) = 0.13383 -0.19652
#
# Static dielectric constant tensor:
#      x y z
#    x 1.579020 0.000000 0.000000 
#    y 0.000000 1.594780 0.000000 
#    z 0.000000 0.000000 1.579930 
# 
# From -- ./inp_files/8961.got.cif
#   From: 2010.05.17/outbox.cif.g08.bks.cpg/sg47_5_cif.got.tgz:8961.got - 2010.06.03 20:15:42.
