data_PCOD9384193
_publ_section_title
;
Structure prediction by ZEFSAII (Michael W. Deem and Ramdas Pophale) SiO2 
 PCOD9384193
Probable space group: P M M M
;
_chemical_formula_sum "Si O2"
_cell_formula_units_Z 56
_cell_length_a 20.687895
_cell_length_b 17.664735
_cell_length_c 9.407805
_cell_angle_alpha 90.000000
_cell_angle_beta 90.000000
_cell_angle_gamma 90.000000
_cell_volume 3438.046427
_symmetry_space_group_name_H-M "P M M M"
_symmetry_group_IT_number 47
_symmetry_cell_setting 'orthorhombic'
loop_
_space_group_symop_operation_xyz
x,y,z
-x,-y,z
x,-y,-z
-x,y,-z
-x,-y,-z
x,y,-z
-x,y,z
x,-y,z
loop_
_atom_site_type_symbol
_atom_site_label
_atom_site_fract_x
_atom_site_fract_y
_atom_site_fract_z
Si Si1 0.236211 0.918675 0.839689
Si Si2 0.812172 0.304836 0.665713
Si Si3 0.694380 0.757474 0.835159
Si Si4 0.927762 0.588954 0.327350
Si Si5 0.876351 0.138960 0.337133
Si Si6 0.000000 0.909927 0.168407
Si Si7 0.578420 0.000000 0.662742
Si Si8 0.576228 0.845842 0.170219
O O1 0.278202 0.843572 0.827458
O O2 0.180509 0.912779 0.724128
O O3 0.270136 0.000000 0.826333
O O4 0.207788 0.916154 0.000000
O O5 0.798746 0.322057 0.500000
O O6 0.744450 0.293746 0.747579
O O7 0.865164 0.364610 0.722868
O O8 0.848829 0.224111 0.670965
O O9 0.620732 0.773930 0.788254
O O10 0.695157 0.733615 0.000000
O O11 0.927723 0.595661 0.500000
O O12 0.922155 0.500000 0.293370
O O13 0.000000 0.615012 0.280486
O O14 0.892001 0.121517 0.500000
O O15 0.937718 0.127141 0.239196
O O16 0.000000 0.000000 0.198022
O O17 0.000000 0.899577 0.000000
O O18 0.594557 0.077682 0.745142
O O19 0.500000 0.000000 0.656838
O O20 0.603125 0.000000 0.500000
O O21 0.500000 0.832141 0.193032
O O22 0.585868 0.858509 0.000000
#
# Coordination Sequence:
#
# PCOD9384193 Si02
#       8
#     8   8   8   8   8   4   4   8
#     4   9  17  29  43  56  75 106 143 181 220 265
#     4   9  18  31  48  69  95 119 144 180 218 263
#     4   9  18  30  45  63  87 118 152 187 228 274
#     4   8  14  26  48  76 100 123 150 178 211 257
#     4  10  20  31  44  62  82 105 136 178 225 263
#     4  11  23  35  45  57  76 105 144 186 225 265
#     4   9  17  27  39  59  87 117 148 191 248 295
#     4   9  17  29  45  63  84 115 157 199 235 277
#
# _framework density 16.288319999999999
#
# number of rings (size 3 to 8) (size 9 to 14) (size 15 to 20)
#    0.000    2.857    0.000    1.714    2.000    4.571 
#    0.000    0.000    0.000    0.429    0.000    1.000 
#    0.000    0.571    0.000    7.143    0.000    0.000 
#
# Total GULP energy -311774.640482 kJ/mol
# GULP energy per Si atom -5567.404294 kJ/mol
# Density = 1.625125 g / cm^3
# Si number density = 16.288320 Si / 1000 Ang^3
#
#
#
# Elastic Constant Matrix: (Units=GPa)
#
#
# Indices 1 2 3 4 5 6 
#
# 1 102.0453 31.1062 40.9504 0.0000 0.0000 0.0000
# 2 31.1062 39.8892 16.1784 0.0000 0.0000 0.0000
# 3 40.9504 16.1784 45.8129 0.0000 0.0000 0.0000
# 4 0.0000 0.0000 0.0000 10.3350 0.0000 0.0000
# 5 0.0000 0.0000 0.0000 0.0000 22.1208 0.0000
# 6 0.0000 0.0000 0.0000 0.0000 0.0000 28.8539
#
#
#
# Elastic Compliance Matrix: (Units=1/GPa)
#
#
# Indices 1 2 3 4 5 6 
#
# 1 0.017441 -0.008495 -0.012590 0.000000 0.000000 0.000000
# 2 -0.008495 0.033398 -0.004201 0.000000 0.000000 0.000000
# 3 -0.012590 -0.004201 0.034566 0.000000 0.000000 0.000000
# 4 0.000000 0.000000 0.000000 0.096759 0.000000 0.000000
# 5 0.000000 0.000000 0.000000 0.000000 0.045206 0.000000
# 6 0.000000 0.000000 0.000000 0.000000 0.000000 0.034657
#
#
# Mechanical properties :
#
#
# Convention : Reuss Voigt Hill
#
# Bulk Modulus (GPa) = 28.70891 40.46860 34.58875
# Shear Modulus (GPa) = 15.42210 18.89609 17.15909
#
# Velocity S-wave (km/s) = 3.08038 3.40972 3.24923
# Velocity P-wave (km/s) = 5.50594 6.35615 5.94626
#
# Compressibility (1/GPa) = 0.03483239
#
# Stress axis : x y z
#
# Youngs Moduli (GPa) = 57.33463 29.94226 28.93052
#
# Poissons Ratio (x) = 0.25435 0.36425
# Poissons Ratio (y) = 0.48704 0.12154
# Poissons Ratio (z) = 0.72187 0.12579
#
# Static dielectric constant tensor:
#      x y z
#    x 1.646970 0.000000 0.000000 
#    y 0.000000 1.533990 0.000000 
#    z 0.000000 0.000000 1.556560 
# 
# From -- ./inp_files/11759.got.cif
#   From: 2010.05.17/outbox.cif.g08.bks.cpg/sg47_6_cif.got.tgz:11759.got - 2010.06.03 20:15:42.
