data_PCOD9384490
_publ_section_title
;
Structure prediction by ZEFSAII (Michael W. Deem and Ramdas Pophale) SiO2 
 PCOD9384490
Probable space group: P M M M
;
_chemical_formula_sum "Si O2"
_cell_formula_units_Z 64
_cell_length_a 14.562583
_cell_length_b 8.903016
_cell_length_c 29.663209
_cell_angle_alpha 90.000000
_cell_angle_beta 90.000000
_cell_angle_gamma 90.000000
_cell_volume 3845.862024
_symmetry_space_group_name_H-M "P M M M"
_symmetry_group_IT_number 47
_symmetry_cell_setting 'orthorhombic'
loop_
_space_group_symop_operation_xyz
x,y,z
-x,-y,z
x,-y,-z
-x,y,-z
-x,-y,-z
x,y,-z
-x,y,z
x,-y,z
loop_
_atom_site_type_symbol
_atom_site_label
_atom_site_fract_x
_atom_site_fract_y
_atom_site_fract_z
Si Si1 0.286770 0.317599 0.950534
Si Si2 0.890238 0.176117 0.193696
Si Si3 0.888745 0.675170 0.450174
Si Si4 0.779204 0.321402 0.724730
Si Si5 0.108312 0.178966 0.356685
Si Si6 0.104496 0.319679 0.903164
Si Si7 0.392860 0.179105 0.765679
Si Si8 0.609836 0.324801 0.861121
O O1 0.295363 0.500000 0.951265
O O2 0.180727 0.281744 0.940024
O O3 0.344108 0.267388 0.907019
O O4 0.314973 0.262460 0.000000
O O5 0.836549 0.264571 0.232011
O O6 0.871469 0.242008 0.144177
O O7 0.000000 0.190334 0.201161
O O8 0.866448 0.000000 0.195753
O O9 0.856987 0.725550 0.500000
O O10 0.863257 0.500000 0.444359
O O11 0.861616 0.770260 0.406717
O O12 0.000000 0.680368 0.451220
O O13 0.776942 0.500000 0.723646
O O14 0.830498 0.257904 0.680943
O O15 0.677159 0.256097 0.731434
O O16 0.000000 0.220046 0.350961
O O17 0.114926 0.000000 0.352029
O O18 0.107487 0.500000 0.896503
O O19 0.000000 0.278687 0.915336
O O20 0.500000 0.220323 0.758580
O O21 0.367056 0.233582 0.816163
O O22 0.384705 0.000000 0.763011
O O23 0.500000 0.320593 0.866574
O O24 0.637149 0.500000 0.854337
#
# Coordination Sequence:
#
# PCOD9384490 Si02
#       8
#     8   8   8   8   8   8   8   8
#     4   9  17  28  43  65  90 114 143 181 224 267
#     4  10  20  33  49  69  94 124 158 195 234 279
#     4   8  14  26  44  65  92 130 175 218 256 293
#     4  12  23  33  49  71  98 130 161 197 241 289
#     4  10  20  32  46  68 101 138 175 213 250 290
#     4   9  17  29  45  64  85 112 149 189 226 266
#     4  10  21  37  56  75  95 121 154 193 237 286
#     4   9  17  30  49  71  92 114 143 180 222 271
#
# _framework density 16.641262000000001
#
# number of rings (size 3 to 8) (size 9 to 14) (size 15 to 20)
#    0.000    2.375    0.000    3.750    0.000    5.500 
#    0.000    3.750    0.000    1.500    0.000    3.500 
#    0.000    0.500    0.000    5.250    0.000    2.500 
#
# Total GULP energy -357032.758741 kJ/mol
# GULP energy per Si atom -5578.636855 kJ/mol
# Density = 1.660339 g / cm^3
# Si number density = 16.641262 Si / 1000 Ang^3
#
#
#
# Elastic Constant Matrix: (Units=GPa)
#
#
# Indices 1 2 3 4 5 6 
#
# 1 54.3225 34.5000 52.4929 0.0000 0.0000 0.0000
# 2 34.5000 58.9981 44.0958 0.0000 0.0000 0.0000
# 3 52.4929 44.0958 97.5283 0.0000 0.0000 0.0000
# 4 0.0000 0.0000 0.0000 -240.6118 0.0000 0.0000
# 5 0.0000 0.0000 0.0000 0.0000 17.7350 0.0000
# 6 0.0000 0.0000 0.0000 0.0000 0.0000 18.1111
#
#
#
# Elastic Compliance Matrix: (Units=1/GPa)
#
#
# Indices 1 2 3 4 5 6 
#
# 1 0.043287 -0.011931 -0.017904 0.000000 0.000000 0.000000
# 2 -0.011931 0.028890 -0.006640 0.000000 0.000000 0.000000
# 3 -0.017904 -0.006640 0.022892 0.000000 0.000000 0.000000
# 4 0.000000 0.000000 0.000000 -0.004156 0.000000 0.000000
# 5 0.000000 0.000000 0.000000 0.000000 0.056386 0.000000
# 6 0.000000 0.000000 0.000000 0.000000 0.000000 0.055215
#
#
# Mechanical properties :
#
#
# Convention : Reuss Voigt Hill
#
# Bulk Modulus (GPa) = 45.21184 52.55850 48.88517
# Shear Modulus (GPa) = 17.67808 -35.63578 -8.97885
#
# Velocity S-wave (km/s) = 3.26284 -4.63256 -2.32535
# Velocity P-wave (km/s) = 6.43602 1.74289 4.71487
#
# Compressibility (1/GPa) = 0.02211810
#
# Stress axis : x y z
#
# Youngs Moduli (GPa) = 23.10165 34.61462 43.68288
#
# Poissons Ratio (x) = 0.41299 0.78210
# Poissons Ratio (y) = 0.27563 0.29007
# Poissons Ratio (z) = 0.41361 0.22985
#
# Static dielectric constant tensor:
#      x y z
#    x 1.573770 0.000000 0.000000 
#    y 0.000000 1.559200 0.000000 
#    z 0.000000 0.000000 1.551660 
# 
# From -- ./inp_files/8294.got.cif
#   From: 2010.05.17/outbox.cif.g08.bks.cpg/sg47_5_cif.got.tgz:8294.got - 2010.06.03 20:15:42.
