data_PCOD9384572
_publ_section_title
;
Structure prediction by ZEFSAII (Michael W. Deem and Ramdas Pophale) SiO2 
 PCOD9384572
Probable space group: P M M M
;
_chemical_formula_sum "Si O2"
_cell_formula_units_Z 44
_cell_length_a 9.578326
_cell_length_b 7.625880
_cell_length_c 30.366970
_cell_angle_alpha 90.000000
_cell_angle_beta 90.000000
_cell_angle_gamma 90.000000
_cell_volume 2218.099590
_symmetry_space_group_name_H-M "P M M M"
_symmetry_group_IT_number 47
_symmetry_cell_setting 'orthorhombic'
loop_
_space_group_symop_operation_xyz
x,y,z
-x,-y,z
x,-y,-z
-x,y,-z
-x,-y,-z
x,y,-z
-x,y,z
x,-y,z
loop_
_atom_site_type_symbol
_atom_site_label
_atom_site_fract_x
_atom_site_fract_y
_atom_site_fract_z
Si Si1 0.339600 0.214840 0.632911
Si Si2 0.341637 0.291230 0.800663
Si Si3 0.664032 0.199824 0.900030
Si Si4 0.160609 0.213831 0.549667
Si Si5 0.841509 0.789427 0.716102
Si Si6 0.164523 0.500000 0.947465
O O1 0.500000 0.271140 0.635359
O O2 0.263723 0.271701 0.588038
O O3 0.250727 0.274318 0.675052
O O4 0.339447 0.000000 0.633044
O O5 0.500000 0.233740 0.788924
O O6 0.343883 0.500000 0.807054
O O7 0.304358 0.210629 0.847850
O O8 0.236246 0.249493 0.761643
O O9 0.500000 0.248904 0.904527
O O10 0.760418 0.332027 0.926382
O O11 0.680988 0.000000 0.914964
O O12 0.197865 0.269555 0.500000
O O13 0.000000 0.265955 0.558498
O O14 0.162035 0.000000 0.549745
O O15 0.000000 0.722075 0.715267
O O16 0.848508 0.000000 0.711864
O O17 0.000000 0.500000 0.937324
O O18 0.181864 0.500000 0.000000
#
# Coordination Sequence:
#
# PCOD9384572 Si02
#       6
#     8   8   8   8   8   4
#     4   9  16  25  38  57  84 120 163 212 263 317
#     4  10  20  36  58  82 110 143 181 229 284 340
#     4  10  21  40  67  95 123 160 207 256 305 359
#     4   8  13  21  33  50  76 113 155 200 256 322
#     4  10  20  32  47  70 101 137 176 217 266 328
#     4  11  25  43  63  91 131 173 209 253 306 359
#
# _framework density 19.836801999999999
#
# number of rings (size 3 to 8) (size 9 to 14) (size 15 to 20)
#    0.000    2.455    0.909    2.455    0.000    6.909 
#    0.000    3.636    0.000    0.000    0.000    0.000 
#    0.000    0.727    0.000    7.636    0.000   10.545 
#
# Total GULP energy -245763.522973 kJ/mol
# GULP energy per Si atom -5585.534613 kJ/mol
# Density = 1.979165 g / cm^3
# Si number density = 19.836802 Si / 1000 Ang^3
#
#
#
# Elastic Constant Matrix: (Units=GPa)
#
#
# Indices 1 2 3 4 5 6 
#
# 1 168.5297 46.8083 122.7938 0.0000 0.0000 0.0000
# 2 46.8083 63.5047 39.3939 0.0000 0.0000 0.0000
# 3 122.7938 39.3939 135.9897 0.0000 0.0000 0.0000
# 4 0.0000 0.0000 0.0000 13.2072 0.0000 0.0000
# 5 0.0000 0.0000 0.0000 0.0000 41.1826 0.0000
# 6 0.0000 0.0000 0.0000 0.0000 0.0000 10.5029
#
#
#
# Elastic Compliance Matrix: (Units=1/GPa)
#
#
# Indices 1 2 3 4 5 6 
#
# 1 0.018107 -0.003906 -0.015218 0.000000 0.000000 0.000000
# 2 -0.003906 0.020039 -0.002278 0.000000 0.000000 0.000000
# 3 -0.015218 -0.002278 0.021755 0.000000 0.000000 0.000000
# 4 0.000000 0.000000 0.000000 0.075716 0.000000 0.000000
# 5 0.000000 0.000000 0.000000 0.000000 0.024282 0.000000
# 6 0.000000 0.000000 0.000000 0.000000 0.000000 0.095212
#
#
# Mechanical properties :
#
#
# Convention : Reuss Voigt Hill
#
# Bulk Modulus (GPa) = 58.49241 87.33513 72.91377
# Shear Modulus (GPa) = 16.46826 23.58044 20.02435
#
# Velocity S-wave (km/s) = 2.88442 3.45152 3.18064
# Velocity P-wave (km/s) = 6.37527 7.74638 7.09403
#
# Compressibility (1/GPa) = 0.01709623
#
# Stress axis : x y z
#
# Youngs Moduli (GPa) = 55.22739 49.90274 45.96618
#
# Poissons Ratio (x) = 0.19491 0.69953
# Poissons Ratio (y) = 0.21571 0.10471
# Poissons Ratio (z) = 0.84048 0.11368
#
# Static dielectric constant tensor:
#      x y z
#    x 1.672670 0.000000 0.000000 
#    y 0.000000 1.811800 0.000000 
#    z 0.000000 0.000000 1.662940 
# 
# From -- ./inp_files/33944.got.cif
#   From: 2010.05.17/outbox.cif.g08.bks.cpg/sg47_17_cif.got.tgz:33944.got - 2010.06.03 20:15:42.
