data_PCOD9384084
_publ_section_title
;
Structure prediction by ZEFSAII (Michael W. Deem and Ramdas Pophale) SiO2 
 PCOD9384084
Probable space group: P M M M
;
_chemical_formula_sum "Si O2"
_cell_formula_units_Z 64
_cell_length_a 18.594729
_cell_length_b 7.737868
_cell_length_c 20.688218
_cell_angle_alpha 90.000000
_cell_angle_beta 90.000000
_cell_angle_gamma 90.000000
_cell_volume 2976.694425
_symmetry_space_group_name_H-M "P M M M"
_symmetry_group_IT_number 47
_symmetry_cell_setting 'orthorhombic'
loop_
_space_group_symop_operation_xyz
x,y,z
-x,-y,z
x,-y,-z
-x,y,-z
-x,-y,-z
x,y,-z
-x,y,z
x,-y,z
loop_
_atom_site_type_symbol
_atom_site_label
_atom_site_fract_x
_atom_site_fract_y
_atom_site_fract_z
Si Si1 0.238522 0.711578 0.430277
Si Si2 0.422904 0.200350 0.785643
Si Si3 0.614142 0.301700 0.073365
Si Si4 0.121683 0.291970 0.747351
Si Si5 0.278732 0.705155 0.710806
Si Si6 0.773403 0.803989 0.923433
Si Si7 0.078287 0.708669 0.398653
Si Si8 0.076347 0.199755 0.117545
O O1 0.268797 0.765755 0.500000
O O2 0.238919 0.500000 0.429389
O O3 0.276766 0.769560 0.363783
O O4 0.154530 0.767063 0.427230
O O5 0.500000 0.280057 0.765811
O O6 0.418425 0.214767 0.863552
O O7 0.351266 0.267886 0.750887
O O8 0.424409 0.000000 0.768809
O O9 0.590328 0.500000 0.072386
O O10 0.699587 0.294644 0.087429
O O11 0.602349 0.230573 0.000000
O O12 0.119117 0.500000 0.757256
O O13 0.205234 0.231866 0.745030
O O14 0.087275 0.258373 0.677747
O O15 0.080022 0.204787 0.805315
O O16 0.268188 0.500000 0.706296
O O17 0.847597 0.719383 0.901478
O O18 0.765809 0.000000 0.896195
O O19 0.779594 0.819501 0.000000
O O20 0.077415 0.500000 0.407865
O O21 0.000000 0.773507 0.420801
O O22 0.000000 0.274626 0.095545
O O23 0.078936 0.000000 0.094630
#
# Coordination Sequence:
#
# PCOD9384084 Si02
#       8
#     8   8   8   8   8   8   8   8
#     4   8  14  25  43  70 102 134 171 215 259 302
#     4  11  24  39  56  80 108 136 166 202 245 295
#     4  10  21  37  58  83 109 136 166 201 242 294
#     4   9  17  29  45  65  90 123 163 203 246 298
#     4   9  18  33  54  78 103 134 171 211 255 304
#     4   9  18  33  51  68  90 125 166 206 249 296
#     4   8  13  21  35  59  93 131 167 202 243 292
#     4  10  20  30  41  62  90 120 161 213 260 297
#
# _framework density 21.500359
#
# number of rings (size 3 to 8) (size 9 to 14) (size 15 to 20)
#    0.000    2.750    0.000    3.375    0.000    6.250 
#    0.000    3.750    0.000    0.750    0.000    5.250 
#    0.000    0.000    0.000   13.250    0.000   10.000 
#
# Total GULP energy -356786.370557 kJ/mol
# GULP energy per Si atom -5574.787040 kJ/mol
# Density = 2.145142 g / cm^3
# Si number density = 21.500359 Si / 1000 Ang^3
#
#
#
# Elastic Constant Matrix: (Units=GPa)
#
#
# Indices 1 2 3 4 5 6 
#
# 1 129.5890 0.5713 49.3987 0.0000 0.0000 0.0000
# 2 0.5713 31.6364 0.3219 0.0000 0.0000 0.0000
# 3 49.3987 0.3219 60.5337 0.0000 0.0000 0.0000
# 4 0.0000 0.0000 0.0000 44.5115 0.0000 0.0000
# 5 0.0000 0.0000 0.0000 0.0000 -10.5801 0.0000
# 6 0.0000 0.0000 0.0000 0.0000 0.0000 -6.8348
#
#
#
# Elastic Compliance Matrix: (Units=1/GPa)
#
#
# Indices 1 2 3 4 5 6 
#
# 1 0.011201 -0.000109 -0.009140 0.000000 0.000000 0.000000
# 2 -0.000109 0.031612 -0.000079 0.000000 0.000000 0.000000
# 3 -0.009140 -0.000079 0.023979 0.000000 0.000000 0.000000
# 4 0.000000 0.000000 0.000000 0.022466 0.000000 0.000000
# 5 0.000000 0.000000 0.000000 0.000000 -0.094517 0.000000
# 6 0.000000 0.000000 0.000000 0.000000 0.000000 -0.146311
#
#
# Mechanical properties :
#
#
# Convention : Reuss Voigt Hill
#
# Bulk Modulus (GPa) = 20.77475 35.81588 28.29531
# Shear Modulus (GPa) = -42.78377 16.85048 -12.96664
#
# Velocity S-wave (km/s) = -4.46568 2.80256 -2.45845
# Velocity P-wave (km/s) = 4.11172 5.21218 2.26502
#
# Compressibility (1/GPa) = 0.04813535
#
# Stress axis : x y z
#
# Youngs Moduli (GPa) = 89.27406 31.63364 41.70281
#
# Poissons Ratio (x) = 0.00346 0.38118
# Poissons Ratio (y) = 0.00975 0.00329
# Poissons Ratio (z) = 0.81600 0.00250
#
# Static dielectric constant tensor:
#      x y z
#    x 1.854950 0.000000 0.000000 
#    y 0.000000 1.811090 0.000000 
#    z 0.000000 0.000000 1.790380 
# 
# From -- ./inp_files/27124.got.cif
#   From: 2010.05.17/outbox.cif.g08.bks.cpg/sg47_14_cif.got.tgz:27124.got - 2010.06.03 20:15:42.
