data_PCOD9384352
_publ_section_title
;
Structure prediction by ZEFSAII (Michael W. Deem and Ramdas Pophale) SiO2 
 PCOD9384352
Probable space group: P M M M
;
_chemical_formula_sum "Si O2"
_cell_formula_units_Z 52
_cell_length_a 9.094834
_cell_length_b 29.416999
_cell_length_c 14.608701
_cell_angle_alpha 90.000000
_cell_angle_beta 90.000000
_cell_angle_gamma 90.000000
_cell_volume 3908.451640
_symmetry_space_group_name_H-M "P M M M"
_symmetry_group_IT_number 47
_symmetry_cell_setting 'orthorhombic'
loop_
_space_group_symop_operation_xyz
x,y,z
-x,-y,z
x,-y,-z
-x,y,-z
-x,-y,-z
x,y,-z
-x,y,z
x,-y,z
loop_
_atom_site_type_symbol
_atom_site_label
_atom_site_fract_x
_atom_site_fract_y
_atom_site_fract_z
Si Si1 0.173913 0.673175 0.109838
Si Si2 0.321573 0.552784 0.601407
Si Si3 0.174245 0.500000 0.890229
Si Si4 0.331337 0.233462 0.888719
Si Si5 0.169406 0.858206 0.111650
Si Si6 0.677524 0.412729 0.203566
Si Si7 0.327940 0.050298 0.111161
O O1 0.237207 0.722419 0.137119
O O2 0.260006 0.633175 0.160346
O O3 0.000000 0.670393 0.127766
O O4 0.194961 0.668210 0.000000
O O5 0.271535 0.567454 0.500000
O O6 0.500000 0.552787 0.599908
O O7 0.276996 0.500000 0.614841
O O8 0.278734 0.581626 0.689670
O O9 0.252463 0.455567 0.849179
O O10 0.000000 0.500000 0.868052
O O11 0.188161 0.500000 0.000000
O O12 0.500000 0.237736 0.858721
O O13 0.260571 0.185909 0.858258
O O14 0.331485 0.232389 0.000000
O O15 0.237893 0.906007 0.142968
O O16 0.000000 0.854109 0.138582
O O17 0.174007 0.858539 0.000000
O O18 0.500000 0.414327 0.196563
O O19 0.500000 0.055180 0.134795
O O20 0.276957 0.000000 0.141210
O O21 0.320693 0.050285 0.000000
#
# Coordination Sequence:
#
# PCOD9384352 Si02
#       7
#     8   8   4   8   8   8   8
#     4  10  20  32  43  56  78 105 127 151 188 228
#     4   8  14  27  47  68  86 101 120 149 184 219
#     4  11  23  35  44  57  82 112 133 151 182 221
#     4   9  16  26  39  52  65  85 117 153 183 215
#     4   9  15  21  30  44  61  81 106 139 181 226
#     4  11  20  31  48  67  81  99 128 157 183 216
#     4   8  13  20  28  38  54  77 105 138 177 220
#
# _framework density 13.304501999999999
#
# number of rings (size 3 to 8) (size 9 to 14) (size 15 to 20)
#    0.000    2.692    0.769    3.462    0.000    7.385 
#    0.000    1.538    0.000    2.308    0.000    0.000 
#    0.000    0.000    0.000    0.000    0.000    0.000 
#
# Total GULP energy -289558.189134 kJ/mol
# GULP energy per Si atom -5568.426714 kJ/mol
# Density = 1.327422 g / cm^3
# Si number density = 13.304502 Si / 1000 Ang^3
#
#
#
# Elastic Constant Matrix: (Units=GPa)
#
#
# Indices 1 2 3 4 5 6 
#
# 1 76.1097 56.4587 30.0296 0.0000 0.0000 0.0000
# 2 56.4587 118.6839 32.6936 0.0000 0.0000 0.0000
# 3 30.0296 32.6936 40.5507 0.0000 0.0000 0.0000
# 4 0.0000 0.0000 0.0000 0.3774 0.0000 0.0000
# 5 0.0000 0.0000 0.0000 0.0000 3.6914 0.0000
# 6 0.0000 0.0000 0.0000 0.0000 0.0000 17.2898
#
#
#
# Elastic Compliance Matrix: (Units=1/GPa)
#
#
# Indices 1 2 3 4 5 6 
#
# 1 0.023470 -0.008198 -0.010771 0.000000 0.000000 0.000000
# 2 -0.008198 0.013695 -0.004970 0.000000 0.000000 0.000000
# 3 -0.010771 -0.004970 0.036644 0.000000 0.000000 0.000000
# 4 0.000000 0.000000 0.000000 2.649932 0.000000 0.000000
# 5 0.000000 0.000000 0.000000 0.000000 0.270899 0.000000
# 6 0.000000 0.000000 0.000000 0.000000 0.000000 0.057837
#
#
# Mechanical properties :
#
#
# Convention : Reuss Voigt Hill
#
# Bulk Modulus (GPa) = 38.56487 52.63424 45.59956
# Shear Modulus (GPa) = 1.60823 12.01588 6.81206
#
# Velocity S-wave (km/s) = 1.10064 3.00850 2.26522
# Velocity P-wave (km/s) = 5.53755 7.19133 6.41793
#
# Compressibility (1/GPa) = 0.02593034
#
# Stress axis : x y z
#
# Youngs Moduli (GPa) = 42.60791 73.02137 27.28929
#
# Poissons Ratio (x) = 0.59860 0.29394
# Poissons Ratio (y) = 0.34928 0.13564
# Poissons Ratio (z) = 0.45894 0.36295
#
# Static dielectric constant tensor:
#      x y z
#    x 1.444950 0.000000 0.000000 
#    y 0.000000 1.436620 0.000000 
#    z 0.000000 0.000000 1.411730 
# 
# From -- ./inp_files/21972.got.cif
#   From: 2010.05.17/outbox.cif.g08.bks.cpg/sg47_11_cif.got.tgz:21972.got - 2010.06.03 20:15:42.
