data_PCOD9384494
_publ_section_title
;
Structure prediction by ZEFSAII (Michael W. Deem and Ramdas Pophale) SiO2 
 PCOD9384494
Probable space group: P M M M
;
_chemical_formula_sum "Si O2"
_cell_formula_units_Z 32
_cell_length_a 7.424915
_cell_length_b 9.367005
_cell_length_c 21.539624
_cell_angle_alpha 90.000000
_cell_angle_beta 90.000000
_cell_angle_gamma 90.000000
_cell_volume 1498.063961
_symmetry_space_group_name_H-M "P M M M"
_symmetry_group_IT_number 47
_symmetry_cell_setting 'orthorhombic'
loop_
_space_group_symop_operation_xyz
x,y,z
-x,-y,z
x,-y,-z
-x,y,-z
-x,-y,-z
x,y,-z
-x,y,z
x,-y,z
loop_
_atom_site_type_symbol
_atom_site_label
_atom_site_fract_x
_atom_site_fract_y
_atom_site_fract_z
Si Si1 0.209681 0.173665 0.500000
Si Si2 0.284942 0.838183 0.120368
Si Si3 0.784134 0.661453 0.244747
Si Si4 0.720524 0.664568 0.000000
Si Si5 0.220660 0.165760 0.364490
O O1 0.283785 0.216036 0.432753
O O2 0.000000 0.217078 0.500000
O O3 0.214340 0.000000 0.500000
O O4 0.500000 0.847765 0.112746
O O5 0.252684 0.755733 0.184308
O O6 0.214190 0.000000 0.121966
O O7 0.218712 0.747649 0.061570
O O8 0.715627 0.500000 0.237789
O O9 0.718312 0.738683 0.307187
O O10 0.000000 0.653663 0.250545
O O11 0.777704 0.500000 0.000000
O O12 0.500000 0.663801 0.000000
O O13 0.000000 0.167231 0.365919
O O14 0.272368 0.000000 0.355446
#
# Coordination Sequence:
#
# PCOD9384494 Si02
#       5
#     4   8   8   4   8
#     4   7  10  18  35  59  84 113 152 193 230 270
#     4  10  20  34  53  75  96 121 157 197 233 274
#     4  10  20  32  46  68  99 131 160 192 234 282
#     4   9  17  31  52  75  98 123 150 186 234 281
#     4   8  13  23  40  61  87 120 156 193 232 274
#
# _framework density 21.360904999999999
#
# number of rings (size 3 to 8) (size 9 to 14) (size 15 to 20)
#    0.000    3.000    0.000    3.375    0.000    4.500 
#    0.000    1.250    0.000    7.500    0.000    0.875 
#    0.000    7.000    0.000    0.000    0.000    0.000 
#
# Total GULP energy -178604.096444 kJ/mol
# GULP energy per Si atom -5581.378014 kJ/mol
# Density = 2.131229 g / cm^3
# Si number density = 21.360905 Si / 1000 Ang^3
#
#
#
# Elastic Constant Matrix: (Units=GPa)
#
#
# Indices 1 2 3 4 5 6 
#
# 1 68.2789 7.3322 3.6622 0.0000 0.0000 0.0000
# 2 7.3322 190.3953 140.9077 0.0000 0.0000 0.0000
# 3 3.6622 140.9077 255.7485 0.0000 0.0000 0.0000
# 4 0.0000 0.0000 0.0000 80.1601 0.0000 0.0000
# 5 0.0000 0.0000 0.0000 0.0000 21.3758 0.0000
# 6 0.0000 0.0000 0.0000 0.0000 0.0000 5.8907
#
#
#
# Elastic Compliance Matrix: (Units=1/GPa)
#
#
# Indices 1 2 3 4 5 6 
#
# 1 0.014711 -0.000693 0.000171 0.000000 0.000000 0.000000
# 2 -0.000693 0.008901 -0.004894 0.000000 0.000000 0.000000
# 3 0.000171 -0.004894 0.006604 0.000000 0.000000 0.000000
# 4 0.000000 0.000000 0.000000 0.012475 0.000000 0.000000
# 5 0.000000 0.000000 0.000000 0.000000 0.046782 0.000000
# 6 0.000000 0.000000 0.000000 0.000000 0.000000 0.169759
#
#
# Mechanical properties :
#
#
# Convention : Reuss Voigt Hill
#
# Bulk Modulus (GPa) = 51.58923 90.91408 71.25165
# Shear Modulus (GPa) = 18.08150 45.65336 31.86743
#
# Velocity S-wave (km/s) = 2.91258 4.62804 3.86665
# Velocity P-wave (km/s) = 5.95941 8.43871 7.30501
#
# Compressibility (1/GPa) = 0.01938389
#
# Stress axis : x y z
#
# Youngs Moduli (GPa) = 67.97595 112.34659 151.41983
#
# Poissons Ratio (x) = 0.07789 -0.02595
# Poissons Ratio (y) = 0.04713 0.74108
# Poissons Ratio (z) = -0.01165 0.54985
#
# Static dielectric constant tensor:
#      x y z
#    x 1.863850 0.000000 0.000000 
#    y 0.000000 1.748110 0.000000 
#    z 0.000000 0.000000 1.751730 
# 
# From -- ./inp_files/3593.got.cif
#   From: 2010.05.17/outbox.cif.g08.bks.cpg/sg47_2_cif.got.tgz:3593.got - 2010.06.03 20:15:42.
