data_PCOD9384777
_publ_section_title
;
Structure prediction by ZEFSAII (Michael W. Deem and Ramdas Pophale) SiO2 
 PCOD9384777
Probable space group: P M M M
;
_chemical_formula_sum "Si O2"
_cell_formula_units_Z 40
_cell_length_a 7.607124
_cell_length_b 9.494208
_cell_length_c 27.005325
_cell_angle_alpha 90.000000
_cell_angle_beta 90.000000
_cell_angle_gamma 90.000000
_cell_volume 1950.422264
_symmetry_space_group_name_H-M "P M M M"
_symmetry_group_IT_number 47
_symmetry_cell_setting 'orthorhombic'
loop_
_space_group_symop_operation_xyz
x,y,z
-x,-y,z
x,-y,-z
-x,y,-z
-x,-y,-z
x,y,-z
-x,y,z
x,-y,z
loop_
_atom_site_type_symbol
_atom_site_label
_atom_site_fract_x
_atom_site_fract_y
_atom_site_fract_z
Si Si1 0.291002 0.660771 0.661465
Si Si2 0.788548 0.335675 0.553241
Si Si3 0.711147 0.159506 0.753676
Si Si4 0.788426 0.340412 0.850900
Si Si5 0.785484 0.837658 0.055762
O O1 0.500000 0.649624 0.668677
O O2 0.219224 0.500000 0.663024
O O3 0.264905 0.723103 0.606421
O O4 0.220315 0.756856 0.705606
O O5 0.728566 0.275463 0.500000
O O6 0.730763 0.500000 0.553956
O O7 0.000000 0.334932 0.552581
O O8 0.500000 0.150911 0.748724
O O9 0.747523 0.247670 0.802981
O O10 0.779180 0.000000 0.757089
O O11 0.722182 0.500000 0.845885
O O12 0.723566 0.263623 0.900642
O O13 0.000000 0.347057 0.854683
O O14 0.000000 0.835841 0.056075
O O15 0.733187 0.000000 0.064859
O O16 0.730675 0.798052 0.000000
#
# Coordination Sequence:
#
# PCOD9384777 Si02
#       5
#     8   8   8   8   8
#     4   9  17  29  46  68  92 118 152 195 238 280
#     4   8  14  25  42  66  95 123 150 184 229 279
#     4  10  21  36  52  69  93 128 166 202 244 293
#     4  10  20  32  49  75 102 127 159 200 244 289
#     4   8  14  26  45  69  98 131 163 195 234 281
#
# _framework density 20.508378
#
# number of rings (size 3 to 8) (size 9 to 14) (size 15 to 20)
#    0.000    3.000    0.000    2.400    0.000    4.000 
#    0.000    6.000    0.000    1.200    0.000    8.400 
#    0.000    0.000    0.000    0.000    0.000    0.000 
#
# Total GULP energy -223021.732158 kJ/mol
# GULP energy per Si atom -5575.543304 kJ/mol
# Density = 2.046170 g / cm^3
# Si number density = 20.508378 Si / 1000 Ang^3
#
#
#
# Elastic Constant Matrix: (Units=GPa)
#
#
# Indices 1 2 3 4 5 6 
#
# 1 40.9341 6.6309 0.9485 0.0000 0.0000 0.0000
# 2 6.6309 131.5093 122.4298 0.0000 0.0000 0.0000
# 3 0.9485 122.4298 229.7763 0.0000 0.0000 0.0000
# 4 0.0000 0.0000 0.0000 -888.9977 0.0000 0.0000
# 5 0.0000 0.0000 0.0000 0.0000 28.5412 0.0000
# 6 0.0000 0.0000 0.0000 0.0000 0.0000 9.2414
#
#
#
# Elastic Compliance Matrix: (Units=1/GPa)
#
#
# Indices 1 2 3 4 5 6 
#
# 1 0.024775 -0.002290 0.001118 0.000000 0.000000 0.000000
# 2 -0.002290 0.015300 -0.008143 0.000000 0.000000 0.000000
# 3 0.001118 -0.008143 0.008686 0.000000 0.000000 0.000000
# 4 0.000000 0.000000 0.000000 -0.001125 0.000000 0.000000
# 5 0.000000 0.000000 0.000000 0.000000 0.035037 0.000000
# 6 0.000000 0.000000 0.000000 0.000000 0.000000 0.108209
#
#
# Mechanical properties :
#
#
# Convention : Reuss Voigt Hill
#
# Bulk Modulus (GPa) = 33.18823 73.58202 53.38512
# Shear Modulus (GPa) = 22.77334 -152.09565 -64.66115
#
# Velocity S-wave (km/s) = 3.33594 -8.62112 -5.62117
# Velocity P-wave (km/s) = 5.57278 7.94615 4.00534
#
# Compressibility (1/GPa) = 0.03013116
#
# Stress axis : x y z
#
# Youngs Moduli (GPa) = 40.36403 65.35926 115.12678
#
# Poissons Ratio (x) = 0.14966 -0.12869
# Poissons Ratio (y) = 0.09242 0.93745
# Poissons Ratio (z) = -0.04512 0.53220
#
# Static dielectric constant tensor:
#      x y z
#    x 1.779990 0.000000 0.000000 
#    y 0.000000 1.717370 0.000000 
#    z 0.000000 0.000000 1.737670 
# 
# From -- ./inp_files/1384.got.cif
#   From: 2010.05.17/outbox.cif.g08.bks.cpg/sg47_1_cif.got.tgz:1384.got - 2010.06.03 20:15:42.
