data_PCOD9384204
_publ_section_title
;
Structure prediction by ZEFSAII (Michael W. Deem and Ramdas Pophale) SiO2 
 PCOD9384204
Probable space group: P M M M
;
_chemical_formula_sum "Si O2"
_cell_formula_units_Z 60
_cell_length_a 21.774123
_cell_length_b 7.673818
_cell_length_c 19.732495
_cell_angle_alpha 90.000000
_cell_angle_beta 90.000000
_cell_angle_gamma 90.000000
_cell_volume 3297.115554
_symmetry_space_group_name_H-M "P M M M"
_symmetry_group_IT_number 47
_symmetry_cell_setting 'orthorhombic'
loop_
_space_group_symop_operation_xyz
x,y,z
-x,-y,z
x,-y,-z
-x,y,-z
-x,-y,-z
x,y,-z
-x,y,z
x,-y,z
loop_
_atom_site_type_symbol
_atom_site_label
_atom_site_fract_x
_atom_site_fract_y
_atom_site_fract_z
Si Si1 0.779392 0.792950 0.574982
Si Si2 0.314716 0.791875 0.790837
Si Si3 0.000000 0.713687 0.078856
Si Si4 0.189836 0.789601 0.280996
Si Si5 0.125242 0.291755 0.852186
Si Si6 0.363848 0.290884 0.575876
Si Si7 0.749931 0.710257 0.923548
Si Si8 0.568315 0.793526 0.288049
O O1 0.793076 0.719288 0.500000
O O2 0.813905 0.725067 0.641726
O O3 0.706384 0.768977 0.587227
O O4 0.790784 0.000000 0.571748
O O5 0.254468 0.724400 0.750943
O O6 0.302158 0.758426 0.869607
O O7 0.377795 0.720903 0.760026
O O8 0.315054 0.000000 0.780261
O O9 0.938420 0.773652 0.116961
O O10 0.000000 0.500000 0.079921
O O11 0.000000 0.764945 0.000000
O O12 0.137615 0.743248 0.226948
O O13 0.192702 0.000000 0.283205
O O14 0.124887 0.500000 0.861127
O O15 0.185056 0.224709 0.892928
O O16 0.381762 0.233027 0.500000
O O17 0.363913 0.500000 0.577083
O O18 0.407558 0.227125 0.635318
O O19 0.753003 0.500000 0.925237
O O20 0.740541 0.772678 0.000000
O O21 0.500000 0.719410 0.279795
O O22 0.564455 0.000000 0.274231
#
# Coordination Sequence:
#
# PCOD9384204 Si02
#       8
#     8   8   4   8   8   8   8   8
#     4   9  16  28  47  67  89 120 155 189 228 274
#     4   9  17  30  46  66  88 111 143 185 231 271
#     4   9  16  28  47  69  96 129 162 190 215 253
#     4   9  16  28  45  66  92 118 147 188 231 269
#     4   9  17  28  45  69  94 124 156 186 218 258
#     4  10  20  31  44  65  93 121 149 186 231 275
#     4   9  17  29  46  69  93 116 145 180 220 268
#     4  10  20  34  50  65  84 116 157 193 226 273
#
# _framework density 18.197723
#
# number of rings (size 3 to 8) (size 9 to 14) (size 15 to 20)
#    0.000    2.733    1.333    0.800    0.000    4.267 
#    0.000    1.667    0.000    2.000    0.000    3.267 
#    0.000    3.733    0.000    0.000    0.000    0.000 
#
# Total GULP energy -334468.415733 kJ/mol
# GULP energy per Si atom -5574.473596 kJ/mol
# Density = 1.815630 g / cm^3
# Si number density = 18.197723 Si / 1000 Ang^3
#
#
#
# Elastic Constant Matrix: (Units=GPa)
#
#
# Indices 1 2 3 4 5 6 
#
# 1 111.5747 2.1057 90.2553 0.0000 0.0000 0.0000
# 2 2.1057 30.3871 -2.2605 0.0000 0.0000 0.0000
# 3 90.2553 -2.2605 154.9245 0.0000 0.0000 0.0000
# 4 0.0000 0.0000 0.0000 21.0879 0.0000 0.0000
# 5 0.0000 0.0000 0.0000 0.0000 25.5555 0.0000
# 6 0.0000 0.0000 0.0000 0.0000 0.0000 11.2579
#
#
#
# Elastic Compliance Matrix: (Units=1/GPa)
#
#
# Indices 1 2 3 4 5 6 
#
# 1 0.017062 -0.001924 -0.009968 0.000000 0.000000 0.000000
# 2 -0.001924 0.033161 0.001605 0.000000 0.000000 0.000000
# 3 -0.009968 0.001605 0.012285 0.000000 0.000000 0.000000
# 4 0.000000 0.000000 0.000000 0.047421 0.000000 0.000000
# 5 0.000000 0.000000 0.000000 0.000000 0.039131 0.000000
# 6 0.000000 0.000000 0.000000 0.000000 0.000000 0.088826
#
#
# Mechanical properties :
#
#
# Convention : Reuss Voigt Hill
#
# Bulk Modulus (GPa) = 23.84683 53.00970 38.42827
# Shear Modulus (GPa) = 18.35268 25.36598 21.85933
#
# Velocity S-wave (km/s) = 3.17916 3.73756 3.46961
# Velocity P-wave (km/s) = 5.15837 6.91512 6.10032
#
# Compressibility (1/GPa) = 0.04193430
#
# Stress axis : x y z
#
# Youngs Moduli (GPa) = 58.60816 30.15558 81.39714
#
# Poissons Ratio (x) = 0.05802 0.81139
# Poissons Ratio (y) = 0.11276 -0.13062
# Poissons Ratio (z) = 0.58422 -0.04839
#
# Static dielectric constant tensor:
#      x y z
#    x 1.611040 0.000000 0.000000 
#    y 0.000000 1.686610 0.000000 
#    z 0.000000 0.000000 1.645600 
# 
# From -- ./inp_files/31371.got.cif
#   From: 2010.05.17/outbox.cif.g08.bks.cpg/sg47_16_cif.got.tgz:31371.got - 2010.06.03 20:15:42.
