data_PCOD9384923
_publ_section_title
;
Structure prediction by ZEFSAII (Michael W. Deem and Ramdas Pophale) SiO2 
 PCOD9384923
Probable space group: P M M M
;
_chemical_formula_sum "Si O2"
_cell_formula_units_Z 56
_cell_length_a 19.663128
_cell_length_b 7.918117
_cell_length_c 19.223192
_cell_angle_alpha 90.000000
_cell_angle_beta 90.000000
_cell_angle_gamma 90.000000
_cell_volume 2992.953881
_symmetry_space_group_name_H-M "P M M M"
_symmetry_group_IT_number 47
_symmetry_cell_setting 'orthorhombic'
loop_
_space_group_symop_operation_xyz
x,y,z
-x,-y,z
x,-y,-z
-x,y,-z
-x,-y,-z
x,y,-z
-x,y,z
x,-y,z
loop_
_atom_site_type_symbol
_atom_site_label
_atom_site_fract_x
_atom_site_fract_y
_atom_site_fract_z
Si Si1 0.218472 0.701351 0.777921
Si Si2 0.362889 0.805098 0.277014
Si Si3 0.281381 0.706888 0.078144
Si Si4 0.420771 0.296145 0.423474
Si Si5 0.075703 0.796579 0.224864
Si Si6 0.081925 0.805190 0.927242
Si Si7 0.574902 0.697272 0.862735
O O1 0.219350 0.500000 0.780110
O O2 0.284466 0.761765 0.736480
O O3 0.233048 0.762820 0.857970
O O4 0.148087 0.756644 0.741609
O O5 0.382651 0.768147 0.355890
O O6 0.407290 0.707356 0.219334
O O7 0.374866 0.000000 0.261473
O O8 0.280733 0.500000 0.078654
O O9 0.358133 0.764443 0.097922
O O10 0.263839 0.762172 0.000000
O O11 0.395756 0.240632 0.500000
O O12 0.500000 0.246517 0.418082
O O13 0.418293 0.500000 0.422319
O O14 0.090037 0.722094 0.147537
O O15 0.000000 0.740211 0.248506
O O16 0.071434 0.000000 0.219345
O O17 0.000000 0.815958 0.931147
O O18 0.106450 0.000000 0.925414
O O19 0.105689 0.725114 0.000000
O O20 0.500000 0.771710 0.876241
O O21 0.571701 0.500000 0.882016
#
# Coordination Sequence:
#
# PCOD9384923 Si02
#       7
#     8   8   8   8   8   8   8
#     4  10  20  33  48  65  88 121 159 197 240 292
#     4  11  21  32  48  69  96 129 163 198 233 272
#     4   8  15  28  44  62  84 112 151 200 249 291
#     4   9  18  33  53  77 106 138 166 191 223 265
#     4   9  17  29  45  65  88 112 142 186 237 286
#     4   7  10  18  33  53  77 105 135 167 211 273
#     4   9  17  29  46  67  90 119 156 197 242 291
#
# _framework density 18.710612999999999
#
# number of rings (size 3 to 8) (size 9 to 14) (size 15 to 20)
#    0.000    3.000    0.000    4.714    0.000    3.714 
#    0.000    2.143    0.000   10.286    0.000    8.000 
#    0.000    0.571    0.000    6.000    0.000    2.571 
#
# Total GULP energy -311743.302127 kJ/mol
# GULP energy per Si atom -5566.844681 kJ/mol
# Density = 1.866803 g / cm^3
# Si number density = 18.710613 Si / 1000 Ang^3
#
#
#
# Elastic Constant Matrix: (Units=GPa)
#
#
# Indices 1 2 3 4 5 6 
#
# 1 117.7629 -2.8348 29.0030 0.0000 0.0000 0.0000
# 2 -2.8348 23.3366 3.0132 0.0000 0.0000 0.0000
# 3 29.0030 3.0132 63.6684 0.0000 0.0000 0.0000
# 4 0.0000 0.0000 0.0000 -23.9777 0.0000 0.0000
# 5 0.0000 0.0000 0.0000 0.0000 -5.9992 0.0000
# 6 0.0000 0.0000 0.0000 0.0000 0.0000 18.3363
#
#
#
# Elastic Compliance Matrix: (Units=1/GPa)
#
#
# Indices 1 2 3 4 5 6 
#
# 1 0.009635 0.001748 -0.004472 0.000000 0.000000 0.000000
# 2 0.001748 0.043432 -0.002852 0.000000 0.000000 0.000000
# 3 -0.004472 -0.002852 0.017878 0.000000 0.000000 0.000000
# 4 0.000000 0.000000 0.000000 -0.041705 0.000000 0.000000
# 5 0.000000 0.000000 0.000000 0.000000 -0.166688 0.000000
# 6 0.000000 0.000000 0.000000 0.000000 0.000000 0.054537
#
#
# Mechanical properties :
#
#
# Convention : Reuss Voigt Hill
#
# Bulk Modulus (GPa) = 16.72415 29.23675 22.98045
# Shear Modulus (GPa) = -96.47149 9.37763 -43.54693
#
# Velocity S-wave (km/s) = -7.18830 2.24116 -4.82954
# Velocity P-wave (km/s) = 7.74196 4.72829 4.33481
#
# Compressibility (1/GPa) = 0.05979378
#
# Stress axis : x y z
#
# Youngs Moduli (GPa) = 103.78780 23.02468 55.93344
#
# Poissons Ratio (x) = -0.04024 0.25012
# Poissons Ratio (y) = -0.18140 0.15950
# Poissons Ratio (z) = 0.46412 0.06566
#
# Static dielectric constant tensor:
#      x y z
#    x 1.706070 0.000000 0.000000 
#    y 0.000000 1.681130 0.000000 
#    z 0.000000 0.000000 1.678520 
# 
# From -- ./inp_files/28724.got.cif
#   From: 2010.05.17/outbox.cif.g08.bks.cpg/sg47_15_cif.got.tgz:28724.got - 2010.06.03 20:15:42.
