data_PCOD9384517
_publ_section_title
;
Structure prediction by ZEFSAII (Michael W. Deem and Ramdas Pophale) SiO2 
 PCOD9384517
Probable space group: P M M M
;
_chemical_formula_sum "Si O2"
_cell_formula_units_Z 48
_cell_length_a 8.177657
_cell_length_b 18.425550
_cell_length_c 14.276399
_cell_angle_alpha 90.000000
_cell_angle_beta 90.000000
_cell_angle_gamma 90.000000
_cell_volume 2151.136792
_symmetry_space_group_name_H-M "P M M M"
_symmetry_group_IT_number 47
_symmetry_cell_setting 'orthorhombic'
loop_
_space_group_symop_operation_xyz
x,y,z
-x,-y,z
x,-y,-z
-x,y,-z
-x,-y,-z
x,y,-z
-x,y,z
x,-y,z
loop_
_atom_site_type_symbol
_atom_site_label
_atom_site_fract_x
_atom_site_fract_y
_atom_site_fract_z
Si Si1 0.312121 0.269219 0.333289
Si Si2 0.307090 0.112749 0.600187
Si Si3 0.308710 0.613246 0.101076
Si Si4 0.812667 0.232322 0.861545
Si Si5 0.193607 0.579721 0.309800
Si Si6 0.803865 0.921112 0.809366
O O1 0.500000 0.267280 0.297996
O O2 0.295326 0.200573 0.399952
O O3 0.190730 0.250805 0.248802
O O4 0.275361 0.351582 0.360708
O O5 0.241159 0.086106 0.500000
O O6 0.500000 0.094643 0.604366
O O7 0.232110 0.086866 0.698151
O O8 0.500000 0.595131 0.107991
O O9 0.286862 0.700523 0.098492
O O10 0.225759 0.587790 0.197402
O O11 0.246029 0.586017 0.000000
O O12 0.743539 0.150528 0.864161
O O13 0.000000 0.234371 0.894781
O O14 0.253790 0.500000 0.338284
O O15 0.000000 0.583329 0.325115
O O16 0.000000 0.919656 0.820384
O O17 0.742246 0.000000 0.840429
#
# Coordination Sequence:
#
# PCOD9384517 Si02
#       6
#     8   8   8   8   8   8
#     4   9  16  28  47  66  86 116 152 187 221 260
#     4   9  18  31  46  67  94 121 151 187 225 266
#     4  10  20  32  47  68  93 119 147 182 222 264
#     4   9  16  28  47  66  86 116 152 187 221 260
#     4  10  20  32  47  68  93 119 147 182 222 264
#     4   9  18  31  46  67  94 121 151 187 225 266
#
# _framework density 22.313782
#
# number of rings (size 3 to 8) (size 9 to 14) (size 15 to 20)
#    0.000    2.667    0.000    4.000    0.000    5.333 
#    0.000    3.333    0.000    1.000    0.000    7.000 
#    0.000    0.000    0.000    0.000    0.000    0.000 
#
# Total GULP energy -267479.997973 kJ/mol
# GULP energy per Si atom -5572.499958 kJ/mol
# Density = 2.226300 g / cm^3
# Si number density = 22.313782 Si / 1000 Ang^3
#
#
#
# Elastic Constant Matrix: (Units=GPa)
#
#
# Indices 1 2 3 4 5 6 
#
# 1 37.8204 7.8908 1.9251 0.0000 0.0000 0.0000
# 2 7.8908 171.4094 -9.0786 0.0000 0.0000 0.0000
# 3 1.9251 -9.0786 24.7888 0.0000 0.0000 0.0000
# 4 0.0000 0.0000 0.0000 -8.8315 0.0000 0.0000
# 5 0.0000 0.0000 0.0000 0.0000 18.7766 0.0000
# 6 0.0000 0.0000 0.0000 0.0000 0.0000 -14.6884
#
#
#
# Elastic Compliance Matrix: (Units=1/GPa)
#
#
# Indices 1 2 3 4 5 6 
#
# 1 0.026859 -0.001374 -0.002589 0.000000 0.000000 0.000000
# 2 -0.001374 0.006020 0.002311 0.000000 0.000000 0.000000
# 3 -0.002589 0.002311 0.041388 0.000000 0.000000 0.000000
# 4 0.000000 0.000000 0.000000 -0.113231 0.000000 0.000000
# 5 0.000000 0.000000 0.000000 0.000000 0.053258 0.000000
# 6 0.000000 0.000000 0.000000 0.000000 0.000000 -0.068081
#
#
# Mechanical properties :
#
#
# Convention : Reuss Voigt Hill
#
# Bulk Modulus (GPa) = 14.09153 26.16592 20.12872
# Shear Modulus (GPa) = -186.35604 14.60345 -85.87630
#
# Velocity S-wave (km/s) = -9.14863 2.56101 -6.21042
# Velocity P-wave (km/s) = 10.26000 4.52735 6.51041
#
# Compressibility (1/GPa) = 0.07096463
#
# Stress axis : x y z
#
# Youngs Moduli (GPa) = 37.23127 166.12313 24.16139
#
# Poissons Ratio (x) = 0.22818 0.06255
# Poissons Ratio (y) = 0.05114 -0.05584
# Poissons Ratio (z) = 0.09639 -0.38396
#
# Static dielectric constant tensor:
#      x y z
#    x 1.760070 0.000000 0.000000 
#    y 0.000000 1.913260 0.000000 
#    z 0.000000 0.000000 1.855240 
# 
# From -- ./inp_files/24422.got.cif
#   From: 2010.05.17/outbox.cif.g08.bks.cpg/sg47_13_cif.got.tgz:24422.got - 2010.06.03 20:15:42.
