data_PCOD9384053
_publ_section_title
;
Structure prediction by ZEFSAII (Michael W. Deem and Ramdas Pophale) SiO2 
 PCOD9384053
Probable space group: P M M M
;
_chemical_formula_sum "Si O2"
_cell_formula_units_Z 56
_cell_length_a 21.808674
_cell_length_b 8.737920
_cell_length_c 15.733556
_cell_angle_alpha 90.000000
_cell_angle_beta 90.000000
_cell_angle_gamma 90.000000
_cell_volume 2998.224958
_symmetry_space_group_name_H-M "P M M M"
_symmetry_group_IT_number 47
_symmetry_cell_setting 'orthorhombic'
loop_
_space_group_symop_operation_xyz
x,y,z
-x,-y,z
x,-y,-z
-x,y,-z
-x,-y,-z
x,y,-z
-x,y,z
x,-y,z
loop_
_atom_site_type_symbol
_atom_site_label
_atom_site_fract_x
_atom_site_fract_y
_atom_site_fract_z
Si Si1 0.846029 0.816253 0.253150
Si Si2 0.929639 0.813740 0.096183
Si Si3 0.071251 0.315811 0.401509
Si Si4 0.630007 0.817302 0.595649
Si Si5 0.366481 0.816255 0.096373
Si Si6 0.500000 0.182284 0.168743
Si Si7 0.709943 0.317938 0.251636
Si Si8 0.500000 0.318538 0.355498
O O1 0.883614 0.763514 0.169502
O O2 0.884036 0.764028 0.335469
O O3 0.778414 0.747310 0.253481
O O4 0.842045 0.000000 0.251399
O O5 0.000000 0.766214 0.113459
O O6 0.929438 0.000000 0.096516
O O7 0.913335 0.765577 0.000000
O O8 0.084258 0.276181 0.500000
O O9 0.076680 0.500000 0.393835
O O10 0.000000 0.275746 0.384118
O O11 0.652048 0.783800 0.500000
O O12 0.672175 0.744642 0.667781
O O13 0.561372 0.753545 0.605995
O O14 0.628607 0.000000 0.607402
O O15 0.437928 0.785881 0.117350
O O16 0.324842 0.737702 0.166954
O O17 0.358012 0.000000 0.102496
O O18 0.352324 0.769044 0.000000
O O19 0.500000 0.276442 0.255673
O O20 0.500000 0.000000 0.189749
O O21 0.710963 0.500000 0.254480
O O22 0.500000 0.500000 0.367699
#
# Coordination Sequence:
#
# PCOD9384053 Si02
#       8
#     8   8   8   8   8   4   8   4
#     4  11  22  36  58  86 116 153 199 244 290 346
#     4   8  15  30  54  85 117 146 182 232 285 335
#     4   9  19  37  60  86 118 155 192 234 291 355
#     4  11  24  43  66  89 115 152 198 247 298 353
#     4  10  21  39  64  91 119 155 199 245 296 354
#     4  10  19  35  63  91 121 155 193 243 293 346
#     4  12  26  42  59  83 119 160 200 247 301 355
#     4  12  23  36  61  95 127 156 187 235 297 355
#
# _framework density 18.677717000000001
#
# number of rings (size 3 to 8) (size 9 to 14) (size 15 to 20)
#    0.000    1.714    1.429    4.500    0.000    5.429 
#    0.000    2.143    0.000    2.571    0.000    5.000 
#    0.000    0.000    0.000    0.000    0.000    0.000 
#
# Total GULP energy -312935.277257 kJ/mol
# GULP energy per Si atom -5588.129951 kJ/mol
# Density = 1.863521 g / cm^3
# Si number density = 18.677717 Si / 1000 Ang^3
#
#
#
# Elastic Constant Matrix: (Units=GPa)
#
#
# Indices 1 2 3 4 5 6 
#
# 1 160.9448 61.1329 113.7175 0.0000 0.0000 0.0000
# 2 61.1329 69.2583 74.3929 0.0000 0.0000 0.0000
# 3 113.7175 74.3929 173.9150 0.0000 0.0000 0.0000
# 4 0.0000 0.0000 0.0000 -40.2601 0.0000 0.0000
# 5 0.0000 0.0000 0.0000 0.0000 88.4020 0.0000
# 6 0.0000 0.0000 0.0000 0.0000 0.0000 18.0738
#
#
#
# Elastic Compliance Matrix: (Units=1/GPa)
#
#
# Indices 1 2 3 4 5 6 
#
# 1 0.012133 -0.004048 -0.006202 0.000000 0.000000 0.000000
# 2 -0.004048 0.028062 -0.009357 0.000000 0.000000 0.000000
# 3 -0.006202 -0.009357 0.013808 0.000000 0.000000 0.000000
# 4 0.000000 0.000000 0.000000 -0.024838 0.000000 0.000000
# 5 0.000000 0.000000 0.000000 0.000000 0.011312 0.000000
# 6 0.000000 0.000000 0.000000 0.000000 0.000000 0.055329
#
#
# Mechanical properties :
#
#
# Convention : Reuss Voigt Hill
#
# Bulk Modulus (GPa) = 67.61566 100.28941 83.95253
# Shear Modulus (GPa) = 35.72756 23.56812 29.64784
#
# Velocity S-wave (km/s) = 4.37835 3.55608 3.98846
# Velocity P-wave (km/s) = 7.86383 8.40668 8.13978
#
# Compressibility (1/GPa) = 0.01478947
#
# Stress axis : x y z
#
# Youngs Moduli (GPa) = 82.42158 35.63485 72.42389
#
# Poissons Ratio (x) = 0.14424 0.44916
# Poissons Ratio (y) = 0.33363 0.67768
# Poissons Ratio (z) = 0.51116 0.33344
#
# Static dielectric constant tensor:
#      x y z
#    x 1.614150 0.000000 0.000000 
#    y 0.000000 1.627440 0.000000 
#    z 0.000000 0.000000 1.640690 
# 
# From -- ./inp_files/25215.got.cif
#   From: 2010.05.17/outbox.cif.g08.bks.cpg/sg47_13_cif.got.tgz:25215.got - 2010.06.03 20:15:42.
