data_PCOD9384304
_publ_section_title
;
Structure prediction by ZEFSAII (Michael W. Deem and Ramdas Pophale) SiO2 
 PCOD9384304
Probable space group: P M M M
;
_chemical_formula_sum "Si O2"
_cell_formula_units_Z 44
_cell_length_a 7.428368
_cell_length_b 33.529676
_cell_length_c 9.485688
_cell_angle_alpha 90.000000
_cell_angle_beta 90.000000
_cell_angle_gamma 90.000000
_cell_volume 2362.607635
_symmetry_space_group_name_H-M "P M M M"
_symmetry_group_IT_number 47
_symmetry_cell_setting 'orthorhombic'
loop_
_space_group_symop_operation_xyz
x,y,z
-x,-y,z
x,-y,-z
-x,y,-z
-x,-y,-z
x,y,-z
-x,y,z
x,-y,z
loop_
_atom_site_type_symbol
_atom_site_label
_atom_site_fract_x
_atom_site_fract_y
_atom_site_fract_z
Si Si1 0.719650 0.000000 0.163039
Si Si2 0.280270 0.620903 0.161669
Si Si3 0.000000 0.848843 0.829752
Si Si4 0.293179 0.086720 0.171934
Si Si5 0.719386 0.544567 0.663022
Si Si6 0.712734 0.300861 0.333609
Si Si7 0.000000 0.234029 0.331856
O O1 0.772227 0.956954 0.223629
O O2 0.500000 0.000000 0.161540
O O3 0.779804 0.000000 0.000000
O O4 0.500000 0.620300 0.163492
O O5 0.219481 0.580871 0.240510
O O6 0.227886 0.660751 0.244833
O O7 0.222601 0.621860 0.000000
O O8 0.170277 0.876238 0.789016
O O9 0.000000 0.806592 0.754258
O O10 0.000000 0.843924 0.000000
O O11 0.500000 0.092256 0.214600
O O12 0.289945 0.084458 0.000000
O O13 0.772293 0.550511 0.500000
O O14 0.500000 0.544790 0.665175
O O15 0.775662 0.500000 0.707263
O O16 0.738389 0.309444 0.500000
O O17 0.500000 0.294320 0.309886
O O18 0.828035 0.261875 0.299168
O O19 0.000000 0.226002 0.500000
#
# Coordination Sequence:
#
# PCOD9384304 Si02
#       7
#     4   8   4   8   8   8   4
#     4   7  10  19  37  61  92 128 160 192 230 270
#     4   9  16  25  40  65  94 121 152 192 237 284
#     4  10  20  31  46  70  96 123 155 192 238 287
#     4   8  14  25  41  65  98 130 159 194 235 276
#     4   8  13  21  34  55  87 127 165 196 227 269
#     4   9  18  34  54  71  89 117 153 194 237 280
#     4  10  22  38  53  71  94 121 158 198 236 286
#
# _framework density 18.62349
#
# number of rings (size 3 to 8) (size 9 to 14) (size 15 to 20)
#    0.000    3.364    0.000    2.182    0.000    4.364 
#    0.000    3.636    0.000    0.000    0.000    1.909 
#    0.000    7.273    0.000    0.545    0.000    0.000 
#
# Total GULP energy -245260.543253 kJ/mol
# GULP energy per Si atom -5574.103256 kJ/mol
# Density = 1.858110 g / cm^3
# Si number density = 18.623490 Si / 1000 Ang^3
#
#
#
# Elastic Constant Matrix: (Units=GPa)
#
#
# Indices 1 2 3 4 5 6 
#
# 1 77.7333 67.0582 32.8659 0.0000 0.0000 0.0000
# 2 67.0582 233.5960 94.2428 0.0000 0.0000 0.0000
# 3 32.8659 94.2428 56.9947 0.0000 0.0000 0.0000
# 4 0.0000 0.0000 0.0000 55.3499 0.0000 0.0000
# 5 0.0000 0.0000 0.0000 0.0000 3.0174 0.0000
# 6 0.0000 0.0000 0.0000 0.0000 0.0000 55.6620
#
#
#
# Elastic Compliance Matrix: (Units=1/GPa)
#
#
# Indices 1 2 3 4 5 6 
#
# 1 0.017636 -0.002883 -0.005402 0.000000 0.000000 0.000000
# 2 -0.002883 0.013331 -0.020381 0.000000 0.000000 0.000000
# 3 -0.005402 -0.020381 0.054361 0.000000 0.000000 0.000000
# 4 0.000000 0.000000 0.000000 0.018067 0.000000 0.000000
# 5 0.000000 0.000000 0.000000 0.000000 0.331407 0.000000
# 6 0.000000 0.000000 0.000000 0.000000 0.000000 0.017966
#
#
# Mechanical properties :
#
#
# Convention : Reuss Voigt Hill
#
# Bulk Modulus (GPa) = 35.71987 84.07308 59.89648
# Shear Modulus (GPa) = 9.62589 34.41633 22.02111
#
# Velocity S-wave (km/s) = 2.27594 4.30351 3.44239
# Velocity P-wave (km/s) = 5.11157 8.36272 6.93049
#
# Compressibility (1/GPa) = 0.02799562
#
# Stress axis : x y z
#
# Youngs Moduli (GPa) = 56.70278 75.01243 18.39547
#
# Poissons Ratio (x) = 0.21628 0.09937
# Poissons Ratio (y) = 0.16349 0.37492
# Poissons Ratio (z) = 0.30632 1.52882
#
# Static dielectric constant tensor:
#      x y z
#    x 1.704490 0.000000 0.000000 
#    y 0.000000 1.624110 0.000000 
#    z 0.000000 0.000000 1.615770 
# 
# From -- ./inp_files/2363.got.cif
#   From: 2010.05.17/outbox.cif.g08.bks.cpg/sg47_2_cif.got.tgz:2363.got - 2010.06.03 20:15:42.
