data_PCOD9384287
_publ_section_title
;
Structure prediction by ZEFSAII (Michael W. Deem and Ramdas Pophale) SiO2 
 PCOD9384287
Probable space group: P M M M
;
_chemical_formula_sum "Si O2"
_cell_formula_units_Z 44
_cell_length_a 9.517598
_cell_length_b 8.825127
_cell_length_c 29.400680
_cell_angle_alpha 90.000000
_cell_angle_beta 90.000000
_cell_angle_gamma 90.000000
_cell_volume 2469.481042
_symmetry_space_group_name_H-M "P M M M"
_symmetry_group_IT_number 47
_symmetry_cell_setting 'orthorhombic'
loop_
_space_group_symop_operation_xyz
x,y,z
-x,-y,z
x,-y,-z
-x,y,-z
-x,-y,-z
x,y,-z
-x,y,z
x,-y,z
loop_
_atom_site_type_symbol
_atom_site_label
_atom_site_fract_x
_atom_site_fract_y
_atom_site_fract_z
Si Si1 0.662825 0.818587 0.500000
Si Si2 0.337048 0.316641 0.138483
Si Si3 0.163845 0.816645 0.778241
Si Si4 0.837593 0.315579 0.948988
Si Si5 0.164820 0.680357 0.417104
Si Si6 0.170610 0.825416 0.677481
O O1 0.500000 0.770220 0.500000
O O2 0.742584 0.757362 0.544326
O O3 0.667771 0.000000 0.500000
O O4 0.500000 0.272585 0.138696
O O5 0.329521 0.500000 0.139939
O O6 0.256046 0.251111 0.181750
O O7 0.260862 0.265097 0.092033
O O8 0.214016 0.770037 0.727565
O O9 0.000000 0.772027 0.783964
O O10 0.168615 0.000000 0.779135
O O11 0.834978 0.500000 0.949154
O O12 0.000000 0.270921 0.941230
O O13 0.796028 0.266656 0.000000
O O14 0.173065 0.500000 0.421590
O O15 0.211051 0.730180 0.366569
O O16 0.000000 0.724521 0.422535
O O17 0.000000 0.825954 0.679181
O O18 0.215817 0.000000 0.671496
#
# Coordination Sequence:
#
# PCOD9384287 Si02
#       6
#     4   8   8   8   8   8
#     4  11  24  39  54  74 102 139 180 213 244 290
#     4  10  20  31  45  70 102 133 165 201 244 296
#     4   9  18  33  53  75  98 128 167 207 247 293
#     4   8  14  26  45  68  93 123 161 204 249 296
#     4  10  20  34  55  83 109 132 163 205 254 304
#     4   8  15  30  52  76 100 127 163 206 248 292
#
# _framework density 17.817509000000001
#
# number of rings (size 3 to 8) (size 9 to 14) (size 15 to 20)
#    0.000    2.818    0.000    3.273    0.000    5.455 
#    0.000    4.545    0.000    1.636    0.000    3.818 
#    0.000    0.000    0.000    0.000    0.000    0.000 
#
# Total GULP energy -245298.979177 kJ/mol
# GULP energy per Si atom -5574.976799 kJ/mol
# Density = 1.777696 g / cm^3
# Si number density = 17.817509 Si / 1000 Ang^3
#
#
#
# Elastic Constant Matrix: (Units=GPa)
#
#
# Indices 1 2 3 4 5 6 
#
# 1 98.5728 33.1105 103.5971 0.0000 0.0000 0.0000
# 2 33.1105 18.9763 40.3860 0.0000 0.0000 0.0000
# 3 103.5971 40.3860 200.7681 0.0000 0.0000 0.0000
# 4 0.0000 0.0000 0.0000 37.2146 0.0000 0.0000
# 5 0.0000 0.0000 0.0000 0.0000 -6.7798 0.0000
# 6 0.0000 0.0000 0.0000 0.0000 0.0000 19.4938
#
#
#
# Elastic Compliance Matrix: (Units=1/GPa)
#
#
# Indices 1 2 3 4 5 6 
#
# 1 0.032009 -0.036194 -0.009236 0.000000 0.000000 0.000000
# 2 -0.036194 0.133073 -0.008092 0.000000 0.000000 0.000000
# 3 -0.009236 -0.008092 0.011375 0.000000 0.000000 0.000000
# 4 0.000000 0.000000 0.000000 0.026871 0.000000 0.000000
# 5 0.000000 0.000000 0.000000 0.000000 -0.147496 0.000000
# 6 0.000000 0.000000 0.000000 0.000000 0.000000 0.051298
#
#
# Mechanical properties :
#
#
# Convention : Reuss Voigt Hill
#
# Bulk Modulus (GPa) = 14.40690 74.72271 44.56480
# Shear Modulus (GPa) = 21.06931 19.40063 20.23497
#
# Velocity S-wave (km/s) = 3.44249 3.30336 3.37364
# Velocity P-wave (km/s) = 4.88921 7.52186 6.34361
#
# Compressibility (1/GPa) = 0.06941121
#
# Stress axis : x y z
#
# Youngs Moduli (GPa) = 31.24078 7.51470 87.91524
#
# Poissons Ratio (x) = 0.27199 0.81201
# Poissons Ratio (y) = 1.13074 0.71142
# Poissons Ratio (z) = 0.28855 0.06081
#
# Static dielectric constant tensor:
#      x y z
#    x 1.588890 0.000000 0.000000 
#    y 0.000000 1.606000 0.000000 
#    z 0.000000 0.000000 1.609430 
# 
# From -- ./inp_files/1955.got.cif
#   From: 2010.05.17/outbox.cif.g08.bks.cpg/sg47_1_cif.got.tgz:1955.got - 2010.06.03 20:15:42.
