data_PCOD9384340
_publ_section_title
;
Structure prediction by ZEFSAII (Michael W. Deem and Ramdas Pophale) SiO2 
 PCOD9384340
Probable space group: P M M M
;
_chemical_formula_sum "Si O2"
_cell_formula_units_Z 64
_cell_length_a 15.259331
_cell_length_b 7.634631
_cell_length_c 25.976179
_cell_angle_alpha 90.000000
_cell_angle_beta 90.000000
_cell_angle_gamma 90.000000
_cell_volume 3026.208267
_symmetry_space_group_name_H-M "P M M M"
_symmetry_group_IT_number 47
_symmetry_cell_setting 'orthorhombic'
loop_
_space_group_symop_operation_xyz
x,y,z
-x,-y,z
x,-y,-z
-x,y,-z
-x,-y,-z
x,y,-z
-x,y,z
x,-y,z
loop_
_atom_site_type_symbol
_atom_site_label
_atom_site_fract_x
_atom_site_fract_y
_atom_site_fract_z
Si Si1 0.101438 0.285990 0.558389
Si Si2 0.399683 0.211868 0.441601
Si Si3 0.289231 0.289579 0.944690
Si Si4 0.401522 0.793150 0.842992
Si Si5 0.905793 0.287739 0.200641
Si Si6 0.726487 0.288695 0.749844
Si Si7 0.904530 0.287587 0.079115
Si Si8 0.751417 0.296685 0.364558
O O1 0.126506 0.231039 0.500000
O O2 0.104601 0.500000 0.558349
O O3 0.167317 0.221058 0.602528
O O4 0.000000 0.236732 0.567064
O O5 0.378115 0.265539 0.500000
O O6 0.500000 0.262929 0.430959
O O7 0.331706 0.286582 0.401628
O O8 0.395599 0.000000 0.439636
O O9 0.283814 0.500000 0.945915
O O10 0.344209 0.251551 0.893469
O O11 0.188620 0.223671 0.941507
O O12 0.327307 0.230803 0.000000
O O13 0.500000 0.715970 0.844676
O O14 0.350142 0.751842 0.790251
O O15 0.409932 0.000000 0.844172
O O16 0.905271 0.500000 0.205044
O O17 0.818635 0.222489 0.227343
O O18 0.902132 0.250232 0.140041
O O19 0.000000 0.225932 0.221077
O O20 0.728621 0.500000 0.748742
O O21 0.724106 0.223287 0.691082
O O22 0.905076 0.500000 0.072577
O O23 0.000000 0.225468 0.059854
O O24 0.774982 0.500000 0.355474
#
# Coordination Sequence:
#
# PCOD9384340 Si02
#       8
#     8   8   8   8   8   8   8   8
#     4   8  14  26  45  72 110 151 183 213 256 311
#     4   9  19  36  55  73  97 134 176 215 261 319
#     4  10  20  35  59  89 116 141 172 214 264 316
#     4  11  25  43  60  76  99 138 184 226 272 324
#     4   8  13  24  47  76 104 136 171 206 246 296
#     4  10  20  35  55  80 109 139 174 219 268 316
#     4   8  13  24  47  80 114 143 170 202 243 295
#     4  10  20  31  50  82 112 137 171 219 271 316
#
# _framework density 21.148579000000002
#
# number of rings (size 3 to 8) (size 9 to 14) (size 15 to 20)
#    0.000    2.750    1.250    2.250    0.000    4.250 
#    0.000    8.125    0.000    1.875    0.000    4.375 
#    0.000    0.000    0.000    0.000    0.000    0.000 
#
# Total GULP energy -356876.988499 kJ/mol
# GULP energy per Si atom -5576.202945 kJ/mol
# Density = 2.110044 g / cm^3
# Si number density = 21.148579 Si / 1000 Ang^3
#
#
#
# Elastic Constant Matrix: (Units=GPa)
#
#
# Indices 1 2 3 4 5 6 
#
# 1 157.6791 6.1535 113.4151 0.0000 0.0000 0.0000
# 2 6.1535 42.4814 11.2757 0.0000 0.0000 0.0000
# 3 113.4151 11.2757 171.8102 0.0000 0.0000 0.0000
# 4 0.0000 0.0000 0.0000 -136.1402 0.0000 0.0000
# 5 0.0000 0.0000 0.0000 0.0000 -11.1527 0.0000
# 6 0.0000 0.0000 0.0000 0.0000 0.0000 36.6085
#
#
#
# Elastic Compliance Matrix: (Units=1/GPa)
#
#
# Indices 1 2 3 4 5 6 
#
# 1 0.012081 0.000373 -0.008000 0.000000 0.000000 0.000000
# 2 0.000373 0.023969 -0.001819 0.000000 0.000000 0.000000
# 3 -0.008000 -0.001819 0.011221 0.000000 0.000000 0.000000
# 4 0.000000 0.000000 0.000000 -0.007345 0.000000 0.000000
# 5 0.000000 0.000000 0.000000 0.000000 -0.089664 0.000000
# 6 0.000000 0.000000 0.000000 0.000000 0.000000 0.027316
#
#
# Mechanical properties :
#
#
# Convention : Reuss Voigt Hill
#
# Bulk Modulus (GPa) = 35.23745 70.40657 52.82201
# Shear Modulus (GPa) = 843.40807 -6.06180 418.67314
#
# Velocity S-wave (km/s) = 19.99167 -1.69485 14.08536
# Velocity P-wave (km/s) = 23.44328 5.43449 17.01648
#
# Compressibility (1/GPa) = 0.02837890
#
# Stress axis : x y z
#
# Youngs Moduli (GPa) = 82.77182 41.72127 89.12254
#
# Poissons Ratio (x) = -0.01558 0.71295
# Poissons Ratio (y) = -0.03090 0.16216
# Poissons Ratio (z) = 0.66215 0.07591
#
# Static dielectric constant tensor:
#      x y z
#    x 1.772440 0.000000 0.000000 
#    y 0.000000 1.806180 0.000000 
#    z 0.000000 0.000000 1.770840 
# 
# From -- ./inp_files/32792.got.cif
#   From: 2010.05.17/outbox.cif.g08.bks.cpg/sg47_17_cif.got.tgz:32792.got - 2010.06.03 20:15:42.
