data_PCOD9384424
_publ_section_title
;
Structure prediction by ZEFSAII (Michael W. Deem and Ramdas Pophale) SiO2 
 PCOD9384424
Probable space group: P M M M
;
_chemical_formula_sum "Si O2"
_cell_formula_units_Z 40
_cell_length_a 7.372139
_cell_length_b 9.496724
_cell_length_c 27.114997
_cell_angle_alpha 90.000000
_cell_angle_beta 90.000000
_cell_angle_gamma 90.000000
_cell_volume 1898.352648
_symmetry_space_group_name_H-M "P M M M"
_symmetry_group_IT_number 47
_symmetry_cell_setting 'orthorhombic'
loop_
_space_group_symop_operation_xyz
x,y,z
-x,-y,z
x,-y,-z
-x,y,-z
-x,-y,-z
x,y,-z
-x,y,z
x,-y,z
loop_
_atom_site_type_symbol
_atom_site_label
_atom_site_fract_x
_atom_site_fract_y
_atom_site_fract_z
Si Si1 0.281661 0.331449 0.553007
Si Si2 0.216993 0.658931 0.148101
Si Si3 0.778939 0.162302 0.944500
Si Si4 0.283236 0.159273 0.245545
Si Si5 0.721749 0.663978 0.660819
O O1 0.213919 0.276194 0.500000
O O2 0.500000 0.313636 0.552510
O O3 0.248336 0.500000 0.553219
O O4 0.218608 0.281829 0.606724
O O5 0.286729 0.500000 0.153637
O O6 0.285211 0.737088 0.099049
O O7 0.250645 0.751998 0.196288
O O8 0.000000 0.650077 0.142828
O O9 0.000000 0.163750 0.944115
O O10 0.724970 0.000000 0.935701
O O11 0.723168 0.202662 0.000000
O O12 0.500000 0.150446 0.251274
O O13 0.215339 0.242496 0.293593
O O14 0.213117 0.000000 0.241568
O O15 0.500000 0.664435 0.660571
O O16 0.774929 0.500000 0.666755
#
# Coordination Sequence:
#
# PCOD9384424 Si02
#       5
#     8   8   8   8   8
#     4   7   9  14  27  49  75 102 134 172 213 256
#     4  10  20  32  48  71  95 118 147 185 226 264
#     4   8  14  26  45  68  93 120 147 175 212 260
#     4  10  20  32  46  64  88 121 157 188 221 265
#     4   8  13  22  37  56  79 109 144 181 219 258
#
# _framework density 21.070900999999999
#
# number of rings (size 3 to 8) (size 9 to 14) (size 15 to 20)
#    0.000    3.400    0.000    3.600    0.000    2.800 
#    0.000    2.000    0.000    1.200    0.000    8.400 
#    0.000    0.800    0.000    9.200    0.000   10.600 
#
# Total GULP energy -223038.702596 kJ/mol
# GULP energy per Si atom -5575.967565 kJ/mol
# Density = 2.102294 g / cm^3
# Si number density = 21.070901 Si / 1000 Ang^3
#
#
#
# Elastic Constant Matrix: (Units=GPa)
#
#
# Indices 1 2 3 4 5 6 
#
# 1 73.8445 5.6445 4.1558 0.0000 0.0000 0.0000
# 2 5.6445 139.2365 134.4662 0.0000 0.0000 0.0000
# 3 4.1558 134.4662 257.0911 0.0000 0.0000 0.0000
# 4 0.0000 0.0000 0.0000 52.3883 0.0000 0.0000
# 5 0.0000 0.0000 0.0000 0.0000 13.0301 0.0000
# 6 0.0000 0.0000 0.0000 0.0000 0.0000 0.7868
#
#
#
# Elastic Compliance Matrix: (Units=1/GPa)
#
#
# Indices 1 2 3 4 5 6 
#
# 1 0.013586 -0.000684 0.000138 0.000000 0.000000 0.000000
# 2 -0.000684 0.014547 -0.007597 0.000000 0.000000 0.000000
# 3 0.000138 -0.007597 0.007861 0.000000 0.000000 0.000000
# 4 0.000000 0.000000 0.000000 0.019088 0.000000 0.000000
# 5 0.000000 0.000000 0.000000 0.000000 0.076745 0.000000
# 6 0.000000 0.000000 0.000000 0.000000 0.000000 1.270910
#
#
# Mechanical properties :
#
#
# Convention : Reuss Voigt Hill
#
# Bulk Modulus (GPa) = 50.74183 84.30058 67.52121
# Shear Modulus (GPa) = 3.50731 34.96809 19.23770
#
# Velocity S-wave (km/s) = 1.29157 4.07817 3.02486
# Velocity P-wave (km/s) = 5.13400 7.89115 6.65688
#
# Compressibility (1/GPa) = 0.01970761
#
# Stress axis : x y z
#
# Youngs Moduli (GPa) = 73.60249 68.74338 127.20887
#
# Poissons Ratio (x) = 0.04705 -0.01760
# Poissons Ratio (y) = 0.05037 0.96645
# Poissons Ratio (z) = -0.01018 0.52227
#
# Static dielectric constant tensor:
#      x y z
#    x 1.876460 0.000000 0.000000 
#    y 0.000000 1.764020 0.000000 
#    z 0.000000 0.000000 1.764840 
# 
# From -- ./inp_files/1456.got.cif
#   From: 2010.05.17/outbox.cif.g08.bks.cpg/sg47_1_cif.got.tgz:1456.got - 2010.06.03 20:15:42.
