data_PCOD9384393
_publ_section_title
;
Structure prediction by ZEFSAII (Michael W. Deem and Ramdas Pophale) SiO2 
 PCOD9384393
Probable space group: P M M M
;
_chemical_formula_sum "Si O2"
_cell_formula_units_Z 52
_cell_length_a 24.525670
_cell_length_b 14.007880
_cell_length_c 9.584245
_cell_angle_alpha 90.000000
_cell_angle_beta 90.000000
_cell_angle_gamma 90.000000
_cell_volume 3292.692694
_symmetry_space_group_name_H-M "P M M M"
_symmetry_group_IT_number 47
_symmetry_cell_setting 'orthorhombic'
loop_
_space_group_symop_operation_xyz
x,y,z
-x,-y,z
x,-y,-z
-x,y,-z
-x,-y,-z
x,y,-z
-x,y,z
x,-y,z
loop_
_atom_site_type_symbol
_atom_site_label
_atom_site_fract_x
_atom_site_fract_y
_atom_site_fract_z
Si Si1 0.500000 0.616681 0.660742
Si Si2 0.058670 0.613397 0.668814
Si Si3 0.665769 0.109465 0.166217
Si Si4 0.560629 0.883753 0.660533
Si Si5 0.277538 0.296744 0.833539
Si Si6 0.821783 0.384860 0.665280
Si Si7 0.604994 0.615351 0.161233
O O1 0.500000 0.500000 0.662062
O O2 0.500000 0.647282 0.500000
O O3 0.444898 0.646228 0.740648
O O4 0.059038 0.621255 0.500000
O O5 0.058145 0.500000 0.699366
O O6 0.118002 0.649354 0.715122
O O7 0.000000 0.653034 0.718421
O O8 0.610459 0.142724 0.241276
O O9 0.712878 0.184981 0.197546
O O10 0.677553 0.000000 0.206873
O O11 0.656748 0.111716 0.000000
O O12 0.569941 0.854897 0.500000
O O13 0.500000 0.852103 0.703643
O O14 0.559549 0.000000 0.661916
O O15 0.227464 0.339870 0.750174
O O16 0.335300 0.347008 0.798020
O O17 0.269619 0.309176 0.000000
O O18 0.816494 0.364275 0.500000
O O19 0.820211 0.500000 0.679731
O O20 0.606589 0.500000 0.164397
O O21 0.594824 0.644443 0.000000
#
# Coordination Sequence:
#
# PCOD9384393 Si02
#       7
#     4   8   8   8   8   8   8
#     4   9  17  29  45  63  80  99 128 170 215 249
#     4   7  10  19  37  61  89 120 150 175 200 236
#     4   9  18  32  47  62  81 107 142 182 219 257
#     4   8  14  26  44  63  81 101 125 158 209 270
#     4  10  20  32  45  63  86 115 147 178 217 263
#     4   9  17  28  44  68  95 121 149 180 210 243
#     4   9  17  30  46  60  77 105 137 166 202 254
#
# _framework density 15.792547000000001
#
# number of rings (size 3 to 8) (size 9 to 14) (size 15 to 20)
#    0.000    3.308    0.000    2.538    0.000    3.385 
#    1.385    3.077    0.000    0.462    0.000    2.154 
#    0.000    0.615    0.000    7.692    0.000    0.308 
#
# Total GULP energy -289586.731737 kJ/mol
# GULP energy per Si atom -5568.975610 kJ/mol
# Density = 1.575660 g / cm^3
# Si number density = 15.792547 Si / 1000 Ang^3
#
#
#
# Elastic Constant Matrix: (Units=GPa)
#
#
# Indices 1 2 3 4 5 6 
#
# 1 170.1232 42.1891 66.3398 0.0000 0.0000 0.0000
# 2 42.1891 41.3093 23.1818 0.0000 0.0000 0.0000
# 3 66.3398 23.1818 38.8947 0.0000 0.0000 0.0000
# 4 0.0000 0.0000 0.0000 11.4060 0.0000 0.0000
# 5 0.0000 0.0000 0.0000 0.0000 -106.9889 0.0000
# 6 0.0000 0.0000 0.0000 0.0000 0.0000 13.2598
#
#
#
# Elastic Compliance Matrix: (Units=1/GPa)
#
#
# Indices 1 2 3 4 5 6 
#
# 1 0.017631 -0.001699 -0.029060 0.000000 0.000000 0.000000
# 2 -0.001699 0.036537 -0.018878 0.000000 0.000000 0.000000
# 3 -0.029060 -0.018878 0.086527 0.000000 0.000000 0.000000
# 4 0.000000 0.000000 0.000000 0.087673 0.000000 0.000000
# 5 0.000000 0.000000 0.000000 0.000000 -0.009347 0.000000
# 6 0.000000 0.000000 0.000000 0.000000 0.000000 0.075416
#
#
# Mechanical properties :
#
#
# Convention : Reuss Voigt Hill
#
# Bulk Modulus (GPa) = 24.14231 57.08319 40.61275
# Shear Modulus (GPa) = 12.26934 -8.55684 1.85625
#
# Velocity S-wave (km/s) = 2.79033 -2.33025 1.08533
# Velocity P-wave (km/s) = 5.06967 5.38368 5.22904
#
# Compressibility (1/GPa) = 0.04142105
#
# Stress axis : x y z
#
# Youngs Moduli (GPa) = 56.71700 27.36941 11.55703
#
# Poissons Ratio (x) = 0.04651 0.33585
# Poissons Ratio (y) = 0.09638 0.21818
# Poissons Ratio (z) = 1.64818 0.51669
#
# Static dielectric constant tensor:
#      x y z
#    x 1.532070 0.000000 0.000000 
#    y 0.000000 1.559690 0.000000 
#    z 0.000000 0.000000 1.524840 
# 
# From -- ./inp_files/12513.got.cif
#   From: 2010.05.17/outbox.cif.g08.bks.cpg/sg47_7_cif.got.tgz:12513.got - 2010.06.03 20:15:42.
