data_PCOD9384485
_publ_section_title
;
Structure prediction by ZEFSAII (Michael W. Deem and Ramdas Pophale) SiO2 
 PCOD9384485
Probable space group: P M M M
;
_chemical_formula_sum "Si O2"
_cell_formula_units_Z 44
_cell_length_a 21.515384
_cell_length_b 14.393165
_cell_length_c 8.918143
_cell_angle_alpha 90.000000
_cell_angle_beta 90.000000
_cell_angle_gamma 90.000000
_cell_volume 2761.721224
_symmetry_space_group_name_H-M "P M M M"
_symmetry_group_IT_number 47
_symmetry_cell_setting 'orthorhombic'
loop_
_space_group_symop_operation_xyz
x,y,z
-x,-y,z
x,-y,-z
-x,y,-z
-x,-y,-z
x,y,-z
-x,y,z
x,-y,z
loop_
_atom_site_type_symbol
_atom_site_label
_atom_site_fract_x
_atom_site_fract_y
_atom_site_fract_z
Si Si1 0.302660 0.390156 0.821511
Si Si2 0.000000 0.112698 0.329902
Si Si3 0.068625 0.391696 0.682069
Si Si4 0.431323 0.387415 0.675122
Si Si5 0.810084 0.722313 0.319870
Si Si6 0.130583 0.890733 0.178673
O O1 0.295602 0.500000 0.782666
O O2 0.371312 0.359065 0.768991
O O3 0.249908 0.330972 0.740291
O O4 0.296902 0.381530 0.000000
O O5 0.063399 0.137320 0.246185
O O6 0.000000 0.149735 0.500000
O O7 0.000000 0.000000 0.337070
O O8 0.068558 0.389107 0.500000
O O9 0.074966 0.500000 0.725139
O O10 0.128118 0.333853 0.731564
O O11 0.000000 0.358691 0.731623
O O12 0.423596 0.362204 0.500000
O O13 0.500000 0.355324 0.725634
O O14 0.432613 0.500000 0.681313
O O15 0.809325 0.725012 0.500000
O O16 0.818515 0.824952 0.253582
O O17 0.139939 0.000000 0.212096
O O18 0.129860 0.879408 0.000000
#
# Coordination Sequence:
#
# PCOD9384485 Si02
#       6
#     8   4   8   8   8   8
#     4  10  20  32  46  67  99 135 167 199 235 281
#     4   9  17  31  51  71  88 109 144 189 235 287
#     4   8  15  28  44  63  87 114 149 194 238 277
#     4   8  14  26  45  68  94 125 161 199 236 275
#     4  11  21  31  49  71  92 122 161 203 245 289
#     4  10  21  36  51  68  93 122 151 191 248 305
#
# _framework density 15.932093
#
# number of rings (size 3 to 8) (size 9 to 14) (size 15 to 20)
#    0.000    2.636    0.000    3.545    1.273    4.364 
#    0.000    1.818    0.000    0.000    0.000    3.818 
#    0.000    0.727    0.000    7.636    0.000    3.636 
#
# Total GULP energy -245338.511934 kJ/mol
# GULP energy per Si atom -5575.875271 kJ/mol
# Density = 1.589583 g / cm^3
# Si number density = 15.932093 Si / 1000 Ang^3
#
#
#
# Elastic Constant Matrix: (Units=GPa)
#
#
# Indices 1 2 3 4 5 6 
#
# 1 125.7011 56.6869 53.0353 0.0000 0.0000 0.0000
# 2 56.6869 62.2713 40.3178 0.0000 0.0000 0.0000
# 3 53.0353 40.3178 58.5521 0.0000 0.0000 0.0000
# 4 0.0000 0.0000 0.0000 17.8086 0.0000 0.0000
# 5 0.0000 0.0000 0.0000 0.0000 21.7714 0.0000
# 6 0.0000 0.0000 0.0000 0.0000 0.0000 11.3144
#
#
#
# Elastic Compliance Matrix: (Units=1/GPa)
#
#
# Indices 1 2 3 4 5 6 
#
# 1 0.015180 -0.008871 -0.007641 0.000000 0.000000 0.000000
# 2 -0.008871 0.034162 -0.015488 0.000000 0.000000 0.000000
# 3 -0.007641 -0.015488 0.034665 0.000000 0.000000 0.000000
# 4 0.000000 0.000000 0.000000 0.056153 0.000000 0.000000
# 5 0.000000 0.000000 0.000000 0.000000 0.045932 0.000000
# 6 0.000000 0.000000 0.000000 0.000000 0.000000 0.088383
#
#
# Mechanical properties :
#
#
# Convention : Reuss Voigt Hill
#
# Bulk Modulus (GPa) = 49.98475 60.73383 55.35929
# Shear Modulus (GPa) = 14.48669 16.61116 15.54893
#
# Velocity S-wave (km/s) = 3.01869 3.23247 3.12741
# Velocity P-wave (km/s) = 6.60240 7.22046 6.91834
#
# Compressibility (1/GPa) = 0.02000610
#
# Stress axis : x y z
#
# Youngs Moduli (GPa) = 65.87633 29.27193 28.84792
#
# Poissons Ratio (x) = 0.25969 0.22043
# Poissons Ratio (y) = 0.58442 0.44680
# Poissons Ratio (z) = 0.50336 0.45336
#
# Static dielectric constant tensor:
#      x y z
#    x 1.533030 0.000000 0.000000 
#    y 0.000000 1.543610 0.000000 
#    z 0.000000 0.000000 1.527970 
# 
# From -- ./inp_files/8940.got.cif
#   From: 2010.05.17/outbox.cif.g08.bks.cpg/sg47_5_cif.got.tgz:8940.got - 2010.06.03 20:15:42.
