data_PCOD9384080
_publ_section_title
;
Structure prediction by ZEFSAII (Michael W. Deem and Ramdas Pophale) SiO2 
 PCOD9384080
Probable space group: P M M M
;
_chemical_formula_sum "Si O2"
_cell_formula_units_Z 64
_cell_length_a 8.972297
_cell_length_b 14.577406
_cell_length_c 29.162129
_cell_angle_alpha 90.000000
_cell_angle_beta 90.000000
_cell_angle_gamma 90.000000
_cell_volume 3814.196976
_symmetry_space_group_name_H-M "P M M M"
_symmetry_group_IT_number 47
_symmetry_cell_setting 'orthorhombic'
loop_
_space_group_symop_operation_xyz
x,y,z
-x,-y,z
x,-y,-z
-x,y,-z
-x,-y,-z
x,y,-z
-x,y,z
x,-y,z
loop_
_atom_site_type_symbol
_atom_site_label
_atom_site_fract_x
_atom_site_fract_y
_atom_site_fract_z
Si Si1 0.177363 0.600991 0.237846
Si Si2 0.822655 0.899684 0.919325
Si Si3 0.320095 0.709288 0.949117
Si Si4 0.822843 0.891066 0.354878
Si Si5 0.674139 0.111185 0.550712
Si Si6 0.320849 0.209874 0.730698
Si Si7 0.669464 0.856308 0.827629
Si Si8 0.330194 0.641702 0.854709
O O1 0.216486 0.500000 0.256987
O O2 0.256943 0.688010 0.261018
O O3 0.227591 0.600936 0.184589
O O4 0.000000 0.613129 0.240814
O O5 0.744687 0.811412 0.941553
O O6 0.775256 0.898869 0.865756
O O7 0.000000 0.889808 0.923616
O O8 0.779320 0.000000 0.938315
O O9 0.500000 0.715663 0.945859
O O10 0.273900 0.643648 0.907015
O O11 0.280212 0.677012 0.000000
O O12 0.767628 0.859996 0.405180
O O13 0.741276 0.835179 0.315148
O O14 0.000000 0.880145 0.351071
O O15 0.788147 0.000000 0.350337
O O16 0.724109 0.142752 0.500000
O O17 0.500000 0.135819 0.556407
O O18 0.680726 0.000000 0.549860
O O19 0.500000 0.214405 0.730511
O O20 0.278986 0.146957 0.774979
O O21 0.500000 0.892572 0.830654
O O22 0.661495 0.749316 0.841696
O O23 0.500000 0.605928 0.852261
#
# Coordination Sequence:
#
# PCOD9384080 Si02
#       8
#     8   8   8   8   8   8   8   8
#     4  10  20  33  51  75 100 124 151 187 233 285
#     4  10  20  30  40  58  83 109 140 180 222 265
#     4   9  18  32  48  64  82 107 140 177 219 266
#     4  10  20  31  44  66  98 135 171 207 248 291
#     4   8  14  26  44  64  88 123 168 214 254 290
#     4  10  20  33  49  69  95 127 162 200 239 282
#     4   8  16  30  45  60  78 106 144 181 218 261
#     4   8  15  29  48  68  87 108 138 175 213 259
#
# _framework density 16.779416000000001
#
# number of rings (size 3 to 8) (size 9 to 14) (size 15 to 20)
#    0.000    2.875    0.000    3.375    0.000    9.000 
#    0.000    5.000    0.000    0.375    0.000    2.625 
#    0.000    0.500    0.000    5.250    0.000    2.500 
#
# Total GULP energy -356486.716084 kJ/mol
# GULP energy per Si atom -5570.104939 kJ/mol
# Density = 1.674123 g / cm^3
# Si number density = 16.779416 Si / 1000 Ang^3
#
#
#
# Elastic Constant Matrix: (Units=GPa)
#
#
# Indices 1 2 3 4 5 6 
#
# 1 34.6635 18.6082 29.8712 0.0000 0.0000 0.0000
# 2 18.6082 48.2060 20.5713 0.0000 0.0000 0.0000
# 3 29.8712 20.5713 121.0849 0.0000 0.0000 0.0000
# 4 0.0000 0.0000 0.0000 3.8366 0.0000 0.0000
# 5 0.0000 0.0000 0.0000 0.0000 10.9769 0.0000
# 6 0.0000 0.0000 0.0000 0.0000 0.0000 24.9686
#
#
#
# Elastic Compliance Matrix: (Units=1/GPa)
#
#
# Indices 1 2 3 4 5 6 
#
# 1 0.043107 -0.013048 -0.008418 0.000000 0.000000 0.000000
# 2 -0.013048 0.026315 -0.001252 0.000000 0.000000 0.000000
# 3 -0.008418 -0.001252 0.010548 0.000000 0.000000 0.000000
# 4 0.000000 0.000000 0.000000 0.260645 0.000000 0.000000
# 5 0.000000 0.000000 0.000000 0.000000 0.091101 0.000000
# 6 0.000000 0.000000 0.000000 0.000000 0.000000 0.040050
#
#
# Mechanical properties :
#
#
# Convention : Reuss Voigt Hill
#
# Bulk Modulus (GPa) = 28.95570 38.00621 33.48096
# Shear Modulus (GPa) = 9.45693 16.94999 13.20346
#
# Velocity S-wave (km/s) = 2.37661 3.18176 2.80819
# Velocity P-wave (km/s) = 4.98249 6.01646 5.52372
#
# Compressibility (1/GPa) = 0.03453551
#
# Stress axis : x y z
#
# Youngs Moduli (GPa) = 23.19806 38.00094 94.80509
#
# Poissons Ratio (x) = 0.49583 0.79804
# Poissons Ratio (y) = 0.30268 0.11869
# Poissons Ratio (z) = 0.19527 0.04757
#
# Static dielectric constant tensor:
#      x y z
#    x 1.557580 0.000000 0.000000 
#    y 0.000000 1.577410 0.000000 
#    z 0.000000 0.000000 1.593830 
# 
# From -- ./inp_files/34460.got.cif
#   From: 2010.05.17/outbox.cif.g08.bks.cpg/sg47_18_cif.got.tgz:34460.got - 2010.06.03 20:15:42.
