data_PCOD9384367
_publ_section_title
;
Structure prediction by ZEFSAII (Michael W. Deem and Ramdas Pophale) SiO2 
 PCOD9384367
Probable space group: P M M M
;
_chemical_formula_sum "Si O2"
_cell_formula_units_Z 52
_cell_length_a 14.274884
_cell_length_b 7.608240
_cell_length_c 24.852012
_cell_angle_alpha 90.000000
_cell_angle_beta 90.000000
_cell_angle_gamma 90.000000
_cell_volume 2699.096091
_symmetry_space_group_name_H-M "P M M M"
_symmetry_group_IT_number 47
_symmetry_cell_setting 'orthorhombic'
loop_
_space_group_symop_operation_xyz
x,y,z
-x,-y,z
x,-y,-z
-x,y,-z
-x,-y,-z
x,y,-z
-x,y,z
x,-y,z
loop_
_atom_site_type_symbol
_atom_site_label
_atom_site_fract_x
_atom_site_fract_y
_atom_site_fract_z
Si Si1 0.711764 0.786248 0.165728
Si Si2 0.895472 0.784904 0.770567
Si Si3 0.292885 0.293375 0.560667
Si Si4 0.603554 0.785556 0.271379
Si Si5 0.213133 0.790663 0.668169
Si Si6 0.607991 0.785425 0.939155
Si Si7 0.500000 0.208564 0.439326
O O1 0.812228 0.728278 0.189259
O O2 0.633730 0.741777 0.210519
O O3 0.677806 0.724715 0.107520
O O4 0.715521 0.000000 0.164197
O O5 0.866210 0.729416 0.709799
O O6 0.000000 0.725789 0.784109
O O7 0.895901 0.000000 0.771713
O O8 0.285188 0.215672 0.500000
O O9 0.286187 0.500000 0.555464
O O10 0.216077 0.240854 0.604674
O O11 0.397960 0.254796 0.582756
O O12 0.500000 0.722652 0.285262
O O13 0.688638 0.721183 0.307993
O O14 0.601938 0.000000 0.275182
O O15 0.214779 0.000000 0.674630
O O16 0.500000 0.734384 0.927960
O O17 0.609224 0.000000 0.938724
O O18 0.631612 0.729993 0.000000
O O19 0.500000 0.285148 0.500000
O O20 0.500000 0.000000 0.441730
#
# Coordination Sequence:
#
# PCOD9384367 Si02
#       7
#     8   8   8   8   8   8   4
#     4   8  12  18  29  45  66  94 127 164 211 258
#     4   8  14  25  40  57  75  94 123 170 224 269
#     4  10  20  32  44  60  86 116 141 167 205 253
#     4   8  13  20  31  50  74  95 120 162 209 247
#     4   9  17  27  42  63  80 101 136 174 213 257
#     4   8  12  16  23  38  63  98 138 174 205 243
#     4   9  17  29  45  63  83 113 151 179 194 221
#
# _framework density 19.265709999999999
#
# number of rings (size 3 to 8) (size 9 to 14) (size 15 to 20)
#    0.000    3.462    0.000    3.462    1.077    3.692 
#    0.000    0.000    0.000    1.385    0.000    6.462 
#    0.000    0.000    0.000    0.000    0.000   12.308 
#
# Total GULP energy -289560.342175 kJ/mol
# GULP energy per Si atom -5568.468119 kJ/mol
# Density = 1.922186 g / cm^3
# Si number density = 19.265710 Si / 1000 Ang^3
#
#
#
# Elastic Constant Matrix: (Units=GPa)
#
#
# Indices 1 2 3 4 5 6 
#
# 1 82.2402 4.2017 40.5357 0.0000 0.0000 0.0000
# 2 4.2017 36.6927 0.7669 0.0000 0.0000 0.0000
# 3 40.5357 0.7669 116.5812 0.0000 0.0000 0.0000
# 4 0.0000 0.0000 0.0000 -22.5765 0.0000 0.0000
# 5 0.0000 0.0000 0.0000 0.0000 22.8050 0.0000
# 6 0.0000 0.0000 0.0000 0.0000 0.0000 6.1069
#
#
#
# Elastic Compliance Matrix: (Units=1/GPa)
#
#
# Indices 1 2 3 4 5 6 
#
# 1 0.014766 -0.001584 -0.005124 0.000000 0.000000 0.000000
# 2 -0.001584 0.027427 0.000370 0.000000 0.000000 0.000000
# 3 -0.005124 0.000370 0.010357 0.000000 0.000000 0.000000
# 4 0.000000 0.000000 0.000000 -0.044294 0.000000 0.000000
# 5 0.000000 0.000000 0.000000 0.000000 0.043850 0.000000
# 6 0.000000 0.000000 0.000000 0.000000 0.000000 0.163750
#
#
# Mechanical properties :
#
#
# Convention : Reuss Voigt Hill
#
# Bulk Modulus (GPa) = 25.07823 36.28029 30.67926
# Shear Modulus (GPa) = 20.67636 13.93441 17.30538
#
# Velocity S-wave (km/s) = 3.27956 2.69230 3.00033
# Velocity P-wave (km/s) = 5.23316 5.34201 5.28786
#
# Compressibility (1/GPa) = 0.03987523
#
# Stress axis : x y z
#
# Youngs Moduli (GPa) = 67.72375 36.46046 96.55485
#
# Poissons Ratio (x) = 0.05774 0.49472
# Poissons Ratio (y) = 0.10726 -0.03575
# Poissons Ratio (z) = 0.34700 -0.01350
#
# Static dielectric constant tensor:
#      x y z
#    x 1.675480 0.000000 0.000000 
#    y 0.000000 1.731180 0.000000 
#    z 0.000000 0.000000 1.727030 
# 
# From -- ./inp_files/32671.got.cif
#   From: 2010.05.17/outbox.cif.g08.bks.cpg/sg47_17_cif.got.tgz:32671.got - 2010.06.03 20:15:42.
