data_PCOD9384514
_publ_section_title
;
Structure prediction by ZEFSAII (Michael W. Deem and Ramdas Pophale) SiO2 
 PCOD9384514
Probable space group: P M M M
;
_chemical_formula_sum "Si O2"
_cell_formula_units_Z 64
_cell_length_a 14.947967
_cell_length_b 9.658186
_cell_length_c 21.469760
_cell_angle_alpha 90.000000
_cell_angle_beta 90.000000
_cell_angle_gamma 90.000000
_cell_volume 3099.594524
_symmetry_space_group_name_H-M "P M M M"
_symmetry_group_IT_number 47
_symmetry_cell_setting 'orthorhombic'
loop_
_space_group_symop_operation_xyz
x,y,z
-x,-y,z
x,-y,-z
-x,y,-z
-x,-y,-z
x,y,-z
-x,y,z
x,-y,z
loop_
_atom_site_type_symbol
_atom_site_label
_atom_site_fract_x
_atom_site_fract_y
_atom_site_fract_z
Si Si1 0.892508 0.650483 0.927351
Si Si2 0.392524 0.658176 0.070338
Si Si3 0.359544 0.157826 0.192600
Si Si4 0.869254 0.344123 0.282320
Si Si5 0.097251 0.838916 0.399866
Si Si6 0.150621 0.152369 0.825150
Si Si7 0.343984 0.659904 0.691452
Si Si8 0.697511 0.164778 0.429889
O O1 0.864074 0.500000 0.901526
O O2 0.850402 0.778128 0.892243
O O3 0.000000 0.658829 0.921758
O O4 0.871046 0.652888 0.000000
O O5 0.500000 0.651770 0.066976
O O6 0.360342 0.500000 0.082909
O O7 0.373733 0.760643 0.127644
O O8 0.361105 0.697903 0.000000
O O9 0.252539 0.142560 0.197157
O O10 0.387592 0.250903 0.252230
O O11 0.395712 0.000000 0.192288
O O12 0.900843 0.500000 0.280370
O O13 0.903106 0.259986 0.341001
O O14 0.894363 0.260315 0.221013
O O15 0.761398 0.348770 0.290614
O O16 0.193983 0.813297 0.430915
O O17 0.000000 0.821235 0.432033
O O18 0.100995 0.000000 0.380460
O O19 0.110691 0.000000 0.824476
O O20 0.376344 0.500000 0.687078
O O21 0.344204 0.743084 0.625651
O O22 0.664345 0.195824 0.500000
O O23 0.683606 0.000000 0.417575
#
# Coordination Sequence:
#
# PCOD9384514 Si02
#       8
#     8   8   8   8   8   8   8   8
#     4   9  19  35  50  62  79 106 142 186 237 292
#     4   9  19  36  56  79 110 147 182 211 240 281
#     4  10  20  33  51  76 105 135 168 208 251 294
#     4   9  17  29  44  60  79 106 141 183 233 284
#     4   9  17  28  41  58  82 113 150 192 239 295
#     4  10  20  32  47  68  91 115 148 192 241 293
#     4   9  17  30  48  68  91 121 159 202 245 290
#     4   9  17  29  45  65  91 123 158 201 255 310
#
# _framework density 20.647862
#
# number of rings (size 3 to 8) (size 9 to 14) (size 15 to 20)
#    0.000    2.750    0.000    2.250    0.000    7.250 
#    0.000    5.000    0.000    0.000    0.000    3.500 
#    0.000    0.500    0.000    5.250    0.000    2.250 
#
# Total GULP energy -356668.065363 kJ/mol
# GULP energy per Si atom -5572.938521 kJ/mol
# Density = 2.060087 g / cm^3
# Si number density = 20.647862 Si / 1000 Ang^3
#
#
#
# Elastic Constant Matrix: (Units=GPa)
#
#
# Indices 1 2 3 4 5 6 
#
# 1 33.4255 7.6639 3.9300 0.0000 0.0000 0.0000
# 2 7.6639 118.5385 118.9724 0.0000 0.0000 0.0000
# 3 3.9300 118.9724 148.9055 0.0000 0.0000 0.0000
# 4 0.0000 0.0000 0.0000 24.0468 0.0000 0.0000
# 5 0.0000 0.0000 0.0000 0.0000 104.0090 0.0000
# 6 0.0000 0.0000 0.0000 0.0000 0.0000 17.5064
#
#
#
# Elastic Compliance Matrix: (Units=1/GPa)
#
#
# Indices 1 2 3 4 5 6 
#
# 1 0.030816 -0.005937 0.003930 0.000000 0.000000 0.000000
# 2 -0.005937 0.043729 -0.034782 0.000000 0.000000 0.000000
# 3 0.003930 -0.034782 0.034402 0.000000 0.000000 0.000000
# 4 0.000000 0.000000 0.000000 0.041586 0.000000 0.000000
# 5 0.000000 0.000000 0.000000 0.000000 0.009615 0.000000
# 6 0.000000 0.000000 0.000000 0.000000 0.000000 0.057122
#
#
# Mechanical properties :
#
#
# Convention : Reuss Voigt Hill
#
# Bulk Modulus (GPa) = 28.27247 62.44469 45.35858
# Shear Modulus (GPa) = 16.52138 40.46599 28.49368
#
# Velocity S-wave (km/s) = 2.83176 4.43178 3.71884
# Velocity P-wave (km/s) = 4.94108 7.51638 6.36043
#
# Compressibility (1/GPa) = 0.03537010
#
# Stress axis : x y z
#
# Youngs Moduli (GPa) = 32.45021 22.86789 29.06789
#
# Poissons Ratio (x) = 0.13576 -0.11424
# Poissons Ratio (y) = 0.19265 1.01105
# Poissons Ratio (z) = -0.12753 0.79540
#
# Static dielectric constant tensor:
#      x y z
#    x 1.787900 0.000000 0.000000 
#    y 0.000000 1.730430 0.000000 
#    z 0.000000 0.000000 2.051110 
# 
# From -- ./inp_files/27043.got.cif
#   From: 2010.05.17/outbox.cif.g08.bks.cpg/sg47_14_cif.got.tgz:27043.got - 2010.06.03 20:15:42.
