data_PCOD9384861
_publ_section_title
;
Structure prediction by ZEFSAII (Michael W. Deem and Ramdas Pophale) SiO2 
 PCOD9384861
Probable space group: P M M M
;
_chemical_formula_sum "Si O2"
_cell_formula_units_Z 40
_cell_length_a 7.904798
_cell_length_b 8.491206
_cell_length_c 28.754217
_cell_angle_alpha 90.000000
_cell_angle_beta 90.000000
_cell_angle_gamma 90.000000
_cell_volume 1930.019511
_symmetry_space_group_name_H-M "P M M M"
_symmetry_group_IT_number 47
_symmetry_cell_setting 'orthorhombic'
loop_
_space_group_symop_operation_xyz
x,y,z
-x,-y,z
x,-y,-z
-x,y,-z
-x,-y,-z
x,y,-z
-x,y,z
x,-y,z
loop_
_atom_site_type_symbol
_atom_site_label
_atom_site_fract_x
_atom_site_fract_y
_atom_site_fract_z
Si Si1 0.798051 0.674919 0.903226
Si Si2 0.295565 0.682531 0.608883
Si Si3 0.305673 0.311942 0.712082
Si Si4 0.202394 0.000000 0.446996
Si Si5 0.307285 0.813830 0.193095
Si Si6 0.207217 0.181341 0.000000
O O1 0.730360 0.500000 0.895619
O O2 0.768000 0.772532 0.856718
O O3 0.000000 0.666361 0.908934
O O4 0.731928 0.742185 0.951961
O O5 0.500000 0.673693 0.611318
O O6 0.240736 0.500000 0.596453
O O7 0.231004 0.721342 0.661230
O O8 0.253827 0.833977 0.577255
O O9 0.500000 0.248432 0.711443
O O10 0.314057 0.500000 0.714812
O O11 0.224223 0.252825 0.759870
O O12 0.267392 0.000000 0.500000
O O13 0.000000 0.000000 0.447704
O O14 0.500000 0.751156 0.191767
O O15 0.310585 0.000000 0.198042
O O16 0.000000 0.189295 0.000000
O O17 0.254818 0.000000 0.000000
#
# Coordination Sequence:
#
# PCOD9384861 Si02
#       6
#     8   8   8   4   8   4
#     4  10  20  34  52  73  98 131 172 215 259 311
#     4   9  19  37  63  91 115 146 195 250 294 335
#     4   8  15  30  53  80 107 136 172 217 270 324
#     4  11  25  41  57  83 121 163 199 232 285 352
#     4  10  20  32  50  78 108 138 171 209 259 318
#     4   9  17  31  52  73  94 125 166 214 266 315
#
# _framework density 20.725176999999999
#
# number of rings (size 3 to 8) (size 9 to 14) (size 15 to 20)
#    0.000    2.600    0.000    3.000    1.400    5.200 
#    0.000    3.500    0.000    4.200    0.000    0.000 
#    0.000    0.000    0.000    0.000    0.000    0.000 
#
# Total GULP energy -222825.492642 kJ/mol
# GULP energy per Si atom -5570.637316 kJ/mol
# Density = 2.067801 g / cm^3
# Si number density = 20.725177 Si / 1000 Ang^3
#
#
#
# Elastic Constant Matrix: (Units=GPa)
#
#
# Indices 1 2 3 4 5 6 
#
# 1 23.0767 9.6602 10.3947 0.0000 0.0000 0.0000
# 2 9.6602 92.3474 89.4992 0.0000 0.0000 0.0000
# 3 10.3947 89.4992 197.5276 0.0000 0.0000 0.0000
# 4 0.0000 0.0000 0.0000 61.5419 0.0000 0.0000
# 5 0.0000 0.0000 0.0000 0.0000 -7.0461 0.0000
# 6 0.0000 0.0000 0.0000 0.0000 0.0000 13.5148
#
#
#
# Elastic Compliance Matrix: (Units=1/GPa)
#
#
# Indices 1 2 3 4 5 6 
#
# 1 0.045338 -0.004333 -0.000423 0.000000 0.000000 0.000000
# 2 -0.004333 0.019721 -0.008707 0.000000 0.000000 0.000000
# 3 -0.000423 -0.008707 0.009030 0.000000 0.000000 0.000000
# 4 0.000000 0.000000 0.000000 0.016249 0.000000 0.000000
# 5 0.000000 0.000000 0.000000 0.000000 -0.141922 0.000000
# 6 0.000000 0.000000 0.000000 0.000000 0.000000 0.073993
#
#
# Mechanical properties :
#
#
# Convention : Reuss Voigt Hill
#
# Bulk Modulus (GPa) = 21.20321 59.11778 40.16050
# Shear Modulus (GPa) = 76.85721 27.16197 52.00959
#
# Velocity S-wave (km/s) = 6.09627 3.62412 5.01491
# Velocity P-wave (km/s) = 7.73340 6.78961 7.27683
#
# Compressibility (1/GPa) = 0.04716267
#
# Stress axis : x y z
#
# Youngs Moduli (GPa) = 22.05658 50.70779 110.74038
#
# Poissons Ratio (x) = 0.21973 0.04679
# Poissons Ratio (y) = 0.09558 0.96426
# Poissons Ratio (z) = 0.00932 0.44153
#
# Static dielectric constant tensor:
#      x y z
#    x 1.786900 0.000000 0.000000 
#    y 0.000000 1.722290 0.000000 
#    z 0.000000 0.000000 1.820290 
# 
# From -- ./inp_files/33019.got.cif
#   From: 2010.05.17/outbox.cif.g08.bks.cpg/sg47_17_cif.got.tgz:33019.got - 2010.06.03 20:15:42.
