data_PCOD9384002
_publ_section_title
;
Structure prediction by ZEFSAII (Michael W. Deem and Ramdas Pophale) SiO2 
 PCOD9384002
Probable space group: P M M M
;
_chemical_formula_sum "Si O2"
_cell_formula_units_Z 40
_cell_length_a 7.311959
_cell_length_b 24.407311
_cell_length_c 11.317365
_cell_angle_alpha 90.000000
_cell_angle_beta 90.000000
_cell_angle_gamma 90.000000
_cell_volume 2019.756457
_symmetry_space_group_name_H-M "P M M M"
_symmetry_group_IT_number 47
_symmetry_cell_setting 'orthorhombic'
loop_
_space_group_symop_operation_xyz
x,y,z
-x,-y,z
x,-y,-z
-x,y,-z
-x,-y,-z
x,y,-z
-x,y,z
x,-y,z
loop_
_atom_site_type_symbol
_atom_site_label
_atom_site_fract_x
_atom_site_fract_y
_atom_site_fract_z
Si Si1 0.777184 0.368199 0.636077
Si Si2 0.219055 0.130078 0.733107
Si Si3 0.778044 0.757248 0.634378
Si Si4 0.500000 0.939318 0.862748
Si Si5 0.778685 0.937327 0.500000
Si Si6 0.222271 0.563984 0.132734
O O1 0.721496 0.383011 0.500000
O O2 0.721712 0.305026 0.658374
O O3 0.717350 0.404225 0.748716
O O4 0.000000 0.370068 0.634522
O O5 0.277348 0.193318 0.718840
O O6 0.323987 0.096299 0.830380
O O7 0.271432 0.097609 0.614002
O O8 0.000000 0.128284 0.746474
O O9 0.723062 0.770623 0.500000
O O10 0.000000 0.757075 0.635347
O O11 0.500000 0.000000 0.805037
O O12 0.500000 0.946788 0.000000
O O13 0.000000 0.939748 0.500000
O O14 0.713224 0.000000 0.500000
O O15 0.272791 0.500000 0.142053
O O16 0.000000 0.566603 0.132941
O O17 0.279085 0.583295 0.000000
#
# Coordination Sequence:
#
# PCOD9384002 Si02
#       6
#     8   8   8   4   4   8
#     4   8  13  20  33  54  79 111 153 198 247 306
#     4  10  19  35  58  80 105 136 167 209 266 320
#     4   8  13  25  45  69  96 123 152 195 255 316
#     4  11  26  43  55  73 103 140 184 223 252 299
#     4   9  16  27  49  81 106 123 152 199 255 314
#     4   8  13  20  28  41  69 111 156 204 255 299
#
# _framework density 19.804366999999999
#
# number of rings (size 3 to 8) (size 9 to 14) (size 15 to 20)
#    0.000    3.200    1.000    2.400    0.000    2.400 
#    0.000    5.000    0.000    3.600    0.000    0.000 
#    0.000    0.000    0.000    0.900    0.000   14.000 
#
# Total GULP energy -222880.939057 kJ/mol
# GULP energy per Si atom -5572.023476 kJ/mol
# Density = 1.975929 g / cm^3
# Si number density = 19.804367 Si / 1000 Ang^3
#
#
#
# Elastic Constant Matrix: (Units=GPa)
#
#
# Indices 1 2 3 4 5 6 
#
# 1 77.7567 17.8914 21.3676 0.0000 0.0000 0.0000
# 2 17.8914 130.0624 90.1133 0.0000 0.0000 0.0000
# 3 21.3676 90.1133 145.1301 0.0000 0.0000 0.0000
# 4 0.0000 0.0000 0.0000 58.8568 0.0000 0.0000
# 5 0.0000 0.0000 0.0000 0.0000 -1.2042 0.0000
# 6 0.0000 0.0000 0.0000 0.0000 0.0000 -24.4286
#
#
#
# Elastic Compliance Matrix: (Units=1/GPa)
#
#
# Indices 1 2 3 4 5 6 
#
# 1 0.013455 -0.000840 -0.001460 0.000000 0.000000 0.000000
# 2 -0.000840 0.013546 -0.008287 0.000000 0.000000 0.000000
# 3 -0.001460 -0.008287 0.012251 0.000000 0.000000 0.000000
# 4 0.000000 0.000000 0.000000 0.016990 0.000000 0.000000
# 5 0.000000 0.000000 0.000000 0.000000 -0.830441 0.000000
# 6 0.000000 0.000000 0.000000 0.000000 0.000000 -0.040936
#
#
# Mechanical properties :
#
#
# Convention : Reuss Voigt Hill
#
# Bulk Modulus (GPa) = 55.31324 67.96596 61.63960
# Shear Modulus (GPa) = -6.34570 21.54993 7.60212
#
# Velocity S-wave (km/s) = -1.79197 3.30228 1.96136
# Velocity P-wave (km/s) = 4.86918 6.99523 6.02670
#
# Compressibility (1/GPa) = 0.01807885
#
# Stress axis : x y z
#
# Youngs Moduli (GPa) = 74.32226 73.82325 81.62645
#
# Poissons Ratio (x) = 0.06197 0.11915
# Poissons Ratio (y) = 0.06239 0.67646
# Poissons Ratio (z) = 0.10849 0.61179
#
# Static dielectric constant tensor:
#      x y z
#    x 1.817270 0.000000 0.000000 
#    y 0.000000 1.682820 0.000000 
#    z 0.000000 0.000000 1.682550 
# 
# From -- ./inp_files/1864.got.cif
#   From: 2010.05.17/outbox.cif.g08.bks.cpg/sg47_1_cif.got.tgz:1864.got - 2010.06.03 20:15:42.
