data_PCOD9384280
_publ_section_title
;
Structure prediction by ZEFSAII (Michael W. Deem and Ramdas Pophale) SiO2 
 PCOD9384280
Probable space group: P M M M
;
_chemical_formula_sum "Si O2"
_cell_formula_units_Z 44
_cell_length_a 9.349197
_cell_length_b 8.128032
_cell_length_c 31.437625
_cell_angle_alpha 90.000000
_cell_angle_beta 90.000000
_cell_angle_gamma 90.000000
_cell_volume 2388.963118
_symmetry_space_group_name_H-M "P M M M"
_symmetry_group_IT_number 47
_symmetry_cell_setting 'orthorhombic'
loop_
_space_group_symop_operation_xyz
x,y,z
-x,-y,z
x,-y,-z
-x,y,-z
-x,-y,-z
x,y,-z
-x,y,z
x,-y,z
loop_
_atom_site_type_symbol
_atom_site_label
_atom_site_fract_x
_atom_site_fract_y
_atom_site_fract_z
Si Si1 0.332065 0.197877 0.454081
Si Si2 0.162818 0.198102 0.281785
Si Si3 0.662448 0.695611 0.363646
Si Si4 0.328027 0.685014 0.895454
Si Si5 0.325947 0.000000 0.048774
Si Si6 0.171658 0.196554 0.812549
O O1 0.271964 0.253657 0.500000
O O2 0.500000 0.248982 0.453778
O O3 0.270287 0.255609 0.409191
O O4 0.328715 0.000000 0.453967
O O5 0.254341 0.247136 0.322209
O O6 0.215592 0.251742 0.235032
O O7 0.000000 0.258072 0.287029
O O8 0.158266 0.000000 0.279839
O O9 0.500000 0.763845 0.362285
O O10 0.655089 0.500000 0.362793
O O11 0.500000 0.697038 0.890482
O O12 0.296008 0.500000 0.911296
O O13 0.282224 0.834285 0.926330
O O14 0.253104 0.713148 0.850179
O O15 0.500000 0.000000 0.048223
O O16 0.276842 0.000000 0.000000
O O17 0.000000 0.219272 0.815715
O O18 0.199201 0.000000 0.816547
#
# Coordination Sequence:
#
# PCOD9384280 Si02
#       6
#     8   8   8   8   4   8
#     4   8  14  26  45  67  90 119 157 199 242 291
#     4   9  19  35  53  72  95 129 172 210 247 297
#     4  10  20  31  45  70 102 131 160 198 246 299
#     4  10  20  33  53  82 111 140 177 219 262 310
#     4   9  18  34  55  79 111 147 179 217 264 309
#     4   9  18  34  55  76 100 134 175 216 260 311
#
# _framework density 18.418033000000001
#
# number of rings (size 3 to 8) (size 9 to 14) (size 15 to 20)
#    0.000    2.818    0.909    2.182    0.000    4.000 
#    0.000    9.091    0.000    1.636    0.000    5.091 
#    0.000    0.000    0.000    0.000    0.000    0.000 
#
# Total GULP energy -245110.519598 kJ/mol
# GULP energy per Si atom -5570.693627 kJ/mol
# Density = 1.837611 g / cm^3
# Si number density = 18.418033 Si / 1000 Ang^3
#
#
#
# Elastic Constant Matrix: (Units=GPa)
#
#
# Indices 1 2 3 4 5 6 
#
# 1 15.0190 18.4563 37.8172 0.0000 0.0000 0.0000
# 2 18.4563 73.9813 62.4438 0.0000 0.0000 0.0000
# 3 37.8172 62.4438 186.2448 0.0000 0.0000 0.0000
# 4 0.0000 0.0000 0.0000 -4.8075 0.0000 0.0000
# 5 0.0000 0.0000 0.0000 0.0000 -49.0546 0.0000
# 6 0.0000 0.0000 0.0000 0.0000 0.0000 15.4637
#
#
#
# Elastic Compliance Matrix: (Units=1/GPa)
#
#
# Indices 1 2 3 4 5 6 
#
# 1 0.149008 -0.016228 -0.024815 0.000000 0.000000 0.000000
# 2 -0.016228 0.020619 -0.003618 0.000000 0.000000 0.000000
# 3 -0.024815 -0.003618 0.011621 0.000000 0.000000 0.000000
# 4 0.000000 0.000000 0.000000 -0.208009 0.000000 0.000000
# 5 0.000000 0.000000 0.000000 0.000000 -0.020385 0.000000
# 6 0.000000 0.000000 0.000000 0.000000 0.000000 0.064668
#
#
# Mechanical properties :
#
#
# Convention : Reuss Voigt Hill
#
# Bulk Modulus (GPa) = 10.87838 56.96440 33.92139
# Shear Modulus (GPa) = 36.36741 2.75551 19.56146
#
# Velocity S-wave (km/s) = 4.44842 1.22448 3.26250
# Velocity P-wave (km/s) = 5.68364 5.74412 5.71396
#
# Compressibility (1/GPa) = 0.09192545
#
# Stress axis : x y z
#
# Youngs Moduli (GPa) = 6.71106 48.49851 86.05043
#
# Poissons Ratio (x) = 0.78703 2.13536
# Poissons Ratio (y) = 0.10891 0.31134
# Poissons Ratio (z) = 0.16654 0.17547
#
# Static dielectric constant tensor:
#      x y z
#    x 1.628760 0.000000 0.000000 
#    y 0.000000 1.652150 0.000000 
#    z 0.000000 0.000000 1.650240 
# 
# From -- ./inp_files/33950.got.cif
#   From: 2010.05.17/outbox.cif.g08.bks.cpg/sg47_17_cif.got.tgz:33950.got - 2010.06.03 20:15:42.
