data_PCOD9384934
_publ_section_title
;
Structure prediction by ZEFSAII (Michael W. Deem and Ramdas Pophale) SiO2 
 PCOD9384934
Probable space group: P M M M
;
_chemical_formula_sum "Si O2"
_cell_formula_units_Z 52
_cell_length_a 24.104183
_cell_length_b 8.505983
_cell_length_c 14.884227
_cell_angle_alpha 90.000000
_cell_angle_beta 90.000000
_cell_angle_gamma 90.000000
_cell_volume 3051.709651
_symmetry_space_group_name_H-M "P M M M"
_symmetry_group_IT_number 47
_symmetry_cell_setting 'orthorhombic'
loop_
_space_group_symop_operation_xyz
x,y,z
-x,-y,z
x,-y,-z
-x,y,-z
-x,-y,-z
x,y,-z
-x,y,z
x,-y,z
loop_
_atom_site_type_symbol
_atom_site_label
_atom_site_fract_x
_atom_site_fract_y
_atom_site_fract_z
Si Si1 0.118442 0.312435 0.896286
Si Si2 0.605839 0.310174 0.400669
Si Si3 0.000000 0.817740 0.108721
Si Si4 0.731523 0.189967 0.599981
Si Si5 0.438960 0.691928 0.210776
Si Si6 0.329465 0.690432 0.104304
Si Si7 0.777070 0.188133 0.787602
O O1 0.120254 0.500000 0.898546
O O2 0.167920 0.251257 0.834835
O O3 0.057771 0.259824 0.862762
O O4 0.125632 0.255211 0.000000
O O5 0.587055 0.256566 0.500000
O O6 0.604636 0.500000 0.400895
O O7 0.669399 0.256339 0.388695
O O8 0.571608 0.258099 0.313869
O O9 0.000000 0.000000 0.133544
O O10 0.000000 0.805234 0.000000
O O11 0.751042 0.236543 0.500000
O O12 0.768460 0.240881 0.684291
O O13 0.727993 0.000000 0.602059
O O14 0.500000 0.742994 0.180197
O O15 0.438622 0.500000 0.209471
O O16 0.386926 0.742485 0.150700
O O17 0.327366 0.500000 0.108673
O O18 0.276850 0.755631 0.157590
O O19 0.327503 0.736377 0.000000
O O20 0.778831 0.000000 0.789011
#
# Coordination Sequence:
#
# PCOD9384934 Si02
#       7
#     8   8   4   8   8   8   8
#     4  10  20  33  50  74 106 142 174 203 238 281
#     4   9  16  27  46  69  90 114 146 189 242 297
#     4   9  17  31  51  75 106 141 176 211 241 274
#     4   9  18  32  49  69  94 123 154 192 242 296
#     4   9  17  29  45  66  91 118 152 195 242 295
#     4  10  20  33  48  66  91 123 159 201 246 290
#     4  11  21  32  50  74  98 126 161 202 245 290
#
# _framework density 17.039629000000001
#
# number of rings (size 3 to 8) (size 9 to 14) (size 15 to 20)
#    0.000    2.385    1.538    1.615    0.000    5.231 
#    0.000    3.077    0.000    1.846    0.000    3.769 
#    0.000    4.308    0.000    0.000    0.000    0.000 
#
# Total GULP energy -289956.656697 kJ/mol
# GULP energy per Si atom -5576.089552 kJ/mol
# Density = 1.700085 g / cm^3
# Si number density = 17.039629 Si / 1000 Ang^3
#
#
#
# Elastic Constant Matrix: (Units=GPa)
#
#
# Indices 1 2 3 4 5 6 
#
# 1 141.4243 24.3572 75.5752 0.0000 0.0000 0.0000
# 2 24.3572 12.8422 22.2315 0.0000 0.0000 0.0000
# 3 75.5752 22.2315 108.6275 0.0000 0.0000 0.0000
# 4 0.0000 0.0000 0.0000 16.6875 0.0000 0.0000
# 5 0.0000 0.0000 0.0000 0.0000 24.2006 0.0000
# 6 0.0000 0.0000 0.0000 0.0000 0.0000 387.5584
#
#
#
# Elastic Compliance Matrix: (Units=1/GPa)
#
#
# Indices 1 2 3 4 5 6 
#
# 1 0.012608 -0.013517 -0.006005 0.000000 0.000000 0.000000
# 2 -0.013517 0.135085 -0.018242 0.000000 0.000000 0.000000
# 3 -0.006005 -0.018242 0.017117 0.000000 0.000000 0.000000
# 4 0.000000 0.000000 0.000000 0.059925 0.000000 0.000000
# 5 0.000000 0.000000 0.000000 0.000000 0.041321 0.000000
# 6 0.000000 0.000000 0.000000 0.000000 0.000000 0.002580
#
#
# Mechanical properties :
#
#
# Convention : Reuss Voigt Hill
#
# Bulk Modulus (GPa) = 11.20054 56.35798 33.77926
# Shear Modulus (GPa) = 13.37159 95.07130 54.22145
#
# Velocity S-wave (km/s) = 2.80435 7.47766 5.64711
# Velocity P-wave (km/s) = 4.13199 10.37787 7.89853
#
# Compressibility (1/GPa) = 0.08928141
#
# Stress axis : x y z
#
# Youngs Moduli (GPa) = 79.31354 7.40274 58.42027
#
# Poissons Ratio (x) = 0.10006 0.35084
# Poissons Ratio (y) = 1.07209 1.06571
# Poissons Ratio (z) = 0.47632 0.13504
#
# Static dielectric constant tensor:
#      x y z
#    x 1.554570 0.000000 0.000000 
#    y 0.000000 1.588100 0.000000 
#    z 0.000000 0.000000 1.598430 
# 
# From -- ./inp_files/12499.got.cif
#   From: 2010.05.17/outbox.cif.g08.bks.cpg/sg47_7_cif.got.tgz:12499.got - 2010.06.03 20:15:42.
