data_PCOD9384187
_publ_section_title
;
Structure prediction by ZEFSAII (Michael W. Deem and Ramdas Pophale) SiO2 
 PCOD9384187
Probable space group: P M M M
;
_chemical_formula_sum "Si O2"
_cell_formula_units_Z 52
_cell_length_a 20.912959
_cell_length_b 14.604253
_cell_length_c 8.581285
_cell_angle_alpha 90.000000
_cell_angle_beta 90.000000
_cell_angle_gamma 90.000000
_cell_volume 2620.880140
_symmetry_space_group_name_H-M "P M M M"
_symmetry_group_IT_number 47
_symmetry_cell_setting 'orthorhombic'
loop_
_space_group_symop_operation_xyz
x,y,z
-x,-y,z
x,-y,-z
-x,y,-z
-x,-y,-z
x,y,-z
-x,y,z
x,-y,z
loop_
_atom_site_type_symbol
_atom_site_label
_atom_site_fract_x
_atom_site_fract_y
_atom_site_fract_z
Si Si1 0.240320 0.856742 0.322865
Si Si2 0.107817 0.099373 0.815273
Si Si3 0.797052 0.642407 0.322159
Si Si4 0.500000 0.107070 0.687021
Si Si5 0.929767 0.296359 0.311812
Si Si6 0.335625 0.597960 0.814224
Si Si7 0.371837 0.199199 0.812529
O O1 0.240141 0.891703 0.500000
O O2 0.183600 0.899625 0.222565
O O3 0.220762 0.749834 0.329574
O O4 0.310768 0.857178 0.250652
O O5 0.079445 0.190397 0.737613
O O6 0.082516 0.000000 0.761860
O O7 0.097859 0.106390 0.000000
O O8 0.795839 0.607155 0.500000
O O9 0.869192 0.643521 0.257289
O O10 0.739904 0.600549 0.223656
O O11 0.500000 0.113072 0.500000
O O12 0.437002 0.155712 0.752877
O O13 0.500000 0.000000 0.731183
O O14 0.926731 0.298878 0.500000
O O15 0.000000 0.327514 0.261203
O O16 0.361131 0.500000 0.753283
O O17 0.364491 0.694493 0.756859
O O18 0.344261 0.598360 0.000000
O O19 0.369759 0.198879 0.000000
#
# Coordination Sequence:
#
# PCOD9384187 Si02
#       7
#     8   8   8   4   8   8   8
#     4   9  17  31  51  72  96 128 166 210 259 309
#     4  10  20  31  43  64  94 125 163 215 269 320
#     4   8  15  28  47  72  98 125 163 209 252 299
#     4  11  25  43  60  79 108 148 189 225 262 307
#     4   9  18  32  48  65  89 126 170 214 264 322
#     4   9  18  33  55  84 114 141 170 208 260 319
#     4  10  20  36  59  84 111 143 179 221 264 308
#
# _framework density 19.840662999999999
#
# number of rings (size 3 to 8) (size 9 to 14) (size 15 to 20)
#    0.000    2.692    0.000    2.538    0.000    7.692 
#    0.000    1.923    0.000    2.769    0.000    3.231 
#    0.000    0.000    0.000    0.000    0.000    0.000 
#
# Total GULP energy -289842.120494 kJ/mol
# GULP energy per Si atom -5573.886933 kJ/mol
# Density = 1.979550 g / cm^3
# Si number density = 19.840663 Si / 1000 Ang^3
#
#
#
# Elastic Constant Matrix: (Units=GPa)
#
#
# Indices 1 2 3 4 5 6 
#
# 1 126.8224 18.7856 5.8842 0.0000 0.0000 0.0000
# 2 18.7856 77.3428 1.5014 0.0000 0.0000 0.0000
# 3 5.8842 1.5014 15.1909 0.0000 0.0000 0.0000
# 4 0.0000 0.0000 0.0000 -15.2632 0.0000 0.0000
# 5 0.0000 0.0000 0.0000 0.0000 1.2077 0.0000
# 6 0.0000 0.0000 0.0000 0.0000 0.0000 4.3694
#
#
#
# Elastic Compliance Matrix: (Units=1/GPa)
#
#
# Indices 1 2 3 4 5 6 
#
# 1 0.008316 -0.001961 -0.003027 0.000000 0.000000 0.000000
# 2 -0.001961 0.013417 -0.000566 0.000000 0.000000 0.000000
# 3 -0.003027 -0.000566 0.067058 0.000000 0.000000 0.000000
# 4 0.000000 0.000000 0.000000 -0.065517 0.000000 0.000000
# 5 0.000000 0.000000 0.000000 0.000000 0.828031 0.000000
# 6 0.000000 0.000000 0.000000 0.000000 0.000000 0.228863
#
#
# Mechanical properties :
#
#
# Convention : Reuss Voigt Hill
#
# Bulk Modulus (GPa) = 12.87325 30.18873 21.53099
# Shear Modulus (GPa) = 4.47559 10.94178 7.70869
#
# Velocity S-wave (km/s) = 1.50355 2.35091 1.97325
# Velocity P-wave (km/s) = 3.08490 4.75580 4.00839
#
# Compressibility (1/GPa) = 0.07768046
#
# Stress axis : x y z
#
# Youngs Moduli (GPa) = 120.25030 74.53355 14.91257
#
# Poissons Ratio (x) = 0.14617 0.04515
# Poissons Ratio (y) = 0.23582 0.00845
# Poissons Ratio (z) = 0.36404 0.04222
#
# Static dielectric constant tensor:
#      x y z
#    x 1.701720 0.000000 0.000000 
#    y 0.000000 1.754140 0.000000 
#    z 0.000000 0.000000 1.678510 
# 
# From -- ./inp_files/11083.got.cif
#   From: 2010.05.17/outbox.cif.g08.bks.cpg/sg47_6_cif.got.tgz:11083.got - 2010.06.03 20:15:42.
