data_PCOD9384755
_publ_section_title
;
Structure prediction by ZEFSAII (Michael W. Deem and Ramdas Pophale) SiO2 
 PCOD9384755
Probable space group: P M M M
;
_chemical_formula_sum "Si O2"
_cell_formula_units_Z 44
_cell_length_a 19.061510
_cell_length_b 7.653560
_cell_length_c 14.123839
_cell_angle_alpha 90.000000
_cell_angle_beta 90.000000
_cell_angle_gamma 90.000000
_cell_volume 2060.504422
_symmetry_space_group_name_H-M "P M M M"
_symmetry_group_IT_number 47
_symmetry_cell_setting 'orthorhombic'
loop_
_space_group_symop_operation_xyz
x,y,z
-x,-y,z
x,-y,-z
-x,y,-z
-x,-y,-z
x,y,-z
-x,y,z
x,-y,z
loop_
_atom_site_type_symbol
_atom_site_label
_atom_site_fract_x
_atom_site_fract_y
_atom_site_fract_z
Si Si1 0.585465 0.297480 0.500000
Si Si2 0.920201 0.712023 0.702128
Si Si3 0.782872 0.206126 0.602274
Si Si4 0.420083 0.710756 0.292885
Si Si5 0.851061 0.704548 0.103125
Si Si6 0.282884 0.207057 0.795230
O O1 0.607855 0.500000 0.500000
O O2 0.500000 0.297165 0.500000
O O3 0.604394 0.220491 0.397244
O O4 0.918370 0.500000 0.702554
O O5 0.865388 0.772862 0.623305
O O6 0.890979 0.775865 0.804430
O O7 0.000000 0.767533 0.687595
O O8 0.763572 0.280927 0.500000
O O9 0.745896 0.282242 0.695088
O O10 0.766977 0.000000 0.600317
O O11 0.500000 0.769705 0.276582
O O12 0.421669 0.500000 0.300032
O O13 0.365382 0.759507 0.211613
O O14 0.869498 0.500000 0.099632
O O15 0.767947 0.718071 0.124977
O O16 0.867177 0.781406 0.000000
O O17 0.271303 0.000000 0.797689
#
# Coordination Sequence:
#
# PCOD9384755 Si02
#       6
#     4   8   8   8   8   8
#     4   7  12  24  41  63  91 123 158 193 230 273
#     4   9  18  32  50  75 103 125 154 200 247 290
#     4   9  19  34  48  65  95 136 175 203 232 278
#     4   9  17  30  48  70  98 131 166 203 243 289
#     4   9  18  34  55  75  96 125 160 197 243 301
#     4  10  20  32  49  72  99 130 164 206 248 288
#
# _framework density 21.353992999999999
#
# number of rings (size 3 to 8) (size 9 to 14) (size 15 to 20)
#    0.000    3.000    0.000    1.636    1.273    2.909 
#    0.000    3.636    0.000    2.182    0.000    8.909 
#    0.000    0.000    0.000    0.000    0.000    0.000 
#
# Total GULP energy -245350.506370 kJ/mol
# GULP energy per Si atom -5576.147872 kJ/mol
# Density = 2.130539 g / cm^3
# Si number density = 21.353993 Si / 1000 Ang^3
#
#
#
# Elastic Constant Matrix: (Units=GPa)
#
#
# Indices 1 2 3 4 5 6 
#
# 1 64.0542 -9.4403 -18.1478 0.0000 0.0000 0.0000
# 2 -9.4403 47.7191 0.8143 0.0000 0.0000 0.0000
# 3 -18.1478 0.8143 43.8362 0.0000 0.0000 0.0000
# 4 0.0000 0.0000 0.0000 6.0255 0.0000 0.0000
# 5 0.0000 0.0000 0.0000 0.0000 15.0302 0.0000
# 6 0.0000 0.0000 0.0000 0.0000 0.0000 804.5137
#
#
#
# Elastic Compliance Matrix: (Units=1/GPa)
#
#
# Indices 1 2 3 4 5 6 
#
# 1 0.018247 0.003482 0.007489 0.000000 0.000000 0.000000
# 2 0.003482 0.021627 0.001040 0.000000 0.000000 0.000000
# 3 0.007489 0.001040 0.025893 0.000000 0.000000 0.000000
# 4 0.000000 0.000000 0.000000 0.165962 0.000000 0.000000
# 5 0.000000 0.000000 0.000000 0.000000 0.066533 0.000000
# 6 0.000000 0.000000 0.000000 0.000000 0.000000 0.001243
#
#
# Mechanical properties :
#
#
# Convention : Reuss Voigt Hill
#
# Bulk Modulus (GPa) = 11.13715 11.34020 11.23868
# Shear Modulus (GPa) = 16.37131 177.27274 96.82202
#
# Velocity S-wave (km/s) = 2.77187 9.12121 6.74091
# Velocity P-wave (km/s) = 3.93334 10.78196 8.11547
#
# Compressibility (1/GPa) = 0.08978955
#
# Stress axis : x y z
#
# Youngs Moduli (GPa) = 54.80401 46.23833 38.61983
#
# Poissons Ratio (x) = -0.16100 -0.28924
# Poissons Ratio (y) = -0.19083 -0.04016
# Poissons Ratio (z) = -0.41045 -0.04808
#
# Static dielectric constant tensor:
#      x y z
#    x 1.808960 0.000000 0.000000 
#    y 0.000000 1.798980 0.000000 
#    z 0.000000 0.000000 1.789630 
# 
# From -- ./inp_files/8942.got.cif
#   From: 2010.05.17/outbox.cif.g08.bks.cpg/sg47_5_cif.got.tgz:8942.got - 2010.06.03 20:15:42.
