data_PCOD9384740
_publ_section_title
;
Structure prediction by ZEFSAII (Michael W. Deem and Ramdas Pophale) SiO2 
 PCOD9384740
Probable space group: P M M M
;
_chemical_formula_sum "Si O2"
_cell_formula_units_Z 48
_cell_length_a 29.985988
_cell_length_b 10.227966
_cell_length_c 8.126715
_cell_angle_alpha 90.000000
_cell_angle_beta 90.000000
_cell_angle_gamma 90.000000
_cell_volume 2492.428267
_symmetry_space_group_name_H-M "P M M M"
_symmetry_group_IT_number 47
_symmetry_cell_setting 'orthorhombic'
loop_
_space_group_symop_operation_xyz
x,y,z
-x,-y,z
x,-y,-z
-x,y,-z
-x,-y,-z
x,y,-z
-x,y,z
x,-y,z
loop_
_atom_site_type_symbol
_atom_site_label
_atom_site_fract_x
_atom_site_fract_y
_atom_site_fract_z
Si Si1 0.550550 0.000000 0.304120
Si Si2 0.605867 0.249218 0.804320
Si Si3 0.948444 0.352640 0.799290
Si Si4 0.202014 0.350065 0.300943
Si Si5 0.696442 0.352433 0.302315
Si Si6 0.125906 0.849498 0.801937
Si Si7 0.448538 0.500000 0.798361
O O1 0.578535 0.875681 0.249420
O O2 0.500000 0.000000 0.236382
O O3 0.547627 0.000000 0.500000
O O4 0.657005 0.257144 0.748705
O O5 0.578551 0.374176 0.740300
O O6 0.606010 0.255759 0.000000
O O7 0.934424 0.500000 0.747631
O O8 0.916131 0.237217 0.741437
O O9 0.000000 0.333776 0.750631
O O10 0.947440 0.352319 0.000000
O O11 0.200897 0.349818 0.500000
O O12 0.190643 0.500000 0.248264
O O13 0.253104 0.322854 0.247728
O O14 0.168759 0.238966 0.239532
O O15 0.697568 0.356008 0.500000
O O16 0.685413 0.500000 0.242837
O O17 0.127503 0.000000 0.741020
O O18 0.122509 0.856462 0.000000
O O19 0.500000 0.500000 0.745936
O O20 0.448798 0.500000 0.000000
#
# Coordination Sequence:
#
# PCOD9384740 Si02
#       7
#     4   8   8   8   8   8   4
#     4  11  25  43  59  79 111 151 191 225 262 315
#     4  11  21  36  59  86 114 144 179 222 273 324
#     4   8  14  26  46  72 102 138 180 223 269 322
#     4   9  19  36  57  78 101 138 183 222 266 321
#     4   9  18  35  58  82 109 139 176 223 272 326
#     4  10  20  32  48  76 111 143 177 221 271 321
#     4   9  18  32  53  83 115 141 169 211 264 321
#
# _framework density 19.258327999999999
#
# number of rings (size 3 to 8) (size 9 to 14) (size 15 to 20)
#    0.000    2.500    0.833    3.250    0.000    3.667 
#    1.500    3.333    0.000    2.500    0.000    3.500 
#    0.000    0.000    0.000    0.000    0.000    0.000 
#
# Total GULP energy -267748.205104 kJ/mol
# GULP energy per Si atom -5578.087606 kJ/mol
# Density = 1.921449 g / cm^3
# Si number density = 19.258328 Si / 1000 Ang^3
#
#
#
# Elastic Constant Matrix: (Units=GPa)
#
#
# Indices 1 2 3 4 5 6 
#
# 1 159.2270 114.1877 10.8817 0.0000 0.0000 0.0000
# 2 114.1877 185.4090 12.3123 0.0000 0.0000 0.0000
# 3 10.8817 12.3123 11.6668 0.0000 0.0000 0.0000
# 4 0.0000 0.0000 0.0000 61.1029 0.0000 0.0000
# 5 0.0000 0.0000 0.0000 0.0000 27.4282 0.0000
# 6 0.0000 0.0000 0.0000 0.0000 0.0000 32.0382
#
#
#
# Elastic Compliance Matrix: (Units=1/GPa)
#
#
# Indices 1 2 3 4 5 6 
#
# 1 0.011377 -0.006777 -0.003459 0.000000 0.000000 0.000000
# 2 -0.006777 0.009837 -0.004060 0.000000 0.000000 0.000000
# 3 -0.003459 -0.004060 0.093225 0.000000 0.000000 0.000000
# 4 0.000000 0.000000 0.000000 0.016366 0.000000 0.000000
# 5 0.000000 0.000000 0.000000 0.000000 0.036459 0.000000
# 6 0.000000 0.000000 0.000000 0.000000 0.000000 0.031213
#
#
# Mechanical properties :
#
#
# Convention : Reuss Voigt Hill
#
# Bulk Modulus (GPa) = 11.64883 70.11846 40.88364
# Shear Modulus (GPa) = 19.55543 38.70863 29.13203
#
# Velocity S-wave (km/s) = 3.19003 4.48813 3.89356
# Velocity P-wave (km/s) = 4.43061 7.95903 6.44114
#
# Compressibility (1/GPa) = 0.08584554
#
# Stress axis : x y z
#
# Youngs Moduli (GPa) = 87.89924 101.65987 10.72675
#
# Poissons Ratio (x) = 0.68893 0.03711
# Poissons Ratio (y) = 0.59568 0.04355
# Poissons Ratio (z) = 0.30408 0.41275
#
# Static dielectric constant tensor:
#      x y z
#    x 1.674940 0.000000 0.000000 
#    y 0.000000 1.634600 0.000000 
#    z 0.000000 0.000000 1.682870 
# 
# From -- ./inp_files/13825.got.cif
#   From: 2010.05.17/outbox.cif.g08.bks.cpg/sg47_7_cif.got.tgz:13825.got - 2010.06.03 20:15:42.
