data_PCOD9384506
_publ_section_title
;
Structure prediction by ZEFSAII (Michael W. Deem and Ramdas Pophale) SiO2 
 PCOD9384506
Probable space group: P M M M
;
_chemical_formula_sum "Si O2"
_cell_formula_units_Z 56
_cell_length_a 19.290371
_cell_length_b 8.851018
_cell_length_c 19.502190
_cell_angle_alpha 90.000000
_cell_angle_beta 90.000000
_cell_angle_gamma 90.000000
_cell_volume 3329.792628
_symmetry_space_group_name_H-M "P M M M"
_symmetry_group_IT_number 47
_symmetry_cell_setting 'orthorhombic'
loop_
_space_group_symop_operation_xyz
x,y,z
-x,-y,z
x,-y,-z
-x,y,-z
-x,-y,-z
x,y,-z
-x,y,z
x,-y,z
loop_
_atom_site_type_symbol
_atom_site_label
_atom_site_fract_x
_atom_site_fract_y
_atom_site_fract_z
Si Si1 0.715058 0.819212 0.141323
Si Si2 0.075899 0.170680 0.581996
Si Si3 0.782008 0.676980 0.422086
Si Si4 0.849767 0.681764 0.076309
Si Si5 0.421913 0.318698 0.081075
Si Si6 0.920363 0.682432 0.781316
Si Si7 0.216209 0.819840 0.283120
O O1 0.774583 0.751254 0.092370
O O2 0.639972 0.759631 0.121038
O O3 0.737252 0.772454 0.218220
O O4 0.717213 0.000000 0.136855
O O5 0.069759 0.157066 0.500000
O O6 0.136144 0.291384 0.589063
O O7 0.000000 0.212617 0.608993
O O8 0.094199 0.000000 0.606541
O O9 0.765155 0.731470 0.500000
O O10 0.767204 0.500000 0.419328
O O11 0.753396 0.760516 0.355114
O O12 0.843527 0.500000 0.077274
O O13 0.899534 0.721997 0.139962
O O14 0.873457 0.726748 0.000000
O O15 0.500000 0.273771 0.102115
O O16 0.416518 0.500000 0.088508
O O17 0.414811 0.285130 0.000000
O O18 0.915415 0.500000 0.773965
O O19 0.861174 0.757990 0.734428
O O20 0.000000 0.726846 0.768133
O O21 0.213666 0.000000 0.284563
#
# Coordination Sequence:
#
# PCOD9384506 Si02
#       7
#     8   8   8   8   8   8   8
#     4  10  20  32  47  69  96 126 161 196 227 265
#     4   8  14  25  40  57  78 105 135 167 211 271
#     4  10  20  32  47  67  87 107 138 184 233 278
#     4   9  17  29  46  67  90 119 155 194 238 285
#     4   9  18  32  50  74 104 136 166 192 221 261
#     4   9  18  32  48  65  86 114 151 197 245 287
#     4  10  21  35  49  65  88 121 157 190 230 283
#
# _framework density 16.817864
#
# number of rings (size 3 to 8) (size 9 to 14) (size 15 to 20)
#    0.000    2.714    0.000    2.571    0.000    6.571 
#    0.000    3.571    0.000    0.000    0.000    4.000 
#    0.000    0.571    0.000    6.286    0.000    4.571 
#
# Total GULP energy -311985.991289 kJ/mol
# GULP energy per Si atom -5571.178416 kJ/mol
# Density = 1.677959 g / cm^3
# Si number density = 16.817864 Si / 1000 Ang^3
#
#
#
# Elastic Constant Matrix: (Units=GPa)
#
#
# Indices 1 2 3 4 5 6 
#
# 1 70.0820 15.0932 28.7425 0.0000 0.0000 0.0000
# 2 15.0932 22.0191 26.4712 0.0000 0.0000 0.0000
# 3 28.7425 26.4712 124.3888 0.0000 0.0000 0.0000
# 4 0.0000 0.0000 0.0000 21.8254 0.0000 0.0000
# 5 0.0000 0.0000 0.0000 0.0000 10.6925 0.0000
# 6 0.0000 0.0000 0.0000 0.0000 0.0000 13.8214
#
#
#
# Elastic Compliance Matrix: (Units=1/GPa)
#
#
# Indices 1 2 3 4 5 6 
#
# 1 0.017087 -0.009361 -0.001956 0.000000 0.000000 0.000000
# 2 -0.009361 0.066156 -0.011916 0.000000 0.000000 0.000000
# 3 -0.001956 -0.011916 0.011027 0.000000 0.000000 0.000000
# 4 0.000000 0.000000 0.000000 0.045818 0.000000 0.000000
# 5 0.000000 0.000000 0.000000 0.000000 0.093523 0.000000
# 6 0.000000 0.000000 0.000000 0.000000 0.000000 0.072351
#
#
# Mechanical properties :
#
#
# Convention : Reuss Voigt Hill
#
# Bulk Modulus (GPa) = 20.91821 39.67817 30.29819
# Shear Modulus (GPa) = 13.57351 19.01341 16.29346
#
# Velocity S-wave (km/s) = 2.84401 3.36601 3.11596
# Velocity P-wave (km/s) = 4.82179 6.22501 5.56778
#
# Compressibility (1/GPa) = 0.04780523
#
# Stress axis : x y z
#
# Youngs Moduli (GPa) = 58.52293 15.11568 90.68529
#
# Poissons Ratio (x) = 0.14149 0.17741
# Poissons Ratio (y) = 0.54782 1.08059
# Poissons Ratio (z) = 0.11449 0.18011
#
# Static dielectric constant tensor:
#      x y z
#    x 1.551500 0.000000 0.000000 
#    y 0.000000 1.570620 0.000000 
#    z 0.000000 0.000000 1.628360 
# 
# From -- ./inp_files/9820.got.cif
#   From: 2010.05.17/outbox.cif.g08.bks.cpg/sg47_5_cif.got.tgz:9820.got - 2010.06.03 20:15:42.
