data_PCOD9384385
_publ_section_title
;
Structure prediction by ZEFSAII (Michael W. Deem and Ramdas Pophale) SiO2 
 PCOD9384385
Probable space group: P M M M
;
_chemical_formula_sum "Si O2"
_cell_formula_units_Z 44
_cell_length_a 12.593104
_cell_length_b 26.144954
_cell_length_c 9.258903
_cell_angle_alpha 90.000000
_cell_angle_beta 90.000000
_cell_angle_gamma 90.000000
_cell_volume 3048.457933
_symmetry_space_group_name_H-M "P M M M"
_symmetry_group_IT_number 47
_symmetry_cell_setting 'orthorhombic'
loop_
_space_group_symop_operation_xyz
x,y,z
-x,-y,z
x,-y,-z
-x,y,-z
-x,-y,-z
x,y,-z
-x,y,z
x,-y,z
loop_
_atom_site_type_symbol
_atom_site_label
_atom_site_fract_x
_atom_site_fract_y
_atom_site_fract_z
Si Si1 0.129040 0.557020 0.668277
Si Si2 0.129580 0.658169 0.833612
Si Si3 0.716175 0.061235 0.671092
Si Si4 0.872810 0.136113 0.170641
Si Si5 0.500000 0.062084 0.833639
Si Si6 0.870886 0.240101 0.665977
O O1 0.157885 0.564117 0.500000
O O2 0.163317 0.500000 0.714755
O O3 0.165212 0.604715 0.763439
O O4 0.000000 0.557050 0.673202
O O5 0.163961 0.707259 0.741106
O O6 0.000000 0.657982 0.831156
O O7 0.161933 0.662685 0.000000
O O8 0.712309 0.071701 0.500000
O O9 0.810838 0.091588 0.747066
O O10 0.606168 0.076982 0.748219
O O11 0.728746 0.000000 0.689459
O O12 0.841330 0.190339 0.241648
O O13 0.000000 0.130391 0.187880
O O14 0.849380 0.135584 0.000000
O O15 0.500000 0.000000 0.836464
O O16 0.500000 0.079752 0.000000
O O17 0.835327 0.236368 0.500000
O O18 0.000000 0.241250 0.664230
#
# Coordination Sequence:
#
# PCOD9384385 Si02
#       6
#     8   8   8   8   4   8
#     4   8  13  20  28  38  54  77 106 142 185 230
#     4   9  15  21  30  44  61  82 111 148 189 231
#     4  10  20  33  49  68  89 112 138 168 203 245
#     4  10  20  32  45  62  85 111 139 172 209 248
#     4   9  17  31  51  71  89 109 135 167 202 239
#     4   9  16  26  39  52  68  93 125 159 195 236
#
# _framework density 14.433528000000001
#
# number of rings (size 3 to 8) (size 9 to 14) (size 15 to 20)
#    0.000    2.818    0.000    3.000    0.000    8.364 
#    0.000    3.636    0.000    0.000    0.000    0.000 
#    0.000    0.000    0.000    0.000    0.000    0.000 
#
# Total GULP energy -245020.628765 kJ/mol
# GULP energy per Si atom -5568.650654 kJ/mol
# Density = 1.440068 g / cm^3
# Si number density = 14.433528 Si / 1000 Ang^3
#
#
#
# Elastic Constant Matrix: (Units=GPa)
#
#
# Indices 1 2 3 4 5 6 
#
# 1 24.3439 30.4568 36.9092 0.0000 0.0000 0.0000
# 2 30.4568 91.7857 78.6793 0.0000 0.0000 0.0000
# 3 36.9092 78.6793 138.7570 0.0000 0.0000 0.0000
# 4 0.0000 0.0000 0.0000 26.0173 0.0000 0.0000
# 5 0.0000 0.0000 0.0000 0.0000 15.2481 0.0000
# 6 0.0000 0.0000 0.0000 0.0000 0.0000 -0.9995
#
#
#
# Elastic Compliance Matrix: (Units=1/GPa)
#
#
# Indices 1 2 3 4 5 6 
#
# 1 0.079356 -0.016029 -0.012020 0.000000 0.000000 0.000000
# 2 -0.016029 0.024437 -0.009593 0.000000 0.000000 0.000000
# 3 -0.012020 -0.009593 0.015843 0.000000 0.000000 0.000000
# 4 0.000000 0.000000 0.000000 0.038436 0.000000 0.000000
# 5 0.000000 0.000000 0.000000 0.000000 0.065582 0.000000
# 6 0.000000 0.000000 0.000000 0.000000 0.000000 -1.000471
#
#
# Mechanical properties :
#
#
# Convention : Reuss Voigt Hill
#
# Bulk Modulus (GPa) = 22.54627 60.77524 41.66076
# Shear Modulus (GPa) = -7.28067 15.30924 4.01429
#
# Velocity S-wave (km/s) = -2.24838 3.26033 1.66951
# Velocity P-wave (km/s) = 2.98570 7.50809 5.71340
#
# Compressibility (1/GPa) = 0.04435323
#
# Stress axis : x y z
#
# Youngs Moduli (GPa) = 12.60151 40.92222 63.11804
#
# Poissons Ratio (x) = 0.65594 0.75865
# Poissons Ratio (y) = 0.20199 0.60547
# Poissons Ratio (z) = 0.15147 0.39255
#
# Static dielectric constant tensor:
#      x y z
#    x 1.443470 0.000000 0.000000 
#    y 0.000000 1.481640 0.000000 
#    z 0.000000 0.000000 1.483090 
# 
# From -- ./inp_files/4311.got.cif
#   From: 2010.05.17/outbox.cif.g08.bks.cpg/sg47_3_cif.got.tgz:4311.got - 2010.06.03 20:15:42.
