data_PCOD9384650
_publ_section_title
;
Structure prediction by ZEFSAII (Michael W. Deem and Ramdas Pophale) SiO2 
 PCOD9384650
Probable space group: P M M M
;
_chemical_formula_sum "Si O2"
_cell_formula_units_Z 44
_cell_length_a 25.476424
_cell_length_b 9.377757
_cell_length_c 10.729282
_cell_angle_alpha 90.000000
_cell_angle_beta 90.000000
_cell_angle_gamma 90.000000
_cell_volume 2563.351147
_symmetry_space_group_name_H-M "P M M M"
_symmetry_group_IT_number 47
_symmetry_cell_setting 'orthorhombic'
loop_
_space_group_symop_operation_xyz
x,y,z
-x,-y,z
x,-y,-z
-x,y,-z
-x,-y,-z
x,y,-z
-x,y,z
x,-y,z
loop_
_atom_site_type_symbol
_atom_site_label
_atom_site_fract_x
_atom_site_fract_y
_atom_site_fract_z
Si Si1 0.653529 0.658801 0.646171
Si Si2 0.871414 0.827772 0.645862
Si Si3 0.438486 0.829904 0.748952
Si Si4 0.249084 0.837591 0.348713
Si Si5 0.563232 0.337939 0.000000
Si Si6 0.937295 0.329963 0.857595
O O1 0.664185 0.643664 0.500000
O O2 0.644347 0.500000 0.698099
O O3 0.602539 0.757606 0.657228
O O4 0.704952 0.736220 0.700338
O O5 0.881632 0.787908 0.500000
O O6 0.810607 0.792199 0.676893
O O7 0.908041 0.753296 0.747576
O O8 0.876253 0.000000 0.652371
O O9 0.500000 0.800306 0.720975
O O10 0.432513 0.000000 0.755068
O O11 0.424056 0.754054 0.878890
O O12 0.252394 0.842293 0.500000
O O13 0.257035 0.000000 0.304645
O O14 0.583956 0.500000 0.000000
O O15 0.500000 0.349133 0.000000
O O16 0.927894 0.500000 0.845474
O O17 0.000000 0.307480 0.847574
O O18 0.921806 0.288300 0.000000
#
# Coordination Sequence:
#
# PCOD9384650 Si02
#       6
#     8   8   8   8   4   8
#     4  10  20  32  48  72 100 129 162 202 248 296
#     4   9  18  32  52  79 106 132 168 216 264 308
#     4  10  20  33  50  71  95 126 163 200 242 296
#     4   8  15  30  50  70  95 127 161 199 246 299
#     4   9  17  31  51  71  91 117 151 193 240 287
#     4   9  19  35  52  72 103 143 181 214 253 304
#
# _framework density 17.165030000000002
#
# number of rings (size 3 to 8) (size 9 to 14) (size 15 to 20)
#    0.000    2.818    0.000    3.000    0.000    5.818 
#    0.000    6.364    2.000    0.000    0.000    0.000 
#    0.000    0.000    0.000    0.000    0.000    0.000 
#
# Total GULP energy -244937.195246 kJ/mol
# GULP energy per Si atom -5566.754437 kJ/mol
# Density = 1.712596 g / cm^3
# Si number density = 17.165030 Si / 1000 Ang^3
#
#
#
# Elastic Constant Matrix: (Units=GPa)
#
#
# Indices 1 2 3 4 5 6 
#
# 1 89.6274 64.5043 48.4797 0.0000 0.0000 0.0000
# 2 64.5043 88.1589 41.1780 0.0000 0.0000 0.0000
# 3 48.4797 41.1780 66.2515 0.0000 0.0000 0.0000
# 4 0.0000 0.0000 0.0000 25.3255 0.0000 0.0000
# 5 0.0000 0.0000 0.0000 0.0000 -10.6592 0.0000
# 6 0.0000 0.0000 0.0000 0.0000 0.0000 24.4199
#
#
#
# Elastic Compliance Matrix: (Units=1/GPa)
#
#
# Indices 1 2 3 4 5 6 
#
# 1 0.028354 -0.015577 -0.011066 0.000000 0.000000 0.000000
# 2 -0.015577 0.024541 -0.003855 0.000000 0.000000 0.000000
# 3 -0.011066 -0.003855 0.025588 0.000000 0.000000 0.000000
# 4 0.000000 0.000000 0.000000 0.039486 0.000000 0.000000
# 5 0.000000 0.000000 0.000000 0.000000 -0.093816 0.000000
# 6 0.000000 0.000000 0.000000 0.000000 0.000000 0.040950
#
#
# Mechanical properties :
#
#
# Convention : Reuss Voigt Hill
#
# Bulk Modulus (GPa) = 57.18695 61.37354 59.28024
# Shear Modulus (GPa) = 37.89965 13.80897 25.85431
#
# Velocity S-wave (km/s) = 4.70399 2.83942 3.88522
# Velocity P-wave (km/s) = 7.93042 6.82512 7.39844
#
# Compressibility (1/GPa) = 0.01748651
#
# Stress axis : x y z
#
# Youngs Moduli (GPa) = 35.26878 40.74794 39.08156
#
# Poissons Ratio (x) = 0.63473 0.43248
# Poissons Ratio (y) = 0.54938 0.15065
# Poissons Ratio (z) = 0.39029 0.15707
#
# Static dielectric constant tensor:
#      x y z
#    x 1.576900 0.000000 0.000000 
#    y 0.000000 1.597660 0.000000 
#    z 0.000000 0.000000 1.628170 
# 
# From -- ./inp_files/19467.got.cif
#   From: 2010.05.17/outbox.cif.g08.bks.cpg/sg47_10_cif.got.tgz:19467.got - 2010.06.03 20:15:42.
