data_PCOD9384019
_publ_section_title
;
Structure prediction by ZEFSAII (Michael W. Deem and Ramdas Pophale) SiO2 
 PCOD9384019
Probable space group: P M M M
;
_chemical_formula_sum "Si O2"
_cell_formula_units_Z 52
_cell_length_a 23.406634
_cell_length_b 9.007691
_cell_length_c 14.615094
_cell_angle_alpha 90.000000
_cell_angle_beta 90.000000
_cell_angle_gamma 90.000000
_cell_volume 3081.442421
_symmetry_space_group_name_H-M "P M M M"
_symmetry_group_IT_number 47
_symmetry_cell_setting 'orthorhombic'
loop_
_space_group_symop_operation_xyz
x,y,z
-x,-y,z
x,-y,-z
-x,y,-z
-x,-y,-z
x,y,-z
-x,y,z
x,-y,z
loop_
_atom_site_type_symbol
_atom_site_label
_atom_site_fract_x
_atom_site_fract_y
_atom_site_fract_z
Si Si1 0.108299 0.678870 0.205207
Si Si2 0.770912 0.676805 0.108190
Si Si3 0.713402 0.322160 0.394774
Si Si4 0.667248 0.823625 0.217740
Si Si5 0.000000 0.822190 0.107206
Si Si6 0.152849 0.680303 0.398213
Si Si7 0.433356 0.322229 0.893498
O O1 0.100196 0.500000 0.203190
O O2 0.167799 0.710591 0.153136
O O3 0.116385 0.727576 0.310816
O O4 0.055852 0.756546 0.155882
O O5 0.760829 0.500000 0.120978
O O6 0.720524 0.763493 0.158153
O O7 0.771875 0.707271 0.000000
O O8 0.697684 0.290722 0.500000
O O9 0.709651 0.500000 0.380832
O O10 0.676653 0.239463 0.319426
O O11 0.780457 0.280816 0.383633
O O12 0.609922 0.761078 0.172066
O O13 0.667027 0.000000 0.218158
O O14 0.000000 0.000000 0.113512
O O15 0.000000 0.780461 0.000000
O O16 0.135418 0.731252 0.500000
O O17 0.151273 0.500000 0.399206
O O18 0.500000 0.288041 0.876223
O O19 0.426085 0.500000 0.883660
O O20 0.421054 0.285996 0.000000
#
# Coordination Sequence:
#
# PCOD9384019 Si02
#       7
#     8   8   8   8   4   8   8
#     4  10  19  35  59  81 101 131 177 226 264 307
#     4  10  20  34  53  77 105 137 178 228 270 308
#     4   9  17  33  57  80 105 140 181 222 263 312
#     4  12  23  32  49  80 117 148 174 212 268 331
#     4  11  25  41  54  71 102 142 179 217 266 327
#     4   8  14  28  54  84 107 128 163 215 267 310
#     4   9  19  37  59  79 102 140 190 236 271 309
#
# _framework density 16.875215000000001
#
# number of rings (size 3 to 8) (size 9 to 14) (size 15 to 20)
#    0.000    2.231    1.538    3.923    0.000    4.923 
#    0.000    1.154    0.000    3.231    0.000    3.231 
#    0.000    0.000    0.000    0.000    0.000    0.000 
#
# Total GULP energy -290199.780807 kJ/mol
# GULP energy per Si atom -5580.765016 kJ/mol
# Density = 1.683681 g / cm^3
# Si number density = 16.875215 Si / 1000 Ang^3
#
#
#
# Elastic Constant Matrix: (Units=GPa)
#
#
# Indices 1 2 3 4 5 6 
#
# 1 102.4573 57.2017 95.2503 0.0000 0.0000 0.0000
# 2 57.2017 47.7911 69.5703 0.0000 0.0000 0.0000
# 3 95.2503 69.5703 171.2193 0.0000 0.0000 0.0000
# 4 0.0000 0.0000 0.0000 9.9672 0.0000 0.0000
# 5 0.0000 0.0000 0.0000 0.0000 30.5855 0.0000
# 6 0.0000 0.0000 0.0000 0.0000 0.0000 -38.0233
#
#
#
# Elastic Compliance Matrix: (Units=1/GPa)
#
#
# Indices 1 2 3 4 5 6 
#
# 1 0.031309 -0.029667 -0.005363 0.000000 0.000000 0.000000
# 2 -0.029667 0.079333 -0.015731 0.000000 0.000000 0.000000
# 3 -0.005363 -0.015731 0.015216 0.000000 0.000000 0.000000
# 4 0.000000 0.000000 0.000000 0.100329 0.000000 0.000000
# 5 0.000000 0.000000 0.000000 0.000000 0.032695 0.000000
# 6 0.000000 0.000000 0.000000 0.000000 0.000000 -0.026300
#
#
# Mechanical properties :
#
#
# Convention : Reuss Voigt Hill
#
# Bulk Modulus (GPa) = 41.09170 85.05693 63.07432
# Shear Modulus (GPa) = 14.61068 7.13557 10.87313
#
# Velocity S-wave (km/s) = 2.94565 2.05855 2.54111
# Velocity P-wave (km/s) = 5.99770 7.49420 6.78732
#
# Compressibility (1/GPa) = 0.02433581
#
# Stress axis : x y z
#
# Youngs Moduli (GPa) = 31.93973 12.60514 65.72186
#
# Poissons Ratio (x) = 0.37396 0.35246
# Poissons Ratio (y) = 0.94756 1.03385
# Poissons Ratio (z) = 0.17129 0.19829
#
# Static dielectric constant tensor:
#      x y z
#    x 1.540710 0.000000 0.000000 
#    y 0.000000 1.554080 0.000000 
#    z 0.000000 0.000000 1.580760 
# 
# From -- ./inp_files/10992.got.cif
#   From: 2010.05.17/outbox.cif.g08.bks.cpg/sg47_6_cif.got.tgz:10992.got - 2010.06.03 20:15:42.
