data_PCOD9384721
_publ_section_title
;
Structure prediction by ZEFSAII (Michael W. Deem and Ramdas Pophale) SiO2 
 PCOD9384721
Probable space group: P M M M
;
_chemical_formula_sum "Si O2"
_cell_formula_units_Z 52
_cell_length_a 15.347826
_cell_length_b 9.076829
_cell_length_c 22.901701
_cell_angle_alpha 90.000000
_cell_angle_beta 90.000000
_cell_angle_gamma 90.000000
_cell_volume 3190.426625
_symmetry_space_group_name_H-M "P M M M"
_symmetry_group_IT_number 47
_symmetry_cell_setting 'orthorhombic'
loop_
_space_group_symop_operation_xyz
x,y,z
-x,-y,z
x,-y,-z
-x,y,-z
-x,-y,-z
x,y,-z
-x,y,z
x,-y,z
loop_
_atom_site_type_symbol
_atom_site_label
_atom_site_fract_x
_atom_site_fract_y
_atom_site_fract_z
Si Si1 0.288298 0.174273 0.722172
Si Si2 0.903549 0.176867 0.235324
Si Si3 0.500000 0.178047 0.067467
Si Si4 0.332649 0.824612 0.854843
Si Si5 0.602513 0.323976 0.620680
Si Si6 0.605607 0.831079 0.500000
Si Si7 0.897180 0.835821 0.000000
Si Si8 0.153581 0.674365 0.882111
O O1 0.186020 0.217396 0.730891
O O2 0.337023 0.193164 0.784670
O O3 0.338033 0.263200 0.672587
O O4 0.290331 0.000000 0.708307
O O5 0.896519 0.254174 0.172556
O O6 0.000000 0.209545 0.260870
O O7 0.898402 0.000000 0.226887
O O8 0.415837 0.216224 0.106336
O O9 0.500000 0.000000 0.063822
O O10 0.500000 0.232647 0.000000
O O11 0.253158 0.723016 0.873569
O O12 0.313573 0.000000 0.864387
O O13 0.500000 0.285645 0.630633
O O14 0.608166 0.500000 0.616786
O O15 0.630733 0.252048 0.559253
O O16 0.500000 0.832301 0.500000
O O17 0.635919 0.000000 0.500000
O O18 0.873888 0.746628 0.942495
O O19 0.000000 0.852392 0.000000
O O20 0.856454 0.000000 0.000000
O O21 0.142182 0.500000 0.882432
#
# Coordination Sequence:
#
# PCOD9384721 Si02
#       8
#     8   8   4   8   8   4   4   8
#     4   9  18  31  50  76 103 133 172 213 253 299
#     4   9  18  35  56  75  98 130 168 209 254 304
#     4   9  18  32  53  77  93 120 172 221 256 296
#     4   9  19  35  53  73  97 129 169 212 254 300
#     4  10  20  32  48  73 108 145 177 209 251 299
#     4   9  17  31  51  75 102 137 178 215 251 292
#     4  11  23  37  53  70  89 118 155 193 240 303
#     4  11  22  34  50  73 100 124 152 196 252 308
#
# _framework density 16.298760999999999
#
# number of rings (size 3 to 8) (size 9 to 14) (size 15 to 20)
#    0.000    2.385    0.000    3.692    2.154    7.077 
#    0.000    0.385    0.000    0.462    0.000    0.538 
#    0.000    4.308    0.000    0.000    0.000    0.000 
#
# Total GULP energy -289822.687996 kJ/mol
# GULP energy per Si atom -5573.513231 kJ/mol
# Density = 1.626166 g / cm^3
# Si number density = 16.298761 Si / 1000 Ang^3
#
#
#
# Elastic Constant Matrix: (Units=GPa)
#
#
# Indices 1 2 3 4 5 6 
#
# 1 94.5785 35.9544 61.6177 0.0000 0.0000 0.0000
# 2 35.9544 60.4406 56.3840 0.0000 0.0000 0.0000
# 3 61.6177 56.3840 117.2262 0.0000 0.0000 0.0000
# 4 0.0000 0.0000 0.0000 -11.1996 0.0000 0.0000
# 5 0.0000 0.0000 0.0000 0.0000 11.6928 0.0000
# 6 0.0000 0.0000 0.0000 0.0000 0.0000 919.8209
#
#
#
# Elastic Compliance Matrix: (Units=1/GPa)
#
#
# Indices 1 2 3 4 5 6 
#
# 1 0.016395 -0.003108 -0.007123 0.000000 0.000000 0.000000
# 2 -0.003108 0.030601 -0.013085 0.000000 0.000000 0.000000
# 3 -0.007123 -0.013085 0.018568 0.000000 0.000000 0.000000
# 4 0.000000 0.000000 0.000000 -0.089289 0.000000 0.000000
# 5 0.000000 0.000000 0.000000 0.000000 0.085523 0.000000
# 6 0.000000 0.000000 0.000000 0.000000 0.000000 0.001087
#
#
# Mechanical properties :
#
#
# Convention : Reuss Voigt Hill
#
# Bulk Modulus (GPa) = 52.81948 64.46195 58.64072
# Shear Modulus (GPa) = 43.16745 191.94875 117.55810
#
# Velocity S-wave (km/s) = 5.15195 10.86391 8.50198
# Velocity P-wave (km/s) = 8.23818 14.03575 11.50804
#
# Compressibility (1/GPa) = 0.01893241
#
# Stress axis : x y z
#
# Youngs Moduli (GPa) = 60.99275 32.67908 53.85614
#
# Poissons Ratio (x) = 0.10158 0.38361
# Poissons Ratio (y) = 0.18959 0.70468
# Poissons Ratio (z) = 0.43444 0.42759
#
# Static dielectric constant tensor:
#      x y z
#    x 1.573590 0.000000 0.000000 
#    y 0.000000 1.545940 0.000000 
#    z 0.000000 0.000000 1.517100 
# 
# From -- ./inp_files/30940.got.cif
#   From: 2010.05.17/outbox.cif.g08.bks.cpg/sg47_16_cif.got.tgz:30940.got - 2010.06.03 20:15:42.
