data_PCOD9384151
_publ_section_title
;
Structure prediction by ZEFSAII (Michael W. Deem and Ramdas Pophale) SiO2 
 PCOD9384151
Probable space group: P M M M
;
_chemical_formula_sum "Si O2"
_cell_formula_units_Z 48
_cell_length_a 25.269730
_cell_length_b 7.704010
_cell_length_c 14.110882
_cell_angle_alpha 90.000000
_cell_angle_beta 90.000000
_cell_angle_gamma 90.000000
_cell_volume 2747.081851
_symmetry_space_group_name_H-M "P M M M"
_symmetry_group_IT_number 47
_symmetry_cell_setting 'orthorhombic'
loop_
_space_group_symop_operation_xyz
x,y,z
-x,-y,z
x,-y,-z
-x,y,-z
-x,-y,-z
x,y,-z
-x,y,z
x,-y,z
loop_
_atom_site_type_symbol
_atom_site_label
_atom_site_fract_x
_atom_site_fract_y
_atom_site_fract_z
Si Si1 0.387101 0.206299 0.393957
Si Si2 0.558352 0.295602 0.798936
Si Si3 0.056986 0.791248 0.610270
Si Si4 0.827985 0.292659 0.391720
Si Si5 0.665489 0.287246 0.106399
Si Si6 0.278052 0.709872 0.294434
O O1 0.397153 0.273519 0.500000
O O2 0.423629 0.279646 0.310442
O O3 0.326458 0.241622 0.363555
O O4 0.395132 0.000000 0.394446
O O5 0.500000 0.219836 0.813664
O O6 0.555403 0.500000 0.820896
O O7 0.607027 0.226458 0.861255
O O8 0.057931 0.732354 0.500000
O O9 0.113725 0.739095 0.650850
O O10 0.000000 0.732125 0.650566
O O11 0.056175 0.000000 0.609836
O O12 0.826614 0.223256 0.500000
O O13 0.821914 0.500000 0.397924
O O14 0.778130 0.225408 0.332596
O O15 0.665000 0.500000 0.107492
O O16 0.705402 0.231078 0.189247
O O17 0.678056 0.232079 0.000000
O O18 0.276438 0.500000 0.292121
#
# Coordination Sequence:
#
# PCOD9384151 Si02
#       6
#     8   8   8   8   8   8
#     4  10  20  31  43  60  82 109 138 167 200 236
#     4   9  18  31  46  64  83 104 132 164 199 242
#     4   8  14  24  36  51  75 108 142 171 197 227
#     4   9  16  24  36  56  81 109 138 166 196 230
#     4   8  14  26  45  66  84 102 127 163 205 245
#     4   9  17  29  44  62  84 108 136 169 203 242
#
# _framework density 17.473088000000001
#
# number of rings (size 3 to 8) (size 9 to 14) (size 15 to 20)
#    0.000    3.167    0.000    2.500    0.000    4.000 
#    0.000    6.667    0.000    8.000    0.000    4.667 
#    0.000    0.667    0.000    8.333    0.000    1.667 
#
# Total GULP energy -267312.672021 kJ/mol
# GULP energy per Si atom -5569.014000 kJ/mol
# Density = 1.743332 g / cm^3
# Si number density = 17.473088 Si / 1000 Ang^3
#
#
#
# Elastic Constant Matrix: (Units=GPa)
#
#
# Indices 1 2 3 4 5 6 
#
# 1 126.2694 4.3461 20.2260 0.0000 0.0000 0.0000
# 2 4.3461 27.0939 0.0001 0.0000 0.0000 0.0000
# 3 20.2260 0.0001 62.7366 0.0000 0.0000 0.0000
# 4 0.0000 0.0000 0.0000 -80.1839 0.0000 0.0000
# 5 0.0000 0.0000 0.0000 0.0000 4.2785 0.0000
# 6 0.0000 0.0000 0.0000 0.0000 0.0000 58.9934
#
#
#
# Elastic Compliance Matrix: (Units=1/GPa)
#
#
# Indices 1 2 3 4 5 6 
#
# 1 0.008400 -0.001347 -0.002708 0.000000 0.000000 0.000000
# 2 -0.001347 0.037125 0.000434 0.000000 0.000000 0.000000
# 3 -0.002708 0.000434 0.016813 0.000000 0.000000 0.000000
# 4 0.000000 0.000000 0.000000 -0.012471 0.000000 0.000000
# 5 0.000000 0.000000 0.000000 0.000000 0.233725 0.000000
# 6 0.000000 0.000000 0.000000 0.000000 0.000000 0.016951
#
#
# Mechanical properties :
#
#
# Convention : Reuss Voigt Hill
#
# Bulk Modulus (GPa) = 18.15045 29.47159 23.81102
# Shear Modulus (GPa) = 15.33041 9.38611 12.35826
#
# Velocity S-wave (km/s) = 2.96526 2.32022 2.66235
# Velocity P-wave (km/s) = 4.70467 4.90728 4.80704
#
# Compressibility (1/GPa) = 0.05509506
#
# Stress axis : x y z
#
# Youngs Moduli (GPa) = 119.05150 26.93620 59.47875
#
# Poissons Ratio (x) = 0.03629 0.16107
# Poissons Ratio (y) = 0.16041 -0.02583
# Poissons Ratio (z) = 0.32240 -0.01170
#
# Static dielectric constant tensor:
#      x y z
#    x 1.628720 0.000000 0.000000 
#    y 0.000000 1.643180 0.000000 
#    z 0.000000 0.000000 1.581160 
# 
# From -- ./inp_files/7529.got.cif
#   From: 2010.05.17/outbox.cif.g08.bks.cpg/sg47_4_cif.got.tgz:7529.got - 2010.06.03 20:15:42.
