data_PCOD9384939
_publ_section_title
;
Structure prediction by ZEFSAII (Michael W. Deem and Ramdas Pophale) SiO2 
 PCOD9384939
Probable space group: P M M M
;
_chemical_formula_sum "Si O2"
_cell_formula_units_Z 52
_cell_length_a 27.815294
_cell_length_b 9.191822
_cell_length_c 15.720540
_cell_angle_alpha 90.000000
_cell_angle_beta 90.000000
_cell_angle_gamma 90.000000
_cell_volume 4019.321260
_symmetry_space_group_name_H-M "P M M M"
_symmetry_group_IT_number 47
_symmetry_cell_setting 'orthorhombic'
loop_
_space_group_symop_operation_xyz
x,y,z
-x,-y,z
x,-y,-z
-x,y,-z
-x,-y,-z
x,y,-z
-x,y,z
x,-y,z
loop_
_atom_site_type_symbol
_atom_site_label
_atom_site_fract_x
_atom_site_fract_y
_atom_site_fract_z
Si Si1 0.941673 0.832092 0.500000
Si Si2 0.057691 0.329053 0.000000
Si Si3 0.596721 0.167691 0.103695
Si Si4 0.500000 0.667700 0.103665
Si Si5 0.209913 0.172480 0.100191
Si Si6 0.942078 0.672402 0.325537
Si Si7 0.895742 0.825299 0.836929
Si Si8 0.693107 0.332425 0.896434
O O1 0.927651 0.746421 0.414738
O O2 0.000000 0.834785 0.500000
O O3 0.925243 0.000000 0.500000
O O4 0.077942 0.248388 0.082925
O O5 0.071612 0.500000 0.000000
O O6 0.000000 0.321998 0.000000
O O7 0.548572 0.251174 0.130937
O O8 0.645699 0.245966 0.131595
O O9 0.595676 0.000000 0.130049
O O10 0.596812 0.169874 0.000000
O O11 0.500000 0.500000 0.130248
O O12 0.500000 0.669363 0.000000
O O13 0.161118 0.202782 0.150735
O O14 0.256847 0.258901 0.129658
O O15 0.219894 0.000000 0.104788
O O16 0.201075 0.206610 0.000000
O O17 0.931681 0.500000 0.325327
O O18 0.916471 0.754025 0.248133
O O19 0.000000 0.688380 0.316185
O O20 0.903066 0.000000 0.837876
O O21 0.690619 0.500000 0.870400
O O22 0.692955 0.328333 0.000000
#
# Coordination Sequence:
#
# PCOD9384939 Si02
#       8
#     4   4   8   4   8   8   8   8
#     4   9  17  31  51  71  87 105 129 155 185 226
#     4  11  23  35  45  59  81 107 133 162 197 236
#     4   9  15  22  31  43  59  81 106 135 175 222
#     4   9  15  21  29  41  59  79 101 135 175 218
#     4   9  17  30  42  53  71  95 124 158 194 227
#     4  10  20  33  48  67  89 109 128 155 193 235
#     4  11  21  33  47  63  81 105 135 165 195 233
#     4   9  16  24  35  50  64  82 112 147 183 222
#
# _framework density 12.937509
#
# number of rings (size 3 to 8) (size 9 to 14) (size 15 to 20)
#    0.000    2.385    0.769    3.000    0.000   10.154 
#    0.000    0.000    0.000    0.000    0.000    0.000 
#    0.000    0.000    0.000    0.000    0.000    0.000 
#
# Total GULP energy -289842.507700 kJ/mol
# GULP energy per Si atom -5573.894379 kJ/mol
# Density = 1.290806 g / cm^3
# Si number density = 12.937509 Si / 1000 Ang^3
#
#
#
# Elastic Constant Matrix: (Units=GPa)
#
#
# Indices 1 2 3 4 5 6 
#
# 1 97.3285 80.0204 38.6298 0.0000 0.0000 0.0000
# 2 80.0204 125.6158 49.0498 0.0000 0.0000 0.0000
# 3 38.6298 49.0498 71.0317 0.0000 0.0000 0.0000
# 4 0.0000 0.0000 0.0000 15.5437 0.0000 0.0000
# 5 0.0000 0.0000 0.0000 0.0000 0.0355 0.0000
# 6 0.0000 0.0000 0.0000 0.0000 0.0000 18.7124
#
#
#
# Elastic Compliance Matrix: (Units=1/GPa)
#
#
# Indices 1 2 3 4 5 6 
#
# 1 0.022074 -0.012835 -0.003142 0.000000 0.000000 0.000000
# 2 -0.012835 0.018363 -0.005700 0.000000 0.000000 0.000000
# 3 -0.003142 -0.005700 0.019723 0.000000 0.000000 0.000000
# 4 0.000000 0.000000 0.000000 0.064335 0.000000 0.000000
# 5 0.000000 0.000000 0.000000 0.000000 28.151818 0.000000
# 6 0.000000 0.000000 0.000000 0.000000 0.000000 0.053440
#
#
# Mechanical properties :
#
#
# Convention : Reuss Voigt Hill
#
# Bulk Modulus (GPa) = 59.50156 69.93066 64.71611
# Shear Modulus (GPa) = 0.17619 15.27673 7.72646
#
# Velocity S-wave (km/s) = 0.36943 3.44002 2.44645
# Velocity P-wave (km/s) = 6.80245 8.36351 7.62304
#
# Compressibility (1/GPa) = 0.01680628
#
# Stress axis : x y z
#
# Youngs Moduli (GPa) = 45.30259 54.45871 50.70282
#
# Poissons Ratio (x) = 0.69897 0.15929
# Poissons Ratio (y) = 0.58145 0.28900
# Poissons Ratio (z) = 0.14233 0.31041
#
# Static dielectric constant tensor:
#      x y z
#    x 1.418120 0.000000 0.000000 
#    y 0.000000 1.433910 0.000000 
#    z 0.000000 0.000000 1.386350 
# 
# From -- ./inp_files/25738.got.cif
#   From: 2010.05.17/outbox.cif.g08.bks.cpg/sg47_13_cif.got.tgz:25738.got - 2010.06.03 20:15:42.
