data_PCOD9384373
_publ_section_title
;
Structure prediction by ZEFSAII (Michael W. Deem and Ramdas Pophale) SiO2 
 PCOD9384373
Probable space group: P M M M
;
_chemical_formula_sum "Si O2"
_cell_formula_units_Z 56
_cell_length_a 7.568419
_cell_length_b 19.629283
_cell_length_c 19.536967
_cell_angle_alpha 90.000000
_cell_angle_beta 90.000000
_cell_angle_gamma 90.000000
_cell_volume 2902.463364
_symmetry_space_group_name_H-M "P M M M"
_symmetry_group_IT_number 47
_symmetry_cell_setting 'orthorhombic'
loop_
_space_group_symop_operation_xyz
x,y,z
-x,-y,z
x,-y,-z
-x,y,-z
-x,-y,-z
x,y,-z
-x,y,z
x,-y,z
loop_
_atom_site_type_symbol
_atom_site_label
_atom_site_fract_x
_atom_site_fract_y
_atom_site_fract_z
Si Si1 0.209874 0.779161 0.778703
Si Si2 0.283656 0.575628 0.140177
Si Si3 0.201239 0.076009 0.225644
Si Si4 0.701667 0.918353 0.073476
Si Si5 0.714937 0.580119 0.424846
Si Si6 0.712874 0.283225 0.924244
Si Si7 0.293343 0.634814 0.282514
O O1 0.283965 0.851897 0.752524
O O2 0.240333 0.763680 0.859463
O O3 0.279809 0.713616 0.738580
O O4 0.000000 0.781298 0.768905
O O5 0.500000 0.576462 0.140036
O O6 0.228462 0.500000 0.118955
O O7 0.228057 0.639793 0.094359
O O8 0.222429 0.592387 0.217649
O O9 0.196002 0.088840 0.143693
O O10 0.000000 0.072647 0.251131
O O11 0.280517 0.000000 0.236574
O O12 0.500000 0.892015 0.081177
O O13 0.688440 0.000000 0.067800
O O14 0.771931 0.893851 0.000000
O O15 0.777128 0.603573 0.500000
O O16 0.500000 0.585382 0.426155
O O17 0.756565 0.500000 0.418206
O O18 0.781134 0.618135 0.357125
O O19 0.500000 0.283915 0.926134
O O20 0.776132 0.263955 0.000000
O O21 0.500000 0.616344 0.285655
#
# Coordination Sequence:
#
# PCOD9384373 Si02
#       7
#     8   8   8   8   8   8   8
#     4  10  20  32  45  60  80 109 142 175 215 262
#     4   8  13  22  39  62  82 102 135 176 210 238
#     4   9  18  31  44  57  73  95 128 171 214 254
#     4   8  14  24  37  54  75  96 118 149 196 253
#     4   8  13  22  41  72 103 125 148 179 208 231
#     4   9  18  31  45  61  81 106 138 178 222 264
#     4   9  16  27  44  65  90 118 145 172 203 243
#
# _framework density 19.293955
#
# number of rings (size 3 to 8) (size 9 to 14) (size 15 to 20)
#    0.000    3.286    0.000    2.571    0.000    4.286 
#    0.000    5.714    0.000   11.143    0.000    5.000 
#    0.000    0.571    0.000    7.143    0.000    0.000 
#
# Total GULP energy -311795.282136 kJ/mol
# GULP energy per Si atom -5567.772895 kJ/mol
# Density = 1.925004 g / cm^3
# Si number density = 19.293955 Si / 1000 Ang^3
#
#
#
# Elastic Constant Matrix: (Units=GPa)
#
#
# Indices 1 2 3 4 5 6 
#
# 1 41.9301 -12.6120 -3.4861 0.0000 0.0000 0.0000
# 2 -12.6120 122.6124 19.2492 0.0000 0.0000 0.0000
# 3 -3.4861 19.2492 80.9744 0.0000 0.0000 0.0000
# 4 0.0000 0.0000 0.0000 2.0148 0.0000 0.0000
# 5 0.0000 0.0000 0.0000 0.0000 -4.8464 0.0000
# 6 0.0000 0.0000 0.0000 0.0000 0.0000 11.9913
#
#
#
# Elastic Compliance Matrix: (Units=1/GPa)
#
#
# Indices 1 2 3 4 5 6 
#
# 1 0.024628 0.002459 0.000476 0.000000 0.000000 0.000000
# 2 0.002459 0.008717 -0.001966 0.000000 0.000000 0.000000
# 3 0.000476 -0.001966 0.012838 0.000000 0.000000 0.000000
# 4 0.000000 0.000000 0.000000 0.496321 0.000000 0.000000
# 5 0.000000 0.000000 0.000000 0.000000 -0.206340 0.000000
# 6 0.000000 0.000000 0.000000 0.000000 0.000000 0.083394
#
#
# Mechanical properties :
#
#
# Convention : Reuss Voigt Hill
#
# Bulk Modulus (GPa) = 20.78172 27.97989 24.38081
# Shear Modulus (GPa) = 11.52973 17.98967 14.75970
#
# Velocity S-wave (km/s) = 2.44720 3.05683 2.76885
# Velocity P-wave (km/s) = 4.33354 5.19542 4.78393
#
# Compressibility (1/GPa) = 0.04811920
#
# Stress axis : x y z
#
# Youngs Moduli (GPa) = 40.60367 114.71317 77.89661
#
# Poissons Ratio (x) = -0.28203 -0.03707
# Poissons Ratio (y) = -0.09983 0.15318
# Poissons Ratio (z) = -0.01932 0.22558
#
# Static dielectric constant tensor:
#      x y z
#    x 1.744630 0.000000 0.000000 
#    y 0.000000 1.729470 0.000000 
#    z 0.000000 0.000000 1.675570 
# 
# From -- ./inp_files/26959.got.cif
#   From: 2010.05.17/outbox.cif.g08.bks.cpg/sg47_14_cif.got.tgz:26959.got - 2010.06.03 20:15:42.
