data_PCOD9384295
_publ_section_title
;
Structure prediction by ZEFSAII (Michael W. Deem and Ramdas Pophale) SiO2 
 PCOD9384295
Probable space group: P M M M
;
_chemical_formula_sum "Si O2"
_cell_formula_units_Z 52
_cell_length_a 26.701200
_cell_length_b 9.582222
_cell_length_c 14.290938
_cell_angle_alpha 90.000000
_cell_angle_beta 90.000000
_cell_angle_gamma 90.000000
_cell_volume 3656.434038
_symmetry_space_group_name_H-M "P M M M"
_symmetry_group_IT_number 47
_symmetry_cell_setting 'orthorhombic'
loop_
_space_group_symop_operation_xyz
x,y,z
-x,-y,z
x,-y,-z
-x,y,-z
-x,-y,-z
x,y,-z
-x,y,z
x,-y,z
loop_
_atom_site_type_symbol
_atom_site_label
_atom_site_fract_x
_atom_site_fract_y
_atom_site_fract_z
Si Si1 0.848576 0.839467 0.614007
Si Si2 0.402784 0.664174 0.891972
Si Si3 0.500000 0.841514 0.886398
Si Si4 0.443455 0.164109 0.612765
Si Si5 0.353555 0.334359 0.295016
Si Si6 0.056383 0.338413 0.386221
Si Si7 0.249272 0.665224 0.388189
O O1 0.849510 0.838753 0.500000
O O2 0.898958 0.761024 0.645825
O O3 0.799024 0.753942 0.640864
O O4 0.846913 0.000000 0.644265
O O5 0.416937 0.500000 0.888317
O O6 0.450084 0.757239 0.861978
O O7 0.359405 0.686368 0.816360
O O8 0.389934 0.696135 0.000000
O O9 0.500000 0.000000 0.851020
O O10 0.500000 0.846707 0.000000
O O11 0.441384 0.176850 0.500000
O O12 0.500000 0.206061 0.642248
O O13 0.399239 0.253524 0.656910
O O14 0.437231 0.000000 0.635136
O O15 0.358960 0.500000 0.314070
O O16 0.299974 0.291412 0.335831
O O17 0.056610 0.335359 0.500000
O O18 0.065189 0.500000 0.359694
O O19 0.000000 0.298101 0.356803
O O20 0.256597 0.682938 0.500000
O O21 0.240494 0.500000 0.371783
#
# Coordination Sequence:
#
# PCOD9384295 Si02
#       7
#     8   8   4   8   8   8   8
#     4   9  16  24  35  52  73  98 129 164 200 235
#     4   9  18  32  47  63  85 107 125 153 196 242
#     4   9  17  29  45  63  80  99 124 151 181 226
#     4   9  19  34  47  60  81 106 128 155 198 245
#     4  10  20  31  46  65  80 100 134 167 197 237
#     4   8  13  21  33  49  70  98 131 164 198 233
#     4   9  17  29  42  55  74  99 129 167 203 232
#
# _framework density 14.221507000000001
#
# number of rings (size 3 to 8) (size 9 to 14) (size 15 to 20)
#    0.000    3.000    0.000    2.077    1.077    5.538 
#    0.000    3.846    0.000    0.000    0.000    0.000 
#    0.000    0.000    0.000    0.000    0.000    0.769 
#
# Total GULP energy -289642.266321 kJ/mol
# GULP energy per Si atom -5570.043583 kJ/mol
# Density = 1.418914 g / cm^3
# Si number density = 14.221507 Si / 1000 Ang^3
#
#
#
# Elastic Constant Matrix: (Units=GPa)
#
#
# Indices 1 2 3 4 5 6 
#
# 1 146.5648 77.2700 39.4889 0.0000 0.0000 0.0000
# 2 77.2700 66.2712 28.3471 0.0000 0.0000 0.0000
# 3 39.4889 28.3471 33.8864 0.0000 0.0000 0.0000
# 4 0.0000 0.0000 0.0000 9.8807 0.0000 0.0000
# 5 0.0000 0.0000 0.0000 0.0000 6.4143 0.0000
# 6 0.0000 0.0000 0.0000 0.0000 0.0000 9.9708
#
#
#
# Elastic Compliance Matrix: (Units=1/GPa)
#
#
# Indices 1 2 3 4 5 6 
#
# 1 0.018326 -0.019049 -0.005421 0.000000 0.000000 0.000000
# 2 -0.019049 0.043298 -0.014022 0.000000 0.000000 0.000000
# 3 -0.005421 -0.014022 0.047557 0.000000 0.000000 0.000000
# 4 0.000000 0.000000 0.000000 0.101207 0.000000 0.000000
# 5 0.000000 0.000000 0.000000 0.000000 0.155902 0.000000
# 6 0.000000 0.000000 0.000000 0.000000 0.000000 0.100293
#
#
# Mechanical properties :
#
#
# Convention : Reuss Voigt Hill
#
# Bulk Modulus (GPa) = 31.05788 59.65939 45.35863
# Shear Modulus (GPa) = 9.02040 12.02758 10.52399
#
# Velocity S-wave (km/s) = 2.52122 2.91130 2.72326
# Velocity P-wave (km/s) = 5.51013 7.30357 6.46930
#
# Compressibility (1/GPa) = 0.03219795
#
# Stress axis : x y z
#
# Youngs Moduli (GPa) = 54.56635 23.09594 21.02728
#
# Poissons Ratio (x) = 0.43996 0.11399
# Poissons Ratio (y) = 1.03944 0.29483
# Poissons Ratio (z) = 0.29581 0.32384
#
# Static dielectric constant tensor:
#      x y z
#    x 1.456680 0.000000 0.000000 
#    y 0.000000 1.475530 0.000000 
#    z 0.000000 0.000000 1.467110 
# 
# From -- ./inp_files/7992.got.cif
#   From: 2010.05.17/outbox.cif.g08.bks.cpg/sg47_4_cif.got.tgz:7992.got - 2010.06.03 20:15:42.
