data_PCOD9384220
_publ_section_title
;
Structure prediction by ZEFSAII (Michael W. Deem and Ramdas Pophale) SiO2 
 PCOD9384220
Probable space group: P M M M
;
_chemical_formula_sum "Si O2"
_cell_formula_units_Z 32
_cell_length_a 9.705165
_cell_length_b 21.652862
_cell_length_c 7.447939
_cell_angle_alpha 90.000000
_cell_angle_beta 90.000000
_cell_angle_gamma 90.000000
_cell_volume 1565.144150
_symmetry_space_group_name_H-M "P M M M"
_symmetry_group_IT_number 47
_symmetry_cell_setting 'orthorhombic'
loop_
_space_group_symop_operation_xyz
x,y,z
-x,-y,z
x,-y,-z
-x,y,-z
-x,-y,-z
x,y,-z
-x,y,z
x,-y,z
loop_
_atom_site_type_symbol
_atom_site_label
_atom_site_fract_x
_atom_site_fract_y
_atom_site_fract_z
Si Si1 0.834866 0.433646 0.715930
Si Si2 0.844229 0.930272 0.216061
Si Si3 0.160073 0.701468 0.719868
Si Si4 0.345110 0.814348 0.712719
O O1 0.815959 0.434338 0.500000
O O2 0.781400 0.500000 0.784255
O O3 0.787013 0.366339 0.778856
O O4 0.000000 0.433353 0.747028
O O5 0.735680 0.878390 0.265956
O O6 0.000000 0.914861 0.277985
O O7 0.811041 0.000000 0.277627
O O8 0.848138 0.931935 0.000000
O O9 0.159686 0.701192 0.500000
O O10 0.253249 0.757845 0.783897
O O11 0.000000 0.709193 0.773391
O O12 0.355864 0.803456 0.500000
O O13 0.500000 0.816841 0.786124
#
# Coordination Sequence:
#
# PCOD9384220 Si02
#       4
#     8   8   8   8
#     4   7   9  14  27  49  75 103 139 182 222 257
#     4   9  19  36  55  72  89 111 143 184 227 269
#     4   8  13  22  37  56  80 113 150 185 221 259
#     4  10  20  31  44  66  96 126 153 182 217 260
#
# _framework density 20.445398999999998
#
# number of rings (size 3 to 8) (size 9 to 14) (size 15 to 20)
#    0.000    3.500    0.000    3.750    0.000    3.000 
#    0.000    3.750    0.000    0.750    0.000    5.250 
#    0.000    1.000    0.000   11.500    0.000   13.250 
#
# Total GULP energy -178275.770572 kJ/mol
# GULP energy per Si atom -5571.117830 kJ/mol
# Density = 2.039886 g / cm^3
# Si number density = 20.445399 Si / 1000 Ang^3
#
#
#
# Elastic Constant Matrix: (Units=GPa)
#
#
# Indices 1 2 3 4 5 6 
#
# 1 116.8049 121.3156 4.7389 0.0000 0.0000 0.0000
# 2 121.3156 214.0551 1.2287 0.0000 0.0000 0.0000
# 3 4.7389 1.2287 57.7437 0.0000 0.0000 0.0000
# 4 0.0000 0.0000 0.0000 88.0143 0.0000 0.0000
# 5 0.0000 0.0000 0.0000 0.0000 -7.1117 0.0000
# 6 0.0000 0.0000 0.0000 0.0000 0.0000 -6.7601
#
#
#
# Elastic Compliance Matrix: (Units=1/GPa)
#
#
# Indices 1 2 3 4 5 6 
#
# 1 0.020935 -0.011857 -0.001466 0.000000 0.000000 0.000000
# 2 -0.011857 0.011387 0.000731 0.000000 0.000000 0.000000
# 3 -0.001466 0.000731 0.017423 0.000000 0.000000 0.000000
# 4 0.000000 0.000000 0.000000 0.011362 0.000000 0.000000
# 5 0.000000 0.000000 0.000000 0.000000 -0.140613 0.000000
# 6 0.000000 0.000000 0.000000 0.000000 0.000000 -0.147927
#
#
# Mechanical properties :
#
#
# Convention : Reuss Voigt Hill
#
# Bulk Modulus (GPa) = 40.71374 71.46336 56.08855
# Shear Modulus (GPa) = -25.76489 32.24986 3.24248
#
# Velocity S-wave (km/s) = -3.55375 3.97591 1.26070
# Velocity P-wave (km/s) = 1.76572 7.49042 5.44170
#
# Compressibility (1/GPa) = 0.02456173
#
# Stress axis : x y z
#
# Youngs Moduli (GPa) = 47.76629 87.81753 57.39651
#
# Poissons Ratio (x) = 1.04122 0.08413
# Poissons Ratio (y) = 0.56635 -0.04194
# Poissons Ratio (z) = 0.07002 -0.06417
#
# Static dielectric constant tensor:
#      x y z
#    x 1.686340 0.000000 0.000000 
#    y 0.000000 1.759360 0.000000 
#    z 0.000000 0.000000 1.800230 
# 
# From -- ./inp_files/964.got.cif
#   From: 2010.05.17/outbox.cif.g08.bks.cpg/sg47_1_cif.got.tgz:964.got - 2010.06.03 20:15:42.
