data_PCOD9384314
_publ_section_title
;
Structure prediction by ZEFSAII (Michael W. Deem and Ramdas Pophale) SiO2 
 PCOD9384314
Probable space group: P M M M
;
_chemical_formula_sum "Si O2"
_cell_formula_units_Z 36
_cell_length_a 7.888786
_cell_length_b 9.864340
_cell_length_c 23.498437
_cell_angle_alpha 90.000000
_cell_angle_beta 90.000000
_cell_angle_gamma 90.000000
_cell_volume 1828.593552
_symmetry_space_group_name_H-M "P M M M"
_symmetry_group_IT_number 47
_symmetry_cell_setting 'orthorhombic'
loop_
_space_group_symop_operation_xyz
x,y,z
-x,-y,z
x,-y,-z
-x,y,-z
-x,-y,-z
x,y,-z
-x,y,z
x,-y,z
loop_
_atom_site_type_symbol
_atom_site_label
_atom_site_fract_x
_atom_site_fract_y
_atom_site_fract_z
Si Si1 0.792974 0.845203 0.064834
Si Si2 0.704021 0.152632 0.602315
Si Si3 0.201045 0.347771 0.500000
Si Si4 0.295295 0.153884 0.268478
Si Si5 0.203190 0.346600 0.834368
O O1 0.731519 0.739850 0.111875
O O2 0.000000 0.844189 0.065537
O O3 0.741039 0.000000 0.078042
O O4 0.741536 0.813417 0.000000
O O5 0.500000 0.147353 0.603947
O O6 0.750897 0.262392 0.555684
O O7 0.761839 0.183241 0.666782
O O8 0.763695 0.000000 0.587179
O O9 0.274416 0.500000 0.500000
O O10 0.000000 0.358807 0.500000
O O11 0.500000 0.153499 0.268590
O O12 0.237537 0.262466 0.222694
O O13 0.239417 0.000000 0.253874
O O14 0.269870 0.500000 0.832099
O O15 0.000000 0.354615 0.840837
#
# Coordination Sequence:
#
# PCOD9384314 Si02
#       5
#     8   8   4   8   8
#     4   8  14  26  45  68  94 127 168 210 249 292
#     4   9  19  37  59  79  98 126 169 214 250 291
#     4  11  24  37  50  76 112 141 164 197 244 296
#     4   9  19  36  56  76  98 128 168 211 252 294
#     4  10  20  31  46  73 106 136 165 201 249 302
#
# _framework density 19.687260999999999
#
# number of rings (size 3 to 8) (size 9 to 14) (size 15 to 20)
#    0.000    2.778    0.000    3.333    0.000    6.667 
#    0.000    8.889    0.000    0.667    0.000    4.667 
#    0.000    0.000    0.000    0.000    0.000    0.000 
#
# Total GULP energy -200858.567602 kJ/mol
# GULP energy per Si atom -5579.404656 kJ/mol
# Density = 1.964245 g / cm^3
# Si number density = 19.687261 Si / 1000 Ang^3
#
#
#
# Elastic Constant Matrix: (Units=GPa)
#
#
# Indices 1 2 3 4 5 6 
#
# 1 18.8534 11.7338 7.5501 0.0000 0.0000 0.0000
# 2 11.7338 204.7877 152.8563 0.0000 0.0000 0.0000
# 3 7.5501 152.8563 165.9575 0.0000 0.0000 0.0000
# 4 0.0000 0.0000 0.0000 -12.7435 0.0000 0.0000
# 5 0.0000 0.0000 0.0000 0.0000 26.8811 0.0000
# 6 0.0000 0.0000 0.0000 0.0000 0.0000 20.5696
#
#
#
# Elastic Compliance Matrix: (Units=1/GPa)
#
#
# Indices 1 2 3 4 5 6 
#
# 1 0.055088 -0.004114 0.001283 0.000000 0.000000 0.000000
# 2 -0.004114 0.015933 -0.014488 0.000000 0.000000 0.000000
# 3 0.001283 -0.014488 0.019311 0.000000 0.000000 0.000000
# 4 0.000000 0.000000 0.000000 -0.078471 0.000000 0.000000
# 5 0.000000 0.000000 0.000000 0.000000 0.037201 0.000000
# 6 0.000000 0.000000 0.000000 0.000000 0.000000 0.048616
#
#
# Mechanical properties :
#
#
# Convention : Reuss Voigt Hill
#
# Bulk Modulus (GPa) = 17.95517 81.54212 49.74864
# Shear Modulus (GPa) = 33.13920 21.43866 27.28893
#
# Velocity S-wave (km/s) = 4.10723 3.30352 3.72710
# Velocity P-wave (km/s) = 5.62428 7.48730 6.62164
#
# Compressibility (1/GPa) = 0.05569427
#
# Stress axis : x y z
#
# Youngs Moduli (GPa) = 18.15288 62.76399 51.78313
#
# Poissons Ratio (x) = 0.25823 -0.06646
# Poissons Ratio (y) = 0.07469 0.75022
# Poissons Ratio (z) = -0.02330 0.90931
#
# Static dielectric constant tensor:
#      x y z
#    x 1.725980 0.000000 0.000000 
#    y 0.000000 1.688130 0.000000 
#    z 0.000000 0.000000 1.676740 
# 
# From -- ./inp_files/1388.got.cif
#   From: 2010.05.17/outbox.cif.g08.bks.cpg/sg47_1_cif.got.tgz:1388.got - 2010.06.03 20:15:42.
