data_PCOD9384664
_publ_section_title
;
Structure prediction by ZEFSAII (Michael W. Deem and Ramdas Pophale) SiO2 
 PCOD9384664
Probable space group: P M M M
;
_chemical_formula_sum "Si O2"
_cell_formula_units_Z 64
_cell_length_a 9.165481
_cell_length_b 23.551475
_cell_length_c 17.851093
_cell_angle_alpha 90.000000
_cell_angle_beta 90.000000
_cell_angle_gamma 90.000000
_cell_volume 3853.347586
_symmetry_space_group_name_H-M "P M M M"
_symmetry_group_IT_number 47
_symmetry_cell_setting 'orthorhombic'
loop_
_space_group_symop_operation_xyz
x,y,z
-x,-y,z
x,-y,-z
-x,y,-z
-x,-y,-z
x,y,-z
-x,y,z
x,-y,z
loop_
_atom_site_type_symbol
_atom_site_label
_atom_site_fract_x
_atom_site_fract_y
_atom_site_fract_z
Si Si1 0.827603 0.567140 0.735404
Si Si2 0.334285 0.239629 0.681115
Si Si3 0.827648 0.243709 0.911242
Si Si4 0.824780 0.152045 0.415037
Si Si5 0.333223 0.568808 0.583705
Si Si6 0.667254 0.150957 0.179603
Si Si7 0.824616 0.933790 0.282947
Si Si8 0.675411 0.669825 0.200560
O O1 0.798608 0.500000 0.746566
O O2 0.773107 0.582419 0.651607
O O3 0.738945 0.607047 0.791763
O O4 0.000000 0.576676 0.742580
O O5 0.500000 0.246489 0.653935
O O6 0.236613 0.210775 0.618175
O O7 0.335730 0.194759 0.750087
O O8 0.285601 0.297056 0.721962
O O9 0.756558 0.184716 0.883281
O O10 0.747501 0.293942 0.865940
O O11 0.000000 0.244013 0.893064
O O12 0.809974 0.250404 0.000000
O O13 0.774787 0.142179 0.500000
O O14 0.782518 0.101700 0.357567
O O15 0.000000 0.154333 0.414919
O O16 0.292459 0.588782 0.500000
O O17 0.500000 0.587582 0.599835
O O18 0.336688 0.500000 0.580513
O O19 0.500000 0.140330 0.157340
O O20 0.746149 0.095734 0.212646
O O21 0.000000 0.928381 0.274501
O O22 0.788662 0.000000 0.290008
O O23 0.500000 0.670869 0.193891
#
# Coordination Sequence:
#
# PCOD9384664 Si02
#       8
#     8   8   8   8   8   8   8   8
#     4  10  20  32  48  72 101 133 168 206 249 297
#     4   8  16  30  46  65  87 116 156 198 242 287
#     4  10  20  34  55  82 107 128 152 189 240 294
#     4   9  17  28  43  65  93 126 165 209 254 295
#     4   8  14  26  44  64  87 118 157 200 243 284
#     4   9  17  30  49  72  98 127 160 199 239 283
#     4   9  17  29  46  68  96 133 173 210 250 295
#     4  10  20  34  53  75  99 128 162 200 240 288
#
# _framework density 16.608934999999999
#
# number of rings (size 3 to 8) (size 9 to 14) (size 15 to 20)
#    0.000    2.875    0.000    2.625    0.000    6.250 
#    0.000    3.125    0.000    1.500    0.000    8.750 
#    0.000    0.000    0.000    0.000    0.000    0.000 
#
# Total GULP energy -356471.109718 kJ/mol
# GULP energy per Si atom -5569.861089 kJ/mol
# Density = 1.657113 g / cm^3
# Si number density = 16.608935 Si / 1000 Ang^3
#
#
#
# Elastic Constant Matrix: (Units=GPa)
#
#
# Indices 1 2 3 4 5 6 
#
# 1 74.9353 52.2403 55.4472 0.0000 0.0000 0.0000
# 2 52.2403 82.1942 47.1689 0.0000 0.0000 0.0000
# 3 55.4472 47.1689 79.2529 0.0000 0.0000 0.0000
# 4 0.0000 0.0000 0.0000 16.6577 0.0000 0.0000
# 5 0.0000 0.0000 0.0000 0.0000 18.0068 0.0000
# 6 0.0000 0.0000 0.0000 0.0000 0.0000 22.0742
#
#
#
# Elastic Compliance Matrix: (Units=1/GPa)
#
#
# Indices 1 2 3 4 5 6 
#
# 1 0.034126 -0.012132 -0.016655 0.000000 0.000000 0.000000
# 2 -0.012132 0.022790 -0.005076 0.000000 0.000000 0.000000
# 3 -0.016655 -0.005076 0.027291 0.000000 0.000000 0.000000
# 4 0.000000 0.000000 0.000000 0.060032 0.000000 0.000000
# 5 0.000000 0.000000 0.000000 0.000000 0.055535 0.000000
# 6 0.000000 0.000000 0.000000 0.000000 0.000000 0.045302
#
#
# Mechanical properties :
#
#
# Convention : Reuss Voigt Hill
#
# Bulk Modulus (GPa) = 60.67439 60.67722 60.67581
# Shear Modulus (GPa) = 15.70871 16.78281 16.24576
#
# Velocity S-wave (km/s) = 3.07872 3.18224 3.13091
# Velocity P-wave (km/s) = 7.01773 7.07915 7.04851
#
# Compressibility (1/GPa) = 0.01648142
#
# Stress axis : x y z
#
# Youngs Moduli (GPa) = 29.30343 43.87897 36.64184
#
# Poissons Ratio (x) = 0.53232 0.61026
# Poissons Ratio (y) = 0.35550 0.18601
# Poissons Ratio (z) = 0.48804 0.22274
#
# Static dielectric constant tensor:
#      x y z
#    x 1.562310 0.000000 0.000000 
#    y 0.000000 1.566450 0.000000 
#    z 0.000000 0.000000 1.550060 
# 
# From -- ./inp_files/27142.got.cif
#   From: 2010.05.17/outbox.cif.g08.bks.cpg/sg47_14_cif.got.tgz:27142.got - 2010.06.03 20:15:42.
