data_PCOD9384953
_publ_section_title
;
Structure prediction by ZEFSAII (Michael W. Deem and Ramdas Pophale) SiO2 
 PCOD9384953
Probable space group: P M M M
;
_chemical_formula_sum "Si O2"
_cell_formula_units_Z 52
_cell_length_a 14.064038
_cell_length_b 26.217491
_cell_length_c 8.342929
_cell_angle_alpha 90.000000
_cell_angle_beta 90.000000
_cell_angle_gamma 90.000000
_cell_volume 3076.236398
_symmetry_space_group_name_H-M "P M M M"
_symmetry_group_IT_number 47
_symmetry_cell_setting 'orthorhombic'
loop_
_space_group_symop_operation_xyz
x,y,z
-x,-y,z
x,-y,-z
-x,y,-z
-x,-y,-z
x,y,-z
-x,y,z
x,-y,z
loop_
_atom_site_type_symbol
_atom_site_label
_atom_site_fract_x
_atom_site_fract_y
_atom_site_fract_z
Si Si1 0.258155 0.695295 0.817528
Si Si2 0.384718 0.500000 0.187368
Si Si3 0.384920 0.108389 0.818205
Si Si4 0.615192 0.000000 0.312283
Si Si5 0.613292 0.609035 0.686506
Si Si6 0.609752 0.782862 0.312135
Si Si7 0.886348 0.623636 0.681615
Si Si8 0.884895 0.441153 0.000000
O O1 0.334810 0.650079 0.794743
O O2 0.314392 0.746048 0.769479
O O3 0.170723 0.676159 0.709053
O O4 0.225634 0.698565 0.000000
O O5 0.500000 0.500000 0.197822
O O6 0.353836 0.551970 0.271720
O O7 0.360778 0.500000 0.000000
O O8 0.500000 0.104944 0.815629
O O9 0.362978 0.158008 0.713644
O O10 0.349511 0.053110 0.761936
O O11 0.354932 0.118269 0.000000
O O12 0.500000 0.000000 0.292715
O O13 0.634928 0.000000 0.500000
O O14 0.632015 0.620498 0.500000
O O15 0.500000 0.611675 0.711223
O O16 0.608255 0.770846 0.500000
O O17 0.500000 0.775952 0.251635
O O18 0.865338 0.604184 0.500000
O O19 0.858331 0.587845 0.834110
O O20 0.000000 0.630539 0.690951
O O21 0.852817 0.500000 0.000000
O O22 0.000000 0.441895 0.000000
#
# Coordination Sequence:
#
# PCOD9384953 Si02
#       8
#     8   4   8   4   8   8   8   4
#     4  12  23  35  52  73  96 125 162 201 241 292
#     4   9  17  31  49  67  88 115 148 189 235 279
#     4   9  16  26  40  60  87 121 162 206 248 288
#     4   9  15  23  37  57  83 119 162 203 244 289
#     4  10  20  34  50  68  92 121 154 192 233 280
#     4  10  20  33  48  68  97 131 168 210 251 293
#     4  10  21  39  60  80 104 131 160 197 244 298
#     4   9  18  36  60  84 107 127 153 192 240 297
#
# _framework density 16.903773000000001
#
# number of rings (size 3 to 8) (size 9 to 14) (size 15 to 20)
#    0.000    2.077    0.769    3.692    0.000    7.692 
#    1.385    1.538    0.000    0.000    0.000    0.000 
#    0.000    0.000    0.000    0.692    0.000   12.846 
#
# Total GULP energy -290023.758542 kJ/mol
# GULP energy per Si atom -5577.379972 kJ/mol
# Density = 1.686530 g / cm^3
# Si number density = 16.903773 Si / 1000 Ang^3
#
#
#
# Elastic Constant Matrix: (Units=GPa)
#
#
# Indices 1 2 3 4 5 6 
#
# 1 52.0411 19.6511 14.4352 0.0000 0.0000 0.0000
# 2 19.6511 83.3912 26.2459 0.0000 0.0000 0.0000
# 3 14.4352 26.2459 83.1264 0.0000 0.0000 0.0000
# 4 0.0000 0.0000 0.0000 23.2794 0.0000 0.0000
# 5 0.0000 0.0000 0.0000 0.0000 16.5609 0.0000
# 6 0.0000 0.0000 0.0000 0.0000 0.0000 -24.6260
#
#
#
# Elastic Compliance Matrix: (Units=1/GPa)
#
#
# Indices 1 2 3 4 5 6 
#
# 1 0.021505 -0.004322 -0.002370 0.000000 0.000000 0.000000
# 2 -0.004322 0.014183 -0.003728 0.000000 0.000000 0.000000
# 3 -0.002370 -0.003728 0.013618 0.000000 0.000000 0.000000
# 4 0.000000 0.000000 0.000000 0.042956 0.000000 0.000000
# 5 0.000000 0.000000 0.000000 0.000000 0.060383 0.000000
# 6 0.000000 0.000000 0.000000 0.000000 0.000000 -0.040608
#
#
# Mechanical properties :
#
#
# Convention : Reuss Voigt Hill
#
# Bulk Modulus (GPa) = 35.12723 37.69148 36.40935
# Shear Modulus (GPa) = 35.12067 13.59131 24.35599
#
# Velocity S-wave (km/s) = 4.56310 2.83864 3.79999
# Velocity P-wave (km/s) = 6.97054 5.75238 6.39055
#
# Compressibility (1/GPa) = 0.02846795
#
# Stress axis : x y z
#
# Youngs Moduli (GPa) = 46.50109 70.50540 73.43019
#
# Poissons Ratio (x) = 0.30471 0.17402
# Poissons Ratio (y) = 0.20097 0.27372
# Poissons Ratio (z) = 0.11020 0.26282
#
# Static dielectric constant tensor:
#      x y z
#    x 1.575320 0.000000 0.000000 
#    y 0.000000 1.579270 0.000000 
#    z 0.000000 0.000000 1.610680 
# 
# From -- ./inp_files/7713.got.cif
#   From: 2010.05.17/outbox.cif.g08.bks.cpg/sg47_4_cif.got.tgz:7713.got - 2010.06.03 20:15:42.
