data_PCOD9384435
_publ_section_title
;
Structure prediction by ZEFSAII (Michael W. Deem and Ramdas Pophale) SiO2 
 PCOD9384435
Probable space group: P M M M
;
_chemical_formula_sum "Si O2"
_cell_formula_units_Z 48
_cell_length_a 7.337832
_cell_length_b 32.474573
_cell_length_c 9.428445
_cell_angle_alpha 90.000000
_cell_angle_beta 90.000000
_cell_angle_gamma 90.000000
_cell_volume 2246.732076
_symmetry_space_group_name_H-M "P M M M"
_symmetry_group_IT_number 47
_symmetry_cell_setting 'orthorhombic'
loop_
_space_group_symop_operation_xyz
x,y,z
-x,-y,z
x,-y,-z
-x,y,-z
-x,-y,-z
x,y,-z
-x,y,z
x,-y,z
loop_
_atom_site_type_symbol
_atom_site_label
_atom_site_fract_x
_atom_site_fract_y
_atom_site_fract_z
Si Si1 0.777346 0.365740 0.165251
Si Si2 0.717347 0.795410 0.839469
Si Si3 0.721750 0.953811 0.836299
Si Si4 0.782118 0.286826 0.339466
Si Si5 0.219424 0.455735 0.169659
Si Si6 0.277178 0.874366 0.337097
O O1 0.714429 0.327516 0.258773
O O2 0.717600 0.410891 0.220001
O O3 0.000000 0.365931 0.165863
O O4 0.724129 0.360885 0.000000
O O5 0.500000 0.800542 0.849531
O O6 0.748377 0.753825 0.752255
O O7 0.784856 0.835156 0.753877
O O8 0.788510 0.792743 0.000000
O O9 0.500000 0.953728 0.834719
O O10 0.781431 0.916887 0.735998
O O11 0.779138 0.000000 0.794761
O O12 0.775600 0.946686 0.000000
O O13 0.712485 0.282812 0.500000
O O14 0.000000 0.291295 0.348140
O O15 0.286883 0.500000 0.225612
O O16 0.000000 0.456135 0.186851
O O17 0.253858 0.455564 0.000000
O O18 0.219992 0.871311 0.500000
O O19 0.500000 0.874238 0.336463
#
# Coordination Sequence:
#
# PCOD9384435 Si02
#       6
#     8   8   8   8   8   8
#     4   8  13  22  37  56  79 109 143 177 213 253
#     4  10  20  33  49  67  87 114 149 187 225 265
#     4   8  13  21  33  50  75 108 143 176 210 251
#     4  10  20  32  46  65  90 119 149 182 221 264
#     4   7   9  14  27  49  75 102 134 171 208 246
#     4   9  16  25  38  57  82 111 141 175 217 263
#
# _framework density 21.364363999999998
#
# number of rings (size 3 to 8) (size 9 to 14) (size 15 to 20)
#    0.000    3.333    0.000    3.500    0.000    4.333 
#    0.000    1.667    0.000    0.500    0.000    3.500 
#    0.000    1.333    0.000   14.667    0.000   18.500 
#
# Total GULP energy -267782.243736 kJ/mol
# GULP energy per Si atom -5578.796745 kJ/mol
# Density = 2.131574 g / cm^3
# Si number density = 21.364364 Si / 1000 Ang^3
#
#
#
# Elastic Constant Matrix: (Units=GPa)
#
#
# Indices 1 2 3 4 5 6 
#
# 1 80.7344 4.4517 6.6669 0.0000 0.0000 0.0000
# 2 4.4517 260.9209 141.6082 0.0000 0.0000 0.0000
# 3 6.6669 141.6082 162.3070 0.0000 0.0000 0.0000
# 4 0.0000 0.0000 0.0000 28.5021 0.0000 0.0000
# 5 0.0000 0.0000 0.0000 0.0000 -3.9443 0.0000
# 6 0.0000 0.0000 0.0000 0.0000 0.0000 5.6003
#
#
#
# Elastic Compliance Matrix: (Units=1/GPa)
#
#
# Indices 1 2 3 4 5 6 
#
# 1 0.012431 0.000124 -0.000618 0.000000 0.000000 0.000000
# 2 0.000124 0.007281 -0.006357 0.000000 0.000000 0.000000
# 3 -0.000618 -0.006357 0.011733 0.000000 0.000000 0.000000
# 4 0.000000 0.000000 0.000000 0.035085 0.000000 0.000000
# 5 0.000000 0.000000 0.000000 0.000000 -0.253530 0.000000
# 6 0.000000 0.000000 0.000000 0.000000 0.000000 0.178561
#
#
# Mechanical properties :
#
#
# Convention : Reuss Voigt Hill
#
# Bulk Modulus (GPa) = 56.36942 89.93510 73.15226
# Shear Modulus (GPa) = 447.30779 29.44732 238.37756
#
# Velocity S-wave (km/s) = 14.48535 3.71663 10.57447
# Velocity P-wave (km/s) = 17.49884 7.78492 13.54279
#
# Compressibility (1/GPa) = 0.01774011
#
# Stress axis : x y z
#
# Youngs Moduli (GPa) = 80.44694 137.34868 85.22874
#
# Poissons Ratio (x) = -0.01696 0.05270
# Poissons Ratio (y) = -0.00994 0.54183
# Poissons Ratio (z) = 0.04975 0.87317
#
# Static dielectric constant tensor:
#      x y z
#    x 1.952440 0.000000 0.000000 
#    y 0.000000 1.765770 0.000000 
#    z 0.000000 0.000000 1.668980 
# 
# From -- ./inp_files/2520.got.cif
#   From: 2010.05.17/outbox.cif.g08.bks.cpg/sg47_2_cif.got.tgz:2520.got - 2010.06.03 20:15:42.
