data_PCOD9384675
_publ_section_title
;
Structure prediction by ZEFSAII (Michael W. Deem and Ramdas Pophale) SiO2 
 PCOD9384675
Probable space group: P M M M
;
_chemical_formula_sum "Si O2"
_cell_formula_units_Z 64
_cell_length_a 16.128466
_cell_length_b 25.563669
_cell_length_c 7.583357
_cell_angle_alpha 90.000000
_cell_angle_beta 90.000000
_cell_angle_gamma 90.000000
_cell_volume 3126.639069
_symmetry_space_group_name_H-M "P M M M"
_symmetry_group_IT_number 47
_symmetry_cell_setting 'orthorhombic'
loop_
_space_group_symop_operation_xyz
x,y,z
-x,-y,z
x,-y,-z
-x,y,-z
-x,-y,-z
x,y,-z
-x,y,z
x,-y,z
loop_
_atom_site_type_symbol
_atom_site_label
_atom_site_fract_x
_atom_site_fract_y
_atom_site_fract_z
Si Si1 0.590063 0.670786 0.215236
Si Si2 0.369046 0.211442 0.211528
Si Si3 0.234470 0.941670 0.287930
Si Si4 0.227225 0.353125 0.210775
Si Si5 0.411311 0.904191 0.704806
Si Si6 0.181571 0.760465 0.213600
Si Si7 0.909649 0.140400 0.788366
Si Si8 0.907315 0.559629 0.711941
O O1 0.500000 0.649904 0.273241
O O2 0.595631 0.732182 0.265613
O O3 0.676859 0.644662 0.274837
O O4 0.590242 0.669180 0.000000
O O5 0.405745 0.158860 0.289192
O O6 0.271391 0.214624 0.251788
O O7 0.379294 0.208073 0.000000
O O8 0.240596 0.942705 0.500000
O O9 0.325212 0.925181 0.217793
O O10 0.163643 0.899983 0.247632
O O11 0.213209 0.000000 0.226160
O O12 0.185573 0.299168 0.278478
O O13 0.166967 0.401516 0.242960
O O14 0.234018 0.347331 0.000000
O O15 0.412625 0.920507 0.500000
O O16 0.500000 0.920184 0.783927
O O17 0.114357 0.801695 0.278765
O O18 0.174172 0.757832 0.000000
O O19 0.000000 0.123737 0.722449
O O20 0.913827 0.144213 0.000000
O O21 0.910574 0.557970 0.500000
O O22 0.893226 0.500000 0.774208
O O23 0.000000 0.576234 0.773324
#
# Coordination Sequence:
#
# PCOD9384675 Si02
#       8
#     8   8   8   8   8   8   8   8
#     4   8  14  25  43  71 106 138 165 195 236 287
#     4   9  15  27  49  72  96 130 166 195 230 285
#     4  10  22  39  55  70  93 127 164 205 251 296
#     4   9  17  29  50  79 105 132 168 207 243 284
#     4  10  20  32  48  72  98 123 156 200 248 295
#     4   8  15  29  48  74 106 132 155 191 242 292
#     4  10  20  35  56  78 100 128 160 197 246 302
#     4   9  19  36  54  71  97 134 171 209 257 305
#
# _framework density 20.469263000000002
#
# number of rings (size 3 to 8) (size 9 to 14) (size 15 to 20)
#    0.000    2.875    1.250    2.250    0.000    2.750 
#    0.000    7.500    0.000    1.500    0.000    4.375 
#    0.000    0.000    0.000    0.000    0.000    0.000 
#
# Total GULP energy -356795.931169 kJ/mol
# GULP energy per Si atom -5574.936425 kJ/mol
# Density = 2.042267 g / cm^3
# Si number density = 20.469263 Si / 1000 Ang^3
#
#
#
# Elastic Constant Matrix: (Units=GPa)
#
#
# Indices 1 2 3 4 5 6 
#
# 1 184.0273 89.8164 9.8254 0.0000 0.0000 0.0000
# 2 89.8164 99.3558 0.9370 0.0000 0.0000 0.0000
# 3 9.8254 0.9370 43.0916 0.0000 0.0000 0.0000
# 4 0.0000 0.0000 0.0000 16.4276 0.0000 0.0000
# 5 0.0000 0.0000 0.0000 0.0000 7.1168 0.0000
# 6 0.0000 0.0000 0.0000 0.0000 0.0000 -3.9192
#
#
#
# Elastic Compliance Matrix: (Units=1/GPa)
#
#
# Indices 1 2 3 4 5 6 
#
# 1 0.009905 -0.008934 -0.002064 0.000000 0.000000 0.000000
# 2 -0.008934 0.018126 0.001643 0.000000 0.000000 0.000000
# 3 -0.002064 0.001643 0.023641 0.000000 0.000000 0.000000
# 4 0.000000 0.000000 0.000000 0.060873 0.000000 0.000000
# 5 0.000000 0.000000 0.000000 0.000000 0.140512 0.000000
# 6 0.000000 0.000000 0.000000 0.000000 0.000000 -0.255155
#
#
# Mechanical properties :
#
#
# Convention : Reuss Voigt Hill
#
# Bulk Modulus (GPa) = 30.33889 58.62583 44.48236
# Shear Modulus (GPa) = 181.16820 18.98478 100.07649
#
# Velocity S-wave (km/s) = 9.41805 3.04875 6.99980
# Velocity P-wave (km/s) = 11.53776 6.41064 9.33317
#
# Compressibility (1/GPa) = 0.03296100
#
# Stress axis : x y z
#
# Youngs Moduli (GPa) = 100.96333 55.17023 42.29888
#
# Poissons Ratio (x) = 0.49290 0.08731
# Poissons Ratio (y) = 0.90202 -0.06950
# Poissons Ratio (z) = 0.20840 -0.09064
#
# Static dielectric constant tensor:
#      x y z
#    x 1.771160 0.000000 0.000000 
#    y 0.000000 1.704140 0.000000 
#    z 0.000000 0.000000 1.794100 
# 
# From -- ./inp_files/7933.got.cif
#   From: 2010.05.17/outbox.cif.g08.bks.cpg/sg47_4_cif.got.tgz:7933.got - 2010.06.03 20:15:42.
