data_PCOD9384843
_publ_section_title
;
Structure prediction by ZEFSAII (Michael W. Deem and Ramdas Pophale) SiO2 
 PCOD9384843
Probable space group: P M M M
;
_chemical_formula_sum "Si O2"
_cell_formula_units_Z 48
_cell_length_a 10.320102
_cell_length_b 8.933259
_cell_length_c 29.997710
_cell_angle_alpha 90.000000
_cell_angle_beta 90.000000
_cell_angle_gamma 90.000000
_cell_volume 2765.553202
_symmetry_space_group_name_H-M "P M M M"
_symmetry_group_IT_number 47
_symmetry_cell_setting 'orthorhombic'
loop_
_space_group_symop_operation_xyz
x,y,z
-x,-y,z
x,-y,-z
-x,y,-z
-x,-y,-z
x,y,-z
-x,y,z
x,-y,z
loop_
_atom_site_type_symbol
_atom_site_label
_atom_site_fract_x
_atom_site_fract_y
_atom_site_fract_z
Si Si1 0.657053 0.328272 0.787472
Si Si2 0.349106 0.821502 0.120431
Si Si3 0.346015 0.319542 0.312231
Si Si4 0.250890 0.820980 0.401198
Si Si5 0.000000 0.320684 0.446984
Si Si6 0.851430 0.680286 0.051873
Si Si7 0.500000 0.325293 0.446594
O O1 0.500000 0.330123 0.785723
O O2 0.699898 0.500000 0.794175
O O3 0.692744 0.231065 0.830133
O O4 0.696687 0.277663 0.737981
O O5 0.500000 0.773596 0.113951
O O6 0.254139 0.751666 0.084048
O O7 0.345340 0.000000 0.117799
O O8 0.500000 0.285558 0.317363
O O9 0.333277 0.500000 0.316263
O O10 0.268246 0.236752 0.350680
O O11 0.125194 0.751105 0.424162
O O12 0.374544 0.756508 0.427499
O O13 0.248022 0.000000 0.402813
O O14 0.000000 0.500000 0.440841
O O15 0.000000 0.290974 0.500000
O O16 0.844029 0.500000 0.055050
O O17 0.000000 0.723738 0.063157
O O18 0.828947 0.720490 0.000000
O O19 0.500000 0.500000 0.432318
O O20 0.500000 0.321156 0.500000
#
# Coordination Sequence:
#
# PCOD9384843 Si02
#       7
#     8   8   8   8   4   8   4
#     4   8  15  29  51  78 106 142 184 223 263 312
#     4  10  20  32  49  78 113 145 176 218 271 324
#     4   9  17  32  56  83 112 146 184 224 267 323
#     4  12  24  37  58  88 117 145 179 228 284 330
#     4  11  25  45  65  81 105 149 193 225 270 335
#     4   9  19  36  56  76 100 136 183 231 275 322
#     4  11  23  39  59  83 113 149 189 229 268 321
#
# _framework density 17.356383000000001
#
# number of rings (size 3 to 8) (size 9 to 14) (size 15 to 20)
#    0.000    2.167    0.833    4.500    0.000    6.000 
#    0.000    4.167    1.833    0.000    0.000    0.000 
#    0.000    0.000    0.000    0.000    0.000    0.000 
#
# Total GULP energy -267855.047433 kJ/mol
# GULP energy per Si atom -5580.313488 kJ/mol
# Density = 1.731688 g / cm^3
# Si number density = 17.356383 Si / 1000 Ang^3
#
#
#
# Elastic Constant Matrix: (Units=GPa)
#
#
# Indices 1 2 3 4 5 6 
#
# 1 118.9395 61.2844 90.1121 0.0000 0.0000 0.0000
# 2 61.2844 82.3565 77.0411 0.0000 0.0000 0.0000
# 3 90.1121 77.0411 158.3658 0.0000 0.0000 0.0000
# 4 0.0000 0.0000 0.0000 -39.3317 0.0000 0.0000
# 5 0.0000 0.0000 0.0000 0.0000 27.2433 0.0000
# 6 0.0000 0.0000 0.0000 0.0000 0.0000 27.6113
#
#
#
# Elastic Compliance Matrix: (Units=1/GPa)
#
#
# Indices 1 2 3 4 5 6 
#
# 1 0.016425 -0.006386 -0.006240 0.000000 0.000000 0.000000
# 2 -0.006386 0.024765 -0.008414 0.000000 0.000000 0.000000
# 3 -0.006240 -0.008414 0.013958 0.000000 0.000000 0.000000
# 4 0.000000 0.000000 0.000000 -0.025425 0.000000 0.000000
# 5 0.000000 0.000000 0.000000 0.000000 0.036706 0.000000
# 6 0.000000 0.000000 0.000000 0.000000 0.000000 0.036217
#
#
# Mechanical properties :
#
#
# Convention : Reuss Voigt Hill
#
# Bulk Modulus (GPa) = 76.51286 90.72634 83.61960
# Shear Modulus (GPa) = 33.53838 11.85286 22.69562
#
# Velocity S-wave (km/s) = 4.40060 2.61609 3.62003
# Velocity P-wave (km/s) = 8.36657 7.84292 8.10897
#
# Compressibility (1/GPa) = 0.01306970
#
# Stress axis : x y z
#
# Youngs Moduli (GPa) = 60.88170 40.37927 71.64205
#
# Poissons Ratio (x) = 0.25785 0.44703
# Poissons Ratio (y) = 0.38877 0.60281
# Poissons Ratio (z) = 0.37989 0.33976
#
# Static dielectric constant tensor:
#      x y z
#    x 1.499200 0.000000 0.000000 
#    y 0.000000 1.575660 0.000000 
#    z 0.000000 0.000000 1.593690 
# 
# From -- ./inp_files/2690.got.cif
#   From: 2010.05.17/outbox.cif.g08.bks.cpg/sg47_2_cif.got.tgz:2690.got - 2010.06.03 20:15:42.
