data_PCOD9384498
_publ_section_title
;
Structure prediction by ZEFSAII (Michael W. Deem and Ramdas Pophale) SiO2 
 PCOD9384498
Probable space group: P M M M
;
_chemical_formula_sum "Si O2"
_cell_formula_units_Z 52
_cell_length_a 8.736024
_cell_length_b 28.704066
_cell_length_c 11.991931
_cell_angle_alpha 90.000000
_cell_angle_beta 90.000000
_cell_angle_gamma 90.000000
_cell_volume 3007.089536
_symmetry_space_group_name_H-M "P M M M"
_symmetry_group_IT_number 47
_symmetry_cell_setting 'orthorhombic'
loop_
_space_group_symop_operation_xyz
x,y,z
-x,-y,z
x,-y,-z
-x,y,-z
-x,-y,-z
x,y,-z
-x,y,z
x,-y,z
loop_
_atom_site_type_symbol
_atom_site_label
_atom_site_fract_x
_atom_site_fract_y
_atom_site_fract_z
Si Si1 0.816579 0.174865 0.630299
Si Si2 0.815904 0.000000 0.867190
Si Si3 0.320180 0.551271 0.364748
Si Si4 0.685107 0.848733 0.000000
Si Si5 0.175877 0.647778 0.634305
Si Si6 0.684542 0.903988 0.220579
Si Si7 0.314017 0.741995 0.000000
Si Si8 0.682207 0.734443 0.752740
O O1 0.776189 0.181636 0.500000
O O2 0.746576 0.126748 0.677289
O O3 0.756256 0.218799 0.701949
O O4 0.000000 0.172994 0.639296
O O5 0.752111 0.954868 0.802803
O O6 0.000000 0.000000 0.865660
O O7 0.768397 0.000000 0.000000
O O8 0.310175 0.550975 0.500000
O O9 0.500000 0.555580 0.337229
O O10 0.265759 0.500000 0.326848
O O11 0.231490 0.596961 0.325869
O O12 0.733042 0.875008 0.889226
O O13 0.735098 0.795818 0.000000
O O14 0.500000 0.848343 0.000000
O O15 0.184717 0.647784 0.500000
O O16 0.276861 0.689808 0.679520
O O17 0.000000 0.655783 0.666066
O O18 0.500000 0.906381 0.225721
O O19 0.264611 0.723616 0.120487
O O20 0.500000 0.739499 0.000000
O O21 0.500000 0.742453 0.754622
#
# Coordination Sequence:
#
# PCOD9384498 Si02
#       8
#     8   4   8   4   8   8   4   8
#     4  11  24  40  56  78 111 145 176 215 264 316
#     4  11  23  37  56  87 120 145 173 213 265 318
#     4   8  14  26  45  69  97 131 174 220 261 306
#     4   9  16  31  55  82 109 132 163 216 267 302
#     4  10  20  32  46  70 107 144 176 214 261 311
#     4  11  21  37  61  85 110 141 179 219 261 311
#     4   9  18  34  53  79 105 130 166 217 268 304
#     4  11  21  35  56  78 103 137 178 219 261 313
#
# _framework density 17.292468
#
# number of rings (size 3 to 8) (size 9 to 14) (size 15 to 20)
#    0.000    1.923    2.308    3.000    0.000    4.615 
#    0.000    4.231    0.000    2.308    0.000    0.538 
#    0.000    4.308    0.000    0.000    0.000    0.000 
#
# Total GULP energy -289946.769444 kJ/mol
# GULP energy per Si atom -5575.899412 kJ/mol
# Density = 1.725311 g / cm^3
# Si number density = 17.292468 Si / 1000 Ang^3
#
#
#
# Elastic Constant Matrix: (Units=GPa)
#
#
# Indices 1 2 3 4 5 6 
#
# 1 46.6972 22.7217 31.7571 0.0000 0.0000 0.0000
# 2 22.7217 88.6896 24.3296 0.0000 0.0000 0.0000
# 3 31.7571 24.3296 69.5252 0.0000 0.0000 0.0000
# 4 0.0000 0.0000 0.0000 5.7898 0.0000 0.0000
# 5 0.0000 0.0000 0.0000 0.0000 13.2093 0.0000
# 6 0.0000 0.0000 0.0000 0.0000 0.0000 23.9707
#
#
#
# Elastic Compliance Matrix: (Units=1/GPa)
#
#
# Indices 1 2 3 4 5 6 
#
# 1 0.032775 -0.004746 -0.013310 0.000000 0.000000 0.000000
# 2 -0.004746 0.013160 -0.002437 0.000000 0.000000 0.000000
# 3 -0.013310 -0.002437 0.021316 0.000000 0.000000 0.000000
# 4 0.000000 0.000000 0.000000 0.172719 0.000000 0.000000
# 5 0.000000 0.000000 0.000000 0.000000 0.075704 0.000000
# 6 0.000000 0.000000 0.000000 0.000000 0.000000 0.041718
#
#
# Mechanical properties :
#
#
# Convention : Reuss Voigt Hill
#
# Bulk Modulus (GPa) = 38.07400 40.28098 39.17749
# Shear Modulus (GPa) = 12.28100 17.00086 14.64093
#
# Velocity S-wave (km/s) = 2.66784 3.13890 2.91291
# Velocity P-wave (km/s) = 5.61741 6.03999 5.83253
#
# Compressibility (1/GPa) = 0.02626464
#
# Stress axis : x y z
#
# Youngs Moduli (GPa) = 30.51064 75.98950 46.91319
#
# Poissons Ratio (x) = 0.36061 0.62442
# Poissons Ratio (y) = 0.14479 0.11435
# Poissons Ratio (z) = 0.40610 0.18522
#
# Static dielectric constant tensor:
#      x y z
#    x 1.591240 0.000000 0.000000 
#    y 0.000000 1.579320 0.000000 
#    z 0.000000 0.000000 1.596460 
# 
# From -- ./inp_files/15516.got.cif
#   From: 2010.05.17/outbox.cif.g08.bks.cpg/sg47_8_cif.got.tgz:15516.got - 2010.06.03 20:15:42.
