data_PCOD9384981
_publ_section_title
;
Structure prediction by ZEFSAII (Michael W. Deem and Ramdas Pophale) SiO2 
 PCOD9384981
Probable space group: P M M M
;
_chemical_formula_sum "Si O2"
_cell_formula_units_Z 64
_cell_length_a 19.394123
_cell_length_b 21.218005
_cell_length_c 7.707718
_cell_angle_alpha 90.000000
_cell_angle_beta 90.000000
_cell_angle_gamma 90.000000
_cell_volume 3171.761403
_symmetry_space_group_name_H-M "P M M M"
_symmetry_group_IT_number 47
_symmetry_cell_setting 'orthorhombic'
loop_
_space_group_symop_operation_xyz
x,y,z
-x,-y,z
x,-y,-z
-x,y,-z
-x,-y,-z
x,y,-z
-x,y,z
x,-y,z
loop_
_atom_site_type_symbol
_atom_site_label
_atom_site_fract_x
_atom_site_fract_y
_atom_site_fract_z
Si Si1 0.419567 0.928554 0.211431
Si Si2 0.686523 0.175155 0.805582
Si Si3 0.226225 0.704479 0.707039
Si Si4 0.075244 0.901696 0.794963
Si Si5 0.773963 0.570832 0.698517
Si Si6 0.926314 0.424472 0.198764
Si Si7 0.923188 0.246161 0.289728
Si Si8 0.777703 0.067266 0.699411
O O1 0.500000 0.919046 0.252776
O O2 0.373203 0.869795 0.274673
O O3 0.401088 0.000000 0.270958
O O4 0.413117 0.929337 0.000000
O O5 0.719225 0.239046 0.731718
O O6 0.749638 0.125840 0.804307
O O7 0.664034 0.190560 0.000000
O O8 0.219070 0.696945 0.500000
O O9 0.252321 0.636624 0.778158
O O10 0.148788 0.722588 0.772672
O O11 0.079941 0.826733 0.764521
O O12 0.140291 0.931134 0.703738
O O13 0.000000 0.922194 0.733103
O O14 0.079949 0.914681 0.000000
O O15 0.749736 0.566518 0.500000
O O16 0.764371 0.500000 0.775888
O O17 0.856277 0.585132 0.699097
O O18 0.930312 0.500000 0.187779
O O19 0.000000 0.403517 0.273870
O O20 0.919897 0.401345 0.000000
O O21 0.922714 0.249630 0.500000
O O22 0.000000 0.268438 0.230859
O O23 0.755189 0.073771 0.500000
O O24 0.753991 0.000000 0.770201
#
# Coordination Sequence:
#
# PCOD9384981 Si02
#       8
#     8   8   8   8   8   8   8   8
#     4   8  15  30  53  81 111 139 164 191 228 276
#     4  11  21  33  53  79 104 130 164 203 237 277
#     4  10  20  33  49  69  97 131 165 206 257 305
#     4  10  20  33  49  68  89 115 156 212 261 297
#     4   9  18  31  46  65  89 120 161 205 245 291
#     4   8  14  25  40  58  82 112 145 187 246 308
#     4   9  17  30  47  63  84 121 165 204 249 307
#     4  11  23  36  50  69  96 131 165 198 243 296
#
# _framework density 20.178063999999999
#
# number of rings (size 3 to 8) (size 9 to 14) (size 15 to 20)
#    0.000    2.500    1.250    2.250    0.000    3.750 
#    0.000    3.750    0.000    3.000    0.000    4.375 
#    0.000    0.500    0.000    6.250    0.000    0.000 
#
# Total GULP energy -356570.598619 kJ/mol
# GULP energy per Si atom -5571.415603 kJ/mol
# Density = 2.013214 g / cm^3
# Si number density = 20.178064 Si / 1000 Ang^3
#
#
#
# Elastic Constant Matrix: (Units=GPa)
#
#
# Indices 1 2 3 4 5 6 
#
# 1 94.7681 49.3043 2.8312 0.0000 0.0000 0.0000
# 2 49.3043 170.8838 7.9153 0.0000 0.0000 0.0000
# 3 2.8312 7.9153 39.9647 0.0000 0.0000 0.0000
# 4 0.0000 0.0000 0.0000 57.2275 0.0000 0.0000
# 5 0.0000 0.0000 0.0000 0.0000 5.3844 0.0000
# 6 0.0000 0.0000 0.0000 0.0000 0.0000 188.3790
#
#
#
# Elastic Compliance Matrix: (Units=1/GPa)
#
#
# Indices 1 2 3 4 5 6 
#
# 1 0.012417 -0.003575 -0.000172 0.000000 0.000000 0.000000
# 2 -0.003575 0.006935 -0.001120 0.000000 0.000000 0.000000
# 3 -0.000172 -0.001120 0.025256 0.000000 0.000000 0.000000
# 4 0.000000 0.000000 0.000000 0.017474 0.000000 0.000000
# 5 0.000000 0.000000 0.000000 0.000000 0.185721 0.000000
# 6 0.000000 0.000000 0.000000 0.000000 0.000000 0.005308
#
#
# Mechanical properties :
#
#
# Convention : Reuss Voigt Hill
#
# Bulk Modulus (GPa) = 28.67383 47.30203 37.98793
# Shear Modulus (GPa) = 18.21689 66.56925 42.39307
#
# Velocity S-wave (km/s) = 3.00793 5.75000 4.58858
# Velocity P-wave (km/s) = 5.12882 8.22050 6.85133
#
# Compressibility (1/GPa) = 0.03487500
#
# Stress axis : x y z
#
# Youngs Moduli (GPa) = 80.53496 144.19192 39.59435
#
# Poissons Ratio (x) = 0.51544 0.00680
# Poissons Ratio (y) = 0.28788 0.04436
# Poissons Ratio (z) = 0.01382 0.16154
#
# Static dielectric constant tensor:
#      x y z
#    x 1.724610 0.000000 0.000000 
#    y 0.000000 1.791370 0.000000 
#    z 0.000000 0.000000 1.752010 
# 
# From -- ./inp_files/11798.got.cif
#   From: 2010.05.17/outbox.cif.g08.bks.cpg/sg47_6_cif.got.tgz:11798.got - 2010.06.03 20:15:42.
