data_PCOD9384707
_publ_section_title
;
Structure prediction by ZEFSAII (Michael W. Deem and Ramdas Pophale) SiO2 
 PCOD9384707
Probable space group: P M M M
;
_chemical_formula_sum "Si O2"
_cell_formula_units_Z 48
_cell_length_a 32.337304
_cell_length_b 9.706026
_cell_length_c 7.926329
_cell_angle_alpha 90.000000
_cell_angle_beta 90.000000
_cell_angle_gamma 90.000000
_cell_volume 2487.810833
_symmetry_space_group_name_H-M "P M M M"
_symmetry_group_IT_number 47
_symmetry_cell_setting 'orthorhombic'
loop_
_space_group_symop_operation_xyz
x,y,z
-x,-y,z
x,-y,-z
-x,y,-z
-x,-y,-z
x,y,-z
-x,y,z
x,-y,z
loop_
_atom_site_type_symbol
_atom_site_label
_atom_site_fract_x
_atom_site_fract_y
_atom_site_fract_z
Si Si1 0.046928 0.657991 0.293929
Si Si2 0.453817 0.840659 0.793933
Si Si3 0.711292 0.657992 0.701092
Si Si4 0.199054 0.341943 0.799826
Si Si5 0.377719 0.657675 0.797324
Si Si6 0.122052 0.844244 0.298034
O O1 0.047343 0.659357 0.500000
O O2 0.055860 0.500000 0.243137
O O3 0.081983 0.761821 0.232584
O O4 0.000000 0.692520 0.242155
O O5 0.500000 0.795541 0.741979
O O6 0.416264 0.746400 0.733770
O O7 0.448342 0.000000 0.744013
O O8 0.453347 0.838089 0.000000
O O9 0.711709 0.654076 0.500000
O O10 0.710885 0.500000 0.768738
O O11 0.755229 0.715764 0.759161
O O12 0.667427 0.719141 0.756112
O O13 0.196150 0.500000 0.731405
O O14 0.162784 0.245595 0.734060
O O15 0.195038 0.349757 0.000000
O O16 0.379357 0.500000 0.732321
O O17 0.380802 0.651787 0.000000
O O18 0.117174 0.853239 0.500000
O O19 0.125258 0.000000 0.231431
#
# Coordination Sequence:
#
# PCOD9384707 Si02
#       6
#     8   8   8   8   8   8
#     4   8  14  26  46  72 100 130 165 203 240 280
#     4   8  14  25  41  62  89 120 152 185 223 269
#     4   9  17  30  49  71  94 121 153 191 237 287
#     4  10  20  34  53  74  95 124 164 205 244 289
#     4   9  16  26  43  68  94 117 147 190 233 272
#     4  10  20  32  48  73 104 135 165 199 242 290
#
# _framework density 19.294070000000001
#
# number of rings (size 3 to 8) (size 9 to 14) (size 15 to 20)
#    0.000    3.000    0.000    2.500    0.000    4.667 
#    0.000    4.167    0.000    4.500    0.000    7.000 
#    0.000    0.000    0.000    0.000    0.000    0.000 
#
# Total GULP energy -267513.238217 kJ/mol
# GULP energy per Si atom -5573.192463 kJ/mol
# Density = 1.925016 g / cm^3
# Si number density = 19.294070 Si / 1000 Ang^3
#
#
#
# Elastic Constant Matrix: (Units=GPa)
#
#
# Indices 1 2 3 4 5 6 
#
# 1 206.4998 106.1520 3.6113 0.0000 0.0000 0.0000
# 2 106.1520 92.8442 7.3418 0.0000 0.0000 0.0000
# 3 3.6113 7.3418 18.6478 0.0000 0.0000 0.0000
# 4 0.0000 0.0000 0.0000 7.7593 0.0000 0.0000
# 5 0.0000 0.0000 0.0000 0.0000 18.2350 0.0000
# 6 0.0000 0.0000 0.0000 0.0000 0.0000 53.1248
#
#
#
# Elastic Compliance Matrix: (Units=1/GPa)
#
#
# Indices 1 2 3 4 5 6 
#
# 1 0.011924 -0.013882 0.003156 0.000000 0.000000 0.000000
# 2 -0.013882 0.027280 -0.008052 0.000000 0.000000 0.000000
# 3 0.003156 -0.008052 0.056184 0.000000 0.000000 0.000000
# 4 0.000000 0.000000 0.000000 0.128878 0.000000 0.000000
# 5 0.000000 0.000000 0.000000 0.000000 0.054840 0.000000
# 6 0.000000 0.000000 0.000000 0.000000 0.000000 0.018824
#
#
# Mechanical properties :
#
#
# Convention : Reuss Voigt Hill
#
# Bulk Modulus (GPa) = 17.29138 61.35579 39.32358
# Shear Modulus (GPa) = 14.09398 29.21626 21.65512
#
# Velocity S-wave (km/s) = 2.70568 3.89557 3.35382
# Velocity P-wave (km/s) = 4.32925 7.21827 5.95171
#
# Compressibility (1/GPa) = 0.05783229
#
# Stress axis : x y z
#
# Youngs Moduli (GPa) = 83.86649 36.65737 17.79857
#
# Poissons Ratio (x) = 0.50889 -0.05618
# Poissons Ratio (y) = 1.16427 0.14331
# Poissons Ratio (z) = -0.26472 0.29516
#
# Static dielectric constant tensor:
#      x y z
#    x 1.681720 0.000000 0.000000 
#    y 0.000000 1.680130 0.000000 
#    z 0.000000 0.000000 1.704350 
# 
# From -- ./inp_files/2494.got.cif
#   From: 2010.05.17/outbox.cif.g08.bks.cpg/sg47_2_cif.got.tgz:2494.got - 2010.06.03 20:15:42.
