data_PCOD9384076
_publ_section_title
;
Structure prediction by ZEFSAII (Michael W. Deem and Ramdas Pophale) SiO2 
 PCOD9384076
Probable space group: P M M M
;
_chemical_formula_sum "Si O2"
_cell_formula_units_Z 64
_cell_length_a 29.411816
_cell_length_b 14.656823
_cell_length_c 9.014769
_cell_angle_alpha 90.000000
_cell_angle_beta 90.000000
_cell_angle_gamma 90.000000
_cell_volume 3886.120707
_symmetry_space_group_name_H-M "P M M M"
_symmetry_group_IT_number 47
_symmetry_cell_setting 'orthorhombic'
loop_
_space_group_symop_operation_xyz
x,y,z
-x,-y,z
x,-y,-z
-x,y,-z
-x,-y,-z
x,y,-z
-x,y,z
x,-y,z
loop_
_atom_site_type_symbol
_atom_site_label
_atom_site_fract_x
_atom_site_fract_y
_atom_site_fract_z
Si Si1 0.549855 0.389573 0.325421
Si Si2 0.919070 0.400045 0.676629
Si Si3 0.949430 0.788088 0.821001
Si Si4 0.235191 0.899760 0.676665
Si Si5 0.171479 0.644057 0.168643
Si Si6 0.356960 0.393753 0.821498
Si Si7 0.856121 0.857297 0.168878
Si Si8 0.733264 0.287225 0.179562
O O1 0.553440 0.368423 0.500000
O O2 0.500000 0.357425 0.271925
O O3 0.549356 0.500000 0.312275
O O4 0.595002 0.359021 0.241459
O O5 0.922715 0.389757 0.500000
O O6 0.937967 0.500000 0.718255
O O7 0.941640 0.312843 0.754445
O O8 0.866165 0.398868 0.726127
O O9 0.908003 0.854306 0.775409
O O10 0.000000 0.819963 0.782551
O O11 0.945978 0.780746 0.000000
O O12 0.237353 0.888994 0.500000
O O13 0.182611 0.898830 0.729121
O O14 0.258833 0.812988 0.753184
O O15 0.254189 0.000000 0.716655
O O16 0.157273 0.750415 0.160900
O O17 0.223697 0.648115 0.219910
O O18 0.168669 0.607812 0.000000
O O19 0.350758 0.500000 0.775971
O O20 0.313917 0.333423 0.775033
O O21 0.358819 0.392513 0.000000
O O22 0.853864 0.893038 0.000000
O O23 0.734767 0.279850 0.000000
#
# Coordination Sequence:
#
# PCOD9384076 Si02
#       8
#     8   8   8   8   8   8   8   8
#     4   8  14  25  40  58  83 118 160 201 236 270
#     4  10  20  30  39  56  82 108 138 177 215 253
#     4   9  18  32  48  64  81 103 134 171 211 257
#     4  10  20  32  48  71  95 118 146 181 220 263
#     4   8  15  28  44  59  76 104 141 175 209 252
#     4   9  17  28  42  63  92 124 158 195 232 268
#     4   8  15  29  48  67  84 104 132 166 205 251
#     4   9  18  31  46  66  92 121 152 186 225 269
#
# _framework density 16.468865000000001
#
# number of rings (size 3 to 8) (size 9 to 14) (size 15 to 20)
#    0.000    3.125    0.000    2.625    0.000    8.250 
#    0.000    3.750    0.000    1.875    0.000    2.625 
#    0.000    0.500    0.000    5.500    0.000    4.250 
#
# Total GULP energy -356274.991480 kJ/mol
# GULP energy per Si atom -5566.796742 kJ/mol
# Density = 1.643138 g / cm^3
# Si number density = 16.468865 Si / 1000 Ang^3
#
#
#
# Elastic Constant Matrix: (Units=GPa)
#
#
# Indices 1 2 3 4 5 6 
#
# 1 134.5278 23.2134 17.8078 0.0000 0.0000 0.0000
# 2 23.2134 49.0665 10.6563 0.0000 0.0000 0.0000
# 3 17.8078 10.6563 14.0825 0.0000 0.0000 0.0000
# 4 0.0000 0.0000 0.0000 19.5703 0.0000 0.0000
# 5 0.0000 0.0000 0.0000 0.0000 9.8517 0.0000
# 6 0.0000 0.0000 0.0000 0.0000 0.0000 5.9017
#
#
#
# Elastic Compliance Matrix: (Units=1/GPa)
#
#
# Indices 1 2 3 4 5 6 
#
# 1 0.009116 -0.002165 -0.009889 0.000000 0.000000 0.000000
# 2 -0.002165 0.024903 -0.016106 0.000000 0.000000 0.000000
# 3 -0.009889 -0.016106 0.095703 0.000000 0.000000 0.000000
# 4 0.000000 0.000000 0.000000 0.051098 0.000000 0.000000
# 5 0.000000 0.000000 0.000000 0.000000 0.101505 0.000000
# 6 0.000000 0.000000 0.000000 0.000000 0.000000 0.169442
#
#
# Mechanical properties :
#
#
# Convention : Reuss Voigt Hill
#
# Bulk Modulus (GPa) = 13.62385 33.44798 23.53592
# Shear Modulus (GPa) = 9.38871 16.79804 13.09337
#
# Velocity S-wave (km/s) = 2.39024 3.19719 2.82270
# Velocity P-wave (km/s) = 3.98850 5.82952 4.99457
#
# Compressibility (1/GPa) = 0.07340068
#
# Stress axis : x y z
#
# Youngs Moduli (GPa) = 109.69648 40.15613 10.44898
#
# Poissons Ratio (x) = 0.08694 0.10333
# Poissons Ratio (y) = 0.23750 0.16829
# Poissons Ratio (z) = 1.08482 0.64677
#
# Static dielectric constant tensor:
#      x y z
#    x 1.588950 0.000000 0.000000 
#    y 0.000000 1.563150 0.000000 
#    z 0.000000 0.000000 1.549660 
# 
# From -- ./inp_files/14263.got.cif
#   From: 2010.05.17/outbox.cif.g08.bks.cpg/sg47_8_cif.got.tgz:14263.got - 2010.06.03 20:15:42.
