data_PCOD9384062
_publ_section_title
;
Structure prediction by ZEFSAII (Michael W. Deem and Ramdas Pophale) SiO2 
 PCOD9384062
Probable space group: P M M M
;
_chemical_formula_sum "Si O2"
_cell_formula_units_Z 64
_cell_length_a 12.936675
_cell_length_b 13.956200
_cell_length_c 17.675326
_cell_angle_alpha 90.000000
_cell_angle_beta 90.000000
_cell_angle_gamma 90.000000
_cell_volume 3191.223966
_symmetry_space_group_name_H-M "P M M M"
_symmetry_group_IT_number 47
_symmetry_cell_setting 'orthorhombic'
loop_
_space_group_symop_operation_xyz
x,y,z
-x,-y,z
x,-y,-z
-x,y,-z
-x,-y,-z
x,y,-z
-x,y,z
x,-y,z
loop_
_atom_site_type_symbol
_atom_site_label
_atom_site_fract_x
_atom_site_fract_y
_atom_site_fract_z
Si Si1 0.789285 0.251833 0.800582
Si Si2 0.662919 0.186685 0.590158
Si Si3 0.324929 0.397617 0.410398
Si Si4 0.882227 0.390982 0.675616
Si Si5 0.113258 0.890247 0.408937
Si Si6 0.382794 0.892138 0.257117
Si Si7 0.123164 0.891764 0.917120
Si Si8 0.117519 0.613453 0.910328
O O1 0.847024 0.309431 0.734060
O O2 0.687868 0.195790 0.772056
O O3 0.850068 0.168616 0.843986
O O4 0.791696 0.332946 0.865995
O O5 0.644185 0.170152 0.500000
O O6 0.629922 0.294887 0.611567
O O7 0.786174 0.172772 0.604555
O O8 0.615188 0.116582 0.651433
O O9 0.337698 0.400698 0.500000
O O10 0.363851 0.500000 0.378863
O O11 0.203603 0.392243 0.389836
O O12 0.877953 0.500000 0.709333
O O13 0.000000 0.376262 0.650345
O O14 0.106693 0.894801 0.500000
O O15 0.000000 0.858235 0.380815
O O16 0.130340 0.000000 0.382109
O O17 0.500000 0.882709 0.228882
O O18 0.344888 0.000000 0.237854
O O19 0.000000 0.895112 0.921225
O O20 0.162541 0.000000 0.910135
O O21 0.159279 0.854213 0.000000
O O22 0.123034 0.500000 0.898252
O O23 0.000000 0.644446 0.885664
O O24 0.122685 0.630478 0.000000
#
# Coordination Sequence:
#
# PCOD9384062 Si02
#       8
#     8   8   8   8   8   8   8   8
#     4  12  20  34  56  80 111 157 192 225 281 346
#     4  10  19  36  61  84 103 137 187 239 296 361
#     4   9  18  33  52  76 109 146 183 224 266 318
#     4  10  20  32  50  81 118 154 189 222 260 319
#     4   8  14  25  43  70 103 133 161 202 262 333
#     4  11  26  45  60  79 107 139 188 259 324 365
#     4   9  18  32  52  82 117 149 184 224 262 313
#     4   9  18  33  58  97 139 171 197 226 263 315
#
# _framework density 20.055002000000002
#
# number of rings (size 3 to 8) (size 9 to 14) (size 15 to 20)
#    0.000    2.250    1.250    3.750    0.000    3.750 
#    0.000    3.125    0.000    7.875    0.000    7.000 
#    0.000    0.000    0.000    0.000    0.000    0.000 
#
# Total GULP energy -356417.119394 kJ/mol
# GULP energy per Si atom -5569.017491 kJ/mol
# Density = 2.000936 g / cm^3
# Si number density = 20.055002 Si / 1000 Ang^3
#
#
#
# Elastic Constant Matrix: (Units=GPa)
#
#
# Indices 1 2 3 4 5 6 
#
# 1 60.2846 27.8981 12.2445 0.0000 0.0000 0.0000
# 2 27.8981 123.0012 22.1807 0.0000 0.0000 0.0000
# 3 12.2445 22.1807 29.9576 0.0000 0.0000 0.0000
# 4 0.0000 0.0000 0.0000 31.4600 0.0000 0.0000
# 5 0.0000 0.0000 0.0000 0.0000 4.0167 0.0000
# 6 0.0000 0.0000 0.0000 0.0000 0.0000 12.1398
#
#
#
# Elastic Compliance Matrix: (Units=1/GPa)
#
#
# Indices 1 2 3 4 5 6 
#
# 1 0.019248 -0.003401 -0.005349 0.000000 0.000000 0.000000
# 2 -0.003401 0.009984 -0.006002 0.000000 0.000000 0.000000
# 3 -0.005349 -0.006002 0.040011 0.000000 0.000000 0.000000
# 4 0.000000 0.000000 0.000000 0.031786 0.000000 0.000000
# 5 0.000000 0.000000 0.000000 0.000000 0.248960 0.000000
# 6 0.000000 0.000000 0.000000 0.000000 0.000000 0.082374
#
#
# Mechanical properties :
#
#
# Convention : Reuss Voigt Hill
#
# Bulk Modulus (GPa) = 25.16449 37.54333 31.35391
# Shear Modulus (GPa) = 10.52380 19.58464 15.05422
#
# Velocity S-wave (km/s) = 2.29322 3.12836 2.74277
# Velocity P-wave (km/s) = 4.42570 5.64001 5.06934
#
# Compressibility (1/GPa) = 0.03973853
#
# Stress axis : x y z
#
# Youngs Moduli (GPa) = 51.95229 100.16299 24.99332
#
# Poissons Ratio (x) = 0.34067 0.13369
# Poissons Ratio (y) = 0.17670 0.15001
# Poissons Ratio (z) = 0.27790 0.60116
#
# Static dielectric constant tensor:
#      x y z
#    x 1.743540 0.000000 0.000000 
#    y 0.000000 1.794480 0.000000 
#    z 0.000000 0.000000 1.725070 
# 
# From -- ./inp_files/27624.got.cif
#   From: 2010.05.17/outbox.cif.g08.bks.cpg/sg47_14_cif.got.tgz:27624.got - 2010.06.03 20:15:42.
