data_PCOD9384656
_publ_section_title
;
Structure prediction by ZEFSAII (Michael W. Deem and Ramdas Pophale) SiO2 
 PCOD9384656
Probable space group: P M M M
;
_chemical_formula_sum "Si O2"
_cell_formula_units_Z 64
_cell_length_a 7.854614
_cell_length_b 20.656188
_cell_length_c 20.774583
_cell_angle_alpha 90.000000
_cell_angle_beta 90.000000
_cell_angle_gamma 90.000000
_cell_volume 3370.600959
_symmetry_space_group_name_H-M "P M M M"
_symmetry_group_IT_number 47
_symmetry_cell_setting 'orthorhombic'
loop_
_space_group_symop_operation_xyz
x,y,z
-x,-y,z
x,-y,-z
-x,y,-z
-x,-y,-z
x,y,-z
-x,y,z
x,-y,z
loop_
_atom_site_type_symbol
_atom_site_label
_atom_site_fract_x
_atom_site_fract_y
_atom_site_fract_z
Si Si1 0.208186 0.426682 0.926296
Si Si2 0.705486 0.073865 0.073009
Si Si3 0.291814 0.926682 0.573704
Si Si4 0.701817 0.178413 0.673998
Si Si5 0.201817 0.321587 0.826002
Si Si6 0.794514 0.426135 0.573009
Si Si7 0.797546 0.175698 0.182485
Si Si8 0.297546 0.324302 0.682485
O O1 0.261785 0.500000 0.910234
O O2 0.271991 0.373297 0.876451
O O3 0.000000 0.426707 0.924747
O O4 0.257503 0.412685 0.000000
O O5 0.500000 0.073247 0.072424
O O6 0.760183 0.125108 0.126301
O O7 0.761988 0.000000 0.087196
O O8 0.762304 0.090137 0.000000
O O9 0.242497 0.912684 0.500000
O O10 0.500000 0.926707 0.575253
O O11 0.228009 0.873297 0.623550
O O12 0.238215 0.000000 0.589765
O O13 0.500000 0.182371 0.661708
O O14 0.726797 0.156576 0.747636
O O15 0.770394 0.251738 0.667799
O O16 0.270394 0.248262 0.832201
O O17 0.226797 0.343424 0.752364
O O18 0.000000 0.317629 0.838292
O O19 0.737696 0.409863 0.500000
O O20 0.738012 0.500000 0.587195
O O21 0.739818 0.374892 0.626301
O O22 0.000000 0.426753 0.572424
O O23 0.000000 0.180526 0.189990
O O24 0.500000 0.319474 0.689990
#
# Coordination Sequence:
#
# PCOD9384656 Si02
#       8
#     8   8   8   8   8   8   8   8
#     4   8  14  26  46  71  94 117 153 199 237 272
#     4   9  19  36  55  73  95 126 164 204 247 300
#     4   8  14  26  46  71  94 117 153 199 237 272
#     4   9  18  32  49  70  99 133 165 197 237 289
#     4   9  18  32  49  70  99 133 165 197 237 289
#     4   9  19  36  55  73  95 126 164 204 247 300
#     4  10  20  32  48  72 101 130 161 202 246 286
#     4  10  20  32  48  72 101 130 161 202 246 286
#
# _framework density 18.987711000000001
#
# number of rings (size 3 to 8) (size 9 to 14) (size 15 to 20)
#    0.000    3.000    0.000    2.250    0.000    4.000 
#    0.000    6.250    0.000    0.750    0.000    1.750 
#    0.000    0.000    0.000    0.000    0.000    0.000 
#
# Total GULP energy -356786.273531 kJ/mol
# GULP energy per Si atom -5574.785524 kJ/mol
# Density = 1.894449 g / cm^3
# Si number density = 18.987711 Si / 1000 Ang^3
#
#
#
# Elastic Constant Matrix: (Units=GPa)
#
#
# Indices 1 2 3 4 5 6 
#
# 1 13.4855 -2.9662 -13.1424 0.0000 0.0000 0.0000
# 2 -2.9662 125.4602 116.9658 0.0000 0.0000 0.0000
# 3 -13.1424 116.9658 134.8197 0.0000 0.0000 0.0000
# 4 0.0000 0.0000 0.0000 44.1879 0.0000 0.0000
# 5 0.0000 0.0000 0.0000 0.0000 17.5702 0.0000
# 6 0.0000 0.0000 0.0000 0.0000 0.0000 16.0986
#
#
#
# Elastic Compliance Matrix: (Units=1/GPa)
#
#
# Indices 1 2 3 4 5 6 
#
# 1 0.108257 -0.038077 0.043588 0.000000 0.000000 0.000000
# 2 -0.038077 0.055087 -0.051504 0.000000 0.000000 0.000000
# 3 0.043588 -0.051504 0.056349 0.000000 0.000000 0.000000
# 4 0.000000 0.000000 0.000000 0.022631 0.000000 0.000000
# 5 0.000000 0.000000 0.000000 0.000000 0.056915 0.000000
# 6 0.000000 0.000000 0.000000 0.000000 0.000000 0.062117
#
#
# Mechanical properties :
#
#
# Convention : Reuss Voigt Hill
#
# Bulk Modulus (GPa) = 7.83040 52.83108 30.33074
# Shear Modulus (GPa) = 10.08245 27.09856 18.59050
#
# Velocity S-wave (km/s) = 2.30684 3.78188 3.13242
# Velocity P-wave (km/s) = 3.35086 6.85233 5.39364
#
# Compressibility (1/GPa) = 0.12770734
#
# Stress axis : x y z
#
# Youngs Moduli (GPa) = 9.23727 18.15310 17.74641
#
# Poissons Ratio (x) = 0.69121 -0.77352
# Poissons Ratio (y) = 0.35173 0.91401
# Poissons Ratio (z) = -0.40263 0.93495
#
# Static dielectric constant tensor:
#      x y z
#    x 1.701390 0.000000 0.000000 
#    y 0.000000 1.666630 0.000000 
#    z 0.000000 0.000000 1.628250 
# 
# From -- ./inp_files/29963.got.cif
#   From: 2010.05.17/outbox.cif.g08.bks.cpg/sg47_15_cif.got.tgz:29963.got - 2010.06.03 20:15:42.
