data_PCOD9384130
_publ_section_title
;
Structure prediction by ZEFSAII (Michael W. Deem and Ramdas Pophale) SiO2 
 PCOD9384130
Probable space group: P M M M
;
_chemical_formula_sum "Si O2"
_cell_formula_units_Z 56
_cell_length_a 8.042199
_cell_length_b 23.879888
_cell_length_c 14.874046
_cell_angle_alpha 90.000000
_cell_angle_beta 90.000000
_cell_angle_gamma 90.000000
_cell_volume 2856.513107
_symmetry_space_group_name_H-M "P M M M"
_symmetry_group_IT_number 47
_symmetry_cell_setting 'orthorhombic'
loop_
_space_group_symop_operation_xyz
x,y,z
-x,-y,z
x,-y,-z
-x,y,-z
-x,-y,-z
x,y,-z
-x,y,z
x,-y,z
loop_
_atom_site_type_symbol
_atom_site_label
_atom_site_fract_x
_atom_site_fract_y
_atom_site_fract_z
Si Si1 0.695470 0.204791 0.096040
Si Si2 0.701097 0.827829 0.292811
Si Si3 0.702870 0.062518 0.395867
Si Si4 0.801188 0.438816 0.795215
Si Si5 0.812133 0.710923 0.644677
Si Si6 0.809335 0.676975 0.145026
Si Si7 0.693101 0.593552 0.402935
O O1 0.500000 0.191063 0.095729
O O2 0.764700 0.181667 0.190561
O O3 0.713725 0.272094 0.100333
O O4 0.767837 0.185674 0.000000
O O5 0.500000 0.828335 0.289116
O O6 0.760196 0.885916 0.335378
O O7 0.748841 0.774398 0.353926
O O8 0.751456 0.070490 0.500000
O O9 0.500000 0.063010 0.393991
O O10 0.755582 0.000000 0.367448
O O11 0.735120 0.500000 0.819462
O O12 0.736206 0.385610 0.851576
O O13 0.774140 0.428927 0.688437
O O14 0.000000 0.438241 0.809050
O O15 0.815273 0.693827 0.749812
O O16 0.708224 0.661236 0.600575
O O17 0.000000 0.708326 0.610036
O O18 0.000000 0.676346 0.111554
O O19 0.762146 0.574903 0.500000
O O20 0.500000 0.577830 0.399218
#
# Coordination Sequence:
#
# PCOD9384130 Si02
#       7
#     8   8   8   8   8   8   8
#     4   9  17  28  43  65  92 119 145 176 219 272
#     4   9  16  27  45  67  91 119 150 186 227 268
#     4   8  14  25  42  65  91 119 154 193 228 263
#     4   9  18  32  48  64  83 110 144 182 226 275
#     4   9  17  29  44  62  85 112 143 181 227 276
#     4   8  15  28  45  64  84 107 138 175 214 261
#     4  10  20  31  42  59  85 115 148 187 227 269
#
# _framework density 19.604322
#
# number of rings (size 3 to 8) (size 9 to 14) (size 15 to 20)
#    0.000    3.143    0.000    2.143    0.000    6.000 
#    0.000    2.857    0.000    1.286    0.000    7.000 
#    0.000    0.000    0.000    7.143    0.000    7.429 
#
# Total GULP energy -311843.850851 kJ/mol
# GULP energy per Si atom -5568.640194 kJ/mol
# Density = 1.955970 g / cm^3
# Si number density = 19.604322 Si / 1000 Ang^3
#
#
#
# Elastic Constant Matrix: (Units=GPa)
#
#
# Indices 1 2 3 4 5 6 
#
# 1 15.9630 -1.5013 -2.3999 0.0000 0.0000 0.0000
# 2 -1.5013 140.9736 29.3411 0.0000 0.0000 0.0000
# 3 -2.3999 29.3411 52.1940 0.0000 0.0000 0.0000
# 4 0.0000 0.0000 0.0000 7.8172 0.0000 0.0000
# 5 0.0000 0.0000 0.0000 0.0000 36.7749 0.0000
# 6 0.0000 0.0000 0.0000 0.0000 0.0000 18.6908
#
#
#
# Elastic Compliance Matrix: (Units=1/GPa)
#
#
# Indices 1 2 3 4 5 6 
#
# 1 0.063082 0.000077 0.002857 0.000000 0.000000 0.000000
# 2 0.000077 0.008034 -0.004513 0.000000 0.000000 0.000000
# 3 0.002857 -0.004513 0.021827 0.000000 0.000000 0.000000
# 4 0.000000 0.000000 0.000000 0.127923 0.000000 0.000000
# 5 0.000000 0.000000 0.000000 0.000000 0.027192 0.000000
# 6 0.000000 0.000000 0.000000 0.000000 0.000000 0.053502
#
#
# Mechanical properties :
#
#
# Convention : Reuss Voigt Hill
#
# Bulk Modulus (GPa) = 11.13756 28.89004 20.01380
# Shear Modulus (GPa) = 14.94116 24.90261 19.92189
#
# Velocity S-wave (km/s) = 2.76368 3.56794 3.19125
# Velocity P-wave (km/s) = 3.98464 5.63402 4.87952
#
# Compressibility (1/GPa) = 0.08978625
#
# Stress axis : x y z
#
# Youngs Moduli (GPa) = 15.85245 124.47783 45.81391
#
# Poissons Ratio (x) = -0.00960 -0.13090
# Poissons Ratio (y) = -0.00122 0.20674
# Poissons Ratio (z) = -0.04529 0.56171
#
# Static dielectric constant tensor:
#      x y z
#    x 1.708520 0.000000 0.000000 
#    y 0.000000 1.709020 0.000000 
#    z 0.000000 0.000000 1.723570 
# 
# From -- ./inp_files/26949.got.cif
#   From: 2010.05.17/outbox.cif.g08.bks.cpg/sg47_14_cif.got.tgz:26949.got - 2010.06.03 20:15:42.
