data_PCOD9384303
_publ_section_title
;
Structure prediction by ZEFSAII (Michael W. Deem and Ramdas Pophale) SiO2 
 PCOD9384303
Probable space group: P M M M
;
_chemical_formula_sum "Si O2"
_cell_formula_units_Z 40
_cell_length_a 29.057030
_cell_length_b 7.883216
_cell_length_c 9.228700
_cell_angle_alpha 90.000000
_cell_angle_beta 90.000000
_cell_angle_gamma 90.000000
_cell_volume 2113.952267
_symmetry_space_group_name_H-M "P M M M"
_symmetry_group_IT_number 47
_symmetry_cell_setting 'orthorhombic'
loop_
_space_group_symop_operation_xyz
x,y,z
-x,-y,z
x,-y,-z
-x,y,-z
-x,-y,-z
x,y,-z
-x,y,z
x,-y,z
loop_
_atom_site_type_symbol
_atom_site_label
_atom_site_fract_x
_atom_site_fract_y
_atom_site_fract_z
Si Si1 0.052827 0.500000 0.676785
Si Si2 0.409790 0.796888 0.163325
Si Si3 0.318757 0.298372 0.334457
Si Si4 0.500000 0.791920 0.666391
Si Si5 0.881023 0.196150 0.322721
Si Si6 0.219811 0.203814 0.665491
O O1 0.052542 0.500000 0.500000
O O2 0.080671 0.331465 0.721466
O O3 0.000000 0.500000 0.725273
O O4 0.362032 0.762940 0.243676
O O5 0.453869 0.733794 0.252636
O O6 0.415006 0.000000 0.154937
O O7 0.409318 0.728749 0.000000
O O8 0.321046 0.228673 0.500000
O O9 0.321283 0.500000 0.342604
O O10 0.268791 0.252912 0.268765
O O11 0.500000 0.737792 0.500000
O O12 0.500000 0.000000 0.666970
O O13 0.879173 0.195846 0.500000
O O14 0.829891 0.252905 0.272156
O O15 0.889665 0.000000 0.279717
O O16 0.221405 0.271873 0.500000
O O17 0.218253 0.000000 0.658645
#
# Coordination Sequence:
#
# PCOD9384303 Si02
#       6
#     4   8   8   4   8   8
#     4   9  16  22  30  46  70 106 149 192 239 288
#     4  10  20  34  52  73  98 128 160 194 237 291
#     4  10  20  31  46  70  96 122 155 197 243 290
#     4   9  17  31  54  79  98 121 158 204 246 281
#     4   8  14  23  34  49  71 102 143 191 241 290
#     4   8  14  25  41  60  81 108 144 190 241 285
#
# _framework density 18.921904000000001
#
# number of rings (size 3 to 8) (size 9 to 14) (size 15 to 20)
#    0.000    3.000    0.000    2.700    1.400    4.000 
#    0.000    2.500    0.000    3.000    0.000    0.000 
#    0.000    0.000    0.000    0.000    0.000    2.000 
#
# Total GULP energy -222835.456331 kJ/mol
# GULP energy per Si atom -5570.886408 kJ/mol
# Density = 1.887884 g / cm^3
# Si number density = 18.921904 Si / 1000 Ang^3
#
#
#
# Elastic Constant Matrix: (Units=GPa)
#
#
# Indices 1 2 3 4 5 6 
#
# 1 221.3876 53.2311 59.2359 0.0000 0.0000 0.0000
# 2 53.2311 49.9449 17.5070 0.0000 0.0000 0.0000
# 3 59.2359 17.5070 54.7804 0.0000 0.0000 0.0000
# 4 0.0000 0.0000 0.0000 5.2019 0.0000 0.0000
# 5 0.0000 0.0000 0.0000 0.0000 -6.8817 0.0000
# 6 0.0000 0.0000 0.0000 0.0000 0.0000 65.1418
#
#
#
# Elastic Compliance Matrix: (Units=1/GPa)
#
#
# Indices 1 2 3 4 5 6 
#
# 1 0.007645 -0.005913 -0.006377 0.000000 0.000000 0.000000
# 2 -0.005913 0.027121 -0.002274 0.000000 0.000000 0.000000
# 3 -0.006377 -0.002274 0.025877 0.000000 0.000000 0.000000
# 4 0.000000 0.000000 0.000000 0.192236 0.000000 0.000000
# 5 0.000000 0.000000 0.000000 0.000000 -0.145312 0.000000
# 6 0.000000 0.000000 0.000000 0.000000 0.000000 0.015351
#
#
# Mechanical properties :
#
#
# Convention : Reuss Voigt Hill
#
# Bulk Modulus (GPa) = 31.73029 65.11787 48.42408
# Shear Modulus (GPa) = 30.75960 25.76831 28.26395
#
# Velocity S-wave (km/s) = 4.03626 3.69429 3.86906
# Velocity P-wave (km/s) = 6.20704 7.25850 6.75326
#
# Compressibility (1/GPa) = 0.03151563
#
# Stress axis : x y z
#
# Youngs Moduli (GPa) = 130.80603 36.87219 38.64398
#
# Poissons Ratio (x) = 0.21801 0.24644
# Poissons Ratio (y) = 0.77340 0.08787
# Poissons Ratio (z) = 0.83417 0.08384
#
# Static dielectric constant tensor:
#      x y z
#    x 1.673220 0.000000 0.000000 
#    y 0.000000 1.671160 0.000000 
#    z 0.000000 0.000000 1.639470 
# 
# From -- ./inp_files/1713.got.cif
#   From: 2010.05.17/outbox.cif.g08.bks.cpg/sg47_1_cif.got.tgz:1713.got - 2010.06.03 20:15:42.
