data_PCOD9384143
_publ_section_title
;
Structure prediction by ZEFSAII (Michael W. Deem and Ramdas Pophale) SiO2 
 PCOD9384143
Probable space group: P M M M
;
_chemical_formula_sum "Si O2"
_cell_formula_units_Z 64
_cell_length_a 8.018461
_cell_length_b 15.118474
_cell_length_c 29.969909
_cell_angle_alpha 90.000000
_cell_angle_beta 90.000000
_cell_angle_gamma 90.000000
_cell_volume 3633.158986
_symmetry_space_group_name_H-M "P M M M"
_symmetry_group_IT_number 47
_symmetry_cell_setting 'orthorhombic'
loop_
_space_group_symop_operation_xyz
x,y,z
-x,-y,z
x,-y,-z
-x,y,-z
-x,-y,-z
x,y,-z
-x,y,z
x,-y,z
loop_
_atom_site_type_symbol
_atom_site_label
_atom_site_fract_x
_atom_site_fract_y
_atom_site_fract_z
Si Si1 0.298801 0.900970 0.092450
Si Si2 0.299581 0.896792 0.547999
Si Si3 0.702985 0.398150 0.130532
Si Si4 0.694913 0.776677 0.274635
Si Si5 0.800555 0.102170 0.193836
Si Si6 0.295734 0.601405 0.231842
Si Si7 0.295740 0.723329 0.049308
Si Si8 0.196779 0.100562 0.355695
O O1 0.500000 0.903616 0.090857
O O2 0.249264 0.877225 0.143072
O O3 0.243901 0.823920 0.059474
O O4 0.235834 0.000000 0.082928
O O5 0.241476 0.859192 0.500000
O O6 0.500000 0.895678 0.547298
O O7 0.246905 0.861088 0.595951
O O8 0.245627 0.000000 0.548651
O O9 0.500000 0.393732 0.130725
O O10 0.748981 0.500000 0.122361
O O11 0.756191 0.375378 0.180953
O O12 0.762392 0.336396 0.090557
O O13 0.500000 0.766195 0.283005
O O14 0.721093 0.832786 0.229513
O O15 0.764376 0.678374 0.264849
O O16 0.761798 0.834427 0.315378
O O17 0.000000 0.106943 0.198211
O O18 0.749409 0.000000 0.202389
O O19 0.500000 0.601915 0.232089
O O20 0.244940 0.500000 0.241316
O O21 0.500000 0.720988 0.049731
O O22 0.242327 0.694656 0.000000
O O23 0.000000 0.090875 0.356163
O O24 0.269605 0.000000 0.350126
#
# Coordination Sequence:
#
# PCOD9384143 Si02
#       8
#     8   8   8   8   8   8   8   8
#     4   9  17  29  44  60  78 104 140 175 205 244
#     4   8  14  26  44  64  87 119 161 205 240 267
#     4   8  13  22  36  54  79 108 132 158 200 255
#     4  11  20  29  46  68  90 118 149 183 224 267
#     4  10  20  32  45  62  86 115 145 178 217 260
#     4   8  15  28  45  65  87 111 142 180 221 265
#     4   9  16  24  36  58  85 107 129 162 204 248
#     4  10  20  31  42  61  94 132 164 193 226 265
#
# _framework density 17.615523
#
# number of rings (size 3 to 8) (size 9 to 14) (size 15 to 20)
#    0.000    2.875    0.000    3.375    0.000    5.750 
#    0.000    3.750    0.000    1.875    0.000    1.750 
#    0.000    0.500    0.000   10.250    0.000    5.875 
#
# Total GULP energy -356617.061736 kJ/mol
# GULP energy per Si atom -5572.141590 kJ/mol
# Density = 1.757543 g / cm^3
# Si number density = 17.615523 Si / 1000 Ang^3
#
#
#
# Elastic Constant Matrix: (Units=GPa)
#
#
# Indices 1 2 3 4 5 6 
#
# 1 12.4865 7.4402 8.4068 0.0000 0.0000 0.0000
# 2 7.4402 76.0864 70.5182 0.0000 0.0000 0.0000
# 3 8.4068 70.5182 96.7551 0.0000 0.0000 0.0000
# 4 0.0000 0.0000 0.0000 -13.5507 0.0000 0.0000
# 5 0.0000 0.0000 0.0000 0.0000 378.6912 0.0000
# 6 0.0000 0.0000 0.0000 0.0000 0.0000 0.4027
#
#
#
# Elastic Compliance Matrix: (Units=1/GPa)
#
#
# Indices 1 2 3 4 5 6 
#
# 1 0.085571 -0.004551 -0.004118 0.000000 0.000000 0.000000
# 2 -0.004551 0.040743 -0.029300 0.000000 0.000000 0.000000
# 3 -0.004118 -0.029300 0.032048 0.000000 0.000000 0.000000
# 4 0.000000 0.000000 0.000000 -0.073797 0.000000 0.000000
# 5 0.000000 0.000000 0.000000 0.000000 0.002641 0.000000
# 6 0.000000 0.000000 0.000000 0.000000 0.000000 2.483152
#
#
# Mechanical properties :
#
#
# Convention : Reuss Voigt Hill
#
# Bulk Modulus (GPa) = 12.13229 39.78426 25.95827
# Shear Modulus (GPa) = 1.87002 79.70617 40.78809
#
# Velocity S-wave (km/s) = 1.03144 6.73394 4.81715
# Velocity P-wave (km/s) = 2.88457 9.11565 6.76076
#
# Compressibility (1/GPa) = 0.08242466
#
# Stress axis : x y z
#
# Youngs Moduli (GPa) = 11.68621 24.54380 31.20337
#
# Poissons Ratio (x) = 0.11169 0.12850
# Poissons Ratio (y) = 0.05318 0.91425
# Poissons Ratio (z) = 0.04813 0.71913
#
# Static dielectric constant tensor:
#      x y z
#    x 1.620930 0.000000 0.000000 
#    y 0.000000 1.657020 0.000000 
#    z 0.000000 0.000000 1.612300 
# 
# From -- ./inp_files/34473.got.cif
#   From: 2010.05.17/outbox.cif.g08.bks.cpg/sg47_18_cif.got.tgz:34473.got - 2010.06.03 20:15:42.
