data_PCOD9384699
_publ_section_title
;
Structure prediction by ZEFSAII (Michael W. Deem and Ramdas Pophale) SiO2 
 PCOD9384699
Probable space group: P M M M
;
_chemical_formula_sum "Si O2"
_cell_formula_units_Z 48
_cell_length_a 15.540327
_cell_length_b 16.554377
_cell_length_c 9.334048
_cell_angle_alpha 90.000000
_cell_angle_beta 90.000000
_cell_angle_gamma 90.000000
_cell_volume 2401.281219
_symmetry_space_group_name_H-M "P M M M"
_symmetry_group_IT_number 47
_symmetry_cell_setting 'orthorhombic'
loop_
_space_group_symop_operation_xyz
x,y,z
-x,-y,z
x,-y,-z
-x,y,-z
-x,-y,-z
x,y,-z
-x,y,z
x,-y,z
loop_
_atom_site_type_symbol
_atom_site_label
_atom_site_fract_x
_atom_site_fract_y
_atom_site_fract_z
Si Si1 0.896540 0.410090 0.836105
Si Si2 0.143416 0.248306 0.336806
Si Si3 0.663105 0.086961 0.327419
Si Si4 0.603608 0.413160 0.164745
Si Si5 0.848114 0.909989 0.171794
Si Si6 0.350080 0.257112 0.660363
O O1 0.866577 0.500000 0.788225
O O2 0.875284 0.333365 0.739334
O O3 0.000000 0.413608 0.841019
O O4 0.865701 0.397712 0.000000
O O5 0.110970 0.246450 0.500000
O O6 0.112862 0.169331 0.248254
O O7 0.247224 0.244789 0.343207
O O8 0.682120 0.092088 0.500000
O O9 0.751299 0.085691 0.236442
O O10 0.614912 0.169881 0.290307
O O11 0.619739 0.000000 0.304496
O O12 0.500000 0.413690 0.165800
O O13 0.632823 0.500000 0.225838
O O14 0.632406 0.333910 0.244603
O O15 0.631907 0.409637 0.000000
O O16 0.886206 0.000000 0.200425
O O17 0.846784 0.898665 0.000000
O O18 0.381766 0.273250 0.500000
#
# Coordination Sequence:
#
# PCOD9384699 Si02
#       6
#     8   8   8   8   8   8
#     4   9  19  36  55  73  95 126 163 200 239 285
#     4  10  20  32  48  73 103 131 159 195 238 283
#     4   8  14  26  43  64  94 127 154 185 229 279
#     4   9  19  35  51  66  87 119 158 196 237 286
#     4   9  16  26  43  68  96 126 161 198 235 278
#     4   9  18  30  46  72  99 122 153 192 232 274
#
# _framework density 19.989329000000001
#
# number of rings (size 3 to 8) (size 9 to 14) (size 15 to 20)
#    0.000    3.000    0.000    3.000    0.000    6.333 
#    0.000    5.000    0.000    1.000    0.000    7.000 
#    0.000    0.000    0.000    0.000    0.000    0.000 
#
# Total GULP energy -267252.215811 kJ/mol
# GULP energy per Si atom -5567.754496 kJ/mol
# Density = 1.994383 g / cm^3
# Si number density = 19.989329 Si / 1000 Ang^3
#
#
#
# Elastic Constant Matrix: (Units=GPa)
#
#
# Indices 1 2 3 4 5 6 
#
# 1 19.9177 12.8564 4.9576 0.0000 0.0000 0.0000
# 2 12.8564 268.7683 107.8644 0.0000 0.0000 0.0000
# 3 4.9576 107.8644 93.3708 0.0000 0.0000 0.0000
# 4 0.0000 0.0000 0.0000 38.4828 0.0000 0.0000
# 5 0.0000 0.0000 0.0000 0.0000 25.0581 0.0000
# 6 0.0000 0.0000 0.0000 0.0000 0.0000 56.4597
#
#
#
# Elastic Compliance Matrix: (Units=1/GPa)
#
#
# Indices 1 2 3 4 5 6 
#
# 1 0.051808 -0.002562 0.000209 0.000000 0.000000 0.000000
# 2 -0.002562 0.007063 -0.008024 0.000000 0.000000 0.000000
# 3 0.000209 -0.008024 0.019968 0.000000 0.000000 0.000000
# 4 0.000000 0.000000 0.000000 0.025986 0.000000 0.000000
# 5 0.000000 0.000000 0.000000 0.000000 0.039907 0.000000
# 6 0.000000 0.000000 0.000000 0.000000 0.000000 0.017712
#
#
# Mechanical properties :
#
#
# Convention : Reuss Voigt Hill
#
# Bulk Modulus (GPa) = 17.21581 70.37930 43.79755
# Shear Modulus (GPa) = 24.68399 41.09202 32.88800
#
# Velocity S-wave (km/s) = 3.51787 4.53890 4.06060
# Velocity P-wave (km/s) = 5.01315 7.92172 6.62893
#
# Compressibility (1/GPa) = 0.05808615
#
# Stress axis : x y z
#
# Youngs Moduli (GPa) = 19.30189 141.57455 50.07962
#
# Poissons Ratio (x) = 0.36273 -0.01047
# Poissons Ratio (y) = 0.04945 0.40183
# Poissons Ratio (z) = -0.00403 1.13597
#
# Static dielectric constant tensor:
#      x y z
#    x 1.730480 0.000000 0.000000 
#    y 0.000000 1.720030 0.000000 
#    z 0.000000 0.000000 1.683470 
# 
# From -- ./inp_files/6380.got.cif
#   From: 2010.05.17/outbox.cif.g08.bks.cpg/sg47_4_cif.got.tgz:6380.got - 2010.06.03 20:15:42.
