data_PCOD9384792
_publ_section_title
;
Structure prediction by ZEFSAII (Michael W. Deem and Ramdas Pophale) SiO2 
 PCOD9384792
Probable space group: P M M M
;
_chemical_formula_sum "Si O2"
_cell_formula_units_Z 48
_cell_length_a 9.619781
_cell_length_b 7.929121
_cell_length_c 31.944949
_cell_angle_alpha 90.000000
_cell_angle_beta 90.000000
_cell_angle_gamma 90.000000
_cell_volume 2436.645949
_symmetry_space_group_name_H-M "P M M M"
_symmetry_group_IT_number 47
_symmetry_cell_setting 'orthorhombic'
loop_
_space_group_symop_operation_xyz
x,y,z
-x,-y,z
x,-y,-z
-x,y,-z
-x,-y,-z
x,y,-z
-x,y,z
x,-y,z
loop_
_atom_site_type_symbol
_atom_site_label
_atom_site_fract_x
_atom_site_fract_y
_atom_site_fract_z
Si Si1 0.158668 0.796222 0.125298
Si Si2 0.841068 0.701536 0.717031
Si Si3 0.340337 0.703267 0.546243
Si Si4 0.341349 0.703591 0.205584
Si Si5 0.157268 0.200416 0.625239
Si Si6 0.340490 0.794201 0.047473
O O1 0.251767 0.748215 0.164939
O O2 0.234716 0.735936 0.082991
O O3 0.000000 0.734857 0.129073
O O4 0.154116 0.000000 0.123449
O O5 0.849152 0.500000 0.722179
O O6 0.740172 0.766932 0.753247
O O7 0.789199 0.735252 0.670021
O O8 0.000000 0.768401 0.720531
O O9 0.291271 0.760445 0.500000
O O10 0.500000 0.760336 0.551357
O O11 0.341722 0.500000 0.545577
O O12 0.248136 0.756277 0.585148
O O13 0.500000 0.766323 0.202960
O O14 0.347591 0.500000 0.208157
O O15 0.000000 0.268411 0.620127
O O16 0.150285 0.000000 0.628398
O O17 0.500000 0.743655 0.056751
O O18 0.338880 0.000000 0.047639
O O19 0.306440 0.741118 0.000000
#
# Coordination Sequence:
#
# PCOD9384792 Si02
#       6
#     8   8   8   8   8   8
#     4  10  20  32  49  75 104 134 168 207 252 300
#     4   9  18  34  54  73  97 132 171 208 247 295
#     4   9  19  36  56  77 102 135 176 218 256 296
#     4  10  21  36  54  76 101 131 168 209 254 303
#     4  10  21  35  52  78 110 139 167 204 252 304
#     4   8  14  26  45  69  98 132 168 206 249 297
#
# _framework density 19.699209
#
# number of rings (size 3 to 8) (size 9 to 14) (size 15 to 20)
#    0.000    2.667    0.000    2.500    0.000    5.667 
#    0.000    7.500    0.000    0.500    0.000    3.500 
#    0.000    0.000    0.000    0.000    0.000    0.000 
#
# Total GULP energy -267806.233901 kJ/mol
# GULP energy per Si atom -5579.296540 kJ/mol
# Density = 1.965437 g / cm^3
# Si number density = 19.699209 Si / 1000 Ang^3
#
#
#
# Elastic Constant Matrix: (Units=GPa)
#
#
# Indices 1 2 3 4 5 6 
#
# 1 142.0049 9.0140 128.6027 0.0000 0.0000 0.0000
# 2 9.0140 16.0299 4.1411 0.0000 0.0000 0.0000
# 3 128.6027 4.1411 202.8116 0.0000 0.0000 0.0000
# 4 0.0000 0.0000 0.0000 24.2578 0.0000 0.0000
# 5 0.0000 0.0000 0.0000 0.0000 39.9727 0.0000
# 6 0.0000 0.0000 0.0000 0.0000 0.0000 15.6905
#
#
#
# Elastic Compliance Matrix: (Units=1/GPa)
#
#
# Indices 1 2 3 4 5 6 
#
# 1 0.017272 -0.006919 -0.010811 0.000000 0.000000 0.000000
# 2 -0.006919 0.065486 0.003050 0.000000 0.000000 0.000000
# 3 -0.010811 0.003050 0.011723 0.000000 0.000000 0.000000
# 4 0.000000 0.000000 0.000000 0.041224 0.000000 0.000000
# 5 0.000000 0.000000 0.000000 0.000000 0.025017 0.000000
# 6 0.000000 0.000000 0.000000 0.000000 0.000000 0.063733
#
#
# Mechanical properties :
#
#
# Convention : Reuss Voigt Hill
#
# Bulk Modulus (GPa) = 15.35576 71.59576 43.47576
# Shear Modulus (GPa) = 18.14741 30.59011 24.36876
#
# Velocity S-wave (km/s) = 3.03846 3.94491 3.52098
# Velocity P-wave (km/s) = 4.48572 7.56129 6.21670
#
# Compressibility (1/GPa) = 0.06512213
#
# Stress axis : x y z
#
# Youngs Moduli (GPa) = 57.89871 15.27038 85.29955
#
# Poissons Ratio (x) = 0.10566 0.92214
# Poissons Ratio (y) = 0.40062 -0.26020
# Poissons Ratio (z) = 0.62592 -0.04658
#
# Static dielectric constant tensor:
#      x y z
#    x 1.689610 0.000000 0.000000 
#    y 0.000000 1.722610 0.000000 
#    z 0.000000 0.000000 1.673230 
# 
# From -- ./inp_files/2480.got.cif
#   From: 2010.05.17/outbox.cif.g08.bks.cpg/sg47_2_cif.got.tgz:2480.got - 2010.06.03 20:15:42.
