data_PCOD9384708
_publ_section_title
;
Structure prediction by ZEFSAII (Michael W. Deem and Ramdas Pophale) SiO2 
 PCOD9384708
Probable space group: P M M M
;
_chemical_formula_sum "Si O2"
_cell_formula_units_Z 44
_cell_length_a 7.653522
_cell_length_b 28.946391
_cell_length_c 9.687179
_cell_angle_alpha 90.000000
_cell_angle_beta 90.000000
_cell_angle_gamma 90.000000
_cell_volume 2146.115463
_symmetry_space_group_name_H-M "P M M M"
_symmetry_group_IT_number 47
_symmetry_cell_setting 'orthorhombic'
loop_
_space_group_symop_operation_xyz
x,y,z
-x,-y,z
x,-y,-z
-x,y,-z
-x,-y,-z
x,y,-z
-x,y,z
x,-y,z
loop_
_atom_site_type_symbol
_atom_site_label
_atom_site_fract_x
_atom_site_fract_y
_atom_site_fract_z
Si Si1 0.292112 0.138471 0.155923
Si Si2 0.789255 0.052500 0.656118
Si Si3 0.285749 0.223788 0.341245
Si Si4 0.290553 0.586272 0.844644
Si Si5 0.793395 0.500000 0.346224
Si Si6 0.713067 0.309974 0.841000
O O1 0.500000 0.145825 0.145575
O O2 0.265349 0.090031 0.232753
O O3 0.224927 0.179803 0.252566
O O4 0.220997 0.138919 0.000000
O O5 0.730213 0.064757 0.500000
O O6 0.000000 0.051906 0.653945
O O7 0.730597 0.000000 0.685776
O O8 0.229232 0.221584 0.500000
O O9 0.500000 0.223479 0.342164
O O10 0.229383 0.270493 0.263773
O O11 0.500000 0.589249 0.852988
O O12 0.252044 0.545760 0.739081
O O13 0.228798 0.637860 0.806152
O O14 0.226025 0.575476 0.000000
O O15 0.715314 0.500000 0.500000
O O16 0.000000 0.500000 0.358946
O O17 0.500000 0.309623 0.838822
O O18 0.763879 0.300164 0.000000
#
# Coordination Sequence:
#
# PCOD9384708 Si02
#       6
#     8   8   8   8   4   8
#     4  10  20  32  48  73 104 135 166 202 243 287
#     4   9  19  36  55  73  95 126 164 205 250 299
#     4   9  16  26  43  69 100 132 164 197 237 287
#     4   9  18  33  54  78 100 125 162 205 246 291
#     4  11  24  37  48  68 100 135 168 203 246 294
#     4   8  14  26  45  70  99 126 153 193 244 292
#
# _framework density 20.502158000000001
#
# number of rings (size 3 to 8) (size 9 to 14) (size 15 to 20)
#    0.000    2.818    0.000    3.273    0.000    7.273 
#    0.000    4.545    0.000    1.091    0.000    5.091 
#    0.000    0.000    0.000    0.000    0.000    0.000 
#
# Total GULP energy -245555.051824 kJ/mol
# GULP energy per Si atom -5580.796632 kJ/mol
# Density = 2.045549 g / cm^3
# Si number density = 20.502158 Si / 1000 Ang^3
#
#
#
# Elastic Constant Matrix: (Units=GPa)
#
#
# Indices 1 2 3 4 5 6 
#
# 1 35.5896 3.1983 7.1418 0.0000 0.0000 0.0000
# 2 3.1983 178.4830 155.1452 0.0000 0.0000 0.0000
# 3 7.1418 155.1452 211.2020 0.0000 0.0000 0.0000
# 4 0.0000 0.0000 0.0000 53.5069 0.0000 0.0000
# 5 0.0000 0.0000 0.0000 0.0000 22.2299 0.0000
# 6 0.0000 0.0000 0.0000 0.0000 0.0000 173.7909
#
#
#
# Elastic Compliance Matrix: (Units=1/GPa)
#
#
# Indices 1 2 3 4 5 6 
#
# 1 0.028342 0.000900 -0.001619 0.000000 0.000000 0.000000
# 2 0.000900 0.015529 -0.011437 0.000000 0.000000 0.000000
# 3 -0.001619 -0.011437 0.013191 0.000000 0.000000 0.000000
# 4 0.000000 0.000000 0.000000 0.018689 0.000000 0.000000
# 5 0.000000 0.000000 0.000000 0.000000 0.044985 0.000000
# 6 0.000000 0.000000 0.000000 0.000000 0.000000 0.005754
#
#
# Mechanical properties :
#
#
# Convention : Reuss Voigt Hill
#
# Bulk Modulus (GPa) = 30.53627 84.02725 57.28176
# Shear Modulus (GPa) = 30.91767 67.22482 49.07125
#
# Velocity S-wave (km/s) = 3.88754 5.73239 4.89762
# Velocity P-wave (km/s) = 5.92259 9.21343 7.74482
#
# Compressibility (1/GPa) = 0.03274794
#
# Stress axis : x y z
#
# Youngs Moduli (GPa) = 35.28313 64.39746 75.80759
#
# Poissons Ratio (x) = -0.05793 0.12275
# Poissons Ratio (y) = -0.03174 0.86704
# Poissons Ratio (z) = 0.05713 0.73654
#
# Static dielectric constant tensor:
#      x y z
#    x 1.769980 0.000000 0.000000 
#    y 0.000000 1.716410 0.000000 
#    z 0.000000 0.000000 1.721360 
# 
# From -- ./inp_files/2174.got.cif
#   From: 2010.05.17/outbox.cif.g08.bks.cpg/sg47_2_cif.got.tgz:2174.got - 2010.06.03 20:15:42.
