data_PCOD9384345
_publ_section_title
;
Structure prediction by ZEFSAII (Michael W. Deem and Ramdas Pophale) SiO2 
 PCOD9384345
Probable space group: P M M M
;
_chemical_formula_sum "Si O2"
_cell_formula_units_Z 56
_cell_length_a 9.252402
_cell_length_b 22.386311
_cell_length_c 23.821101
_cell_angle_alpha 90.000000
_cell_angle_beta 90.000000
_cell_angle_gamma 90.000000
_cell_volume 4933.996728
_symmetry_space_group_name_H-M "P M M M"
_symmetry_group_IT_number 47
_symmetry_cell_setting 'orthorhombic'
loop_
_space_group_symop_operation_xyz
x,y,z
-x,-y,z
x,-y,-z
-x,y,-z
-x,-y,-z
x,y,-z
-x,y,z
x,-y,z
loop_
_atom_site_type_symbol
_atom_site_label
_atom_site_fract_x
_atom_site_fract_y
_atom_site_fract_z
Si Si1 0.665721 0.572656 0.826720
Si Si2 0.833601 0.880915 0.568354
Si Si3 0.326682 0.629519 0.393062
Si Si4 0.666531 0.000000 0.568450
Si Si5 0.829337 0.571915 0.287092
Si Si6 0.329070 0.238752 0.433744
Si Si7 0.831652 0.427390 0.062712
Si Si8 0.169889 0.428301 0.500000
O O1 0.500000 0.592203 0.820280
O O2 0.665086 0.500000 0.828297
O O3 0.762534 0.589013 0.773164
O O4 0.735059 0.593324 0.885397
O O5 0.830117 0.881103 0.500000
O O6 0.759443 0.818927 0.585529
O O7 0.000000 0.883816 0.585728
O O8 0.747355 0.939771 0.586734
O O9 0.500000 0.619987 0.394804
O O10 0.257823 0.603952 0.336479
O O11 0.299714 0.700251 0.400870
O O12 0.250254 0.596928 0.445334
O O13 0.500000 0.000000 0.585898
O O14 0.668663 0.000000 0.500000
O O15 0.813217 0.500000 0.293435
O O16 0.000000 0.585243 0.289862
O O17 0.297076 0.249728 0.500000
O O18 0.500000 0.225535 0.430083
O O19 0.826910 0.500000 0.062862
O O20 0.000000 0.411142 0.070823
O O21 0.786019 0.408258 0.000000
O O22 0.177087 0.500000 0.500000
O O23 0.000000 0.411111 0.500000
#
# Coordination Sequence:
#
# PCOD9384345 Si02
#       8
#     8   8   8   4   8   8   8   4
#     4   9  16  25  37  52  68  86 108 133 160 192
#     4   9  16  24  36  54  72  89 109 131 152 179
#     4  11  21  33  46  58  69  84 107 137 171 210
#     4   9  15  23  35  51  71  95 113 127 149 177
#     4  10  20  32  43  54  68  86 108 136 172 213
#     4   9  17  30  42  53  69  87 106 128 161 203
#     4   8  13  21  33  49  69  91 110 127 151 185
#     4  11  23  35  45  57  71  84 101 130 171 217
#
# _framework density 11.349824999999999
#
# number of rings (size 3 to 8) (size 9 to 14) (size 15 to 20)
#    0.000    2.571    0.714    3.000    0.000    8.857 
#    0.000    1.429    0.000    0.000    0.000    0.000 
#    0.000    0.000    0.000    0.000    0.000    0.000 
#
# Total GULP energy -311981.007894 kJ/mol
# GULP energy per Si atom -5571.089427 kJ/mol
# Density = 1.132399 g / cm^3
# Si number density = 11.349825 Si / 1000 Ang^3
#
#
#
# Elastic Constant Matrix: (Units=GPa)
#
#
# Indices 1 2 3 4 5 6 
#
# 1 94.2868 50.3781 48.2553 0.0000 0.0000 0.0000
# 2 50.3781 54.2111 27.5913 0.0000 0.0000 0.0000
# 3 48.2553 27.5913 73.5286 0.0000 0.0000 0.0000
# 4 0.0000 0.0000 0.0000 -0.0761 0.0000 0.0000
# 5 0.0000 0.0000 0.0000 0.0000 16.8032 0.0000
# 6 0.0000 0.0000 0.0000 0.0000 0.0000 12.0837
#
#
#
# Elastic Compliance Matrix: (Units=1/GPa)
#
#
# Indices 1 2 3 4 5 6 
#
# 1 0.025725 -0.018928 -0.009780 0.000000 0.000000 0.000000
# 2 -0.018928 0.036729 -0.001360 0.000000 0.000000 0.000000
# 3 -0.009780 -0.001360 0.020529 0.000000 0.000000 0.000000
# 4 0.000000 0.000000 0.000000-13.137866 0.000000 0.000000
# 5 0.000000 0.000000 0.000000 0.000000 0.059512 0.000000
# 6 0.000000 0.000000 0.000000 0.000000 0.000000 0.082756
#
#
# Mechanical properties :
#
#
# Convention : Reuss Voigt Hill
#
# Bulk Modulus (GPa) = 43.77164 52.71953 48.24558
# Shear Modulus (GPa) = -0.38926 12.14894 5.87984
#
# Velocity S-wave (km/s) = -0.58627 3.27526 2.27855
# Velocity P-wave (km/s) = 6.17992 7.80087 7.03722
#
# Compressibility (1/GPa) = 0.02284584
#
# Stress axis : x y z
#
# Youngs Moduli (GPa) = 38.87304 27.22673 48.71203
#
# Poissons Ratio (x) = 0.51536 0.47640
# Poissons Ratio (y) = 0.73580 0.06625
# Poissons Ratio (z) = 0.38017 0.03703
#
# Static dielectric constant tensor:
#      x y z
#    x 1.380880 0.000000 0.000000 
#    y 0.000000 1.346700 0.000000 
#    z 0.000000 0.000000 1.352990 
# 
# From -- ./inp_files/30097.got.cif
#   From: 2010.05.17/outbox.cif.g08.bks.cpg/sg47_16_cif.got.tgz:30097.got - 2010.06.03 20:15:42.
