data_PCOD9384798
_publ_section_title
;
Structure prediction by ZEFSAII (Michael W. Deem and Ramdas Pophale) SiO2 
 PCOD9384798
Probable space group: P M M M
;
_chemical_formula_sum "Si O2"
_cell_formula_units_Z 52
_cell_length_a 14.805119
_cell_length_b 8.015857
_cell_length_c 25.437679
_cell_angle_alpha 90.000000
_cell_angle_beta 90.000000
_cell_angle_gamma 90.000000
_cell_volume 3018.834788
_symmetry_space_group_name_H-M "P M M M"
_symmetry_group_IT_number 47
_symmetry_cell_setting 'orthorhombic'
loop_
_space_group_symop_operation_xyz
x,y,z
-x,-y,z
x,-y,-z
-x,y,-z
-x,-y,-z
x,y,-z
-x,y,z
x,-y,z
loop_
_atom_site_type_symbol
_atom_site_label
_atom_site_fract_x
_atom_site_fract_y
_atom_site_fract_z
Si Si1 0.609317 0.000000 0.440166
Si Si2 0.602893 0.198540 0.838047
Si Si3 0.292291 0.297552 0.941900
Si Si4 0.608110 0.697788 0.636434
Si Si5 0.099685 0.695218 0.906112
Si Si6 0.278750 0.695196 0.739435
Si Si7 0.899587 0.805776 0.788584
O O1 0.633370 0.830740 0.408676
O O2 0.500000 0.000000 0.442315
O O3 0.643320 0.000000 0.500000
O O4 0.500000 0.260276 0.835541
O O5 0.646445 0.236317 0.894367
O O6 0.662842 0.274349 0.791744
O O7 0.602901 0.000000 0.830251
O O8 0.290812 0.500000 0.939350
O O9 0.189338 0.235676 0.933096
O O10 0.323944 0.248685 0.000000
O O11 0.500000 0.713036 0.646104
O O12 0.624505 0.500000 0.624364
O O13 0.663361 0.746346 0.688723
O O14 0.095594 0.500000 0.920429
O O15 0.114476 0.708363 0.843222
O O16 0.000000 0.768215 0.917510
O O17 0.261947 0.500000 0.734071
O O18 0.181678 0.777631 0.748651
O O19 0.000000 0.763187 0.768383
O O20 0.899263 0.000000 0.803543
#
# Coordination Sequence:
#
# PCOD9384798 Si02
#       7
#     4   8   8   8   8   8   8
#     4   9  18  32  52  78 111 155 196 228 264 305
#     4  11  24  38  53  73  95 127 168 210 263 319
#     4  10  21  36  53  73  96 125 163 207 255 310
#     4   9  19  33  50  78 113 148 187 229 269 310
#     4   9  17  31  51  73  97 125 158 198 248 310
#     4  11  21  34  54  78 105 137 172 213 263 314
#     4  10  20  32  49  75 105 135 166 203 252 312
#
# _framework density 17.225190000000001
#
# number of rings (size 3 to 8) (size 9 to 14) (size 15 to 20)
#    0.000    2.077    1.538    1.846    2.154    4.000 
#    0.000    4.615    0.000    0.000    0.000    3.231 
#    0.000    1.231    0.000    3.385    0.000    0.154 
#
# Total GULP energy -290033.986380 kJ/mol
# GULP energy per Si atom -5577.576661 kJ/mol
# Density = 1.718598 g / cm^3
# Si number density = 17.225190 Si / 1000 Ang^3
#
#
#
# Elastic Constant Matrix: (Units=GPa)
#
#
# Indices 1 2 3 4 5 6 
#
# 1 79.8476 7.7867 28.1758 0.0000 0.0000 0.0000
# 2 7.7867 25.4599 12.9037 0.0000 0.0000 0.0000
# 3 28.1758 12.9037 86.4309 0.0000 0.0000 0.0000
# 4 0.0000 0.0000 0.0000 29.3052 0.0000 0.0000
# 5 0.0000 0.0000 0.0000 0.0000 9.8040 0.0000
# 6 0.0000 0.0000 0.0000 0.0000 0.0000 28.2348
#
#
#
# Elastic Compliance Matrix: (Units=1/GPa)
#
#
# Indices 1 2 3 4 5 6 
#
# 1 0.014262 -0.002170 -0.004325 0.000000 0.000000 0.000000
# 2 -0.002170 0.042823 -0.005686 0.000000 0.000000 0.000000
# 3 -0.004325 -0.005686 0.013829 0.000000 0.000000 0.000000
# 4 0.000000 0.000000 0.000000 0.034124 0.000000 0.000000
# 5 0.000000 0.000000 0.000000 0.000000 0.101999 0.000000
# 6 0.000000 0.000000 0.000000 0.000000 0.000000 0.035417
#
#
# Mechanical properties :
#
#
# Convention : Reuss Voigt Hill
#
# Bulk Modulus (GPa) = 21.48158 32.16344 26.82251
# Shear Modulus (GPa) = 17.70962 22.99360 20.35161
#
# Velocity S-wave (km/s) = 3.20991 3.65757 3.44103
# Velocity P-wave (km/s) = 5.12213 6.04565 5.60295
#
# Compressibility (1/GPa) = 0.04655151
#
# Stress axis : x y z
#
# Youngs Moduli (GPa) = 70.11777 23.35207 72.31270
#
# Poissons Ratio (x) = 0.05067 0.31277
# Poissons Ratio (y) = 0.15213 0.41116
# Poissons Ratio (z) = 0.30328 0.13278
#
# Static dielectric constant tensor:
#      x y z
#    x 1.608830 0.000000 0.000000 
#    y 0.000000 1.623250 0.000000 
#    z 0.000000 0.000000 1.562370 
# 
# From -- ./inp_files/10985.got.cif
#   From: 2010.05.17/outbox.cif.g08.bks.cpg/sg47_6_cif.got.tgz:10985.got - 2010.06.03 20:15:42.
