data_PCOD9384200
_publ_section_title
;
Structure prediction by ZEFSAII (Michael W. Deem and Ramdas Pophale) SiO2 
 PCOD9384200
Probable space group: P M M M
;
_chemical_formula_sum "Si O2"
_cell_formula_units_Z 64
_cell_length_a 7.670622
_cell_length_b 30.490515
_cell_length_c 14.563710
_cell_angle_alpha 90.000000
_cell_angle_beta 90.000000
_cell_angle_gamma 90.000000
_cell_volume 3406.178192
_symmetry_space_group_name_H-M "P M M M"
_symmetry_group_IT_number 47
_symmetry_cell_setting 'orthorhombic'
loop_
_space_group_symop_operation_xyz
x,y,z
-x,-y,z
x,-y,-z
-x,y,-z
-x,-y,-z
x,y,-z
-x,y,z
x,-y,z
loop_
_atom_site_type_symbol
_atom_site_label
_atom_site_fract_x
_atom_site_fract_y
_atom_site_fract_z
Si Si1 0.792042 0.732111 0.394479
Si Si2 0.786132 0.133208 0.105704
Si Si3 0.710599 0.635522 0.605543
Si Si4 0.291564 0.896432 0.604786
Si Si5 0.795755 0.187890 0.276811
Si Si6 0.203705 0.447083 0.902049
Si Si7 0.700973 0.549519 0.701066
Si Si8 0.790720 0.951090 0.779835
O O1 0.723015 0.735114 0.500000
O O2 0.763097 0.683023 0.357010
O O3 0.719797 0.769409 0.326916
O O4 0.000000 0.738882 0.401077
O O5 0.725905 0.169893 0.179400
O O6 0.729615 0.086633 0.149854
O O7 0.000000 0.133458 0.106566
O O8 0.731750 0.138705 0.000000
O O9 0.765775 0.636002 0.500000
O O10 0.500000 0.633949 0.610014
O O11 0.781296 0.590747 0.649090
O O12 0.229880 0.902629 0.500000
O O13 0.500000 0.892014 0.602519
O O14 0.218318 0.852329 0.651399
O O15 0.247924 0.934949 0.676406
O O16 0.000000 0.196757 0.260387
O O17 0.210263 0.500000 0.906402
O O18 0.296439 0.436749 0.807771
O O19 0.000000 0.434928 0.894611
O O20 0.272179 0.430455 0.000000
O O21 0.500000 0.545840 0.671019
O O22 0.777190 0.500000 0.692045
O O23 0.000000 0.952308 0.788992
O O24 0.722705 0.000000 0.796649
#
# Coordination Sequence:
#
# PCOD9384200 Si02
#       8
#     8   8   8   8   8   8   8   8
#     4   9  17  29  46  67  89 114 145 182 223 265
#     4   8  14  26  46  71  94 114 142 184 227 262
#     4   9  18  31  45  63  89 120 152 184 218 260
#     4  10  20  31  44  65  92 120 149 184 227 271
#     4   9  17  30  49  71  92 115 145 181 222 268
#     4   8  14  25  41  61  84 109 138 175 220 264
#     4   9  17  28  43  64  88 116 151 188 225 263
#     4   9  18  31  46  65  89 120 157 191 224 264
#
# _framework density 18.789387000000001
#
# number of rings (size 3 to 8) (size 9 to 14) (size 15 to 20)
#    0.000    3.125    0.000    1.875    0.000    3.750 
#    0.000    6.250    0.000    6.750    0.000    8.750 
#    0.000    0.000    0.000    0.000    0.000    0.000 
#
# Total GULP energy -356279.136346 kJ/mol
# GULP energy per Si atom -5566.861505 kJ/mol
# Density = 1.874662 g / cm^3
# Si number density = 18.789387 Si / 1000 Ang^3
#
#
#
# Elastic Constant Matrix: (Units=GPa)
#
#
# Indices 1 2 3 4 5 6 
#
# 1 27.9565 2.2767 5.8708 0.0000 0.0000 0.0000
# 2 2.2767 143.8842 79.9315 0.0000 0.0000 0.0000
# 3 5.8708 79.9315 117.7904 0.0000 0.0000 0.0000
# 4 0.0000 0.0000 0.0000 18.3523 0.0000 0.0000
# 5 0.0000 0.0000 0.0000 0.0000 -2.5460 0.0000
# 6 0.0000 0.0000 0.0000 0.0000 0.0000 14.4589
#
#
#
# Elastic Compliance Matrix: (Units=1/GPa)
#
#
# Indices 1 2 3 4 5 6 
#
# 1 0.036191 0.000689 -0.002271 0.000000 0.000000 0.000000
# 2 0.000689 0.011168 -0.007613 0.000000 0.000000 0.000000
# 3 -0.002271 -0.007613 0.013769 0.000000 0.000000 0.000000
# 4 0.000000 0.000000 0.000000 0.054489 0.000000 0.000000
# 5 0.000000 0.000000 0.000000 0.000000 -0.392773 0.000000
# 6 0.000000 0.000000 0.000000 0.000000 0.000000 0.069162
#
#
# Mechanical properties :
#
#
# Convention : Reuss Voigt Hill
#
# Bulk Modulus (GPa) = 23.39867 51.75433 37.57650
# Shear Modulus (GPa) = -28.51318 19.48984 -4.51167
#
# Velocity S-wave (km/s) = -3.89976 3.22418 -1.55125
# Velocity P-wave (km/s) = 2.79236 6.43931 4.10289
#
# Compressibility (1/GPa) = 0.04273748
#
# Stress axis : x y z
#
# Youngs Moduli (GPa) = 27.63135 89.53811 72.62655
#
# Poissons Ratio (x) = -0.06171 0.16497
# Poissons Ratio (y) = -0.01904 0.55292
# Poissons Ratio (z) = 0.06276 0.68167
#
# Static dielectric constant tensor:
#      x y z
#    x 1.719280 0.000000 0.000000 
#    y 0.000000 1.657110 0.000000 
#    z 0.000000 0.000000 1.636670 
# 
# From -- ./inp_files/22163.got.cif
#   From: 2010.05.17/outbox.cif.g08.bks.cpg/sg47_12_cif.got.tgz:22163.got - 2010.06.03 20:15:42.
