data_PCOD9384441
_publ_section_title
;
Structure prediction by ZEFSAII (Michael W. Deem and Ramdas Pophale) SiO2 
 PCOD9384441
Probable space group: P M M M
;
_chemical_formula_sum "Si O2"
_cell_formula_units_Z 44
_cell_length_a 9.704246
_cell_length_b 28.928049
_cell_length_c 7.351340
_cell_angle_alpha 90.000000
_cell_angle_beta 90.000000
_cell_angle_gamma 90.000000
_cell_volume 2063.704214
_symmetry_space_group_name_H-M "P M M M"
_symmetry_group_IT_number 47
_symmetry_cell_setting 'orthorhombic'
loop_
_space_group_symop_operation_xyz
x,y,z
-x,-y,z
x,-y,-z
-x,y,-z
-x,-y,-z
x,y,-z
-x,y,z
x,-y,z
loop_
_atom_site_type_symbol
_atom_site_label
_atom_site_fract_x
_atom_site_fract_y
_atom_site_fract_z
Si Si1 0.342220 0.585585 0.778553
Si Si2 0.158001 0.500000 0.222409
Si Si3 0.343838 0.690097 0.781289
Si Si4 0.155347 0.777180 0.285671
Si Si5 0.157556 0.052470 0.278697
Si Si6 0.658296 0.138128 0.277423
O O1 0.500000 0.575380 0.725418
O O2 0.238979 0.545852 0.718311
O O3 0.309243 0.637964 0.720196
O O4 0.339838 0.585542 0.000000
O O5 0.000000 0.500000 0.279908
O O6 0.159393 0.500000 0.000000
O O7 0.500000 0.701494 0.718519
O O8 0.233774 0.728649 0.731896
O O9 0.348625 0.688840 0.000000
O O10 0.142897 0.786555 0.500000
O O11 0.252605 0.818027 0.213954
O O12 0.000000 0.776345 0.210878
O O13 0.158265 0.052510 0.500000
O O14 0.264582 0.091297 0.220215
O O15 0.000000 0.063380 0.224080
O O16 0.189755 0.000000 0.221398
O O17 0.656810 0.138472 0.500000
O O18 0.500000 0.140528 0.218744
#
# Coordination Sequence:
#
# PCOD9384441 Si02
#       6
#     8   4   8   8   8   8
#     4   8  14  25  40  58  83 114 143 173 214 262
#     4   9  15  21  33  57  86 113 142 175 210 252
#     4   9  18  32  49  69  92 118 150 188 228 268
#     4  10  20  32  46  65  90 121 155 188 224 269
#     4   8  13  21  33  50  75 107 139 172 215 266
#     4   9  16  25  38  56  79 109 145 184 222 260
#
# _framework density 21.320885000000001
#
# number of rings (size 3 to 8) (size 9 to 14) (size 15 to 20)
#    0.000    3.182    0.000    3.000    0.000    5.818 
#    0.000    3.636    0.000    0.000    0.000    0.636 
#    0.000    5.818    0.000    7.636    0.000   10.545 
#
# Total GULP energy -245653.186961 kJ/mol
# GULP energy per Si atom -5583.026976 kJ/mol
# Density = 2.127236 g / cm^3
# Si number density = 21.320885 Si / 1000 Ang^3
#
#
#
# Elastic Constant Matrix: (Units=GPa)
#
#
# Indices 1 2 3 4 5 6 
#
# 1 228.0952 170.4145 7.3242 0.0000 0.0000 0.0000
# 2 170.4145 189.5031 1.2358 0.0000 0.0000 0.0000
# 3 7.3242 1.2358 78.2303 0.0000 0.0000 0.0000
# 4 0.0000 0.0000 0.0000 7.2166 0.0000 0.0000
# 5 0.0000 0.0000 0.0000 0.0000 -0.7245 0.0000
# 6 0.0000 0.0000 0.0000 0.0000 0.0000 391.6022
#
#
#
# Elastic Compliance Matrix: (Units=1/GPa)
#
#
# Indices 1 2 3 4 5 6 
#
# 1 0.013449 -0.012088 -0.001068 0.000000 0.000000 0.000000
# 2 -0.012088 0.016141 0.000877 0.000000 0.000000 0.000000
# 3 -0.001068 0.000877 0.012869 0.000000 0.000000 0.000000
# 4 0.000000 0.000000 0.000000 0.138569 0.000000 0.000000
# 5 0.000000 0.000000 0.000000 0.000000 -1.380311 0.000000
# 6 0.000000 0.000000 0.000000 0.000000 0.000000 0.002554
#
#
# Mechanical properties :
#
#
# Convention : Reuss Voigt Hill
#
# Bulk Modulus (GPa) = 55.86202 94.86419 75.36310
# Shear Modulus (GPa) = -4.28741 100.74249 48.22754
#
# Velocity S-wave (km/s) = -1.41960 6.88137 4.76119
# Velocity P-wave (km/s) = 4.85494 10.37920 8.10241
#
# Compressibility (1/GPa) = 0.01790125
#
# Stress axis : x y z
#
# Youngs Moduli (GPa) = 74.35296 61.95284 77.70656
#
# Poissons Ratio (x) = 0.74886 0.08301
# Poissons Ratio (y) = 0.89875 -0.06813
# Poissons Ratio (z) = 0.07943 -0.05431
#
# Static dielectric constant tensor:
#      x y z
#    x 1.725010 0.000000 0.000000 
#    y 0.000000 1.732960 0.000000 
#    z 0.000000 0.000000 1.922580 
# 
# From -- ./inp_files/2049.got.cif
#   From: 2010.05.17/outbox.cif.g08.bks.cpg/sg47_2_cif.got.tgz:2049.got - 2010.06.03 20:15:42.
