data_PCOD9384450
_publ_section_title
;
Structure prediction by ZEFSAII (Michael W. Deem and Ramdas Pophale) SiO2 
 PCOD9384450
Probable space group: P M M M
;
_chemical_formula_sum "Si O2"
_cell_formula_units_Z 64
_cell_length_a 31.914382
_cell_length_b 14.499528
_cell_length_c 9.053182
_cell_angle_alpha 90.000000
_cell_angle_beta 90.000000
_cell_angle_gamma 90.000000
_cell_volume 4189.300902
_symmetry_space_group_name_H-M "P M M M"
_symmetry_group_IT_number 47
_symmetry_cell_setting 'orthorhombic'
loop_
_space_group_symop_operation_xyz
x,y,z
-x,-y,z
x,-y,-z
-x,y,-z
-x,-y,-z
x,y,-z
-x,y,z
x,-y,z
loop_
_atom_site_type_symbol
_atom_site_label
_atom_site_fract_x
_atom_site_fract_y
_atom_site_fract_z
Si Si1 0.419602 0.105492 0.823805
Si Si2 0.130677 0.387848 0.830853
Si Si3 0.546922 0.716357 0.324006
Si Si4 0.622685 0.392196 0.823239
Si Si5 0.216949 0.609872 0.324626
Si Si6 0.046412 0.612040 0.327133
Si Si7 0.328104 0.893802 0.675185
Si Si8 0.292446 0.280328 0.822988
O O1 0.447577 0.183084 0.748625
O O2 0.373223 0.115363 0.754539
O O3 0.433590 0.000000 0.797231
O O4 0.417442 0.120144 0.000000
O O5 0.129264 0.500000 0.829624
O O6 0.171043 0.362420 0.734388
O O7 0.086500 0.355318 0.763991
O O8 0.135864 0.358391 0.000000
O O9 0.552002 0.723664 0.500000
O O10 0.500000 0.681242 0.292659
O O11 0.583178 0.652600 0.257629
O O12 0.627128 0.500000 0.786822
O O13 0.665193 0.337489 0.786301
O O14 0.616558 0.383892 0.000000
O O15 0.219817 0.624313 0.500000
O O16 0.222027 0.500000 0.296144
O O17 0.252854 0.665371 0.240588
O O18 0.051009 0.635869 0.500000
O O19 0.046460 0.500000 0.320034
O O20 0.000000 0.642149 0.276297
O O21 0.332852 0.876701 0.500000
O O22 0.297860 0.819225 0.748267
O O23 0.314448 0.000000 0.695025
O O24 0.289835 0.272659 0.000000
#
# Coordination Sequence:
#
# PCOD9384450 Si02
#       8
#     8   8   8   8   8   8   8   8
#     4  10  20  35  56  80 103 127 154 183 220 267
#     4   9  16  25  37  54  79 111 149 196 244 285
#     4  11  24  39  55  76 101 128 157 189 227 272
#     4  10  22  39  57  76  97 124 157 192 230 271
#     4  10  20  32  46  65  91 125 162 198 239 284
#     4   8  13  21  33  49  71 103 145 192 240 288
#     4  10  20  34  54  79 104 127 151 181 219 266
#     4  11  21  34  54  77  99 123 154 190 229 275
#
# _framework density 15.277011
#
# number of rings (size 3 to 8) (size 9 to 14) (size 15 to 20)
#    0.000    2.125    1.250    3.000    0.000    6.750 
#    0.000    3.750    0.000    0.000    0.000    0.000 
#    0.000    0.000    0.000    0.000    0.000    0.625 
#
# Total GULP energy -357036.274852 kJ/mol
# GULP energy per Si atom -5578.691795 kJ/mol
# Density = 1.524224 g / cm^3
# Si number density = 15.277011 Si / 1000 Ang^3
#
#
#
# Elastic Constant Matrix: (Units=GPa)
#
#
# Indices 1 2 3 4 5 6 
#
# 1 111.5947 39.5908 52.2431 0.0000 0.0000 0.0000
# 2 39.5908 57.1012 35.9202 0.0000 0.0000 0.0000
# 3 52.2431 35.9202 64.1840 0.0000 0.0000 0.0000
# 4 0.0000 0.0000 0.0000 20.5408 0.0000 0.0000
# 5 0.0000 0.0000 0.0000 0.0000 47.6388 0.0000
# 6 0.0000 0.0000 0.0000 0.0000 0.0000 2.4991
#
#
#
# Elastic Compliance Matrix: (Units=1/GPa)
#
#
# Indices 1 2 3 4 5 6 
#
# 1 0.015112 -0.004229 -0.009934 0.000000 0.000000 0.000000
# 2 -0.004229 0.028211 -0.012346 0.000000 0.000000 0.000000
# 3 -0.009934 -0.012346 0.030575 0.000000 0.000000 0.000000
# 4 0.000000 0.000000 0.000000 0.048684 0.000000 0.000000
# 5 0.000000 0.000000 0.000000 0.000000 0.020991 0.000000
# 6 0.000000 0.000000 0.000000 0.000000 0.000000 0.400140
#
#
# Mechanical properties :
#
#
# Convention : Reuss Voigt Hill
#
# Bulk Modulus (GPa) = 47.89057 54.26534 51.07795
# Shear Modulus (GPa) = 8.28239 21.14414 14.71327
#
# Velocity S-wave (km/s) = 2.33093 3.72432 3.10675
# Velocity P-wave (km/s) = 6.21776 7.35473 6.81001
#
# Compressibility (1/GPa) = 0.02088094
#
# Stress axis : x y z
#
# Youngs Moduli (GPa) = 66.17382 35.44680 32.70606
#
# Poissons Ratio (x) = 0.14989 0.32489
# Poissons Ratio (y) = 0.27983 0.40380
# Poissons Ratio (z) = 0.65735 0.43764
#
# Static dielectric constant tensor:
#      x y z
#    x 1.503090 0.000000 0.000000 
#    y 0.000000 1.496070 0.000000 
#    z 0.000000 0.000000 1.508440 
# 
# From -- ./inp_files/14322.got.cif
#   From: 2010.05.17/outbox.cif.g08.bks.cpg/sg47_8_cif.got.tgz:14322.got - 2010.06.03 20:15:42.
