data_PCOD9384915
_publ_section_title
;
Structure prediction by ZEFSAII (Michael W. Deem and Ramdas Pophale) SiO2 
 PCOD9384915
Probable space group: P M M M
;
_chemical_formula_sum "Si O2"
_cell_formula_units_Z 40
_cell_length_a 10.311036
_cell_length_b 14.213733
_cell_length_c 15.666412
_cell_angle_alpha 90.000000
_cell_angle_beta 90.000000
_cell_angle_gamma 90.000000
_cell_volume 2296.042908
_symmetry_space_group_name_H-M "P M M M"
_symmetry_group_IT_number 47
_symmetry_cell_setting 'orthorhombic'
loop_
_space_group_symop_operation_xyz
x,y,z
-x,-y,z
x,-y,-z
-x,y,-z
-x,-y,-z
x,y,-z
-x,y,z
x,-y,z
loop_
_atom_site_type_symbol
_atom_site_label
_atom_site_fract_x
_atom_site_fract_y
_atom_site_fract_z
Si Si1 0.657475 0.790361 0.774455
Si Si2 0.656914 0.889646 0.404885
Si Si3 0.500000 0.387922 0.591543
Si Si4 0.145965 0.113130 0.900576
Si Si5 0.747195 0.611867 0.706240
Si Si6 0.000000 0.386134 0.402492
O O1 0.500000 0.792767 0.783480
O O2 0.692602 0.832178 0.680135
O O3 0.736885 0.849275 0.843624
O O4 0.714306 0.684327 0.780737
O O5 0.702414 0.858141 0.500000
O O6 0.500000 0.886618 0.406987
O O7 0.693545 0.000000 0.395043
O O8 0.500000 0.500000 0.581606
O O9 0.500000 0.340593 0.500000
O O10 0.372321 0.368155 0.643164
O O11 0.000000 0.143727 0.872501
O O12 0.147202 0.000000 0.896973
O O13 0.161070 0.140327 0.000000
O O14 0.749672 0.500000 0.727041
O O15 0.874894 0.637309 0.653385
O O16 0.000000 0.500000 0.409597
O O17 0.000000 0.349796 0.500000
#
# Coordination Sequence:
#
# PCOD9384915 Si02
#       6
#     8   8   4   8   8   4
#     4  11  21  32  53  84 110 144 186 226 269 321
#     4   8  15  28  44  66 101 141 177 214 256 307
#     4   9  16  28  46  66  96 141 188 232 274 311
#     4   9  20  40  64  87 111 138 169 215 278 339
#     4  10  20  33  47  71 106 145 187 232 280 322
#     4   9  18  32  48  66  94 139 196 248 284 313
#
# _framework density 17.421277
#
# number of rings (size 3 to 8) (size 9 to 14) (size 15 to 20)
#    0.000    2.600    1.000    2.400    1.400    5.600 
#    0.000    1.000    0.000    0.600    0.000    5.600 
#    0.000    0.000    0.000    0.000    0.000    0.000 
#
# Total GULP energy -222688.843989 kJ/mol
# GULP energy per Si atom -5567.221100 kJ/mol
# Density = 1.738163 g / cm^3
# Si number density = 17.421277 Si / 1000 Ang^3
#
#
#
# Elastic Constant Matrix: (Units=GPa)
#
#
# Indices 1 2 3 4 5 6 
#
# 1 118.8263 29.9180 43.1228 0.0000 0.0000 0.0000
# 2 29.9180 64.4139 35.6177 0.0000 0.0000 0.0000
# 3 43.1228 35.6177 68.8943 0.0000 0.0000 0.0000
# 4 0.0000 0.0000 0.0000 8.6989 0.0000 0.0000
# 5 0.0000 0.0000 0.0000 0.0000 34.3617 0.0000
# 6 0.0000 0.0000 0.0000 0.0000 0.0000 26.3842
#
#
#
# Elastic Compliance Matrix: (Units=1/GPa)
#
#
# Indices 1 2 3 4 5 6 
#
# 1 0.011041 -0.001830 -0.005965 0.000000 0.000000 0.000000
# 2 -0.001830 0.022042 -0.010250 0.000000 0.000000 0.000000
# 3 -0.005965 -0.010250 0.023548 0.000000 0.000000 0.000000
# 4 0.000000 0.000000 0.000000 0.114958 0.000000 0.000000
# 5 0.000000 0.000000 0.000000 0.000000 0.029102 0.000000
# 6 0.000000 0.000000 0.000000 0.000000 0.000000 0.037902
#
#
# Mechanical properties :
#
#
# Convention : Reuss Voigt Hill
#
# Bulk Modulus (GPa) = 48.68269 52.16127 50.42198
# Shear Modulus (GPa) = 17.76009 23.45401 20.60705
#
# Velocity S-wave (km/s) = 3.19634 3.67316 3.44301
# Velocity P-wave (km/s) = 6.45191 6.92788 6.69413
#
# Compressibility (1/GPa) = 0.02054118
#
# Stress axis : x y z
#
# Youngs Moduli (GPa) = 90.57093 45.36694 42.46664
#
# Poissons Ratio (x) = 0.08302 0.25331
# Poissons Ratio (y) = 0.16574 0.43530
# Poissons Ratio (z) = 0.54024 0.46503
#
# Static dielectric constant tensor:
#      x y z
#    x 1.582550 0.000000 0.000000 
#    y 0.000000 1.649370 0.000000 
#    z 0.000000 0.000000 1.615080 
# 
# From -- ./inp_files/20732.got.cif
#   From: 2010.05.17/outbox.cif.g08.bks.cpg/sg47_11_cif.got.tgz:20732.got - 2010.06.03 20:15:42.
