data_PCOD9384888
_publ_section_title
;
Structure prediction by ZEFSAII (Michael W. Deem and Ramdas Pophale) SiO2 
 PCOD9384888
Probable space group: P M M M
;
_chemical_formula_sum "Si O2"
_cell_formula_units_Z 37
_cell_length_a 11.592391
_cell_length_b 11.873140
_cell_length_c 15.767280
_cell_angle_alpha 90.000000
_cell_angle_beta 90.000000
_cell_angle_gamma 90.000000
_cell_volume 2170.178166
_symmetry_space_group_name_H-M "P M M M"
_symmetry_group_IT_number 47
_symmetry_cell_setting 'orthorhombic'
loop_
_space_group_symop_operation_xyz
x,y,z
-x,-y,z
x,-y,-z
-x,y,-z
-x,-y,-z
x,y,-z
-x,y,z
x,-y,z
loop_
_atom_site_type_symbol
_atom_site_label
_atom_site_fract_x
_atom_site_fract_y
_atom_site_fract_z
Si Si1 0.639414 0.000000 0.902638
Si Si2 0.764029 0.250761 0.655399
Si Si3 0.500000 0.000000 0.500000
Si Si4 0.360080 0.372644 0.000000
Si Si5 0.637870 0.630827 0.500000
Si Si6 0.000000 0.365245 0.398003
Si Si7 0.740225 0.000000 0.405714
Si Si8 0.360561 0.759467 0.829686
O O1 0.670169 0.887899 0.852611
O O2 0.500000 0.000000 0.908637
O O3 0.682209 0.000000 0.000000
O O4 0.684462 0.303388 0.581457
O O5 0.887207 0.308730 0.642154
O O6 0.705548 0.275797 0.745395
O O7 0.770207 0.116130 0.640738
O O8 0.396813 0.000000 0.427257
O O9 0.327683 0.310718 0.913314
O O10 0.318532 0.500000 0.000000
O O11 0.500000 0.372567 0.000000
O O12 0.677437 0.500000 0.500000
O O13 0.500000 0.632441 0.500000
O O14 0.000000 0.500000 0.385592
O O15 0.000000 0.344961 0.500000
O O16 0.796662 0.000000 0.500000
O O17 0.500000 0.751186 0.817720
#
# Coordination Sequence:
#
# PCOD9384888 Si02
#       8
#     4   8   1   4   4   4   4   8
#     4   9  15  30  55  83 122 158 191 221 275 361
#     4  12  23  38  60  87 114 156 198 247 293 350
#     4   8  20  32  52  78 130 162 172 204 298 362
#     4   9  18  33  49  74 114 152 184 231 293 352
#     4  11  23  37  55  81 117 154 194 244 294 352
#     4  11  24  45  65  78 109 159 213 260 292 335
#     4  10  21  34  56  85 120 158 179 230 296 359
#     4  10  20  32  55  87 119 153 188 234 292 352
#
# _framework density 17.049291
#
# number of rings (size 3 to 8) (size 9 to 14) (size 15 to 20)
#    0.324    1.297    3.243    1.946    4.541    2.162 
#    0.000    3.243    0.000    0.649    0.000    2.270 
#    0.000    0.000    0.000    0.000    0.000    0.000 
#
# Total GULP energy -206187.206736 kJ/mol
# GULP energy per Si atom -5572.627209 kJ/mol
# Density = 1.701049 g / cm^3
# Si number density = 17.049291 Si / 1000 Ang^3
#
#
#
# Elastic Constant Matrix: (Units=GPa)
#
#
# Indices 1 2 3 4 5 6 
#
# 1 79.4173 46.7446 56.7880 0.0000 0.0000 0.0000
# 2 46.7446 141.0272 72.5816 0.0000 0.0000 0.0000
# 3 56.7880 72.5816 171.9902 0.0000 0.0000 0.0000
# 4 0.0000 0.0000 0.0000 -6.0851 0.0000 0.0000
# 5 0.0000 0.0000 0.0000 0.0000 -11.8773 0.0000
# 6 0.0000 0.0000 0.0000 0.0000 0.0000 5.2203
#
#
#
# Elastic Compliance Matrix: (Units=1/GPa)
#
#
# Indices 1 2 3 4 5 6 
#
# 1 0.017868 -0.003687 -0.004344 0.000000 0.000000 0.000000
# 2 -0.003687 0.009819 -0.002926 0.000000 0.000000 0.000000
# 3 -0.004344 -0.002926 0.008483 0.000000 0.000000 0.000000
# 4 0.000000 0.000000 0.000000 -0.164337 0.000000 0.000000
# 5 0.000000 0.000000 0.000000 0.000000 -0.084194 0.000000
# 6 0.000000 0.000000 0.000000 0.000000 0.000000 0.191561
#
#
# Mechanical properties :
#
#
# Convention : Reuss Voigt Hill
#
# Bulk Modulus (GPa) = 70.14441 82.74036 76.44239
# Shear Modulus (GPa) = 852.30047 11.87295 432.08671
#
# Velocity S-wave (km/s) = 22.38278 2.64178 15.93688
# Velocity P-wave (km/s) = 26.63112 7.61189 19.58517
#
# Compressibility (1/GPa) = 0.01425630
#
# Stress axis : x y z
#
# Youngs Moduli (GPa) = 55.96663 101.84371 117.87644
#
# Poissons Ratio (x) = 0.37548 0.51202
# Poissons Ratio (y) = 0.20634 0.34495
# Poissons Ratio (z) = 0.24310 0.29803
#
# Static dielectric constant tensor:
#      x y z
#    x 1.555900 0.000000 0.000000 
#    y 0.000000 1.615420 0.000000 
#    z 0.000000 0.000000 1.578580 
# 
# From -- ./inp_files/17306.got.cif
#   From: 2010.05.17/outbox.cif.g08.bks.cpg/sg47_9_cif.got.tgz:17306.got - 2010.06.03 20:15:42.
