data_PCOD9384758
_publ_section_title
;
Structure prediction by ZEFSAII (Michael W. Deem and Ramdas Pophale) SiO2 
 PCOD9384758
Probable space group: P M M M
;
_chemical_formula_sum "Si O2"
_cell_formula_units_Z 56
_cell_length_a 14.887323
_cell_length_b 8.856670
_cell_length_c 23.864557
_cell_angle_alpha 90.000000
_cell_angle_beta 90.000000
_cell_angle_gamma 90.000000
_cell_volume 3146.592123
_symmetry_space_group_name_H-M "P M M M"
_symmetry_group_IT_number 47
_symmetry_cell_setting 'orthorhombic'
loop_
_space_group_symop_operation_xyz
x,y,z
-x,-y,z
x,-y,-z
-x,y,-z
-x,-y,-z
x,y,-z
-x,y,z
x,-y,z
loop_
_atom_site_type_symbol
_atom_site_label
_atom_site_fract_x
_atom_site_fract_y
_atom_site_fract_z
Si Si1 0.230966 0.182185 0.437621
Si Si2 0.894919 0.181916 0.209881
Si Si3 0.603938 0.319821 0.381321
Si Si4 0.103043 0.183642 0.337395
Si Si5 0.606741 0.178337 0.740256
Si Si6 0.397232 0.819133 0.066155
Si Si7 0.723625 0.320585 0.839604
O O1 0.198887 0.222553 0.500000
O O2 0.328427 0.249931 0.425770
O O3 0.166860 0.235929 0.387246
O O4 0.235529 0.000000 0.434632
O O5 0.871541 0.228513 0.274095
O O6 0.823906 0.256970 0.168705
O O7 0.000000 0.219170 0.200365
O O8 0.886900 0.000000 0.206735
O O9 0.500000 0.283962 0.393707
O O10 0.613483 0.500000 0.378755
O O11 0.625345 0.249191 0.320488
O O12 0.000000 0.229624 0.347031
O O13 0.104606 0.000000 0.337629
O O14 0.500000 0.196926 0.751404
O O15 0.664608 0.255768 0.788239
O O16 0.626884 0.000000 0.738841
O O17 0.500000 0.775554 0.081370
O O18 0.325059 0.737307 0.104434
O O19 0.390324 0.000000 0.074595
O O20 0.385501 0.789663 0.000000
O O21 0.724372 0.500000 0.837860
#
# Coordination Sequence:
#
# PCOD9384758 Si02
#       7
#     8   8   8   8   8   8   8
#     4  10  20  32  49  74 100 129 167 207 248 303
#     4   9  18  34  56  78 101 136 182 226 266 313
#     4  10  21  36  52  70  95 128 166 211 265 317
#     4   8  15  30  52  76 100 126 160 206 258 306
#     4  10  20  34  53  76 103 135 171 213 260 312
#     4   9  19  37  59  81 108 146 190 229 262 301
#     4  12  23  32  50  81 115 147 176 213 263 315
#
# _framework density 17.797031
#
# number of rings (size 3 to 8) (size 9 to 14) (size 15 to 20)
#    0.000    2.286    0.000    4.714    0.000    6.286 
#    0.000    3.571    0.000    1.714    0.000    4.000 
#    0.000    0.000    0.000    0.000    0.000    0.000 
#
# Total GULP energy -312631.627183 kJ/mol
# GULP energy per Si atom -5582.707628 kJ/mol
# Density = 1.775652 g / cm^3
# Si number density = 17.797031 Si / 1000 Ang^3
#
#
#
# Elastic Constant Matrix: (Units=GPa)
#
#
# Indices 1 2 3 4 5 6 
#
# 1 96.0558 42.4171 67.8146 0.0000 0.0000 0.0000
# 2 42.4171 37.7695 34.8890 0.0000 0.0000 0.0000
# 3 67.8146 34.8890 73.0594 0.0000 0.0000 0.0000
# 4 0.0000 0.0000 0.0000 10.9045 0.0000 0.0000
# 5 0.0000 0.0000 0.0000 0.0000 24.8355 0.0000
# 6 0.0000 0.0000 0.0000 0.0000 0.0000 10.2508
#
#
#
# Elastic Compliance Matrix: (Units=1/GPa)
#
#
# Indices 1 2 3 4 5 6 
#
# 1 0.035285 -0.016770 -0.024743 0.000000 0.000000 0.000000
# 2 -0.016770 0.055345 -0.010863 0.000000 0.000000 0.000000
# 3 -0.024743 -0.010863 0.041842 0.000000 0.000000 0.000000
# 4 0.000000 0.000000 0.000000 0.091706 0.000000 0.000000
# 5 0.000000 0.000000 0.000000 0.000000 0.040265 0.000000
# 6 0.000000 0.000000 0.000000 0.000000 0.000000 0.097553
#
#
# Mechanical properties :
#
#
# Convention : Reuss Voigt Hill
#
# Bulk Modulus (GPa) = 36.07711 55.23623 45.65667
# Shear Modulus (GPa) = 10.50448 13.31576 11.91012
#
# Velocity S-wave (km/s) = 2.43212 2.73829 2.58973
# Velocity P-wave (km/s) = 5.31059 6.41107 5.88660
#
# Compressibility (1/GPa) = 0.02771840
#
# Stress axis : x y z
#
# Youngs Moduli (GPa) = 28.34094 18.06850 23.89951
#
# Poissons Ratio (x) = 0.30302 0.59135
# Poissons Ratio (y) = 0.47529 0.25962
# Poissons Ratio (z) = 0.70124 0.19628
#
# Static dielectric constant tensor:
#      x y z
#    x 1.614090 0.000000 0.000000 
#    y 0.000000 1.586820 0.000000 
#    z 0.000000 0.000000 1.598980 
# 
# From -- ./inp_files/29697.got.cif
#   From: 2010.05.17/outbox.cif.g08.bks.cpg/sg47_15_cif.got.tgz:29697.got - 2010.06.03 20:15:42.
