data_PCOD9384167
_publ_section_title
;
Structure prediction by ZEFSAII (Michael W. Deem and Ramdas Pophale) SiO2 
 PCOD9384167
Probable space group: P M M M
;
_chemical_formula_sum "Si O2"
_cell_formula_units_Z 44
_cell_length_a 7.363290
_cell_length_b 31.267355
_cell_length_c 8.441591
_cell_angle_alpha 90.000000
_cell_angle_beta 90.000000
_cell_angle_gamma 90.000000
_cell_volume 1943.512581
_symmetry_space_group_name_H-M "P M M M"
_symmetry_group_IT_number 47
_symmetry_cell_setting 'orthorhombic'
loop_
_space_group_symop_operation_xyz
x,y,z
-x,-y,z
x,-y,-z
-x,y,-z
-x,-y,-z
x,y,-z
-x,y,z
x,-y,z
loop_
_atom_site_type_symbol
_atom_site_label
_atom_site_fract_x
_atom_site_fract_y
_atom_site_fract_z
Si Si1 0.216585 0.769914 0.324030
Si Si2 0.778684 0.403651 0.675413
Si Si3 0.717659 0.137834 0.819653
Si Si4 0.221197 0.450313 0.000000
Si Si5 0.282983 0.046065 0.808073
Si Si6 0.221176 0.316955 0.823342
O O1 0.289731 0.764772 0.500000
O O2 0.246269 0.818071 0.267214
O O3 0.283971 0.730836 0.217345
O O4 0.000000 0.764668 0.329664
O O5 0.719867 0.418438 0.500000
O O6 0.719629 0.428639 0.834185
O O7 0.726089 0.354071 0.702456
O O8 0.000000 0.405639 0.675212
O O9 0.500000 0.133697 0.826883
O O10 0.784726 0.092342 0.750297
O O11 0.785157 0.141960 0.000000
O O12 0.270829 0.500000 0.000000
O O13 0.000000 0.447245 0.000000
O O14 0.500000 0.044923 0.779061
O O15 0.210502 0.000000 0.751881
O O16 0.259526 0.047063 0.000000
O O17 0.000000 0.316608 0.823597
O O18 0.278374 0.329032 0.000000
#
# Coordination Sequence:
#
# PCOD9384167 Si02
#       6
#     8   8   8   4   8   8
#     4  10  20  31  43  62  87 116 151 187 222 264
#     4   9  15  23  35  50  70  98 134 177 222 267
#     4   9  17  29  46  68  91 114 142 178 224 275
#     4   9  16  24  32  46  70 100 137 179 222 267
#     4   7  10  19  38  63  86 106 133 173 217 260
#     4   9  15  25  41  58  76 100 135 180 225 264
#
# _framework density 22.639420000000001
#
# number of rings (size 3 to 8) (size 9 to 14) (size 15 to 20)
#    0.000    3.182    0.909    2.727    0.000    4.000 
#    0.000    1.818    0.000    1.091    0.000    6.364 
#    0.000    0.000    0.000    0.000    0.000    1.818 
#
# Total GULP energy -245289.627979 kJ/mol
# GULP energy per Si atom -5574.764272 kJ/mol
# Density = 2.258789 g / cm^3
# Si number density = 22.639420 Si / 1000 Ang^3
#
#
#
# Elastic Constant Matrix: (Units=GPa)
#
#
# Indices 1 2 3 4 5 6 
#
# 1 79.2764 0.2517 3.2113 0.0000 0.0000 0.0000
# 2 0.2517 161.0373 71.3237 0.0000 0.0000 0.0000
# 3 3.2113 71.3237 125.9932 0.0000 0.0000 0.0000
# 4 0.0000 0.0000 0.0000 3.8710 0.0000 0.0000
# 5 0.0000 0.0000 0.0000 0.0000 -4.6872 0.0000
# 6 0.0000 0.0000 0.0000 0.0000 0.0000 1.2023
#
#
#
# Elastic Compliance Matrix: (Units=1/GPa)
#
#
# Indices 1 2 3 4 5 6 
#
# 1 0.012630 0.000164 -0.000415 0.000000 0.000000 0.000000
# 2 0.000164 0.008290 -0.004697 0.000000 0.000000 0.000000
# 3 -0.000415 -0.004697 0.010606 0.000000 0.000000 0.000000
# 4 0.000000 0.000000 0.000000 0.258333 0.000000 0.000000
# 5 0.000000 0.000000 0.000000 0.000000 -0.213348 0.000000
# 6 0.000000 0.000000 0.000000 0.000000 0.000000 0.831734
#
#
# Mechanical properties :
#
#
# Convention : Reuss Voigt Hill
#
# Bulk Modulus (GPa) = 46.22978 57.32004 51.77491
# Shear Modulus (GPa) = 5.40335 19.51190 12.45762
#
# Velocity S-wave (km/s) = 1.54657 2.93892 2.34831
# Velocity P-wave (km/s) = 4.86349 6.07371 5.50198
#
# Compressibility (1/GPa) = 0.02163108
#
# Stress axis : x y z
#
# Youngs Moduli (GPa) = 79.17422 120.63061 94.28262
#
# Poissons Ratio (x) = -0.01978 0.03910
# Poissons Ratio (y) = -0.01298 0.44284
# Poissons Ratio (z) = 0.03284 0.56660
#
# Static dielectric constant tensor:
#      x y z
#    x 1.952100 0.000000 0.000000 
#    y 0.000000 1.852210 0.000000 
#    z 0.000000 0.000000 1.820240 
# 
# From -- ./inp_files/2273.got.cif
#   From: 2010.05.17/outbox.cif.g08.bks.cpg/sg47_2_cif.got.tgz:2273.got - 2010.06.03 20:15:42.
