data_PCOD9384321
_publ_section_title
;
Structure prediction by ZEFSAII (Michael W. Deem and Ramdas Pophale) SiO2 
 PCOD9384321
Probable space group: P M M M
;
_chemical_formula_sum "Si O2"
_cell_formula_units_Z 52
_cell_length_a 24.454859
_cell_length_b 14.017171
_cell_length_c 9.166517
_cell_angle_alpha 90.000000
_cell_angle_beta 90.000000
_cell_angle_gamma 90.000000
_cell_volume 3142.171483
_symmetry_space_group_name_H-M "P M M M"
_symmetry_group_IT_number 47
_symmetry_cell_setting 'orthorhombic'
loop_
_space_group_symop_operation_xyz
x,y,z
-x,-y,z
x,-y,-z
-x,y,-z
-x,-y,-z
x,y,-z
-x,y,z
x,-y,z
loop_
_atom_site_type_symbol
_atom_site_label
_atom_site_fract_x
_atom_site_fract_y
_atom_site_fract_z
Si Si1 0.066186 0.500000 0.335201
Si Si2 0.339462 0.713109 0.328205
Si Si3 0.437319 0.610385 0.824475
Si Si4 0.171469 0.215018 0.173328
Si Si5 0.227098 0.389795 0.671130
Si Si6 0.733478 0.891568 0.324539
Si Si7 0.062995 0.696056 0.825083
O O1 0.088043 0.500000 0.500000
O O2 0.080036 0.402802 0.252028
O O3 0.000000 0.500000 0.341975
O O4 0.351840 0.721182 0.500000
O O5 0.392742 0.679724 0.243761
O O6 0.291320 0.634630 0.311708
O O7 0.311423 0.812635 0.279294
O O8 0.500000 0.632829 0.782365
O O9 0.426434 0.500000 0.781212
O O10 0.434289 0.614343 0.000000
O O11 0.195883 0.316421 0.225923
O O12 0.208746 0.137809 0.254146
O O13 0.107222 0.222749 0.210820
O O14 0.177098 0.204007 0.000000
O O15 0.213933 0.370313 0.500000
O O16 0.215721 0.500000 0.702134
O O17 0.738493 0.883626 0.500000
O O18 0.718771 0.000000 0.287576
O O19 0.000000 0.717509 0.785036
O O20 0.064749 0.681351 0.000000
#
# Coordination Sequence:
#
# PCOD9384321 Si02
#       7
#     4   8   8   8   8   8   8
#     4   9  17  27  41  63  87 117 161 201 226 259
#     4   9  17  30  49  72  94 119 159 201 236 279
#     4   9  18  31  46  68 102 141 172 195 225 267
#     4  10  20  31  47  72  95 118 156 200 238 284
#     4   9  18  31  45  64  95 132 161 192 238 286
#     4   9  19  37  57  73  93 122 153 192 249 305
#     4   9  18  32  46  61  90 129 160 190 234 284
#
# _framework density 16.549064000000001
#
# number of rings (size 3 to 8) (size 9 to 14) (size 15 to 20)
#    0.000    2.846    0.000    2.538    1.077    6.462 
#    0.000    0.769    0.000    0.923    0.000    6.462 
#    0.000    0.000    0.000    0.000    0.000    0.000 
#
# Total GULP energy -289788.324410 kJ/mol
# GULP energy per Si atom -5572.852393 kJ/mol
# Density = 1.651140 g / cm^3
# Si number density = 16.549064 Si / 1000 Ang^3
#
#
#
# Elastic Constant Matrix: (Units=GPa)
#
#
# Indices 1 2 3 4 5 6 
#
# 1 107.4824 40.8252 32.7542 0.0000 0.0000 0.0000
# 2 40.8252 69.8337 17.3885 0.0000 0.0000 0.0000
# 3 32.7542 17.3885 20.0340 0.0000 0.0000 0.0000
# 4 0.0000 0.0000 0.0000 18.9959 0.0000 0.0000
# 5 0.0000 0.0000 0.0000 0.0000 10.7530 0.0000
# 6 0.0000 0.0000 0.0000 0.0000 0.0000 18.5393
#
#
#
# Elastic Compliance Matrix: (Units=1/GPa)
#
#
# Indices 1 2 3 4 5 6 
#
# 1 0.019560 -0.004429 -0.028135 0.000000 0.000000 0.000000
# 2 -0.004429 0.019271 -0.009484 0.000000 0.000000 0.000000
# 3 -0.028135 -0.009484 0.104146 0.000000 0.000000 0.000000
# 4 0.000000 0.000000 0.000000 0.052643 0.000000 0.000000
# 5 0.000000 0.000000 0.000000 0.000000 0.092997 0.000000
# 6 0.000000 0.000000 0.000000 0.000000 0.000000 0.053939
#
#
# Mechanical properties :
#
#
# Convention : Reuss Voigt Hill
#
# Bulk Modulus (GPa) = 16.98382 42.14288 29.56335
# Shear Modulus (GPa) = 11.20369 16.74978 13.97673
#
# Velocity S-wave (km/s) = 2.60474 3.18485 2.90929
# Velocity P-wave (km/s) = 4.39673 6.24860 5.40260
#
# Compressibility (1/GPa) = 0.05887957
#
# Stress axis : x y z
#
# Youngs Moduli (GPa) = 51.12429 51.89207 9.60187
#
# Poissons Ratio (x) = 0.22985 0.27015
# Poissons Ratio (y) = 0.22645 0.09107
# Poissons Ratio (z) = 1.43839 0.49216
#
# Static dielectric constant tensor:
#      x y z
#    x 1.576410 0.000000 0.000000 
#    y 0.000000 1.543510 0.000000 
#    z 0.000000 0.000000 1.556100 
# 
# From -- ./inp_files/12512.got.cif
#   From: 2010.05.17/outbox.cif.g08.bks.cpg/sg47_7_cif.got.tgz:12512.got - 2010.06.03 20:15:42.
