data_PCOD9384767
_publ_section_title
;
Structure prediction by ZEFSAII (Michael W. Deem and Ramdas Pophale) SiO2 
 PCOD9384767
Probable space group: P M M M
;
_chemical_formula_sum "Si O2"
_cell_formula_units_Z 52
_cell_length_a 9.200176
_cell_length_b 24.175693
_cell_length_c 13.860177
_cell_angle_alpha 90.000000
_cell_angle_beta 90.000000
_cell_angle_gamma 90.000000
_cell_volume 3082.789307
_symmetry_space_group_name_H-M "P M M M"
_symmetry_group_IT_number 47
_symmetry_cell_setting 'orthorhombic'
loop_
_space_group_symop_operation_xyz
x,y,z
-x,-y,z
x,-y,-z
-x,y,-z
-x,-y,-z
x,y,-z
-x,y,z
x,-y,z
loop_
_atom_site_type_symbol
_atom_site_label
_atom_site_fract_x
_atom_site_fract_y
_atom_site_fract_z
Si Si1 0.325320 0.836630 0.387822
Si Si2 0.000000 0.566914 0.113475
Si Si3 0.165276 0.609737 0.284998
Si Si4 0.829269 0.103725 0.786121
Si Si5 0.672258 0.276704 0.715606
Si Si6 0.325684 0.000000 0.114722
Si Si7 0.168263 0.221334 0.112501
Si Si8 0.176996 0.500000 0.612257
O O1 0.291581 0.845972 0.500000
O O2 0.500000 0.842786 0.374462
O O3 0.241894 0.877149 0.314896
O O4 0.287320 0.773606 0.356587
O O5 0.135464 0.593118 0.172748
O O6 0.000000 0.500000 0.127040
O O7 0.000000 0.578789 0.000000
O O8 0.254039 0.664727 0.302963
O O9 0.228576 0.555829 0.336736
O O10 0.000000 0.618740 0.322505
O O11 0.818470 0.157516 0.855197
O O12 0.000000 0.090599 0.774318
O O13 0.744045 0.053483 0.834659
O O14 0.500000 0.282233 0.713276
O O15 0.727454 0.256321 0.819761
O O16 0.500000 0.000000 0.126156
O O17 0.293248 0.000000 0.000000
O O18 0.000000 0.237992 0.130549
O O19 0.198920 0.227375 0.000000
O O20 0.211198 0.500000 0.500000
O O21 0.000000 0.500000 0.623415
#
# Coordination Sequence:
#
# PCOD9384767 Si02
#       8
#     8   4   8   8   8   4   8   4
#     4   9  19  37  57  75 102 143 182 215 259 316
#     4   9  16  30  52  72  90 126 172 211 246 301
#     4   9  17  32  48  72  97 125 166 208 250 310
#     4  10  20  35  56  82 110 138 173 225 269 307
#     4  10  20  32  49  74 105 134 167 211 256 305
#     4  11  23  37  56  83 114 149 183 210 250 313
#     4   9  18  33  52  74 101 136 172 207 252 305
#     4   9  16  30  51  73  97 122 156 209 260 299
#
# _framework density 16.867840000000001
#
# number of rings (size 3 to 8) (size 9 to 14) (size 15 to 20)
#    0.462    2.077    0.769    1.615    0.000    4.308 
#    0.000    0.769    0.000    2.769    0.000    1.077 
#    0.000    0.000    0.000    0.000    0.000    0.000 
#
# Total GULP energy -289757.282066 kJ/mol
# GULP energy per Si atom -5572.255424 kJ/mol
# Density = 1.682945 g / cm^3
# Si number density = 16.867840 Si / 1000 Ang^3
#
#
#
# Elastic Constant Matrix: (Units=GPa)
#
#
# Indices 1 2 3 4 5 6 
#
# 1 61.3896 63.3789 45.7187 0.0000 0.0000 0.0000
# 2 63.3789 123.6741 57.9741 0.0000 0.0000 0.0000
# 3 45.7187 57.9741 111.9392 0.0000 0.0000 0.0000
# 4 0.0000 0.0000 0.0000 7.5015 0.0000 0.0000
# 5 0.0000 0.0000 0.0000 0.0000 18.2931 0.0000
# 6 0.0000 0.0000 0.0000 0.0000 0.0000 27.2139
#
#
#
# Elastic Compliance Matrix: (Units=1/GPa)
#
#
# Indices 1 2 3 4 5 6 
#
# 1 0.038630 -0.016377 -0.007296 0.000000 0.000000 0.000000
# 2 -0.016377 0.017621 -0.002437 0.000000 0.000000 0.000000
# 3 -0.007296 -0.002437 0.013176 0.000000 0.000000 0.000000
# 4 0.000000 0.000000 0.000000 0.133307 0.000000 0.000000
# 5 0.000000 0.000000 0.000000 0.000000 0.054665 0.000000
# 6 0.000000 0.000000 0.000000 0.000000 0.000000 0.036746
#
#
# Mechanical properties :
#
#
# Convention : Reuss Voigt Hill
#
# Bulk Modulus (GPa) = 58.11663 70.12736 64.12199
# Shear Modulus (GPa) = 14.20049 19.26378 16.73213
#
# Velocity S-wave (km/s) = 2.90464 3.38308 3.15295
# Velocity P-wave (km/s) = 6.76596 7.54487 7.16601
#
# Compressibility (1/GPa) = 0.01720678
#
# Stress axis : x y z
#
# Youngs Moduli (GPa) = 25.88650 56.75121 75.89808
#
# Poissons Ratio (x) = 0.92939 0.55375
# Poissons Ratio (y) = 0.42393 0.18499
# Poissons Ratio (z) = 0.18887 0.13832
#
# Static dielectric constant tensor:
#      x y z
#    x 1.560450 0.000000 0.000000 
#    y 0.000000 1.565760 0.000000 
#    z 0.000000 0.000000 1.555290 
# 
# From -- ./inp_files/21506.got.cif
#   From: 2010.05.17/outbox.cif.g08.bks.cpg/sg47_11_cif.got.tgz:21506.got - 2010.06.03 20:15:42.
