data_PCOD9384516
_publ_section_title
;
Structure prediction by ZEFSAII (Michael W. Deem and Ramdas Pophale) SiO2 
 PCOD9384516
Probable space group: P M M M
;
_chemical_formula_sum "Si O2"
_cell_formula_units_Z 44
_cell_length_a 8.142093
_cell_length_b 31.171540
_cell_length_c 9.413838
_cell_angle_alpha 90.000000
_cell_angle_beta 90.000000
_cell_angle_gamma 90.000000
_cell_volume 2389.246936
_symmetry_space_group_name_H-M "P M M M"
_symmetry_group_IT_number 47
_symmetry_cell_setting 'orthorhombic'
loop_
_space_group_symop_operation_xyz
x,y,z
-x,-y,z
x,-y,-z
-x,y,-z
-x,-y,-z
x,y,-z
-x,y,z
x,-y,z
loop_
_atom_site_type_symbol
_atom_site_label
_atom_site_fract_x
_atom_site_fract_y
_atom_site_fract_z
Si Si1 0.696273 0.286596 0.663456
Si Si2 0.000000 0.049527 0.673422
Si Si3 0.808344 0.193964 0.671030
Si Si4 0.799679 0.452128 0.664569
Si Si5 0.318635 0.896852 0.673458
Si Si6 0.198624 0.369585 0.161945
O O1 0.756372 0.291406 0.500000
O O2 0.500000 0.284640 0.660020
O O3 0.759083 0.241049 0.723103
O O4 0.750819 0.327269 0.753448
O O5 0.164945 0.074278 0.719390
O O6 0.000000 0.050312 0.500000
O O7 0.000000 0.000000 0.717435
O O8 0.784088 0.195896 0.500000
O O9 0.709186 0.152384 0.720680
O O10 0.000000 0.186046 0.697382
O O11 0.751670 0.446043 0.500000
O O12 0.747653 0.500000 0.710090
O O13 0.742013 0.412686 0.759505
O O14 0.000000 0.451943 0.667593
O O15 0.314787 0.896651 0.500000
O O16 0.500000 0.911975 0.716274
O O17 0.000000 0.371169 0.160795
O O18 0.256737 0.368029 0.000000
#
# Coordination Sequence:
#
# PCOD9384516 Si02
#       6
#     8   4   8   8   8   8
#     4  10  20  32  47  68  91 118 156 199 242 289
#     4   9  16  24  32  46  72 108 151 195 240 291
#     4   9  15  25  42  62  83 107 140 188 243 290
#     4   8  14  26  46  71  96 122 155 197 242 285
#     4   9  15  23  35  51  74 105 144 192 242 291
#     4  10  20  32  47  69  97 128 159 191 235 292
#
# _framework density 18.415845000000001
#
# number of rings (size 3 to 8) (size 9 to 14) (size 15 to 20)
#    0.000    2.818    0.909    2.182    0.000    5.091 
#    0.000    3.636    0.000    0.545    0.000    3.818 
#    0.000    0.000    0.000    0.000    0.000    1.818 
#
# Total GULP energy -245223.775102 kJ/mol
# GULP energy per Si atom -5573.267616 kJ/mol
# Density = 1.837393 g / cm^3
# Si number density = 18.415845 Si / 1000 Ang^3
#
#
#
# Elastic Constant Matrix: (Units=GPa)
#
#
# Indices 1 2 3 4 5 6 
#
# 1 46.9256 67.5623 13.6740 0.0000 0.0000 0.0000
# 2 67.5623 163.1314 45.9573 0.0000 0.0000 0.0000
# 3 13.6740 45.9573 33.9149 0.0000 0.0000 0.0000
# 4 0.0000 0.0000 0.0000 -4.5340 0.0000 0.0000
# 5 0.0000 0.0000 0.0000 0.0000 7.1314 0.0000
# 6 0.0000 0.0000 0.0000 0.0000 0.0000 -3.4241
#
#
#
# Elastic Compliance Matrix: (Units=1/GPa)
#
#
# Indices 1 2 3 4 5 6 
#
# 1 0.056902 -0.027664 0.014545 0.000000 0.000000 0.000000
# 2 -0.027664 0.023364 -0.020507 0.000000 0.000000 0.000000
# 3 0.014545 -0.020507 0.051410 0.000000 0.000000 0.000000
# 4 0.000000 0.000000 0.000000 -0.220557 0.000000 0.000000
# 5 0.000000 0.000000 0.000000 0.000000 0.140224 0.000000
# 6 0.000000 0.000000 0.000000 0.000000 0.000000 -0.292051
#
#
# Mechanical properties :
#
#
# Convention : Reuss Voigt Hill
#
# Bulk Modulus (GPa) = 15.52218 55.37320 35.44769
# Shear Modulus (GPa) = -32.89879 7.61991 -12.63944
#
# Velocity S-wave (km/s) = -4.23121 2.03634 -2.62264
# Velocity P-wave (km/s) = 3.92733 5.97180 3.18108
#
# Compressibility (1/GPa) = 0.06442392
#
# Stress axis : x y z
#
# Youngs Moduli (GPa) = 17.57416 42.79999 19.45149
#
# Poissons Ratio (x) = 1.18401 -0.28292
# Poissons Ratio (y) = 0.48617 0.39889
# Poissons Ratio (z) = -0.25561 0.87770
#
# Static dielectric constant tensor:
#      x y z
#    x 1.656150 0.000000 0.000000 
#    y 0.000000 1.640090 0.000000 
#    z 0.000000 0.000000 1.605700 
# 
# From -- ./inp_files/1957.got.cif
#   From: 2010.05.17/outbox.cif.g08.bks.cpg/sg47_1_cif.got.tgz:1957.got - 2010.06.03 20:15:42.
