data_PCOD9384800
_publ_section_title
;
Structure prediction by ZEFSAII (Michael W. Deem and Ramdas Pophale) SiO2 
 PCOD9384800
Probable space group: P M M M
;
_chemical_formula_sum "Si O2"
_cell_formula_units_Z 56
_cell_length_a 24.209947
_cell_length_b 9.317148
_cell_length_c 14.716224
_cell_angle_alpha 90.000000
_cell_angle_beta 90.000000
_cell_angle_gamma 90.000000
_cell_volume 3319.504201
_symmetry_space_group_name_H-M "P M M M"
_symmetry_group_IT_number 47
_symmetry_cell_setting 'orthorhombic'
loop_
_space_group_symop_operation_xyz
x,y,z
-x,-y,z
x,-y,-z
-x,y,-z
-x,-y,-z
x,y,-z
-x,y,z
x,-y,z
loop_
_atom_site_type_symbol
_atom_site_label
_atom_site_fract_x
_atom_site_fract_y
_atom_site_fract_z
Si Si1 0.230498 0.827168 0.106269
Si Si2 0.936064 0.327797 0.392405
Si Si3 0.433052 0.336102 0.601710
Si Si4 0.934130 0.658322 0.103673
Si Si5 0.434578 0.169783 0.220529
Si Si6 0.130624 0.830624 0.240071
Si Si7 0.655326 0.335558 0.108384
O O1 0.186128 0.787552 0.184291
O O2 0.288156 0.749714 0.127025
O O3 0.236641 0.000000 0.108761
O O4 0.215171 0.791233 0.000000
O O5 0.929248 0.297012 0.500000
O O6 0.932196 0.500000 0.380664
O O7 0.890323 0.250870 0.330255
O O8 0.000000 0.287648 0.367497
O O9 0.413654 0.300497 0.500000
O O10 0.500000 0.336632 0.598856
O O11 0.416146 0.500000 0.623507
O O12 0.417665 0.225453 0.679503
O O13 0.914809 0.500000 0.136858
O O14 0.914999 0.786348 0.166107
O O15 0.000000 0.653843 0.102761
O O16 0.915121 0.675306 0.000000
O O17 0.500000 0.200424 0.208126
O O18 0.396586 0.255484 0.151408
O O19 0.426726 0.000000 0.212024
O O20 0.133014 0.000000 0.257145
O O21 0.658784 0.500000 0.140649
O O22 0.648904 0.337201 0.000000
#
# Coordination Sequence:
#
# PCOD9384800 Si02
#       7
#     8   8   8   8   8   8   8
#     4   9  19  36  54  72  99 133 165 200 248 308
#     4   9  19  36  55  74 100 137 178 216 255 302
#     4   8  14  26  45  69  98 131 164 199 239 281
#     4   9  18  31  45  64  95 134 169 199 235 282
#     4  10  20  32  49  75 105 137 170 204 249 308
#     4  11  21  31  49  77 103 128 161 204 254 301
#     4  10  21  36  54  75  98 128 169 215 258 298
#
# _framework density 16.869987999999999
#
# number of rings (size 3 to 8) (size 9 to 14) (size 15 to 20)
#    0.000    2.571    0.000    3.429    0.000    6.857 
#    0.000    5.714    0.000    0.857    0.000    4.000 
#    0.000    0.000    0.000    0.000    0.000    0.000 
#
# Total GULP energy -311903.149783 kJ/mol
# GULP energy per Si atom -5569.699103 kJ/mol
# Density = 1.683159 g / cm^3
# Si number density = 16.869988 Si / 1000 Ang^3
#
#
#
# Elastic Constant Matrix: (Units=GPa)
#
#
# Indices 1 2 3 4 5 6 
#
# 1 80.7281 53.9665 51.9126 0.0000 0.0000 0.0000
# 2 53.9665 55.9502 43.2935 0.0000 0.0000 0.0000
# 3 51.9126 43.2935 76.5141 0.0000 0.0000 0.0000
# 4 0.0000 0.0000 0.0000 24.8840 0.0000 0.0000
# 5 0.0000 0.0000 0.0000 0.0000 38.7769 0.0000
# 6 0.0000 0.0000 0.0000 0.0000 0.0000 18.8238
#
#
#
# Elastic Compliance Matrix: (Units=1/GPa)
#
#
# Indices 1 2 3 4 5 6 
#
# 1 0.038055 -0.029754 -0.008983 0.000000 0.000000 0.000000
# 2 -0.029754 0.055057 -0.010965 0.000000 0.000000 0.000000
# 3 -0.008983 -0.010965 0.025369 0.000000 0.000000 0.000000
# 4 0.000000 0.000000 0.000000 0.040186 0.000000 0.000000
# 5 0.000000 0.000000 0.000000 0.000000 0.025789 0.000000
# 6 0.000000 0.000000 0.000000 0.000000 0.000000 0.053124
#
#
# Mechanical properties :
#
#
# Convention : Reuss Voigt Hill
#
# Bulk Modulus (GPa) = 52.42474 56.83751 54.63113
# Shear Modulus (GPa) = 14.56264 20.76493 17.66378
#
# Velocity S-wave (km/s) = 2.94126 3.51220 3.23933
# Velocity P-wave (km/s) = 6.53283 7.08604 6.81505
#
# Compressibility (1/GPa) = 0.01907496
#
# Stress axis : x y z
#
# Youngs Moduli (GPa) = 26.27794 18.16285 39.41852
#
# Poissons Ratio (x) = 0.54043 0.35411
# Poissons Ratio (y) = 0.78189 0.43224
# Poissons Ratio (z) = 0.23606 0.19916
#
# Static dielectric constant tensor:
#      x y z
#    x 1.560820 0.000000 0.000000 
#    y 0.000000 1.574610 0.000000 
#    z 0.000000 0.000000 1.584850 
# 
# From -- ./inp_files/11253.got.cif
#   From: 2010.05.17/outbox.cif.g08.bks.cpg/sg47_6_cif.got.tgz:11253.got - 2010.06.03 20:15:42.
