data_PCOD9384785
_publ_section_title
;
Structure prediction by ZEFSAII (Michael W. Deem and Ramdas Pophale) SiO2 
 PCOD9384785
Probable space group: P M M M
;
_chemical_formula_sum "Si O2"
_cell_formula_units_Z 64
_cell_length_a 19.350431
_cell_length_b 20.889387
_cell_length_c 7.522610
_cell_angle_alpha 90.000000
_cell_angle_beta 90.000000
_cell_angle_gamma 90.000000
_cell_volume 3040.779197
_symmetry_space_group_name_H-M "P M M M"
_symmetry_group_IT_number 47
_symmetry_cell_setting 'orthorhombic'
loop_
_space_group_symop_operation_xyz
x,y,z
-x,-y,z
x,-y,-z
-x,y,-z
-x,-y,-z
x,y,-z
-x,y,z
x,-y,z
loop_
_atom_site_type_symbol
_atom_site_label
_atom_site_fract_x
_atom_site_fract_y
_atom_site_fract_z
Si Si1 0.328831 0.694180 0.790174
Si Si2 0.921500 0.808459 0.714272
Si Si3 0.826163 0.686550 0.212041
Si Si4 0.577678 0.191128 0.210874
Si Si5 0.421173 0.572792 0.285435
Si Si6 0.921353 0.572743 0.783019
Si Si7 0.325889 0.072367 0.714158
Si Si8 0.168641 0.927086 0.716911
O O1 0.251306 0.693459 0.715367
O O2 0.377047 0.750360 0.714130
O O3 0.367487 0.626526 0.772131
O O4 0.321612 0.707780 0.000000
O O5 0.924505 0.811885 0.500000
O O6 0.872698 0.748963 0.759414
O O7 0.885033 0.873703 0.777821
O O8 0.000000 0.800643 0.779708
O O9 0.867374 0.624982 0.282078
O O10 0.820041 0.677052 0.000000
O O11 0.500000 0.188331 0.284243
O O12 0.619265 0.125375 0.232766
O O13 0.571401 0.202321 0.000000
O O14 0.421564 0.572515 0.500000
O O15 0.500000 0.587941 0.227198
O O16 0.404915 0.500000 0.227219
O O17 0.905766 0.500000 0.728524
O O18 0.000000 0.588445 0.728950
O O19 0.921017 0.573444 0.000000
O O20 0.324611 0.071068 0.500000
O O21 0.247465 0.088399 0.772408
O O22 0.341977 0.000000 0.775052
O O23 0.168156 0.926673 0.500000
O O24 0.152978 0.000000 0.771608
#
# Coordination Sequence:
#
# PCOD9384785 Si02
#       8
#     8   8   8   8   8   8   8   8
#     4  10  21  35  52  76 103 132 171 217 258 297
#     4  10  20  32  49  75 103 131 166 207 248 293
#     4  10  20  33  51  74  99 130 167 206 250 299
#     4  10  21  35  49  68  98 132 163 200 250 305
#     4   9  19  36  56  78 105 137 172 208 250 305
#     4   8  14  26  45  68  93 122 157 195 233 277
#     4   9  18  33  53  75  97 124 162 206 249 297
#     4   8  15  30  51  73  98 128 161 199 244 291
#
# _framework density 21.047236000000002
#
# number of rings (size 3 to 8) (size 9 to 14) (size 15 to 20)
#    0.000    2.750    0.000    3.000    0.000    4.250 
#    0.000    4.375    0.000    1.500    0.000    2.625 
#    0.000    0.000    0.000    0.000    0.000    0.000 
#
# Total GULP energy -357333.293188 kJ/mol
# GULP energy per Si atom -5583.332706 kJ/mol
# Density = 2.099933 g / cm^3
# Si number density = 21.047236 Si / 1000 Ang^3
#
#
#
# Elastic Constant Matrix: (Units=GPa)
#
#
# Indices 1 2 3 4 5 6 
#
# 1 207.3429 133.8170 2.3119 0.0000 0.0000 0.0000
# 2 133.8170 144.1138 -7.3972 0.0000 0.0000 0.0000
# 3 2.3119 -7.3972 51.5501 0.0000 0.0000 0.0000
# 4 0.0000 0.0000 0.0000 19.0638 0.0000 0.0000
# 5 0.0000 0.0000 0.0000 0.0000 33.5991 0.0000
# 6 0.0000 0.0000 0.0000 0.0000 0.0000 32.1424
#
#
#
# Elastic Compliance Matrix: (Units=1/GPa)
#
#
# Indices 1 2 3 4 5 6 
#
# 1 0.012279 -0.011515 -0.002203 0.000000 0.000000 0.000000
# 2 -0.011515 0.017789 0.003069 0.000000 0.000000 0.000000
# 3 -0.002203 0.003069 0.019938 0.000000 0.000000 0.000000
# 4 0.000000 0.000000 0.000000 0.052456 0.000000 0.000000
# 5 0.000000 0.000000 0.000000 0.000000 0.029763 0.000000
# 6 0.000000 0.000000 0.000000 0.000000 0.000000 0.031112
#
#
# Mechanical properties :
#
#
# Convention : Reuss Voigt Hill
#
# Bulk Modulus (GPa) = 34.83378 73.38557 54.10968
# Shear Modulus (GPa) = 25.74641 35.24606 30.49623
#
# Velocity S-wave (km/s) = 3.50132 4.09665 3.81063
# Velocity P-wave (km/s) = 5.73863 7.57096 6.71756
#
# Compressibility (1/GPa) = 0.02870777
#
# Stress axis : x y z
#
# Youngs Moduli (GPa) = 81.43995 56.21606 50.15602
#
# Poissons Ratio (x) = 0.64731 0.11049
# Poissons Ratio (y) = 0.93776 -0.15393
# Poissons Ratio (z) = 0.17941 -0.17253
#
# Static dielectric constant tensor:
#      x y z
#    x 1.742910 0.000000 0.000000 
#    y 0.000000 1.721760 0.000000 
#    z 0.000000 0.000000 1.777470 
# 
# From -- ./inp_files/9911.got.cif
#   From: 2010.05.17/outbox.cif.g08.bks.cpg/sg47_5_cif.got.tgz:9911.got - 2010.06.03 20:15:42.
