data_PCOD9384524
_publ_section_title
;
Structure prediction by ZEFSAII (Michael W. Deem and Ramdas Pophale) SiO2 
 PCOD9384524
Probable space group: P M M M
;
_chemical_formula_sum "Si O2"
_cell_formula_units_Z 44
_cell_length_a 30.028817
_cell_length_b 7.574684
_cell_length_c 9.408656
_cell_angle_alpha 90.000000
_cell_angle_beta 90.000000
_cell_angle_gamma 90.000000
_cell_volume 2140.081600
_symmetry_space_group_name_H-M "P M M M"
_symmetry_group_IT_number 47
_symmetry_cell_setting 'orthorhombic'
loop_
_space_group_symop_operation_xyz
x,y,z
-x,-y,z
x,-y,-z
-x,y,-z
-x,-y,-z
x,y,-z
-x,y,z
x,-y,z
loop_
_atom_site_type_symbol
_atom_site_label
_atom_site_fract_x
_atom_site_fract_y
_atom_site_fract_z
Si Si1 0.000000 0.209664 0.838002
Si Si2 0.354939 0.783835 0.334480
Si Si3 0.903046 0.289967 0.162201
Si Si4 0.819220 0.288030 0.339294
Si Si5 0.269189 0.212246 0.838875
Si Si6 0.452142 0.788114 0.328973
O O1 0.952441 0.262094 0.774957
O O2 0.000000 0.000000 0.845949
O O3 0.000000 0.284176 0.000000
O O4 0.349546 0.732499 0.500000
O O5 0.313434 0.723111 0.241392
O O6 0.403701 0.724048 0.280109
O O7 0.355432 0.000000 0.333157
O O8 0.896842 0.500000 0.151476
O O9 0.862764 0.219304 0.256730
O O10 0.902076 0.218252 0.000000
O O11 0.815835 0.219561 0.500000
O O12 0.823696 0.500000 0.347962
O O13 0.774838 0.252101 0.250500
O O14 0.272921 0.000000 0.845457
O O15 0.265698 0.279121 0.000000
O O16 0.451794 0.762148 0.500000
O O17 0.500000 0.718842 0.275580
O O18 0.452679 0.000000 0.306016
#
# Coordination Sequence:
#
# PCOD9384524 Si02
#       6
#     4   8   8   8   8   8
#     4   9  17  29  48  75 102 126 156 193 226 261
#     4   8  13  22  37  57  83 116 152 190 232 276
#     4   9  17  31  51  72  95 125 158 190 228 274
#     4  10  21  36  53  73  96 123 158 200 243 284
#     4  10  20  32  47  68  94 125 159 194 235 285
#     4   7   9  14  27  49  76 107 145 186 225 267
#
# _framework density 20.559961000000001
#
# number of rings (size 3 to 8) (size 9 to 14) (size 15 to 20)
#    0.000    3.182    0.000    3.000    0.000    4.000 
#    0.000    2.273    0.000    3.273    0.000    3.818 
#    0.000    0.727    0.000    8.364    0.000    9.636 
#
# Total GULP energy -245211.294047 kJ/mol
# GULP energy per Si atom -5572.983956 kJ/mol
# Density = 2.051317 g / cm^3
# Si number density = 20.559961 Si / 1000 Ang^3
#
#
#
# Elastic Constant Matrix: (Units=GPa)
#
#
# Indices 1 2 3 4 5 6 
#
# 1 261.1185 1.2416 107.0114 0.0000 0.0000 0.0000
# 2 1.2416 45.4131 5.8974 0.0000 0.0000 0.0000
# 3 107.0114 5.8974 109.9539 0.0000 0.0000 0.0000
# 4 0.0000 0.0000 0.0000 6.3663 0.0000 0.0000
# 5 0.0000 0.0000 0.0000 0.0000 31.6136 0.0000
# 6 0.0000 0.0000 0.0000 0.0000 0.0000 22.6891
#
#
#
# Elastic Compliance Matrix: (Units=1/GPa)
#
#
# Indices 1 2 3 4 5 6 
#
# 1 0.006389 0.000637 -0.006252 0.000000 0.000000 0.000000
# 2 0.000637 0.022238 -0.001813 0.000000 0.000000 0.000000
# 3 -0.006252 -0.001813 0.015277 0.000000 0.000000 0.000000
# 4 0.000000 0.000000 0.000000 0.157076 0.000000 0.000000
# 5 0.000000 0.000000 0.000000 0.000000 0.031632 0.000000
# 6 0.000000 0.000000 0.000000 0.000000 0.000000 0.044074
#
#
# Mechanical properties :
#
#
# Convention : Reuss Voigt Hill
#
# Bulk Modulus (GPa) = 34.42560 71.64291 53.03425
# Shear Modulus (GPa) = 16.59892 32.28948 24.44420
#
# Velocity S-wave (km/s) = 2.84446 3.96726 3.45182
# Velocity P-wave (km/s) = 5.25055 7.47710 6.46047
#
# Compressibility (1/GPa) = 0.02904815
#
# Stress axis : x y z
#
# Youngs Moduli (GPa) = 156.52230 44.96792 65.45916
#
# Poissons Ratio (x) = -0.02865 0.40925
# Poissons Ratio (y) = -0.09974 0.11867
# Poissons Ratio (z) = 0.97859 0.08152
#
# Static dielectric constant tensor:
#      x y z
#    x 1.759540 0.000000 0.000000 
#    y 0.000000 1.795500 0.000000 
#    z 0.000000 0.000000 1.720320 
# 
# From -- ./inp_files/13553.got.cif
#   From: 2010.05.17/outbox.cif.g08.bks.cpg/sg47_7_cif.got.tgz:13553.got - 2010.06.03 20:15:42.
