data_PCOD9384786
_publ_section_title
;
Structure prediction by ZEFSAII (Michael W. Deem and Ramdas Pophale) SiO2 
 PCOD9384786
Probable space group: P M M M
;
_chemical_formula_sum "Si O2"
_cell_formula_units_Z 64
_cell_length_a 9.594146
_cell_length_b 42.257542
_cell_length_c 7.525260
_cell_angle_alpha 90.000000
_cell_angle_beta 90.000000
_cell_angle_gamma 90.000000
_cell_volume 3050.928743
_symmetry_space_group_name_H-M "P M M M"
_symmetry_group_IT_number 47
_symmetry_cell_setting 'orthorhombic'
loop_
_space_group_symop_operation_xyz
x,y,z
-x,-y,z
x,-y,-z
-x,y,-z
-x,-y,-z
x,y,-z
-x,y,z
x,-y,z
loop_
_atom_site_type_symbol
_atom_site_label
_atom_site_fract_x
_atom_site_fract_y
_atom_site_fract_z
Si Si1 0.160113 0.535808 0.716796
Si Si2 0.657880 0.094466 0.213405
Si Si3 0.839887 0.964192 0.783204
Si Si4 0.157741 0.156049 0.713146
Si Si5 0.157741 0.343951 0.213146
Si Si6 0.341189 0.785852 0.712991
Si Si7 0.342120 0.594466 0.713405
Si Si8 0.341189 0.714148 0.212991
O O1 0.161565 0.536034 0.500000
O O2 0.196243 0.500000 0.771812
O O3 0.263945 0.562981 0.779466
O O4 0.000000 0.542347 0.769979
O O5 0.500000 0.097721 0.281045
O O6 0.736055 0.062981 0.279466
O O7 0.750816 0.125084 0.251372
O O8 0.650078 0.091662 0.000000
O O9 0.000000 0.957653 0.730021
O O10 0.803757 0.000000 0.728188
O O11 0.838436 0.963966 0.000000
O O12 0.148657 0.159204 0.500000
O O13 0.238734 0.187051 0.781466
O O14 0.000000 0.153143 0.781910
O O15 0.249184 0.374916 0.248629
O O16 0.238734 0.312949 0.281465
O O17 0.000000 0.346857 0.281909
O O18 0.148658 0.340796 0.000000
O O19 0.347817 0.789233 0.500000
O O20 0.500000 0.789525 0.781372
O O21 0.295024 0.750000 0.750000
O O22 0.349922 0.591662 0.500000
O O23 0.500000 0.597721 0.781046
O O24 0.500000 0.710475 0.281371
O O25 0.347817 0.710768 0.000000
#
# Coordination Sequence:
#
# PCOD9384786 Si02
#       8
#     8   8   8   8   8   8   8   8
#     4   8  14  26  45  69  98 131 164 200 245 294
#     4  10  20  32  49  75 103 131 166 207 249 294
#     4   8  14  26  45  69  98 131 164 200 245 294
#     4  10  21  36  53  73  99 133 170 205 245 294
#     4  10  21  36  53  73  99 133 170 205 245 294
#     4   9  18  33  52  73  98 128 161 198 241 290
#     4  10  20  32  49  75 103 131 166 207 249 294
#     4   9  18  33  52  73  98 128 161 198 241 290
#
# _framework density 20.977217
#
# number of rings (size 3 to 8) (size 9 to 14) (size 15 to 20)
#    0.000    2.750    0.000    2.250    0.000    5.000 
#    0.000    5.000    0.000    0.750    0.000    5.250 
#    0.000    0.000    0.000    0.000    0.000    0.000 
#
# Total GULP energy -357344.201562 kJ/mol
# GULP energy per Si atom -5583.503149 kJ/mol
# Density = 2.092947 g / cm^3
# Si number density = 20.977217 Si / 1000 Ang^3
#
#
#
# Elastic Constant Matrix: (Units=GPa)
#
#
# Indices 1 2 3 4 5 6 
#
# 1 198.4869 160.2259 6.7969 0.0000 0.0000 0.0000
# 2 160.2259 211.0387 -0.2622 0.0000 0.0000 0.0000
# 3 6.7969 -0.2622 54.3045 0.0000 0.0000 0.0000
# 4 0.0000 0.0000 0.0000 10.0284 0.0000 0.0000
# 5 0.0000 0.0000 0.0000 0.0000 11.2434 0.0000
# 6 0.0000 0.0000 0.0000 0.0000 0.0000 42.5161
#
#
#
# Elastic Compliance Matrix: (Units=1/GPa)
#
#
# Indices 1 2 3 4 5 6 
#
# 1 0.013169 -0.010000 -0.001697 0.000000 0.000000 0.000000
# 2 -0.010000 0.012332 0.001311 0.000000 0.000000 0.000000
# 3 -0.001697 0.001311 0.018633 0.000000 0.000000 0.000000
# 4 0.000000 0.000000 0.000000 0.099717 0.000000 0.000000
# 5 0.000000 0.000000 0.000000 0.000000 0.088941 0.000000
# 6 0.000000 0.000000 0.000000 0.000000 0.000000 0.023521
#
#
# Mechanical properties :
#
#
# Convention : Reuss Voigt Hill
#
# Bulk Modulus (GPa) = 42.80161 88.59459 65.69810
# Shear Modulus (GPa) = 17.55176 32.56220 25.05698
#
# Velocity S-wave (km/s) = 2.89572 3.94415 3.45988
# Velocity P-wave (km/s) = 5.62392 7.94149 6.88098
#
# Compressibility (1/GPa) = 0.02336361
#
# Stress axis : x y z
#
# Youngs Moduli (GPa) = 75.93810 81.08728 53.66717
#
# Poissons Ratio (x) = 0.81088 0.09105
# Poissons Ratio (y) = 0.75939 -0.07037
# Poissons Ratio (z) = 0.12883 -0.10632
#
# Static dielectric constant tensor:
#      x y z
#    x 1.747190 0.000000 0.000000 
#    y 0.000000 1.712680 0.000000 
#    z 0.000000 0.000000 1.859440 
# 
# From -- ./inp_files/15724.got.cif
#   From: 2010.05.17/outbox.cif.g08.bks.cpg/sg47_8_cif.got.tgz:15724.got - 2010.06.03 20:15:42.
