data_PCOD9384527
_publ_section_title
;
Structure prediction by ZEFSAII (Michael W. Deem and Ramdas Pophale) SiO2 
 PCOD9384527
Probable space group: P M M M
;
_chemical_formula_sum "Si O2"
_cell_formula_units_Z 48
_cell_length_a 19.889851
_cell_length_b 7.539990
_cell_length_c 15.208571
_cell_angle_alpha 90.000000
_cell_angle_beta 90.000000
_cell_angle_gamma 90.000000
_cell_volume 2280.818407
_symmetry_space_group_name_H-M "P M M M"
_symmetry_group_IT_number 47
_symmetry_cell_setting 'orthorhombic'
loop_
_space_group_symop_operation_xyz
x,y,z
-x,-y,z
x,-y,-z
-x,y,-z
-x,-y,-z
x,y,-z
-x,y,z
x,-y,z
loop_
_atom_site_type_symbol
_atom_site_label
_atom_site_fract_x
_atom_site_fract_y
_atom_site_fract_z
Si Si1 0.076224 0.211806 0.598541
Si Si2 0.428258 0.785379 0.348492
Si Si3 0.425788 0.707081 0.142353
Si Si4 0.284382 0.214987 0.595154
Si Si5 0.724300 0.716558 0.099409
Si Si6 0.185477 0.696473 0.255643
O O1 0.097315 0.276614 0.500000
O O2 0.124445 0.242320 0.681874
O O3 0.000000 0.276827 0.613915
O O4 0.073645 0.000000 0.591203
O O5 0.500000 0.727739 0.385371
O O6 0.423881 0.721205 0.248128
O O7 0.362033 0.733279 0.399383
O O8 0.427977 0.000000 0.346035
O O9 0.500000 0.780907 0.115584
O O10 0.426671 0.500000 0.116343
O O11 0.353235 0.780086 0.112398
O O12 0.256421 0.261922 0.500000
O O13 0.246156 0.301839 0.674742
O O14 0.278768 0.000000 0.604369
O O15 0.721165 0.500000 0.109688
O O16 0.778849 0.783793 0.170545
O O17 0.744699 0.756422 0.000000
O O18 0.166037 0.500000 0.226927
#
# Coordination Sequence:
#
# PCOD9384527 Si02
#       6
#     8   8   8   8   8   8
#     4   9  19  37  60  84 110 140 169 196 235 291
#     4   9  17  29  45  64  89 124 166 212 257 299
#     4   9  16  28  48  70  92 123 167 218 268 311
#     4  10  20  32  47  68  96 133 172 207 249 304
#     4   9  18  32  49  72 102 134 171 215 261 307
#     4  11  21  33  52  78 106 135 166 206 253 296
#
# _framework density 21.045076999999999
#
# number of rings (size 3 to 8) (size 9 to 14) (size 15 to 20)
#    0.000    2.500    1.667    1.500    0.000    3.667 
#    0.000    4.167    0.000    5.000    0.000    9.333 
#    0.000    0.000    0.000    0.000    0.000    0.000 
#
# Total GULP energy -267448.983666 kJ/mol
# GULP energy per Si atom -5571.853826 kJ/mol
# Density = 2.099718 g / cm^3
# Si number density = 21.045077 Si / 1000 Ang^3
#
#
#
# Elastic Constant Matrix: (Units=GPa)
#
#
# Indices 1 2 3 4 5 6 
#
# 1 153.9459 11.7789 77.1395 0.0000 0.0000 0.0000
# 2 11.7789 46.1266 3.0526 0.0000 0.0000 0.0000
# 3 77.1395 3.0526 139.5561 0.0000 0.0000 0.0000
# 4 0.0000 0.0000 0.0000 6.6771 0.0000 0.0000
# 5 0.0000 0.0000 0.0000 0.0000 39.3393 0.0000
# 6 0.0000 0.0000 0.0000 0.0000 0.0000 14.9473
#
#
#
# Elastic Compliance Matrix: (Units=1/GPa)
#
#
# Indices 1 2 3 4 5 6 
#
# 1 0.009166 -0.002008 -0.005023 0.000000 0.000000 0.000000
# 2 -0.002008 0.022151 0.000626 0.000000 0.000000 0.000000
# 3 -0.005023 0.000626 0.009928 0.000000 0.000000 0.000000
# 4 0.000000 0.000000 0.000000 0.149766 0.000000 0.000000
# 5 0.000000 0.000000 0.000000 0.000000 0.025420 0.000000
# 6 0.000000 0.000000 0.000000 0.000000 0.000000 0.066902
#
#
# Mechanical properties :
#
#
# Convention : Reuss Voigt Hill
#
# Bulk Modulus (GPa) = 35.16861 58.17452 46.67157
# Shear Modulus (GPa) = 16.36011 28.70326 22.53168
#
# Velocity S-wave (km/s) = 2.79119 3.69710 3.27561
# Velocity P-wave (km/s) = 5.20913 6.77699 6.04411
#
# Compressibility (1/GPa) = 0.02843445
#
# Stress axis : x y z
#
# Youngs Moduli (GPa) = 109.09611 45.14489 100.72338
#
# Poissons Ratio (x) = 0.09066 0.50590
# Poissons Ratio (y) = 0.21910 -0.06301
# Poissons Ratio (z) = 0.54796 -0.02824
#
# Static dielectric constant tensor:
#      x y z
#    x 1.790770 0.000000 0.000000 
#    y 0.000000 1.838870 0.000000 
#    z 0.000000 0.000000 1.733930 
# 
# From -- ./inp_files/21297.got.cif
#   From: 2010.05.17/outbox.cif.g08.bks.cpg/sg47_11_cif.got.tgz:21297.got - 2010.06.03 20:15:42.
