data_PCOD9384169
_publ_section_title
;
Structure prediction by ZEFSAII (Michael W. Deem and Ramdas Pophale) SiO2 
 PCOD9384169
Probable space group: P M M M
;
_chemical_formula_sum "Si O2"
_cell_formula_units_Z 60
_cell_length_a 8.976840
_cell_length_b 15.744280
_cell_length_c 23.774340
_cell_angle_alpha 90.000000
_cell_angle_beta 90.000000
_cell_angle_gamma 90.000000
_cell_volume 3360.119775
_symmetry_space_group_name_H-M "P M M M"
_symmetry_group_IT_number 47
_symmetry_cell_setting 'orthorhombic'
loop_
_space_group_symop_operation_xyz
x,y,z
-x,-y,z
x,-y,-z
-x,y,-z
-x,-y,-z
x,y,-z
-x,y,z
x,-y,z
loop_
_atom_site_type_symbol
_atom_site_label
_atom_site_fract_x
_atom_site_fract_y
_atom_site_fract_z
Si Si1 0.180603 0.213822 0.722361
Si Si2 0.178904 0.901473 0.615922
Si Si3 0.828165 0.119719 0.937273
Si Si4 0.321817 0.904117 0.817015
Si Si5 0.823492 0.594758 0.274626
Si Si6 0.664200 0.596856 0.840291
Si Si7 0.327743 0.103151 0.500000
Si Si8 0.832985 0.322778 0.062842
O O1 0.220164 0.153991 0.669799
O O2 0.248816 0.169597 0.778290
O O3 0.228922 0.310780 0.707190
O O4 0.000000 0.214785 0.729274
O O5 0.249188 0.869481 0.557632
O O6 0.000000 0.899363 0.610412
O O7 0.223510 0.000000 0.624308
O O8 0.735988 0.097873 0.881537
O O9 0.834161 0.221514 0.939156
O O10 0.000000 0.091580 0.930776
O O11 0.774786 0.093103 0.000000
O O12 0.500000 0.893884 0.816265
O O13 0.285500 0.000000 0.795131
O O14 0.764585 0.500000 0.293013
O O15 0.784750 0.600372 0.208738
O O16 0.000000 0.592442 0.284626
O O17 0.500000 0.619544 0.817913
O O18 0.659473 0.500000 0.859863
O O19 0.711899 0.651943 0.892338
O O20 0.500000 0.127569 0.500000
O O21 0.318532 0.000000 0.500000
O O22 0.000000 0.351631 0.079500
O O23 0.802972 0.355170 0.000000
#
# Coordination Sequence:
#
# PCOD9384169 Si02
#       8
#     8   8   8   8   8   8   4   8
#     4  10  20  34  54  78 103 135 173 210 250 299
#     4   9  17  30  49  74 105 140 176 211 245 284
#     4   9  19  36  55  71  87 114 157 205 248 294
#     4  11  24  37  49  71 103 134 163 202 254 306
#     4   9  18  33  52  73  97 125 159 201 248 295
#     4  10  20  31  43  62  88 116 147 186 234 291
#     4   9  17  29  47  73 106 143 178 210 245 287
#     4   9  18  32  48  65  84 107 140 184 234 289
#
# _framework density 17.856506
#
# number of rings (size 3 to 8) (size 9 to 14) (size 15 to 20)
#    0.000    2.467    0.000    3.000    0.000    9.067 
#    0.000    5.333    0.000    0.000    0.000    0.467 
#    0.000    3.733    0.000    0.000    0.000    0.000 
#
# Total GULP energy -334102.523147 kJ/mol
# GULP energy per Si atom -5568.375386 kJ/mol
# Density = 1.781586 g / cm^3
# Si number density = 17.856506 Si / 1000 Ang^3
#
#
#
# Elastic Constant Matrix: (Units=GPa)
#
#
# Indices 1 2 3 4 5 6 
#
# 1 13.7145 19.3288 21.2608 0.0000 0.0000 0.0000
# 2 19.3288 90.2147 47.7584 0.0000 0.0000 0.0000
# 3 21.2608 47.7584 90.2378 0.0000 0.0000 0.0000
# 4 0.0000 0.0000 0.0000 7.7086 0.0000 0.0000
# 5 0.0000 0.0000 0.0000 0.0000 -7.9621 0.0000
# 6 0.0000 0.0000 0.0000 0.0000 0.0000 16.6661
#
#
#
# Elastic Compliance Matrix: (Units=1/GPa)
#
#
# Indices 1 2 3 4 5 6 
#
# 1 0.129858 -0.016151 -0.022048 0.000000 0.000000 0.000000
# 2 -0.016151 0.017408 -0.005408 0.000000 0.000000 0.000000
# 3 -0.022048 -0.005408 0.019139 0.000000 0.000000 0.000000
# 4 0.000000 0.000000 0.000000 0.129725 0.000000 0.000000
# 5 0.000000 0.000000 0.000000 0.000000 -0.125594 0.000000
# 6 0.000000 0.000000 0.000000 0.000000 0.000000 0.060002
#
#
# Mechanical properties :
#
#
# Convention : Reuss Voigt Hill
#
# Bulk Modulus (GPa) = 12.62763 41.20702 26.91732
# Shear Modulus (GPa) = 14.52869 10.33711 12.43290
#
# Velocity S-wave (km/s) = 2.85552 2.40864 2.64155
# Velocity P-wave (km/s) = 4.23782 5.55538 4.94072
#
# Compressibility (1/GPa) = 0.07919143
#
# Stress axis : x y z
#
# Youngs Moduli (GPa) = 7.70073 57.44532 52.25027
#
# Poissons Ratio (x) = 0.92778 1.15201
# Poissons Ratio (y) = 0.12437 0.28256
# Poissons Ratio (z) = 0.16979 0.31066
#
# Static dielectric constant tensor:
#      x y z
#    x 1.618520 0.000000 0.000000 
#    y 0.000000 1.671610 0.000000 
#    z 0.000000 0.000000 1.583020 
# 
# From -- ./inp_files/30001.got.cif
#   From: 2010.05.17/outbox.cif.g08.bks.cpg/sg47_16_cif.got.tgz:30001.got - 2010.06.03 20:15:42.
