data_PCOD9384534
_publ_section_title
;
Structure prediction by ZEFSAII (Michael W. Deem and Ramdas Pophale) SiO2 
 PCOD9384534
Probable space group: P M M M
;
_chemical_formula_sum "Si O2"
_cell_formula_units_Z 36
_cell_length_a 7.413086
_cell_length_b 9.588849
_cell_length_c 24.035875
_cell_angle_alpha 90.000000
_cell_angle_beta 90.000000
_cell_angle_gamma 90.000000
_cell_volume 1708.541196
_symmetry_space_group_name_H-M "P M M M"
_symmetry_group_IT_number 47
_symmetry_cell_setting 'orthorhombic'
loop_
_space_group_symop_operation_xyz
x,y,z
-x,-y,z
x,-y,-z
-x,y,-z
-x,-y,-z
x,y,-z
-x,y,z
x,-y,z
loop_
_atom_site_type_symbol
_atom_site_label
_atom_site_fract_x
_atom_site_fract_y
_atom_site_fract_z
Si Si1 0.786922 0.156797 0.831254
Si Si2 0.220713 0.339841 0.272103
Si Si3 0.282917 0.657938 0.937212
Si Si4 0.791011 0.169597 0.500000
Si Si5 0.779348 0.838504 0.378448
O O1 0.715968 0.254446 0.781863
O O2 0.767644 0.232903 0.890221
O O3 0.000000 0.144970 0.820524
O O4 0.712203 0.000000 0.831416
O O5 0.279148 0.500000 0.270724
O O6 0.276224 0.259451 0.327984
O O7 0.000000 0.340928 0.271726
O O8 0.500000 0.654309 0.938603
O O9 0.221154 0.500000 0.923592
O O10 0.221370 0.691940 0.000000
O O11 0.715423 0.209212 0.560269
O O12 0.000000 0.215039 0.500000
O O13 0.789672 0.000000 0.500000
O O14 0.000000 0.838483 0.380100
O O15 0.726265 0.000000 0.369267
#
# Coordination Sequence:
#
# PCOD9384534 Si02
#       5
#     8   8   8   4   8
#     4  10  20  32  47  69  95 122 154 191 228 267
#     4   9  16  25  37  54  78 109 144 182 225 269
#     4   9  19  36  55  73  94 121 151 182 221 271
#     4   7  10  16  27  43  63  93 134 175 214 259
#     4   8  12  19  31  46  67  98 137 178 218 262
#
# _framework density 21.070608
#
# number of rings (size 3 to 8) (size 9 to 14) (size 15 to 20)
#    0.000    3.222    0.000    3.333    0.000    5.333 
#    0.000    3.889    0.000    3.333    0.000    0.000 
#    0.000    0.000    0.000    1.000    0.000   20.444 
#
# Total GULP energy -200839.340307 kJ/mol
# GULP energy per Si atom -5578.870564 kJ/mol
# Density = 2.102265 g / cm^3
# Si number density = 21.070608 Si / 1000 Ang^3
#
#
#
# Elastic Constant Matrix: (Units=GPa)
#
#
# Indices 1 2 3 4 5 6 
#
# 1 67.0963 6.5806 1.3484 0.0000 0.0000 0.0000
# 2 6.5806 181.6651 144.1261 0.0000 0.0000 0.0000
# 3 1.3484 144.1261 204.5045 0.0000 0.0000 0.0000
# 4 0.0000 0.0000 0.0000 40.4339 0.0000 0.0000
# 5 0.0000 0.0000 0.0000 0.0000 104.4628 0.0000
# 6 0.0000 0.0000 0.0000 0.0000 0.0000 -13.6572
#
#
#
# Elastic Compliance Matrix: (Units=1/GPa)
#
#
# Indices 1 2 3 4 5 6 
#
# 1 0.014994 -0.001054 0.000644 0.000000 0.000000 0.000000
# 2 -0.001054 0.012560 -0.008845 0.000000 0.000000 0.000000
# 3 0.000644 -0.008845 0.011119 0.000000 0.000000 0.000000
# 4 0.000000 0.000000 0.000000 0.024732 0.000000 0.000000
# 5 0.000000 0.000000 0.000000 0.000000 0.009573 0.000000
# 6 0.000000 0.000000 0.000000 0.000000 0.000000 -0.073221
#
#
# Mechanical properties :
#
#
# Convention : Reuss Voigt Hill
#
# Bulk Modulus (GPa) = 49.59411 84.15290 66.87350
# Shear Modulus (GPa) = 200.10240 46.32862 123.21551
#
# Velocity S-wave (km/s) = 9.75570 4.69415 7.65535
# Velocity P-wave (km/s) = 12.26729 8.33098 10.48551
#
# Compressibility (1/GPa) = 0.02016369
#
# Stress axis : x y z
#
# Youngs Moduli (GPa) = 66.69158 79.61870 89.93621
#
# Poissons Ratio (x) = 0.08393 -0.05792
# Poissons Ratio (y) = 0.07030 0.79546
# Poissons Ratio (z) = -0.04295 0.70420
#
# Static dielectric constant tensor:
#      x y z
#    x 1.830520 0.000000 0.000000 
#    y 0.000000 1.714260 0.000000 
#    z 0.000000 0.000000 1.747290 
# 
# From -- ./inp_files/3929.got.cif
#   From: 2010.05.17/outbox.cif.g08.bks.cpg/sg47_2_cif.got.tgz:3929.got - 2010.06.03 20:15:42.
