data_PCOD9384789
_publ_section_title
;
Structure prediction by ZEFSAII (Michael W. Deem and Ramdas Pophale) SiO2 
 PCOD9384789
Probable space group: P M M M
;
_chemical_formula_sum "Si O2"
_cell_formula_units_Z 64
_cell_length_a 7.697610
_cell_length_b 19.212713
_cell_length_c 20.839347
_cell_angle_alpha 90.000000
_cell_angle_beta 90.000000
_cell_angle_gamma 90.000000
_cell_volume 3081.972117
_symmetry_space_group_name_H-M "P M M M"
_symmetry_group_IT_number 47
_symmetry_cell_setting 'orthorhombic'
loop_
_space_group_symop_operation_xyz
x,y,z
-x,-y,z
x,-y,-z
-x,y,-z
-x,-y,-z
x,y,-z
-x,y,z
x,-y,z
loop_
_atom_site_type_symbol
_atom_site_label
_atom_site_fract_x
_atom_site_fract_y
_atom_site_fract_z
Si Si1 0.787620 0.579686 0.926650
Si Si2 0.211824 0.079994 0.071942
Si Si3 0.794417 0.655103 0.427215
Si Si4 0.297326 0.578068 0.699706
Si Si5 0.289771 0.185610 0.426914
Si Si6 0.202974 0.677557 0.186747
Si Si7 0.707468 0.921145 0.320245
Si Si8 0.789480 0.833937 0.805970
O O1 0.734222 0.500000 0.912316
O O2 0.723747 0.633418 0.873028
O O3 0.000000 0.579762 0.925298
O O4 0.736688 0.596364 0.000000
O O5 0.270490 0.130512 0.128056
O O6 0.000000 0.080731 0.072046
O O7 0.264124 0.000000 0.084207
O O8 0.267499 0.099452 0.000000
O O9 0.726088 0.645089 0.500000
O O10 0.718926 0.605986 0.372632
O O11 0.763675 0.735890 0.409369
O O12 0.000000 0.642990 0.428618
O O13 0.500000 0.576010 0.716322
O O14 0.225089 0.500000 0.705378
O O15 0.213977 0.631492 0.749382
O O16 0.231593 0.172685 0.500000
O O17 0.500000 0.184465 0.426457
O O18 0.224456 0.127982 0.377373
O O19 0.275833 0.754643 0.198153
O O20 0.000000 0.687877 0.171344
O O21 0.500000 0.925991 0.329502
O O22 0.737235 0.881315 0.253814
O O23 0.776960 0.000000 0.319630
O O24 0.000000 0.833292 0.805889
#
# Coordination Sequence:
#
# PCOD9384789 Si02
#       8
#     8   8   8   8   8   8   8   8
#     4   8  14  26  46  73 104 136 169 207 254 307
#     4   8  14  26  45  69  98 132 168 206 249 297
#     4  10  21  37  58  83 109 136 167 206 253 306
#     4  11  24  39  55  76 103 137 176 216 257 303
#     4   9  18  34  56  79 104 136 171 207 249 298
#     4  10  20  33  52  78 106 137 173 214 260 309
#     4  10  21  35  51  73 101 134 172 213 256 300
#     4  10  20  32  49  75 103 132 168 209 254 304
#
# _framework density 20.765923999999998
#
# number of rings (size 3 to 8) (size 9 to 14) (size 15 to 20)
#    0.000    2.500    0.000    3.000    0.000    7.000 
#    0.000    5.000    0.000    0.750    0.000    7.875 
#    0.000    0.000    0.000    0.000    0.000    0.000 
#
# Total GULP energy -357328.729169 kJ/mol
# GULP energy per Si atom -5583.261393 kJ/mol
# Density = 2.071866 g / cm^3
# Si number density = 20.765924 Si / 1000 Ang^3
#
#
#
# Elastic Constant Matrix: (Units=GPa)
#
#
# Indices 1 2 3 4 5 6 
#
# 1 33.5449 -10.2077 -12.6650 0.0000 0.0000 0.0000
# 2 -10.2077 106.3810 56.0924 0.0000 0.0000 0.0000
# 3 -12.6650 56.0924 82.6960 0.0000 0.0000 0.0000
# 4 0.0000 0.0000 0.0000 43.4816 0.0000 0.0000
# 5 0.0000 0.0000 0.0000 0.0000 36.5675 0.0000
# 6 0.0000 0.0000 0.0000 0.0000 0.0000 13.6606
#
#
#
# Elastic Compliance Matrix: (Units=1/GPa)
#
#
# Indices 1 2 3 4 5 6 
#
# 1 0.031679 0.000750 0.004343 0.000000 0.000000 0.000000
# 2 0.000750 0.014652 -0.009823 0.000000 0.000000 0.000000
# 3 0.004343 -0.009823 0.019421 0.000000 0.000000 0.000000
# 4 0.000000 0.000000 0.000000 0.022998 0.000000 0.000000
# 5 0.000000 0.000000 0.000000 0.000000 0.027347 0.000000
# 6 0.000000 0.000000 0.000000 0.000000 0.000000 0.073203
#
#
# Mechanical properties :
#
#
# Convention : Reuss Voigt Hill
#
# Bulk Modulus (GPa) = 17.76512 32.11792 24.94152
# Shear Modulus (GPa) = 22.98592 31.36874 27.17733
#
# Velocity S-wave (km/s) = 3.33063 3.89084 3.62159
# Velocity P-wave (km/s) = 4.83366 5.97370 5.43366
#
# Compressibility (1/GPa) = 0.05629008
#
# Stress axis : x y z
#
# Youngs Moduli (GPa) = 31.56694 68.25090 51.49100
#
# Poissons Ratio (x) = -0.05117 -0.22363
# Poissons Ratio (y) = -0.02366 0.50582
# Poissons Ratio (z) = -0.13710 0.67046
#
# Static dielectric constant tensor:
#      x y z
#    x 1.849750 0.000000 0.000000 
#    y 0.000000 1.727730 0.000000 
#    z 0.000000 0.000000 1.721660 
# 
# From -- ./inp_files/29956.got.cif
#   From: 2010.05.17/outbox.cif.g08.bks.cpg/sg47_15_cif.got.tgz:29956.got - 2010.06.03 20:15:42.
