data_PCOD9384394
_publ_section_title
;
Structure prediction by ZEFSAII (Michael W. Deem and Ramdas Pophale) SiO2 
 PCOD9384394
Probable space group: P M M M
;
_chemical_formula_sum "Si O2"
_cell_formula_units_Z 44
_cell_length_a 9.314841
_cell_length_b 30.263199
_cell_length_c 7.369650
_cell_angle_alpha 90.000000
_cell_angle_beta 90.000000
_cell_angle_gamma 90.000000
_cell_volume 2077.481392
_symmetry_space_group_name_H-M "P M M M"
_symmetry_group_IT_number 47
_symmetry_cell_setting 'orthorhombic'
loop_
_space_group_symop_operation_xyz
x,y,z
-x,-y,z
x,-y,-z
-x,y,-z
-x,-y,-z
x,y,-z
-x,y,z
x,-y,z
loop_
_atom_site_type_symbol
_atom_site_label
_atom_site_fract_x
_atom_site_fract_y
_atom_site_fract_z
Si Si1 0.165131 0.000000 0.778697
Si Si2 0.664306 0.738610 0.718157
Si Si3 0.329312 0.547601 0.720418
Si Si4 0.673940 0.357284 0.715640
Si Si5 0.838411 0.827202 0.784547
Si Si6 0.664962 0.912449 0.221830
O O1 0.247849 0.955837 0.721808
O O2 0.000000 0.000000 0.720266
O O3 0.164763 0.000000 0.000000
O O4 0.657248 0.735181 0.500000
O O5 0.500000 0.745525 0.782344
O O6 0.720182 0.690772 0.785643
O O7 0.761774 0.780326 0.759646
O O8 0.319089 0.547978 0.500000
O O9 0.500000 0.547236 0.762000
O O10 0.269843 0.500000 0.781889
O O11 0.272840 0.595176 0.786391
O O12 0.703799 0.357803 0.500000
O O13 0.500000 0.357147 0.735575
O O14 0.742708 0.867757 0.715434
O O15 0.000000 0.827290 0.711019
O O16 0.848797 0.834260 0.000000
O O17 0.500000 0.914063 0.279893
O O18 0.664121 0.912312 0.000000
#
# Coordination Sequence:
#
# PCOD9384394 Si02
#       6
#     4   8   8   8   8   8
#     4   9  15  23  37  59  88 117 142 171 210 255
#     4   9  17  29  45  64  86 114 147 180 215 258
#     4   7   8  10  19  38  66  99 129 155 190 240
#     4   7  10  17  29  47  73 103 133 165 201 244
#     4  10  20  32  45  63  88 116 146 182 223 261
#     4   9  16  26  41  61  85 113 144 177 214 256
#
# _framework density 21.179490000000001
#
# number of rings (size 3 to 8) (size 9 to 14) (size 15 to 20)
#    0.000    3.545    0.000    4.091    0.000    4.727 
#    0.000    0.000    0.000    0.000    0.000    0.636 
#    0.000    6.545    0.000   16.182    0.000   14.545 
#
# Total GULP energy -245170.138781 kJ/mol
# GULP energy per Si atom -5572.048609 kJ/mol
# Density = 2.113128 g / cm^3
# Si number density = 21.179490 Si / 1000 Ang^3
#
#
#
# Elastic Constant Matrix: (Units=GPa)
#
#
# Indices 1 2 3 4 5 6 
#
# 1 118.8560 111.6841 5.2138 0.0000 0.0000 0.0000
# 2 111.6841 277.6589 4.9632 0.0000 0.0000 0.0000
# 3 5.2138 4.9632 73.2840 0.0000 0.0000 0.0000
# 4 0.0000 0.0000 0.0000 9.2641 0.0000 0.0000
# 5 0.0000 0.0000 0.0000 0.0000 0.5205 0.0000
# 6 0.0000 0.0000 0.0000 0.0000 0.0000 -11.4551
#
#
#
# Elastic Compliance Matrix: (Units=1/GPa)
#
#
# Indices 1 2 3 4 5 6 
#
# 1 0.013552 -0.005440 -0.000596 0.000000 0.000000 0.000000
# 2 -0.005440 0.005790 -0.000005 0.000000 0.000000 0.000000
# 3 -0.000596 -0.000005 0.013688 0.000000 0.000000 0.000000
# 4 0.000000 0.000000 0.000000 0.107944 0.000000 0.000000
# 5 0.000000 0.000000 0.000000 0.000000 1.921118 0.000000
# 6 0.000000 0.000000 0.000000 0.000000 0.000000 -0.087297
#
#
# Mechanical properties :
#
#
# Convention : Reuss Voigt Hill
#
# Bulk Modulus (GPa) = 47.73790 79.28012 63.50901
# Shear Modulus (GPa) = 2.50770 22.86175 12.68473
#
# Velocity S-wave (km/s) = 1.08931 3.28903 2.44993
# Velocity P-wave (km/s) = 4.91637 7.20676 6.16880
#
# Compressibility (1/GPa) = 0.02094772
#
# Stress axis : x y z
#
# Youngs Moduli (GPa) = 73.79137 172.71394 73.05530
#
# Poissons Ratio (x) = 0.93962 0.04352
# Poissons Ratio (y) = 0.40145 0.00037
# Poissons Ratio (z) = 0.04396 0.00088
#
# Static dielectric constant tensor:
#      x y z
#    x 1.701980 0.000000 0.000000 
#    y 0.000000 1.802350 0.000000 
#    z 0.000000 0.000000 1.907310 
# 
# From -- ./inp_files/2121.got.cif
#   From: 2010.05.17/outbox.cif.g08.bks.cpg/sg47_2_cif.got.tgz:2121.got - 2010.06.03 20:15:42.
