data_PCOD9384526
_publ_section_title
;
Structure prediction by ZEFSAII (Michael W. Deem and Ramdas Pophale) SiO2 
 PCOD9384526
Probable space group: P M M M
;
_chemical_formula_sum "Si O2"
_cell_formula_units_Z 64
_cell_length_a 20.285647
_cell_length_b 8.909156
_cell_length_c 18.377468
_cell_angle_alpha 90.000000
_cell_angle_beta 90.000000
_cell_angle_gamma 90.000000
_cell_volume 3321.322921
_symmetry_space_group_name_H-M "P M M M"
_symmetry_group_IT_number 47
_symmetry_cell_setting 'orthorhombic'
loop_
_space_group_symop_operation_xyz
x,y,z
-x,-y,z
x,-y,-z
-x,y,-z
-x,-y,-z
x,y,-z
-x,y,z
x,-y,z
loop_
_atom_site_type_symbol
_atom_site_label
_atom_site_fract_x
_atom_site_fract_y
_atom_site_fract_z
Si Si1 0.921885 0.334774 0.226221
Si Si2 0.734917 0.173461 0.123092
Si Si3 0.791912 0.678858 0.419525
Si Si4 0.077111 0.176959 0.372033
Si Si5 0.708648 0.179014 0.711273
Si Si6 0.427046 0.318520 0.241455
Si Si7 0.395715 0.321007 0.921124
Si Si8 0.884649 0.825507 0.080693
O O1 0.891813 0.500000 0.239453
O O2 0.904287 0.215483 0.288251
O O3 0.908829 0.276324 0.145923
O O4 0.000000 0.349011 0.233433
O O5 0.740535 0.211330 0.209020
O O6 0.681154 0.279590 0.086890
O O7 0.805471 0.181149 0.085772
O O8 0.711445 0.000000 0.118337
O O9 0.765813 0.719163 0.500000
O O10 0.790274 0.500000 0.411787
O O11 0.867623 0.733931 0.415499
O O12 0.750020 0.751135 0.354424
O O13 0.000000 0.218653 0.385111
O O14 0.082887 0.000000 0.385232
O O15 0.634602 0.244503 0.717970
O O16 0.706788 0.000000 0.702845
O O17 0.500000 0.282634 0.270285
O O18 0.419095 0.500000 0.242715
O O19 0.424588 0.268805 0.156216
O O20 0.405423 0.500000 0.922196
O O21 0.419257 0.262823 0.000000
O O22 0.903892 0.000000 0.092606
O O23 0.906632 0.780939 0.000000
#
# Coordination Sequence:
#
# PCOD9384526 Si02
#       8
#     8   8   8   8   8   8   8   8
#     4  10  21  36  53  72  96 130 173 221 272 325
#     4   9  18  32  49  70  96 129 171 215 262 317
#     4  11  24  40  60  88 120 150 179 215 262 319
#     4  10  21  38  61  87 115 148 185 223 263 314
#     4  10  20  35  58  84 110 143 183 229 275 323
#     4   9  18  33  53  77 108 148 190 232 281 334
#     4   9  17  28  44  70 103 138 178 223 269 317
#     4  10  20  32  47  68  95 130 174 225 279 332
#
# _framework density 19.26943
#
# number of rings (size 3 to 8) (size 9 to 14) (size 15 to 20)
#    0.000    2.250    0.000    2.625    0.000    6.500 
#    0.000    3.750    0.000    0.375    0.000    6.125 
#    0.000    0.000    0.000    0.000    0.000    0.000 
#
# Total GULP energy -357035.419095 kJ/mol
# GULP energy per Si atom -5578.678423 kJ/mol
# Density = 1.922557 g / cm^3
# Si number density = 19.269430 Si / 1000 Ang^3
#
#
#
# Elastic Constant Matrix: (Units=GPa)
#
#
# Indices 1 2 3 4 5 6 
#
# 1 59.6054 26.1916 42.2727 0.0000 0.0000 0.0000
# 2 26.1916 35.0886 29.3031 0.0000 0.0000 0.0000
# 3 42.2727 29.3031 104.8343 0.0000 0.0000 0.0000
# 4 0.0000 0.0000 0.0000 28.4723 0.0000 0.0000
# 5 0.0000 0.0000 0.0000 0.0000 -19.0749 0.0000
# 6 0.0000 0.0000 0.0000 0.0000 0.0000 22.3686
#
#
#
# Elastic Compliance Matrix: (Units=1/GPa)
#
#
# Indices 1 2 3 4 5 6 
#
# 1 0.028673 -0.015324 -0.007278 0.000000 0.000000 0.000000
# 2 -0.015324 0.045368 -0.006502 0.000000 0.000000 0.000000
# 3 -0.007278 -0.006502 0.014291 0.000000 0.000000 0.000000
# 4 0.000000 0.000000 0.000000 0.035122 0.000000 0.000000
# 5 0.000000 0.000000 0.000000 0.000000 -0.052425 0.000000
# 6 0.000000 0.000000 0.000000 0.000000 0.000000 0.044705
#
#
# Mechanical properties :
#
#
# Convention : Reuss Voigt Hill
#
# Bulk Modulus (GPa) = 33.19764 43.89590 38.54677
# Shear Modulus (GPa) = 27.17637 13.13726 20.15682
#
# Velocity S-wave (km/s) = 3.75952 2.61390 3.23778
# Velocity P-wave (km/s) = 6.00923 5.65150 5.83311
#
# Compressibility (1/GPa) = 0.03012262
#
# Stress axis : x y z
#
# Youngs Moduli (GPa) = 34.87658 22.04215 69.97344
#
# Poissons Ratio (x) = 0.33778 0.50929
# Poissons Ratio (y) = 0.53445 0.45496
# Poissons Ratio (z) = 0.25384 0.14332
#
# Static dielectric constant tensor:
#      x y z
#    x 1.680700 0.000000 0.000000 
#    y 0.000000 1.665060 0.000000 
#    z 0.000000 0.000000 1.691480 
# 
# From -- ./inp_files/11670.got.cif
#   From: 2010.05.17/outbox.cif.g08.bks.cpg/sg47_6_cif.got.tgz:11670.got - 2010.06.03 20:15:42.
