data_PCOD9384122
_publ_section_title
;
Structure prediction by ZEFSAII (Michael W. Deem and Ramdas Pophale) SiO2 
 PCOD9384122
Probable space group: P M M M
;
_chemical_formula_sum "Si O2"
_cell_formula_units_Z 52
_cell_length_a 27.550424
_cell_length_b 14.269593
_cell_length_c 7.662429
_cell_angle_alpha 90.000000
_cell_angle_beta 90.000000
_cell_angle_gamma 90.000000
_cell_volume 3012.356286
_symmetry_space_group_name_H-M "P M M M"
_symmetry_group_IT_number 47
_symmetry_cell_setting 'orthorhombic'
loop_
_space_group_symop_operation_xyz
x,y,z
-x,-y,z
x,-y,-z
-x,y,-z
-x,-y,-z
x,y,-z
-x,y,z
x,-y,z
loop_
_atom_site_type_symbol
_atom_site_label
_atom_site_fract_x
_atom_site_fract_y
_atom_site_fract_z
Si Si1 0.445089 0.107953 0.213083
Si Si2 0.291666 0.605992 0.707195
Si Si3 0.803405 0.720574 0.796050
Si Si4 0.894224 0.607166 0.208226
Si Si5 0.351785 0.217354 0.789820
Si Si6 0.744058 0.106567 0.785998
Si Si7 0.000000 0.393102 0.707769
O O1 0.500000 0.130782 0.269163
O O2 0.403156 0.178004 0.273919
O O3 0.434447 0.000000 0.263035
O O4 0.445070 0.109465 0.000000
O O5 0.284229 0.603141 0.500000
O O6 0.299664 0.500000 0.770362
O O7 0.242812 0.651202 0.785208
O O8 0.335494 0.677903 0.742139
O O9 0.850733 0.670520 0.719538
O O10 0.784498 0.819556 0.723518
O O11 0.813754 0.737502 0.000000
O O12 0.892441 0.500000 0.278248
O O13 0.948151 0.647444 0.237709
O O14 0.887247 0.600210 0.000000
O O15 0.307995 0.148957 0.732189
O O16 0.352688 0.213399 0.000000
O O17 0.750594 0.000000 0.729666
O O18 0.744342 0.107433 0.000000
O O19 0.000000 0.500000 0.780046
O O20 0.000000 0.397224 0.500000
#
# Coordination Sequence:
#
# PCOD9384122 Si02
#       7
#     8   8   8   8   8   8   4
#     4   8  13  22  40  68  95 112 131 167 213 254
#     4  10  20  31  42  58  82 111 141 174 211 247
#     4   9  17  28  44  65  85 109 140 170 203 246
#     4   9  16  26  40  58  82 109 135 166 203 241
#     4   9  16  26  43  64  84 110 141 169 201 245
#     4   8  13  22  38  61  86 108 132 163 198 238
#     4   9  17  27  39  57  80 107 138 168 201 243
#
# _framework density 17.262235
#
# number of rings (size 3 to 8) (size 9 to 14) (size 15 to 20)
#    0.000    3.154    0.000    3.000    0.000    5.231 
#    0.000    1.538    0.000   12.462    0.000    4.846 
#    0.000    4.308    0.000    0.000    0.000    0.000 
#
# Total GULP energy -289659.239276 kJ/mol
# GULP energy per Si atom -5570.369986 kJ/mol
# Density = 1.722295 g / cm^3
# Si number density = 17.262235 Si / 1000 Ang^3
#
#
#
# Elastic Constant Matrix: (Units=GPa)
#
#
# Indices 1 2 3 4 5 6 
#
# 1 126.5835 78.3424 -4.5419 0.0000 0.0000 0.0000
# 2 78.3424 139.4576 -1.7833 0.0000 0.0000 0.0000
# 3 -4.5419 -1.7833 29.1120 0.0000 0.0000 0.0000
# 4 0.0000 0.0000 0.0000 62.4042 0.0000 0.0000
# 5 0.0000 0.0000 0.0000 0.0000 -26.5674 0.0000
# 6 0.0000 0.0000 0.0000 0.0000 0.0000 23.2857
#
#
#
# Elastic Compliance Matrix: (Units=1/GPa)
#
#
# Indices 1 2 3 4 5 6 
#
# 1 0.012174 -0.006820 0.001482 0.000000 0.000000 0.000000
# 2 -0.006820 0.010997 -0.000390 0.000000 0.000000 0.000000
# 3 0.001482 -0.000390 0.034557 0.000000 0.000000 0.000000
# 4 0.000000 0.000000 0.000000 0.016025 0.000000 0.000000
# 5 0.000000 0.000000 0.000000 0.000000 -0.037640 0.000000
# 6 0.000000 0.000000 0.000000 0.000000 0.000000 0.042945
#
#
# Mechanical properties :
#
#
# Convention : Reuss Voigt Hill
#
# Bulk Modulus (GPa) = 21.61205 48.79862 35.20534
# Shear Modulus (GPa) = 47.19723 26.70022 36.94872
#
# Velocity S-wave (km/s) = 5.23457 3.93713 4.63150
# Velocity P-wave (km/s) = 7.00580 6.99988 7.00284
#
# Compressibility (1/GPa) = 0.04627048
#
# Stress axis : x y z
#
# Youngs Moduli (GPa) = 82.14270 90.93507 28.93747
#
# Poissons Ratio (x) = 0.62017 -0.04287
# Poissons Ratio (y) = 0.56021 0.01130
# Poissons Ratio (z) = -0.12170 0.03550
#
# Static dielectric constant tensor:
#      x y z
#    x 1.596080 0.000000 0.000000 
#    y 0.000000 1.583870 0.000000 
#    z 0.000000 0.000000 1.633360 
# 
# From -- ./inp_files/13380.got.cif
#   From: 2010.05.17/outbox.cif.g08.bks.cpg/sg47_7_cif.got.tgz:13380.got - 2010.06.03 20:15:42.
