data_PCOD9384622
_publ_section_title
;
Structure prediction by ZEFSAII (Michael W. Deem and Ramdas Pophale) SiO2 
 PCOD9384622
Probable space group: P M M M
;
_chemical_formula_sum "Si O2"
_cell_formula_units_Z 52
_cell_length_a 15.163870
_cell_length_b 23.133563
_cell_length_c 9.268975
_cell_angle_alpha 90.000000
_cell_angle_beta 90.000000
_cell_angle_gamma 90.000000
_cell_volume 3251.503986
_symmetry_space_group_name_H-M "P M M M"
_symmetry_group_IT_number 47
_symmetry_cell_setting 'orthorhombic'
loop_
_space_group_symop_operation_xyz
x,y,z
-x,-y,z
x,-y,-z
-x,y,-z
-x,-y,-z
x,y,-z
-x,y,z
x,-y,z
loop_
_atom_site_type_symbol
_atom_site_label
_atom_site_fract_x
_atom_site_fract_y
_atom_site_fract_z
Si Si1 0.395933 0.116978 0.827075
Si Si2 0.607081 0.000000 0.334275
Si Si3 0.096897 0.269301 0.173003
Si Si4 0.650900 0.654864 0.665896
Si Si5 0.500000 0.433260 0.675826
Si Si6 0.894734 0.500000 0.163149
Si Si7 0.708405 0.231972 0.826534
Si Si8 0.147213 0.615531 0.665602
O O1 0.500000 0.127216 0.795757
O O2 0.338042 0.172246 0.783727
O O3 0.366827 0.058468 0.747830
O O4 0.388423 0.109234 0.000000
O O5 0.500000 0.000000 0.333197
O O6 0.636418 0.000000 0.500000
O O7 0.187280 0.235833 0.213086
O O8 0.103116 0.330760 0.252584
O O9 0.000000 0.243165 0.205640
O O10 0.100666 0.278199 0.000000
O O11 0.626585 0.669198 0.500000
O O12 0.584064 0.605509 0.718916
O O13 0.658096 0.713433 0.757325
O O14 0.748762 0.628761 0.664878
O O15 0.500000 0.500000 0.726645
O O16 0.500000 0.436220 0.500000
O O17 0.867971 0.556850 0.249381
O O18 0.000000 0.500000 0.154430
O O19 0.858774 0.500000 0.000000
O O20 0.702753 0.236528 0.000000
O O21 0.116730 0.611444 0.500000
#
# Coordination Sequence:
#
# PCOD9384622 Si02
#       8
#     8   4   8   8   4   4   8   8
#     4   9  17  29  46  68  97 132 161 187 226 273
#     4   9  17  29  45  69  98 129 162 196 227 261
#     4   9  17  31  49  67  91 122 152 185 228 276
#     4   9  19  33  49  69  90 117 152 192 232 274
#     4   9  18  32  51  67  85 118 157 190 229 281
#     4  11  23  35  47  64  85 110 140 175 225 289
#     4   9  18  31  48  71  97 125 156 191 231 275
#     4  10  20  32  48  68  89 111 142 185 230 275
#
# _framework density 15.992599
#
# number of rings (size 3 to 8) (size 9 to 14) (size 15 to 20)
#    0.000    2.692    0.000    1.385    2.154    4.923 
#    0.000    0.000    0.000    0.462    0.000    0.538 
#    0.000    4.308    0.000    0.000    0.000    0.000 
#
# Total GULP energy -289701.944080 kJ/mol
# GULP energy per Si atom -5571.191232 kJ/mol
# Density = 1.595620 g / cm^3
# Si number density = 15.992599 Si / 1000 Ang^3
#
#
#
# Elastic Constant Matrix: (Units=GPa)
#
#
# Indices 1 2 3 4 5 6 
#
# 1 83.5374 64.1323 25.8678 0.0000 0.0000 0.0000
# 2 64.1323 150.5909 52.4919 0.0000 0.0000 0.0000
# 3 25.8678 52.4919 41.3767 0.0000 0.0000 0.0000
# 4 0.0000 0.0000 0.0000 17.4682 0.0000 0.0000
# 5 0.0000 0.0000 0.0000 0.0000 15.3923 0.0000
# 6 0.0000 0.0000 0.0000 0.0000 0.0000 12.8608
#
#
#
# Elastic Compliance Matrix: (Units=1/GPa)
#
#
# Indices 1 2 3 4 5 6 
#
# 1 0.017956 -0.006694 -0.002733 0.000000 0.000000 0.000000
# 2 -0.006694 0.014401 -0.014084 0.000000 0.000000 0.000000
# 3 -0.002733 -0.014084 0.043745 0.000000 0.000000 0.000000
# 4 0.000000 0.000000 0.000000 0.057247 0.000000 0.000000
# 5 0.000000 0.000000 0.000000 0.000000 0.064968 0.000000
# 6 0.000000 0.000000 0.000000 0.000000 0.000000 0.077756
#
#
# Mechanical properties :
#
#
# Convention : Reuss Voigt Hill
#
# Bulk Modulus (GPa) = 34.38996 62.27655 48.33326
# Shear Modulus (GPa) = 15.02458 18.01180 16.51819
#
# Velocity S-wave (km/s) = 3.06840 3.35962 3.21731
# Velocity P-wave (km/s) = 5.83985 7.35356 6.63998
#
# Compressibility (1/GPa) = 0.02907825
#
# Stress axis : x y z
#
# Youngs Moduli (GPa) = 55.69063 69.44051 22.85996
#
# Poissons Ratio (x) = 0.46486 0.06248
# Poissons Ratio (y) = 0.37281 0.32196
# Poissons Ratio (z) = 0.15221 0.97801
#
# Static dielectric constant tensor:
#      x y z
#    x 1.556540 0.000000 0.000000 
#    y 0.000000 1.496500 0.000000 
#    z 0.000000 0.000000 1.545410 
# 
# From -- ./inp_files/7710.got.cif
#   From: 2010.05.17/outbox.cif.g08.bks.cpg/sg47_4_cif.got.tgz:7710.got - 2010.06.03 20:15:42.
