data_PCOD9384377
_publ_section_title
;
Structure prediction by ZEFSAII (Michael W. Deem and Ramdas Pophale) SiO2 
 PCOD9384377
Probable space group: P M M M
;
_chemical_formula_sum "Si O2"
_cell_formula_units_Z 48
_cell_length_a 33.036463
_cell_length_b 9.410657
_cell_length_c 7.358136
_cell_angle_alpha 90.000000
_cell_angle_beta 90.000000
_cell_angle_gamma 90.000000
_cell_volume 2287.606380
_symmetry_space_group_name_H-M "P M M M"
_symmetry_group_IT_number 47
_symmetry_cell_setting 'orthorhombic'
loop_
_space_group_symop_operation_xyz
x,y,z
-x,-y,z
x,-y,-z
-x,y,-z
-x,-y,-z
x,y,-z
-x,y,z
x,-y,z
loop_
_atom_site_type_symbol
_atom_site_label
_atom_site_fract_x
_atom_site_fract_y
_atom_site_fract_z
Si Si1 0.710883 0.163218 0.277718
Si Si2 0.456476 0.329805 0.718758
Si Si3 0.788174 0.340063 0.284340
Si Si4 0.956441 0.828580 0.782838
Si Si5 0.868586 0.837235 0.218421
Si Si6 0.368163 0.334613 0.278236
O O1 0.710967 0.163586 0.500000
O O2 0.750565 0.247794 0.214775
O O3 0.669914 0.242156 0.220047
O O4 0.712025 0.000000 0.220258
O O5 0.456885 0.311716 0.500000
O O6 0.500000 0.274273 0.786555
O O7 0.456255 0.500000 0.751879
O O8 0.412433 0.279327 0.782339
O O9 0.781659 0.350879 0.500000
O O10 0.789127 0.500000 0.210755
O O11 0.830531 0.260017 0.260090
O O12 0.912404 0.781021 0.714866
O O13 0.000000 0.776628 0.710988
O O14 0.955957 0.000000 0.758768
O O15 0.957186 0.802706 0.000000
O O16 0.862326 0.000000 0.282810
O O17 0.871617 0.844484 0.000000
O O18 0.368588 0.333874 0.500000
O O19 0.363509 0.500000 0.224808
#
# Coordination Sequence:
#
# PCOD9384377 Si02
#       6
#     8   8   8   8   8   8
#     4   9  16  25  37  52  70  94 127 168 211 251
#     4   7   9  13  22  37  56  79 110 148 188 230
#     4  10  20  32  45  61  83 113 148 182 215 253
#     4   7  10  19  38  64  90 112 135 166 203 242
#     4   9  17  29  47  71  94 114 139 173 213 255
#     4   8  12  18  29  44  62  85 116 156 198 239
#
# _framework density 20.982628999999999
#
# number of rings (size 3 to 8) (size 9 to 14) (size 15 to 20)
#    0.000    3.667    0.000    4.000    0.000    3.333 
#    0.000    0.000    0.000    1.500    0.000    9.333 
#    0.000    0.000    0.000    0.000    0.000    0.833 
#
# Total GULP energy -267399.500042 kJ/mol
# GULP energy per Si atom -5570.822918 kJ/mol
# Density = 2.093487 g / cm^3
# Si number density = 20.982629 Si / 1000 Ang^3
#
#
#
# Elastic Constant Matrix: (Units=GPa)
#
#
# Indices 1 2 3 4 5 6 
#
# 1 287.1887 111.4060 5.9218 0.0000 0.0000 0.0000
# 2 111.4060 103.0485 4.9416 0.0000 0.0000 0.0000
# 3 5.9218 4.9416 73.4301 0.0000 0.0000 0.0000
# 4 0.0000 0.0000 0.0000 -4.6685 0.0000 0.0000
# 5 0.0000 0.0000 0.0000 0.0000 7.8518 0.0000
# 6 0.0000 0.0000 0.0000 0.0000 0.0000 24.9349
#
#
#
# Elastic Compliance Matrix: (Units=1/GPa)
#
#
# Indices 1 2 3 4 5 6 
#
# 1 0.005997 -0.006481 -0.000047 0.000000 0.000000 0.000000
# 2 -0.006481 0.016740 -0.000604 0.000000 0.000000 0.000000
# 3 -0.000047 -0.000604 0.013663 0.000000 0.000000 0.000000
# 4 0.000000 0.000000 0.000000 -0.214201 0.000000 0.000000
# 5 0.000000 0.000000 0.000000 0.000000 0.127359 0.000000
# 6 0.000000 0.000000 0.000000 0.000000 0.000000 0.040104
#
#
# Mechanical properties :
#
#
# Convention : Reuss Voigt Hill
#
# Bulk Modulus (GPa) = 45.17767 78.68958 61.93363
# Shear Modulus (GPa) = 442.22852 28.38351 235.30601
#
# Velocity S-wave (km/s) = 14.53330 3.68192 10.60126
# Velocity P-wave (km/s) = 17.41265 7.46050 13.39513
#
# Compressibility (1/GPa) = 0.02213483
#
# Stress axis : x y z
#
# Youngs Moduli (GPa) = 166.74274 59.73657 73.19115
#
# Poissons Ratio (x) = 0.38718 0.00347
# Poissons Ratio (y) = 1.08072 0.04420
# Poissons Ratio (z) = 0.00792 0.03607
#
# Static dielectric constant tensor:
#      x y z
#    x 1.797140 0.000000 0.000000 
#    y 0.000000 1.703010 0.000000 
#    z 0.000000 0.000000 1.911850 
# 
# From -- ./inp_files/14066.got.cif
#   From: 2010.05.17/outbox.cif.g08.bks.cpg/sg47_8_cif.got.tgz:14066.got - 2010.06.03 20:15:42.
