data_PCOD9384222
_publ_section_title
;
Structure prediction by ZEFSAII (Michael W. Deem and Ramdas Pophale) SiO2 
 PCOD9384222
Probable space group: P M M M
;
_chemical_formula_sum "Si O2"
_cell_formula_units_Z 48
_cell_length_a 19.261110
_cell_length_b 13.209711
_cell_length_c 8.647213
_cell_angle_alpha 90.000000
_cell_angle_beta 90.000000
_cell_angle_gamma 90.000000
_cell_volume 2200.142369
_symmetry_space_group_name_H-M "P M M M"
_symmetry_group_IT_number 47
_symmetry_cell_setting 'orthorhombic'
loop_
_space_group_symop_operation_xyz
x,y,z
-x,-y,z
x,-y,-z
-x,y,-z
-x,-y,-z
x,y,-z
-x,y,z
x,-y,z
loop_
_atom_site_type_symbol
_atom_site_label
_atom_site_fract_x
_atom_site_fract_y
_atom_site_fract_z
Si Si1 0.578246 0.327972 0.681384
Si Si2 0.779298 0.110569 0.185676
Si Si3 0.721285 0.674123 0.185220
Si Si4 0.923570 0.820114 0.316126
Si Si5 0.582658 0.888256 0.824795
Si Si6 0.124003 0.387506 0.185846
O O1 0.577269 0.348140 0.500000
O O2 0.500000 0.354577 0.742351
O O3 0.649459 0.371090 0.751621
O O4 0.589116 0.208314 0.715990
O O5 0.735696 0.208850 0.237039
O O6 0.858628 0.126960 0.235913
O O7 0.756827 0.000000 0.241738
O O8 0.776927 0.111111 0.000000
O O9 0.793764 0.619873 0.225240
O O10 0.715974 0.672902 0.000000
O O11 0.917980 0.833373 0.500000
O O12 0.914805 0.701946 0.272868
O O13 0.000000 0.855129 0.266203
O O14 0.500000 0.896410 0.840955
O O15 0.606689 0.000000 0.774865
O O16 0.610451 0.868579 0.000000
O O17 0.098466 0.500000 0.220109
O O18 0.118546 0.370333 0.000000
#
# Coordination Sequence:
#
# PCOD9384222 Si02
#       6
#     8   8   8   8   8   8
#     4  10  20  31  44  66  96 128 163 206 256 309
#     4   9  19  36  56  77 103 140 186 229 265 303
#     4   9  18  33  53  76 101 130 168 215 264 314
#     4  10  21  35  52  80 117 149 177 212 253 302
#     4   8  14  25  40  57  79 111 152 195 239 289
#     4   9  19  37  60  83 105 132 170 216 264 313
#
# _framework density 21.816770000000002
#
# number of rings (size 3 to 8) (size 9 to 14) (size 15 to 20)
#    0.000    2.833    0.000    2.500    0.000    7.333 
#    0.000    6.667    0.000    0.500    0.000    3.500 
#    0.000    0.000    0.000    0.000    0.000    0.000 
#
# Total GULP energy -267652.790246 kJ/mol
# GULP energy per Si atom -5576.099797 kJ/mol
# Density = 2.176711 g / cm^3
# Si number density = 21.816770 Si / 1000 Ang^3
#
#
#
# Elastic Constant Matrix: (Units=GPa)
#
#
# Indices 1 2 3 4 5 6 
#
# 1 157.9774 -3.5012 16.5951 0.0000 0.0000 0.0000
# 2 -3.5012 52.5583 -1.9901 0.0000 0.0000 0.0000
# 3 16.5951 -1.9901 4.9700 0.0000 0.0000 0.0000
# 4 0.0000 0.0000 0.0000 7.5807 0.0000 0.0000
# 5 0.0000 0.0000 0.0000 0.0000 27.4825 0.0000
# 6 0.0000 0.0000 0.0000 0.0000 0.0000 -11.8986
#
#
#
# Elastic Compliance Matrix: (Units=1/GPa)
#
#
# Indices 1 2 3 4 5 6 
#
# 1 0.009768 -0.000593 -0.032854 0.000000 0.000000 0.000000
# 2 -0.000593 0.019355 0.009731 0.000000 0.000000 0.000000
# 3 -0.032854 0.009731 0.314808 0.000000 0.000000 0.000000
# 4 0.000000 0.000000 0.000000 0.131915 0.000000 0.000000
# 5 0.000000 0.000000 0.000000 0.000000 0.036387 0.000000
# 6 0.000000 0.000000 0.000000 0.000000 0.000000 -0.084044
#
#
# Mechanical properties :
#
#
# Convention : Reuss Voigt Hill
#
# Bulk Modulus (GPa) = 3.37268 26.41259 14.89264
# Shear Modulus (GPa) = 8.70390 18.25971 13.48181
#
# Velocity S-wave (km/s) = 1.99955 2.89616 2.48857
# Velocity P-wave (km/s) = 2.62302 4.82872 3.88566
#
# Compressibility (1/GPa) = 0.29649978
#
# Stress axis : x y z
#
# Youngs Moduli (GPa) = 102.37400 51.66512 3.17654
#
# Poissons Ratio (x) = 0.03065 0.10436
# Poissons Ratio (y) = 0.06074 -0.03091
# Poissons Ratio (z) = 3.36341 -0.50277
#
# Static dielectric constant tensor:
#      x y z
#    x 1.844100 0.000000 0.000000 
#    y 0.000000 1.845930 0.000000 
#    z 0.000000 0.000000 1.753110 
# 
# From -- ./inp_files/10870.got.cif
#   From: 2010.05.17/outbox.cif.g08.bks.cpg/sg47_6_cif.got.tgz:10870.got - 2010.06.03 20:15:42.
