data_PCOD9384528
_publ_section_title
;
Structure prediction by ZEFSAII (Michael W. Deem and Ramdas Pophale) SiO2 
 PCOD9384528
Probable space group: P M M M
;
_chemical_formula_sum "Si O2"
_cell_formula_units_Z 64
_cell_length_a 19.371103
_cell_length_b 21.571008
_cell_length_c 8.078513
_cell_angle_alpha 90.000000
_cell_angle_beta 90.000000
_cell_angle_gamma 90.000000
_cell_volume 3375.640730
_symmetry_space_group_name_H-M "P M M M"
_symmetry_group_IT_number 47
_symmetry_cell_setting 'orthorhombic'
loop_
_space_group_symop_operation_xyz
x,y,z
-x,-y,z
x,-y,-z
-x,y,-z
-x,-y,-z
x,y,-z
-x,y,z
x,-y,z
loop_
_atom_site_type_symbol
_atom_site_label
_atom_site_fract_x
_atom_site_fract_y
_atom_site_fract_z
Si Si1 0.578325 0.182023 0.199153
Si Si2 0.333324 0.433376 0.196285
Si Si3 0.077918 0.815734 0.303114
Si Si4 0.330697 0.297752 0.796667
Si Si5 0.829847 0.929649 0.802251
Si Si6 0.828505 0.701075 0.199267
Si Si7 0.834008 0.433340 0.196343
Si Si8 0.325305 0.929504 0.302045
O O1 0.500000 0.181145 0.262324
O O2 0.621586 0.241482 0.259544
O O3 0.619364 0.119691 0.240807
O O4 0.575658 0.186900 0.000000
O O5 0.356776 0.500000 0.266984
O O6 0.355547 0.366048 0.260381
O O7 0.249669 0.432507 0.207581
O O8 0.349697 0.434337 0.000000
O O9 0.074538 0.811055 0.500000
O O10 0.116095 0.879617 0.260271
O O11 0.123192 0.758154 0.241696
O O12 0.000000 0.814311 0.235216
O O13 0.250799 0.288722 0.744920
O O14 0.330916 0.298578 0.000000
O O15 0.751912 0.911504 0.753166
O O16 0.841751 0.000000 0.739658
O O17 0.833404 0.930783 0.000000
O O18 0.855291 0.633990 0.263284
O O19 0.825251 0.695997 0.000000
O O20 0.857450 0.500000 0.267057
O O21 0.850814 0.434497 0.000000
O O22 0.326722 0.930340 0.500000
O O23 0.337898 0.000000 0.241385
#
# Coordination Sequence:
#
# PCOD9384528 Si02
#       8
#     8   8   8   8   8   8   8   8
#     4  10  20  32  47  69 100 138 175 211 250 291
#     4   7   9  15  31  57  88 119 150 189 241 296
#     4  11  24  38  51  71 103 140 172 204 244 290
#     4   8  14  25  42  66  94 123 159 203 249 294
#     4  10  21  38  61  85 105 126 157 199 244 294
#     4   9  16  28  50  74  94 124 168 216 261 305
#     4   7  10  18  36  66  97 118 147 202 265 311
#     4  10  21  37  57  79 102 128 159 199 248 300
#
# _framework density 18.959364000000001
#
# number of rings (size 3 to 8) (size 9 to 14) (size 15 to 20)
#    0.000    3.000    0.000    4.125    0.000    4.250 
#    0.000    2.500    0.000    1.125    0.000    5.250 
#    0.000    1.500    0.000    1.125    0.000    1.250 
#
# Total GULP energy -356522.892440 kJ/mol
# GULP energy per Si atom -5570.670194 kJ/mol
# Density = 1.891621 g / cm^3
# Si number density = 18.959364 Si / 1000 Ang^3
#
#
#
# Elastic Constant Matrix: (Units=GPa)
#
#
# Indices 1 2 3 4 5 6 
#
# 1 121.6798 116.2646 8.8339 0.0000 0.0000 0.0000
# 2 116.2646 179.5270 8.8959 0.0000 0.0000 0.0000
# 3 8.8339 8.8959 12.7131 0.0000 0.0000 0.0000
# 4 0.0000 0.0000 0.0000 -9.2675 0.0000 0.0000
# 5 0.0000 0.0000 0.0000 0.0000 22.2912 0.0000
# 6 0.0000 0.0000 0.0000 0.0000 0.0000 -5.3697
#
#
#
# Elastic Compliance Matrix: (Units=1/GPa)
#
#
# Indices 1 2 3 4 5 6 
#
# 1 0.021922 -0.013925 -0.005489 0.000000 0.000000 0.000000
# 2 -0.013925 0.014616 -0.000551 0.000000 0.000000 0.000000
# 3 -0.005489 -0.000551 0.082859 0.000000 0.000000 0.000000
# 4 0.000000 0.000000 0.000000 -0.107904 0.000000 0.000000
# 5 0.000000 0.000000 0.000000 0.000000 0.044861 0.000000
# 6 0.000000 0.000000 0.000000 0.000000 0.000000 -0.186228
#
#
# Mechanical properties :
#
#
# Convention : Reuss Voigt Hill
#
# Bulk Modulus (GPa) = 12.58393 64.65652 38.62022
# Shear Modulus (GPa) = -78.79514 13.52584 -32.63465
#
# Velocity S-wave (km/s) = -6.45370 2.67388 -4.15335
# Velocity P-wave (km/s) = 6.99156 6.61132 1.60817
#
# Compressibility (1/GPa) = 0.07946642
#
# Stress axis : x y z
#
# Youngs Moduli (GPa) = 45.61558 68.41950 12.06869
#
# Poissons Ratio (x) = 0.95276 0.06625
# Poissons Ratio (y) = 0.63521 0.00665
# Poissons Ratio (z) = 0.25039 0.03770
#
# Static dielectric constant tensor:
#      x y z
#    x 1.628560 0.000000 0.000000 
#    y 0.000000 1.708420 0.000000 
#    z 0.000000 0.000000 1.675920 
# 
# From -- ./inp_files/10055.got.cif
#   From: 2010.05.17/outbox.cif.g08.bks.cpg/sg47_6_cif.got.tgz:10055.got - 2010.06.03 20:15:42.
