data_PCOD9384069
_publ_section_title
;
Structure prediction by ZEFSAII (Michael W. Deem and Ramdas Pophale) SiO2 
 PCOD9384069
Probable space group: P M M M
;
_chemical_formula_sum "Si O2"
_cell_formula_units_Z 29
_cell_length_a 22.340156
_cell_length_b 8.173779
_cell_length_c 7.418409
_cell_angle_alpha 90.000000
_cell_angle_beta 90.000000
_cell_angle_gamma 90.000000
_cell_volume 1354.627433
_symmetry_space_group_name_H-M "P M M M"
_symmetry_group_IT_number 47
_symmetry_cell_setting 'orthorhombic'
loop_
_space_group_symop_operation_xyz
x,y,z
-x,-y,z
x,-y,-z
-x,y,-z
-x,-y,-z
x,y,-z
-x,y,z
x,-y,z
loop_
_atom_site_type_symbol
_atom_site_label
_atom_site_fract_x
_atom_site_fract_y
_atom_site_fract_z
Si Si1 0.192904 0.685560 0.219355
Si Si2 0.604349 0.500000 0.300533
Si Si3 0.317500 0.819863 0.218491
Si Si4 0.064859 0.806925 0.218663
Si Si5 0.500000 0.500000 0.000000
O O1 0.207409 0.500000 0.268668
O O2 0.248319 0.797018 0.275776
O O3 0.126519 0.729551 0.284061
O O4 0.190797 0.694710 0.000000
O O5 0.578795 0.500000 0.500000
O O6 0.644762 0.336638 0.279081
O O7 0.552621 0.500000 0.154770
O O8 0.339464 0.000000 0.275133
O O9 0.318547 0.816265 0.000000
O O10 0.000000 0.742227 0.280708
O O11 0.066829 0.000000 0.258896
O O12 0.064817 0.791279 0.000000
#
# Coordination Sequence:
#
# PCOD9384069 Si02
#       5
#     8   4   8   8   1
#     4   9  15  23  41  69 104 150 207 263 321 383
#     4  12  25  45  73 104 136 174 215 258 309 373
#     4  10  19  36  63  92 129 173 217 269 324 379
#     4   8  13  20  29  49  90 144 201 259 318 380
#     4  12  26  52  78 102 148 174 212 252 306 370
#
# _framework density 21.408102
#
# number of rings (size 3 to 8) (size 9 to 14) (size 15 to 20)
#    0.000    2.483    2.759    1.862    0.000    4.414 
#    0.000    4.138    0.000    1.655    0.000    0.000 
#    0.000    2.207    0.000    5.793    0.000    5.517 
#
# Total GULP energy -161611.225685 kJ/mol
# GULP energy per Si atom -5572.800886 kJ/mol
# Density = 2.135938 g / cm^3
# Si number density = 21.408102 Si / 1000 Ang^3
#
#
#
# Elastic Constant Matrix: (Units=GPa)
#
#
# Indices 1 2 3 4 5 6 
#
# 1 150.1544 64.8793 33.8662 0.0000 0.0000 0.0000
# 2 64.8793 126.7057 21.7579 0.0000 0.0000 0.0000
# 3 33.8662 21.7579 105.1340 0.0000 0.0000 0.0000
# 4 0.0000 0.0000 0.0000 -54.1965 0.0000 0.0000
# 5 0.0000 0.0000 0.0000 0.0000 -81.4504 0.0000
# 6 0.0000 0.0000 0.0000 0.0000 0.0000 -4.5746
#
#
#
# Elastic Compliance Matrix: (Units=1/GPa)
#
#
# Indices 1 2 3 4 5 6 
#
# 1 0.008941 -0.004234 -0.002004 0.000000 0.000000 0.000000
# 2 -0.004234 0.010188 -0.000745 0.000000 0.000000 0.000000
# 3 -0.002004 -0.000745 0.010311 0.000000 0.000000 0.000000
# 4 0.000000 0.000000 0.000000 -0.018451 0.000000 0.000000
# 5 0.000000 0.000000 0.000000 0.000000 -0.012277 0.000000
# 6 0.000000 0.000000 0.000000 0.000000 0.000000 -0.218600
#
#
# Mechanical properties :
#
#
# Convention : Reuss Voigt Hill
#
# Bulk Modulus (GPa) = 64.61859 69.22233 66.92046
# Shear Modulus (GPa) = -24.90493 -10.61158 -17.75825
#
# Velocity S-wave (km/s) = -3.41448 -2.22880 -2.88325
# Velocity P-wave (km/s) = 3.83468 5.07754 4.49923
#
# Compressibility (1/GPa) = 0.01547542
#
# Stress axis : x y z
#
# Youngs Moduli (GPa) = 111.84004 98.15176 96.98130
#
# Poissons Ratio (x) = 0.41560 0.19434
# Poissons Ratio (y) = 0.47356 0.07221
# Poissons Ratio (z) = 0.22412 0.07308
#
# Static dielectric constant tensor:
#      x y z
#    x 1.744590 0.000000 0.000000 
#    y 0.000000 1.754610 0.000000 
#    z 0.000000 0.000000 1.825750 
# 
# From -- ./inp_files/903.got.cif
#   From: 2010.05.17/outbox.cif.g08.bks.cpg/sg47_1_cif.got.tgz:903.got - 2010.06.03 20:15:42.
