data_PCOD9384521
_publ_section_title
;
Structure prediction by ZEFSAII (Michael W. Deem and Ramdas Pophale) SiO2 
 PCOD9384521
Probable space group: P M M M
;
_chemical_formula_sum "Si O2"
_cell_formula_units_Z 64
_cell_length_a 14.633396
_cell_length_b 8.877384
_cell_length_c 29.922690
_cell_angle_alpha 90.000000
_cell_angle_beta 90.000000
_cell_angle_gamma 90.000000
_cell_volume 3887.145211
_symmetry_space_group_name_H-M "P M M M"
_symmetry_group_IT_number 47
_symmetry_cell_setting 'orthorhombic'
loop_
_space_group_symop_operation_xyz
x,y,z
-x,-y,z
x,-y,-z
-x,y,-z
-x,-y,-z
x,y,-z
-x,y,z
x,-y,z
loop_
_atom_site_type_symbol
_atom_site_label
_atom_site_fract_x
_atom_site_fract_y
_atom_site_fract_z
Si Si1 0.777902 0.680522 0.272444
Si Si2 0.894023 0.318723 0.641745
Si Si3 0.285557 0.316883 0.950914
Si Si4 0.103875 0.681159 0.904315
Si Si5 0.109005 0.177186 0.191913
Si Si6 0.609245 0.323800 0.862837
Si Si7 0.110547 0.822677 0.451121
Si Si8 0.393904 0.820258 0.232050
O O1 0.774309 0.500000 0.271934
O O2 0.830096 0.730417 0.317424
O O3 0.836436 0.738019 0.230341
O O4 0.676834 0.746574 0.266188
O O5 0.895079 0.500000 0.641126
O O6 0.859950 0.260722 0.593718
O O7 0.000000 0.268554 0.648445
O O8 0.293265 0.500000 0.951540
O O9 0.180196 0.279475 0.940512
O O10 0.343460 0.266658 0.908020
O O11 0.313792 0.262332 0.000000
O O12 0.105846 0.500000 0.898776
O O13 0.128589 0.754980 0.856904
O O14 0.000000 0.724833 0.915966
O O15 0.000000 0.195058 0.199223
O O16 0.130853 0.000000 0.192847
O O17 0.500000 0.317160 0.868567
O O18 0.635012 0.500000 0.856261
O O19 0.632425 0.234361 0.817906
O O20 0.142996 0.767457 0.500000
O O21 0.000000 0.809459 0.451710
O O22 0.131830 0.000000 0.447842
O O23 0.500000 0.775730 0.239214
O O24 0.387843 0.000000 0.234215
#
# Coordination Sequence:
#
# PCOD9384521 Si02
#       8
#     8   8   8   8   8   8   8   8
#     4  11  21  32  48  69  96 127 157 192 234 280
#     4   9  18  30  43  64  95 129 163 197 233 272
#     4   9  17  28  43  65  89 110 137 176 219 261
#     4   9  17  29  45  63  83 111 147 184 220 258
#     4  10  20  32  47  68  93 122 156 191 227 270
#     4   9  17  30  49  70  89 111 140 174 216 267
#     4   8  14  25  41  61  87 123 166 206 239 270
#     4  10  21  36  53  72  93 118 151 191 232 276
#
# _framework density 16.464524999999998
#
# number of rings (size 3 to 8) (size 9 to 14) (size 15 to 20)
#    0.000    2.625    0.000    2.625    0.000    4.750 
#    0.000    5.000    0.000    1.500    0.000    3.500 
#    0.000    0.500    0.000    5.500    0.000    4.250 
#
# Total GULP energy -356819.534297 kJ/mol
# GULP energy per Si atom -5575.305223 kJ/mol
# Density = 1.642705 g / cm^3
# Si number density = 16.464525 Si / 1000 Ang^3
#
#
#
# Elastic Constant Matrix: (Units=GPa)
#
#
# Indices 1 2 3 4 5 6 
#
# 1 54.1200 21.8970 54.6346 0.0000 0.0000 0.0000
# 2 21.8970 23.6517 25.1954 0.0000 0.0000 0.0000
# 3 54.6346 25.1954 104.5312 0.0000 0.0000 0.0000
# 4 0.0000 0.0000 0.0000-1844.4760 0.0000 0.0000
# 5 0.0000 0.0000 0.0000 0.0000 18.3551 0.0000
# 6 0.0000 0.0000 0.0000 0.0000 0.0000 17.7870
#
#
#
# Elastic Compliance Matrix: (Units=1/GPa)
#
#
# Indices 1 2 3 4 5 6 
#
# 1 0.047102 -0.023387 -0.018981 0.000000 0.000000 0.000000
# 2 -0.023387 0.068499 -0.004287 0.000000 0.000000 0.000000
# 3 -0.018981 -0.004287 0.020521 0.000000 0.000000 0.000000
# 4 0.000000 0.000000 0.000000 -0.000542 0.000000 0.000000
# 5 0.000000 0.000000 0.000000 0.000000 0.054481 0.000000
# 6 0.000000 0.000000 0.000000 0.000000 0.000000 0.056221
#
#
# Mechanical properties :
#
#
# Convention : Reuss Voigt Hill
#
# Bulk Modulus (GPa) = 23.35867 42.86188 33.11027
# Shear Modulus (GPa) = 14.12984 -356.29505 -171.08260
#
# Velocity S-wave (km/s) = 2.93268 -14.72656 -10.20468
# Velocity P-wave (km/s) = 5.06809 16.21951 10.89465
#
# Compressibility (1/GPa) = 0.04281066
#
# Stress axis : x y z
#
# Youngs Moduli (GPa) = 21.23067 14.59881 48.73152
#
# Poissons Ratio (x) = 0.34142 0.92499
# Poissons Ratio (y) = 0.49652 0.20890
# Poissons Ratio (z) = 0.40299 0.06258
#
# Static dielectric constant tensor:
#      x y z
#    x 1.568410 0.000000 0.000000 
#    y 0.000000 1.554410 0.000000 
#    z 0.000000 0.000000 1.548260 
# 
# From -- ./inp_files/8271.got.cif
#   From: 2010.05.17/outbox.cif.g08.bks.cpg/sg47_5_cif.got.tgz:8271.got - 2010.06.03 20:15:42.
