data_PCOD9384001
_publ_section_title
;
Structure prediction by ZEFSAII (Michael W. Deem and Ramdas Pophale) SiO2 
 PCOD9384001
Probable space group: P M M M
;
_chemical_formula_sum "Si O2"
_cell_formula_units_Z 48
_cell_length_a 7.751238
_cell_length_b 14.637860
_cell_length_c 21.165989
_cell_angle_alpha 90.000000
_cell_angle_beta 90.000000
_cell_angle_gamma 90.000000
_cell_volume 2401.525637
_symmetry_space_group_name_H-M "P M M M"
_symmetry_group_IT_number 47
_symmetry_cell_setting 'orthorhombic'
loop_
_space_group_symop_operation_xyz
x,y,z
-x,-y,z
x,-y,-z
-x,y,-z
-x,-y,-z
x,y,-z
-x,y,z
x,-y,z
loop_
_atom_site_type_symbol
_atom_site_label
_atom_site_fract_x
_atom_site_fract_y
_atom_site_fract_z
Si Si1 0.795303 0.103199 0.747611
Si Si2 0.210728 0.398133 0.573413
Si Si3 0.296479 0.207248 0.873985
Si Si4 0.205380 0.788125 0.627344
Si Si5 0.791871 0.602862 0.072547
Si Si6 0.288871 0.105986 0.000000
Si Si7 0.292793 0.104967 0.500000
O O1 0.773864 0.161940 0.810794
O O2 0.722080 0.156865 0.687015
O O3 0.000000 0.094277 0.736840
O O4 0.725024 0.000000 0.754336
O O5 0.260460 0.383643 0.500000
O O6 0.265706 0.500000 0.592483
O O7 0.274018 0.314007 0.615231
O O8 0.000000 0.397361 0.574196
O O9 0.500000 0.191640 0.872621
O O10 0.264669 0.314856 0.882987
O O11 0.227395 0.157104 0.936955
O O12 0.231298 0.844089 0.562889
O O13 0.000000 0.778412 0.637405
O O14 0.735095 0.500000 0.089819
O O15 0.000000 0.602441 0.071729
O O16 0.733382 0.620726 0.000000
O O17 0.500000 0.109412 0.000000
O O18 0.238931 0.000000 0.000000
O O19 0.500000 0.105939 0.500000
O O20 0.233278 0.000000 0.500000
#
# Coordination Sequence:
#
# PCOD9384001 Si02
#       7
#     8   8   8   8   8   4   4
#     4  10  22  38  54  76 109 147 187 230 276 330
#     4   8  13  24  48  82 110 130 163 214 265 311
#     4  11  21  35  56  81 110 145 183 228 278 330
#     4  10  19  35  58  80 104 141 186 228 267 317
#     4   9  18  34  57  84 114 146 179 222 276 330
#     4   9  18  32  50  75 104 134 177 227 270 321
#     4  11  23  35  50  77 110 138 173 227 284 335
#
# _framework density 19.987293000000001
#
# number of rings (size 3 to 8) (size 9 to 14) (size 15 to 20)
#    0.000    2.333    1.667    2.750    0.000    3.333 
#    0.000    1.667    0.000    6.000    0.000    0.000 
#    0.000    0.000    0.000    0.000    0.000    0.000 
#
# Total GULP energy -267914.971587 kJ/mol
# GULP energy per Si atom -5581.561908 kJ/mol
# Density = 1.994180 g / cm^3
# Si number density = 19.987293 Si / 1000 Ang^3
#
#
#
# Elastic Constant Matrix: (Units=GPa)
#
#
# Indices 1 2 3 4 5 6 
#
# 1 26.8114 -1.3825 -3.9823 0.0000 0.0000 0.0000
# 2 -1.3825 199.1081 97.8366 0.0000 0.0000 0.0000
# 3 -3.9823 97.8366 143.3186 0.0000 0.0000 0.0000
# 4 0.0000 0.0000 0.0000 130.2730 0.0000 0.0000
# 5 0.0000 0.0000 0.0000 0.0000 21.1535 0.0000
# 6 0.0000 0.0000 0.0000 0.0000 0.0000 7.4915
#
#
#
# Elastic Compliance Matrix: (Units=1/GPa)
#
#
# Indices 1 2 3 4 5 6 
#
# 1 0.037471 -0.000378 0.001299 0.000000 0.000000 0.000000
# 2 -0.000378 0.007561 -0.005172 0.000000 0.000000 0.000000
# 3 0.001299 -0.005172 0.010544 0.000000 0.000000 0.000000
# 4 0.000000 0.000000 0.000000 0.007676 0.000000 0.000000
# 5 0.000000 0.000000 0.000000 0.000000 0.047274 0.000000
# 6 0.000000 0.000000 0.000000 0.000000 0.000000 0.133484
#
#
# Mechanical properties :
#
#
# Convention : Reuss Voigt Hill
#
# Bulk Modulus (GPa) = 21.24292 61.57574 41.40933
# Shear Modulus (GPa) = 18.64251 50.23468 34.43860
#
# Velocity S-wave (km/s) = 3.05736 5.01875 4.15544
# Velocity P-wave (km/s) = 4.80776 8.02858 6.61712
#
# Compressibility (1/GPa) = 0.04707450
#
# Stress axis : x y z
#
# Youngs Moduli (GPa) = 26.68726 132.25305 94.83724
#
# Poissons Ratio (x) = 0.05003 -0.12323
# Poissons Ratio (y) = 0.01010 0.49052
# Poissons Ratio (z) = -0.03468 0.68404
#
# Static dielectric constant tensor:
#      x y z
#    x 1.732620 0.000000 0.000000 
#    y 0.000000 1.722240 0.000000 
#    z 0.000000 0.000000 1.676230 
# 
# From -- ./inp_files/26503.got.cif
#   From: 2010.05.17/outbox.cif.g08.bks.cpg/sg47_14_cif.got.tgz:26503.got - 2010.06.03 20:15:42.
