data_PCOD9384294
_publ_section_title
;
Structure prediction by ZEFSAII (Michael W. Deem and Ramdas Pophale) SiO2 
 PCOD9384294
Probable space group: P M M M
;
_chemical_formula_sum "Si O2"
_cell_formula_units_Z 52
_cell_length_a 18.669833
_cell_length_b 16.610624
_cell_length_c 7.426647
_cell_angle_alpha 90.000000
_cell_angle_beta 90.000000
_cell_angle_gamma 90.000000
_cell_volume 2303.133766
_symmetry_space_group_name_H-M "P M M M"
_symmetry_group_IT_number 47
_symmetry_cell_setting 'orthorhombic'
loop_
_space_group_symop_operation_xyz
x,y,z
-x,-y,z
x,-y,-z
-x,y,-z
-x,-y,-z
x,y,-z
-x,y,z
x,-y,z
loop_
_atom_site_type_symbol
_atom_site_label
_atom_site_fract_x
_atom_site_fract_y
_atom_site_fract_z
Si Si1 0.848889 0.908413 0.220366
Si Si2 0.577673 0.744605 0.208035
Si Si3 0.580497 0.000000 0.218153
Si Si4 0.689771 0.137932 0.781709
Si Si5 0.814224 0.591647 0.715552
Si Si6 0.080099 0.258613 0.784732
Si Si7 0.651989 0.591293 0.717227
O O1 0.767413 0.889464 0.280711
O O2 0.893377 0.829642 0.279645
O O3 0.869266 0.000000 0.275946
O O4 0.850711 0.909546 0.000000
O O5 0.500000 0.765967 0.287782
O O6 0.652303 0.780332 0.282070
O O7 0.591761 0.650547 0.213110
O O8 0.574523 0.772172 0.000000
O O9 0.628032 0.924440 0.269232
O O10 0.500000 0.000000 0.286216
O O11 0.576925 0.000000 0.000000
O O12 0.697627 0.139124 0.000000
O O13 0.810626 0.586211 0.500000
O O14 0.834141 0.500000 0.778449
O O15 0.867138 0.665901 0.753214
O O16 0.733363 0.610335 0.779731
O O17 0.000000 0.275736 0.717034
O O18 0.076847 0.250939 0.000000
O O19 0.651402 0.596208 0.500000
O O20 0.638098 0.500000 0.769157
#
# Coordination Sequence:
#
# PCOD9384294 Si02
#       7
#     8   8   4   8   8   8   8
#     4   9  16  28  47  70  98 136 180 217 252 301
#     4  10  20  31  45  71 106 138 168 207 256 305
#     4   9  14  20  34  58  90 124 154 191 241 289
#     4   9  15  25  41  64  94 128 165 204 244 289
#     4   9  19  37  59  80 102 132 172 215 260 314
#     4  10  21  34  50  78 112 141 170 208 256 309
#     4   9  19  36  55  73  94 125 169 215 254 299
#
# _framework density 22.577932000000001
#
# number of rings (size 3 to 8) (size 9 to 14) (size 15 to 20)
#    0.000    2.692    0.769    2.308    0.000    5.846 
#    0.000    6.154    0.000    0.462    0.000    1.615 
#    0.000    1.846    0.000    0.000    0.000    0.000 
#
# Total GULP energy -289939.536220 kJ/mol
# GULP energy per Si atom -5575.760312 kJ/mol
# Density = 2.252654 g / cm^3
# Si number density = 22.577932 Si / 1000 Ang^3
#
#
#
# Elastic Constant Matrix: (Units=GPa)
#
#
# Indices 1 2 3 4 5 6 
#
# 1 37.6876 32.6237 -0.8807 0.0000 0.0000 0.0000
# 2 32.6237 122.8943 -2.6070 0.0000 0.0000 0.0000
# 3 -0.8807 -2.6070 69.3436 0.0000 0.0000 0.0000
# 4 0.0000 0.0000 0.0000 25.0899 0.0000 0.0000
# 5 0.0000 0.0000 0.0000 0.0000 -23.2555 0.0000
# 6 0.0000 0.0000 0.0000 0.0000 0.0000 37.3610
#
#
#
# Elastic Compliance Matrix: (Units=1/GPa)
#
#
# Indices 1 2 3 4 5 6 
#
# 1 0.034451 -0.009143 0.000094 0.000000 0.000000 0.000000
# 2 -0.009143 0.010570 0.000281 0.000000 0.000000 0.000000
# 3 0.000094 0.000281 0.014433 0.000000 0.000000 0.000000
# 4 0.000000 0.000000 0.000000 0.039857 0.000000 0.000000
# 5 0.000000 0.000000 0.000000 0.000000 -0.043001 0.000000
# 6 0.000000 0.000000 0.000000 0.000000 0.000000 0.026766
#
#
# Mechanical properties :
#
#
# Convention : Reuss Voigt Hill
#
# Bulk Modulus (GPa) = 23.85653 32.02195 27.93924
# Shear Modulus (GPa) = 43.63572 21.22505 32.43038
#
# Velocity S-wave (km/s) = 4.40098 3.06940 3.79407
# Velocity P-wave (km/s) = 6.03441 5.17448 5.62092
#
# Compressibility (1/GPa) = 0.04191724
#
# Stress axis : x y z
#
# Youngs Moduli (GPa) = 29.02674 94.60493 69.28710
#
# Poissons Ratio (x) = 0.86501 -0.00650
# Poissons Ratio (y) = 0.26540 -0.01949
# Poissons Ratio (z) = -0.00272 -0.02661
#
# Static dielectric constant tensor:
#      x y z
#    x 1.816330 0.000000 0.000000 
#    y 0.000000 1.937840 0.000000 
#    z 0.000000 0.000000 1.745870 
# 
# From -- ./inp_files/10974.got.cif
#   From: 2010.05.17/outbox.cif.g08.bks.cpg/sg47_6_cif.got.tgz:10974.got - 2010.06.03 20:15:42.
