data_PCOD9384262
_publ_section_title
;
Structure prediction by ZEFSAII (Michael W. Deem and Ramdas Pophale) SiO2 
 PCOD9384262
Probable space group: P M M M
;
_chemical_formula_sum "Si O2"
_cell_formula_units_Z 56
_cell_length_a 7.961638
_cell_length_b 15.306785
_cell_length_c 23.875358
_cell_angle_alpha 90.000000
_cell_angle_beta 90.000000
_cell_angle_gamma 90.000000
_cell_volume 2909.620190
_symmetry_space_group_name_H-M "P M M M"
_symmetry_group_IT_number 47
_symmetry_cell_setting 'orthorhombic'
loop_
_space_group_symop_operation_xyz
x,y,z
-x,-y,z
x,-y,-z
-x,y,-z
-x,-y,-z
x,y,-z
-x,y,z
x,-y,z
loop_
_atom_site_type_symbol
_atom_site_label
_atom_site_fract_x
_atom_site_fract_y
_atom_site_fract_z
Si Si1 0.298300 0.401123 0.711347
Si Si2 0.205128 0.902246 0.888222
Si Si3 0.702148 0.400242 0.162861
Si Si4 0.797848 0.276099 0.061117
Si Si5 0.702344 0.097742 0.564157
Si Si6 0.795213 0.901031 0.759346
Si Si7 0.199182 0.225018 0.337622
O O1 0.500000 0.405148 0.713654
O O2 0.238254 0.500000 0.698995
O O3 0.237828 0.376209 0.774345
O O4 0.253189 0.325080 0.668481
O O5 0.262476 0.822219 0.926000
O O6 0.255428 0.885214 0.823607
O O7 0.000000 0.902994 0.889229
O O8 0.259999 0.000000 0.904060
O O9 0.500000 0.400260 0.164533
O O10 0.757771 0.500000 0.152191
O O11 0.754308 0.337092 0.113212
O O12 0.000000 0.273123 0.059012
O O13 0.736587 0.306205 0.000000
O O14 0.758755 0.111993 0.500000
O O15 0.500000 0.095726 0.563564
O O16 0.754885 0.173033 0.606445
O O17 0.760624 0.000000 0.581785
O O18 0.730885 0.830806 0.715062
O O19 0.000000 0.899304 0.758919
O O20 0.744893 0.000000 0.743876
O O21 0.000000 0.223819 0.332850
#
# Coordination Sequence:
#
# PCOD9384262 Si02
#       7
#     8   8   8   8   8   8   8
#     4   9  19  36  55  74  98 129 166 208 253 305
#     4   8  14  26  43  62  89 125 159 191 231 284
#     4   9  19  36  55  72  92 123 162 202 247 300
#     4  10  20  31  45  69  97 123 157 203 251 298
#     4   9  19  36  55  75 105 148 191 221 245 282
#     4   8  14  24  39  64  97 127 154 188 236 293
#     4  11  20  29  49  80 110 137 165 205 258 308
#
# _framework density 19.246499
#
# number of rings (size 3 to 8) (size 9 to 14) (size 15 to 20)
#    0.000    2.857    0.000    3.857    0.000    4.286 
#    0.000    5.000    0.000    0.857    0.000    8.000 
#    0.000    0.000    0.000    0.000    0.000    0.000 
#
# Total GULP energy -312297.495755 kJ/mol
# GULP energy per Si atom -5576.740996 kJ/mol
# Density = 1.920269 g / cm^3
# Si number density = 19.246499 Si / 1000 Ang^3
#
#
#
# Elastic Constant Matrix: (Units=GPa)
#
#
# Indices 1 2 3 4 5 6 
#
# 1 17.5044 13.0036 10.8287 0.0000 0.0000 0.0000
# 2 13.0036 135.0513 86.6320 0.0000 0.0000 0.0000
# 3 10.8287 86.6320 86.6305 0.0000 0.0000 0.0000
# 4 0.0000 0.0000 0.0000 19.9451 0.0000 0.0000
# 5 0.0000 0.0000 0.0000 0.0000 18.7899 0.0000
# 6 0.0000 0.0000 0.0000 0.0000 0.0000 4.4146
#
#
#
# Elastic Compliance Matrix: (Units=1/GPa)
#
#
# Indices 1 2 3 4 5 6 
#
# 1 0.062293 -0.002798 -0.004989 0.000000 0.000000 0.000000
# 2 -0.002798 0.020779 -0.020430 0.000000 0.000000 0.000000
# 3 -0.004989 -0.020430 0.032597 0.000000 0.000000 0.000000
# 4 0.000000 0.000000 0.000000 0.050138 0.000000 0.000000
# 5 0.000000 0.000000 0.000000 0.000000 0.053220 0.000000
# 6 0.000000 0.000000 0.000000 0.000000 0.000000 0.226521
#
#
# Mechanical properties :
#
#
# Convention : Reuss Voigt Hill
#
# Bulk Modulus (GPa) = 16.88146 51.12388 34.00267
# Shear Modulus (GPa) = 9.58356 17.21138 13.39747
#
# Velocity S-wave (km/s) = 2.23387 2.99366 2.64123
# Velocity P-wave (km/s) = 3.92986 6.21045 5.19680
#
# Compressibility (1/GPa) = 0.05923659
#
# Stress axis : x y z
#
# Youngs Moduli (GPa) = 16.05315 48.12494 30.67755
#
# Poissons Ratio (x) = 0.13465 0.15304
# Poissons Ratio (y) = 0.04491 0.62674
# Poissons Ratio (z) = 0.08008 0.98319
#
# Static dielectric constant tensor:
#      x y z
#    x 1.705160 0.000000 0.000000 
#    y 0.000000 1.686690 0.000000 
#    z 0.000000 0.000000 1.669330 
# 
# From -- ./inp_files/21564.got.cif
#   From: 2010.05.17/outbox.cif.g08.bks.cpg/sg47_11_cif.got.tgz:21564.got - 2010.06.03 20:15:42.
