data_PCOD9384731
_publ_section_title
;
Structure prediction by ZEFSAII (Michael W. Deem and Ramdas Pophale) SiO2 
 PCOD9384731
Probable space group: P M M M
;
_chemical_formula_sum "Si O2"
_cell_formula_units_Z 44
_cell_length_a 9.289131
_cell_length_b 7.406344
_cell_length_c 30.923357
_cell_angle_alpha 90.000000
_cell_angle_beta 90.000000
_cell_angle_gamma 90.000000
_cell_volume 2127.480566
_symmetry_space_group_name_H-M "P M M M"
_symmetry_group_IT_number 47
_symmetry_cell_setting 'orthorhombic'
loop_
_space_group_symop_operation_xyz
x,y,z
-x,-y,z
x,-y,-z
-x,y,-z
-x,-y,-z
x,y,-z
-x,y,z
x,-y,z
loop_
_atom_site_type_symbol
_atom_site_label
_atom_site_fract_x
_atom_site_fract_y
_atom_site_fract_z
Si Si1 0.165333 0.719598 0.802662
Si Si2 0.838694 0.713456 0.365918
Si Si3 0.329568 0.716232 0.109603
Si Si4 0.335676 0.782818 0.451830
Si Si5 0.665197 0.720941 0.282874
Si Si6 0.170355 0.000000 0.948423
O O1 0.162963 0.500000 0.801767
O O2 0.257893 0.769370 0.844635
O O3 0.241818 0.777985 0.758481
O O4 0.000000 0.780299 0.805625
O O5 0.849979 0.500000 0.357845
O O6 0.766841 0.733378 0.412652
O O7 0.738104 0.783526 0.327424
O O8 0.000000 0.788857 0.364897
O O9 0.500000 0.755339 0.109674
O O10 0.311941 0.500000 0.104258
O O11 0.247569 0.827164 0.072832
O O12 0.291591 0.721166 0.500000
O O13 0.500000 0.720533 0.443944
O O14 0.339473 0.000000 0.453033
O O15 0.500000 0.778898 0.279646
O O16 0.663766 0.500000 0.282808
O O17 0.000000 0.000000 0.938164
O O18 0.186702 0.000000 0.000000
#
# Coordination Sequence:
#
# PCOD9384731 Si02
#       6
#     8   8   8   8   8   4
#     4   9  16  28  50  80 113 148 186 228 275 330
#     4  10  20  32  48  74 106 136 168 210 261 317
#     4  10  21  38  62  91 122 159 204 251 300 358
#     4   9  19  36  55  72  92 124 167 212 260 317
#     4   9  16  27  46  73 105 141 180 219 263 319
#     4  11  25  43  63  89 123 163 205 253 308 361
#
# _framework density 20.681740000000001
#
# number of rings (size 3 to 8) (size 9 to 14) (size 15 to 20)
#    0.000    2.455    0.000    3.000    0.000    8.727 
#    0.000    4.545    2.000    0.000    0.000    0.000 
#    0.000    0.000    0.000    0.000    0.000    0.000 
#
# Total GULP energy -245825.245065 kJ/mol
# GULP energy per Si atom -5586.937388 kJ/mol
# Density = 2.063467 g / cm^3
# Si number density = 20.681740 Si / 1000 Ang^3
#
#
#
# Elastic Constant Matrix: (Units=GPa)
#
#
# Indices 1 2 3 4 5 6 
#
# 1 205.4745 34.5854 122.0873 0.0000 0.0000 0.0000
# 2 34.5854 73.5785 25.7175 0.0000 0.0000 0.0000
# 3 122.0873 25.7175 165.3926 0.0000 0.0000 0.0000
# 4 0.0000 0.0000 0.0000 40.4069 0.0000 0.0000
# 5 0.0000 0.0000 0.0000 0.0000 40.9293 0.0000
# 6 0.0000 0.0000 0.0000 0.0000 0.0000 -84.0359
#
#
#
# Elastic Compliance Matrix: (Units=1/GPa)
#
#
# Indices 1 2 3 4 5 6 
#
# 1 0.008940 -0.002005 -0.006288 0.000000 0.000000 0.000000
# 2 -0.002005 0.014822 -0.000825 0.000000 0.000000 0.000000
# 3 -0.006288 -0.000825 0.010816 0.000000 0.000000 0.000000
# 4 0.000000 0.000000 0.000000 0.024748 0.000000 0.000000
# 5 0.000000 0.000000 0.000000 0.000000 0.024432 0.000000
# 6 0.000000 0.000000 0.000000 0.000000 0.000000 -0.011900
#
#
# Mechanical properties :
#
#
# Convention : Reuss Voigt Hill
#
# Bulk Modulus (GPa) = 61.18758 89.91396 75.55077
# Shear Modulus (GPa) = 52.33392 16.93041 34.63217
#
# Velocity S-wave (km/s) = 5.03581 2.86425 4.09654
# Velocity P-wave (km/s) = 7.96630 7.38295 7.68017
#
# Compressibility (1/GPa) = 0.01634319
#
# Stress axis : x y z
#
# Youngs Moduli (GPa) = 111.85546 67.46946 92.45756
#
# Poissons Ratio (x) = 0.13525 0.58133
# Poissons Ratio (y) = 0.22423 0.07627
# Poissons Ratio (z) = 0.70330 0.05566
#
# Static dielectric constant tensor:
#      x y z
#    x 1.704670 0.000000 0.000000 
#    y 0.000000 1.787580 0.000000 
#    z 0.000000 0.000000 1.692470 
# 
# From -- ./inp_files/33888.got.cif
#   From: 2010.05.17/outbox.cif.g08.bks.cpg/sg47_17_cif.got.tgz:33888.got - 2010.06.03 20:15:42.
