data_PCOD9384614
_publ_section_title
;
Structure prediction by ZEFSAII (Michael W. Deem and Ramdas Pophale) SiO2 
 PCOD9384614
Probable space group: P M M M
;
_chemical_formula_sum "Si O2"
_cell_formula_units_Z 40
_cell_length_a 8.110725
_cell_length_b 9.070889
_cell_length_c 28.451571
_cell_angle_alpha 90.000000
_cell_angle_beta 90.000000
_cell_angle_gamma 90.000000
_cell_volume 2093.224363
_symmetry_space_group_name_H-M "P M M M"
_symmetry_group_IT_number 47
_symmetry_cell_setting 'orthorhombic'
loop_
_space_group_symop_operation_xyz
x,y,z
-x,-y,z
x,-y,-z
-x,y,-z
-x,-y,-z
x,y,-z
-x,y,z
x,-y,z
loop_
_atom_site_type_symbol
_atom_site_label
_atom_site_fract_x
_atom_site_fract_y
_atom_site_fract_z
Si Si1 0.695999 0.331725 0.303992
Si Si2 0.199514 0.828389 0.601658
Si Si3 0.000000 0.173685 0.943819
Si Si4 0.195332 0.820650 0.500000
Si Si5 0.189945 0.677967 0.204037
Si Si6 0.684489 0.321471 0.104483
O O1 0.500000 0.335086 0.298289
O O2 0.758149 0.500000 0.307977
O O3 0.739357 0.251650 0.352084
O O4 0.767049 0.264109 0.255808
O O5 0.261110 0.770112 0.550716
O O6 0.000000 0.821066 0.600948
O O7 0.246232 0.000000 0.604633
O O8 0.164557 0.249004 0.923128
O O9 0.000000 0.000000 0.932089
O O10 0.000000 0.189579 0.000000
O O11 0.000000 0.786304 0.500000
O O12 0.207366 0.000000 0.500000
O O13 0.209324 0.500000 0.207279
O O14 0.297039 0.723638 0.159371
O O15 0.000000 0.709806 0.192977
O O16 0.500000 0.283416 0.087663
O O17 0.701393 0.500000 0.102291
#
# Coordination Sequence:
#
# PCOD9384614 Si02
#       6
#     8   8   4   4   8   8
#     4  10  20  32  47  72 106 140 172 208 257 320
#     4   9  17  31  51  72  93 122 165 216 266 316
#     4  11  25  43  61  85 123 167 203 238 287 348
#     4   7  12  26  48  69  88 116 160 213 264 313
#     4   9  16  30  55  83 109 139 177 224 276 328
#     4  10  20  37  64  94 120 150 196 251 297 339
#
# _framework density 19.109275
#
# number of rings (size 3 to 8) (size 9 to 14) (size 15 to 20)
#    0.000    2.600    1.000    2.700    0.000    5.600 
#    0.000    4.000    0.000    7.200    0.000    0.000 
#    0.000    0.000    0.000    0.000    0.000    0.000 
#
# Total GULP energy -222910.085380 kJ/mol
# GULP energy per Si atom -5572.752134 kJ/mol
# Density = 1.906578 g / cm^3
# Si number density = 19.109275 Si / 1000 Ang^3
#
#
#
# Elastic Constant Matrix: (Units=GPa)
#
#
# Indices 1 2 3 4 5 6 
#
# 1 79.7167 32.1453 60.9321 0.0000 0.0000 0.0000
# 2 32.1453 25.9893 36.9124 0.0000 0.0000 0.0000
# 3 60.9321 36.9124 110.2613 0.0000 0.0000 0.0000
# 4 0.0000 0.0000 0.0000 32.0019 0.0000 0.0000
# 5 0.0000 0.0000 0.0000 0.0000 -1.0654 0.0000
# 6 0.0000 0.0000 0.0000 0.0000 0.0000 12.0792
#
#
#
# Elastic Compliance Matrix: (Units=1/GPa)
#
#
# Indices 1 2 3 4 5 6 
#
# 1 0.027838 -0.023988 -0.007353 0.000000 0.000000 0.000000
# 2 -0.023988 0.094027 -0.018221 0.000000 0.000000 0.000000
# 3 -0.007353 -0.018221 0.019233 0.000000 0.000000 0.000000
# 4 0.000000 0.000000 0.000000 0.031248 0.000000 0.000000
# 5 0.000000 0.000000 0.000000 0.000000 -0.938597 0.000000
# 6 0.000000 0.000000 0.000000 0.000000 0.000000 0.082787
#
#
# Mechanical properties :
#
#
# Convention : Reuss Voigt Hill
#
# Bulk Modulus (GPa) = 23.82508 52.88297 38.35403
# Shear Modulus (GPa) = -8.76658 14.33498 2.78420
#
# Velocity S-wave (km/s) = -2.14419 2.74187 1.20837
# Velocity P-wave (km/s) = 2.52285 6.14474 4.69695
#
# Compressibility (1/GPa) = 0.04197257
#
# Stress axis : x y z
#
# Youngs Moduli (GPa) = 35.92218 10.63521 51.99451
#
# Poissons Ratio (x) = 0.25512 0.38232
# Poissons Ratio (y) = 0.86171 0.94741
# Poissons Ratio (z) = 0.26414 0.19379
#
# Static dielectric constant tensor:
#      x y z
#    x 1.673990 0.000000 0.000000 
#    y 0.000000 1.656880 0.000000 
#    z 0.000000 0.000000 1.702490 
# 
# From -- ./inp_files/32997.got.cif
#   From: 2010.05.17/outbox.cif.g08.bks.cpg/sg47_17_cif.got.tgz:32997.got - 2010.06.03 20:15:42.
