data_PCOD9384072
_publ_section_title
;
Structure prediction by ZEFSAII (Michael W. Deem and Ramdas Pophale) SiO2 
 PCOD9384072
Probable space group: P M M M
;
_chemical_formula_sum "Si O2"
_cell_formula_units_Z 29
_cell_length_a 7.513161
_cell_length_b 13.052856
_cell_length_c 14.606848
_cell_angle_alpha 90.000000
_cell_angle_beta 90.000000
_cell_angle_gamma 90.000000
_cell_volume 1432.467417
_symmetry_space_group_name_H-M "P M M M"
_symmetry_group_IT_number 47
_symmetry_cell_setting 'orthorhombic'
loop_
_space_group_symop_operation_xyz
x,y,z
-x,-y,z
x,-y,-z
-x,y,-z
-x,-y,-z
x,y,-z
-x,y,z
x,-y,z
loop_
_atom_site_type_symbol
_atom_site_label
_atom_site_fract_x
_atom_site_fract_y
_atom_site_fract_z
Si Si1 0.209053 0.616161 0.800455
Si Si2 0.783174 0.881815 0.500000
Si Si3 0.702381 0.000000 0.836167
Si Si4 0.712292 0.617638 0.000000
Si Si5 0.783148 0.187523 0.300614
Si Si6 0.000000 0.000000 0.000000
O O1 0.284941 0.500000 0.798035
O O2 0.226351 0.660631 0.903542
O O3 0.282139 0.701732 0.733344
O O4 0.000000 0.606504 0.781479
O O5 0.724689 0.833595 0.595736
O O6 0.000000 0.878277 0.500000
O O7 0.730189 0.000000 0.500000
O O8 0.727718 0.098670 0.769743
O O9 0.500000 0.000000 0.871046
O O10 0.844153 0.000000 0.918279
O O11 0.779218 0.500000 0.000000
O O12 0.500000 0.617198 0.000000
O O13 0.000000 0.187530 0.299557
#
# Coordination Sequence:
#
# PCOD9384072 Si02
#       6
#     8   4   4   4   8   1
#     4   9  18  32  53  80 114 157 201 246 302 364
#     4   9  16  30  61  87 109 158 213 252 310 376
#     4  12  25  42  66  93 122 165 211 251 304 374
#     4   9  17  30  49  72 101 143 193 239 282 341
#     4  10  19  37  60  86 122 160 204 259 313 362
#     4  12  26  48  64  88 138 168 198 248 324 374
#
# _framework density 20.244789000000001
#
# number of rings (size 3 to 8) (size 9 to 14) (size 15 to 20)
#    0.000    2.207    2.759    0.621    0.000    3.862 
#    0.000    2.069    0.000    4.138    0.000    0.000 
#    0.000    6.621    0.000    0.000    0.000    0.000 
#
# Total GULP energy -161529.416248 kJ/mol
# GULP energy per Si atom -5569.979871 kJ/mol
# Density = 2.019871 g / cm^3
# Si number density = 20.244789 Si / 1000 Ang^3
#
#
#
# Elastic Constant Matrix: (Units=GPa)
#
#
# Indices 1 2 3 4 5 6 
#
# 1 100.9440 15.7182 29.5648 0.0000 0.0000 0.0000
# 2 15.7182 127.7610 97.5149 0.0000 0.0000 0.0000
# 3 29.5648 97.5149 203.2754 0.0000 0.0000 0.0000
# 4 0.0000 0.0000 0.0000 26.4403 0.0000 0.0000
# 5 0.0000 0.0000 0.0000 0.0000 -751.1587 0.0000
# 6 0.0000 0.0000 0.0000 0.0000 0.0000 -3.1052
#
#
#
# Elastic Compliance Matrix: (Units=1/GPa)
#
#
# Indices 1 2 3 4 5 6 
#
# 1 0.010350 -0.000196 -0.001411 0.000000 0.000000 0.000000
# 2 -0.000196 0.012352 -0.005897 0.000000 0.000000 0.000000
# 3 -0.001411 -0.005897 0.007954 0.000000 0.000000 0.000000
# 4 0.000000 0.000000 0.000000 0.037821 0.000000 0.000000
# 5 0.000000 0.000000 0.000000 0.000000 -0.001331 0.000000
# 6 0.000000 0.000000 0.000000 0.000000 0.000000 -0.322041
#
#
# Mechanical properties :
#
#
# Convention : Reuss Voigt Hill
#
# Bulk Modulus (GPa) = 63.90938 79.73069 71.82003
# Shear Modulus (GPa) = -21.30647 -126.28589 -73.79618
#
# Velocity S-wave (km/s) = -3.24766 -7.90663 -6.04409
# Velocity P-wave (km/s) = 4.19211 6.62453 3.62702
#
# Compressibility (1/GPa) = 0.01564715
#
# Stress axis : x y z
#
# Youngs Moduli (GPa) = 96.61492 80.95700 125.72908
#
# Poissons Ratio (x) = 0.01589 0.17743
# Poissons Ratio (y) = 0.01896 0.74143
# Poissons Ratio (z) = 0.13635 0.47741
#
# Static dielectric constant tensor:
#      x y z
#    x 1.738570 0.000000 0.000000 
#    y 0.000000 1.734880 0.000000 
#    z 0.000000 0.000000 1.754560 
# 
# From -- ./inp_files/14662.got.cif
#   From: 2010.05.17/outbox.cif.g08.bks.cpg/sg47_8_cif.got.tgz:14662.got - 2010.06.03 20:15:42.
