data_PCOD9384822
_publ_section_title
;
Structure prediction by ZEFSAII (Michael W. Deem and Ramdas Pophale) SiO2 
 PCOD9384822
Probable space group: P M M M
;
_chemical_formula_sum "Si O2"
_cell_formula_units_Z 52
_cell_length_a 23.332878
_cell_length_b 15.005878
_cell_length_c 8.908386
_cell_angle_alpha 90.000000
_cell_angle_beta 90.000000
_cell_angle_gamma 90.000000
_cell_volume 3119.096047
_symmetry_space_group_name_H-M "P M M M"
_symmetry_group_IT_number 47
_symmetry_cell_setting 'orthorhombic'
loop_
_space_group_symop_operation_xyz
x,y,z
-x,-y,z
x,-y,-z
-x,y,-z
-x,-y,-z
x,y,-z
-x,y,z
x,-y,z
loop_
_atom_site_type_symbol
_atom_site_label
_atom_site_fract_x
_atom_site_fract_y
_atom_site_fract_z
Si Si1 0.165432 0.106431 0.173943
Si Si2 0.608347 0.208925 0.181048
Si Si3 0.933111 0.219001 0.678027
Si Si4 0.286257 0.894857 0.320883
Si Si5 0.930560 0.401533 0.173455
Si Si6 0.500000 0.894077 0.680342
Si Si7 0.566981 0.401044 0.182240
O O1 0.109323 0.152430 0.239618
O O2 0.222588 0.129757 0.266110
O O3 0.158780 0.000000 0.183092
O O4 0.173312 0.131099 0.000000
O O5 0.666419 0.164800 0.240043
O O6 0.555611 0.153051 0.249496
O O7 0.600875 0.312596 0.228604
O O8 0.605716 0.204845 0.000000
O O9 0.929685 0.207312 0.500000
O O10 0.914597 0.318956 0.723725
O O11 0.000000 0.207336 0.723036
O O12 0.290939 0.885793 0.500000
O O13 0.295332 0.000000 0.283664
O O14 0.910371 0.500000 0.220136
O O15 0.000000 0.404405 0.174722
O O16 0.913404 0.386260 0.000000
O O17 0.500000 0.883295 0.500000
O O18 0.500000 0.000000 0.712542
O O19 0.500000 0.390376 0.225098
O O20 0.586168 0.500000 0.232991
O O21 0.568270 0.402246 0.000000
#
# Coordination Sequence:
#
# PCOD9384822 Si02
#       7
#     8   8   8   8   8   4   8
#     4  10  21  37  56  76  98 129 173 220 259 301
#     4  11  20  32  53  79 102 130 170 213 253 294
#     4  10  20  32  49  76 108 139 169 206 257 314
#     4  10  21  37  55  74 100 135 169 204 254 314
#     4   8  14  26  45  69  98 132 168 205 245 292
#     4  11  23  35  46  67 104 142 169 201 252 305
#     4   8  14  27  48  74 103 133 167 207 251 298
#
# _framework density 16.671496999999999
#
# number of rings (size 3 to 8) (size 9 to 14) (size 15 to 20)
#    0.000    2.385    0.769    3.462    0.000    5.846 
#    0.000    3.077    0.000    3.231    0.000    2.154 
#    0.000    0.000    0.000    0.000    0.000    0.000 
#
# Total GULP energy -289895.645564 kJ/mol
# GULP energy per Si atom -5574.916261 kJ/mol
# Density = 1.663355 g / cm^3
# Si number density = 16.671497 Si / 1000 Ang^3
#
#
#
# Elastic Constant Matrix: (Units=GPa)
#
#
# Indices 1 2 3 4 5 6 
#
# 1 82.7750 60.5710 34.4704 0.0000 0.0000 0.0000
# 2 60.5710 103.2719 46.1544 0.0000 0.0000 0.0000
# 3 34.4704 46.1544 52.3896 0.0000 0.0000 0.0000
# 4 0.0000 0.0000 0.0000 17.4522 0.0000 0.0000
# 5 0.0000 0.0000 0.0000 0.0000 28.7377 0.0000
# 6 0.0000 0.0000 0.0000 0.0000 0.0000 -0.9228
#
#
#
# Elastic Compliance Matrix: (Units=1/GPa)
#
#
# Indices 1 2 3 4 5 6 
#
# 1 0.021966 -0.010596 -0.005118 0.000000 0.000000 0.000000
# 2 -0.010596 0.021083 -0.011602 0.000000 0.000000 0.000000
# 3 -0.005118 -0.011602 0.032676 0.000000 0.000000 0.000000
# 4 0.000000 0.000000 0.000000 0.057299 0.000000 0.000000
# 5 0.000000 0.000000 0.000000 0.000000 0.034798 0.000000
# 6 0.000000 0.000000 0.000000 0.000000 0.000000 -1.083650
#
#
# Mechanical properties :
#
#
# Convention : Reuss Voigt Hill
#
# Bulk Modulus (GPa) = 47.40797 57.86978 52.63887
# Shear Modulus (GPa) = -5.85368 15.53613 4.84123
#
# Velocity S-wave (km/s) = -1.87585 3.05601 1.70593
# Velocity P-wave (km/s) = 4.87919 6.87310 5.96012
#
# Compressibility (1/GPa) = 0.02109350
#
# Stress axis : x y z
#
# Youngs Moduli (GPa) = 45.52491 47.43072 30.60325
#
# Poissons Ratio (x) = 0.50259 0.15662
# Poissons Ratio (y) = 0.48240 0.35506
# Poissons Ratio (z) = 0.23298 0.55030
#
# Static dielectric constant tensor:
#      x y z
#    x 1.532760 0.000000 0.000000 
#    y 0.000000 1.576800 0.000000 
#    z 0.000000 0.000000 1.560070 
# 
# From -- ./inp_files/12505.got.cif
#   From: 2010.05.17/outbox.cif.g08.bks.cpg/sg47_7_cif.got.tgz:12505.got - 2010.06.03 20:15:42.
