data_PCOD9384369
_publ_section_title
;
Structure prediction by ZEFSAII (Michael W. Deem and Ramdas Pophale) SiO2 
 PCOD9384369
Probable space group: P M M M
;
_chemical_formula_sum "Si O2"
_cell_formula_units_Z 64
_cell_length_a 14.588504
_cell_length_b 13.523528
_cell_length_c 19.671927
_cell_angle_alpha 90.000000
_cell_angle_beta 90.000000
_cell_angle_gamma 90.000000
_cell_volume 3881.035967
_symmetry_space_group_name_H-M "P M M M"
_symmetry_group_IT_number 47
_symmetry_cell_setting 'orthorhombic'
loop_
_space_group_symop_operation_xyz
x,y,z
-x,-y,z
x,-y,-z
-x,y,-z
-x,-y,-z
x,y,-z
-x,y,z
x,-y,z
loop_
_atom_site_type_symbol
_atom_site_label
_atom_site_fract_x
_atom_site_fract_y
_atom_site_fract_z
Si Si1 0.896245 0.382068 0.073405
Si Si2 0.110342 0.320231 0.576077
Si Si3 0.751229 0.385036 0.315439
Si Si4 0.390292 0.616420 0.081115
Si Si5 0.760134 0.716954 0.828553
Si Si6 0.109383 0.891147 0.374301
Si Si7 0.893399 0.883562 0.788547
Si Si8 0.394822 0.620133 0.424756
O O1 0.899112 0.500000 0.071394
O O2 0.835176 0.350197 0.134700
O O3 0.000000 0.345771 0.079997
O O4 0.859467 0.347424 0.000000
O O5 0.134770 0.355745 0.500000
O O6 0.158255 0.376582 0.637898
O O7 0.140425 0.205578 0.585519
O O8 0.000000 0.325245 0.582085
O O9 0.736293 0.500000 0.297630
O O10 0.750503 0.320816 0.248041
O O11 0.671249 0.347972 0.365304
O O12 0.500000 0.626937 0.092245
O O13 0.366492 0.500000 0.095995
O O14 0.331201 0.691480 0.127623
O O15 0.373592 0.630977 0.000000
O O16 0.812296 0.822669 0.824907
O O17 0.120353 0.874312 0.293249
O O18 0.000000 0.896097 0.386056
O O19 0.147491 0.000000 0.391831
O O20 0.000000 0.851128 0.802385
O O21 0.888663 0.000000 0.804713
O O22 0.365897 0.653198 0.500000
O O23 0.500000 0.649054 0.413997
O O24 0.392043 0.500000 0.425232
#
# Coordination Sequence:
#
# PCOD9384369 Si02
#       8
#     8   8   8   8   8   8   8   8
#     4   9  18  31  46  68  99 132 165 199 235 281
#     4  10  20  32  44  61  91 131 169 201 238 291
#     4  11  22  31  42  67  99 127 158 201 246 292
#     4   9  19  36  56  79 109 142 172 202 241 294
#     4  12  20  30  52  77  99 128 166 209 253 303
#     4   8  14  28  48  66  86 115 156 207 255 291
#     4   9  18  33  52  73 100 133 167 208 261 314
#     4   8  15  30  49  63  80 115 159 197 235 280
#
# _framework density 16.490442000000002
#
# number of rings (size 3 to 8) (size 9 to 14) (size 15 to 20)
#    0.000    2.500    1.250    4.125    0.000    3.250 
#    0.000    3.125    0.000    1.875    0.000    5.250 
#    0.000    0.500    0.000    4.250    0.000    0.625 
#
# Total GULP energy -356290.600849 kJ/mol
# GULP energy per Si atom -5567.040638 kJ/mol
# Density = 1.645291 g / cm^3
# Si number density = 16.490442 Si / 1000 Ang^3
#
#
#
# Elastic Constant Matrix: (Units=GPa)
#
#
# Indices 1 2 3 4 5 6 
#
# 1 77.2985 23.1059 49.9897 0.0000 0.0000 0.0000
# 2 23.1059 45.8271 23.5811 0.0000 0.0000 0.0000
# 3 49.9897 23.5811 91.9926 0.0000 0.0000 0.0000
# 4 0.0000 0.0000 0.0000 21.3307 0.0000 0.0000
# 5 0.0000 0.0000 0.0000 0.0000 22.1209 0.0000
# 6 0.0000 0.0000 0.0000 0.0000 0.0000 16.0023
#
#
#
# Elastic Compliance Matrix: (Units=1/GPa)
#
#
# Indices 1 2 3 4 5 6 
#
# 1 0.021065 -0.005450 -0.010050 0.000000 0.000000 0.000000
# 2 -0.005450 0.026547 -0.003844 0.000000 0.000000 0.000000
# 3 -0.010050 -0.003844 0.017317 0.000000 0.000000 0.000000
# 4 0.000000 0.000000 0.000000 0.046881 0.000000 0.000000
# 5 0.000000 0.000000 0.000000 0.000000 0.045206 0.000000
# 6 0.000000 0.000000 0.000000 0.000000 0.000000 0.062491
#
#
# Mechanical properties :
#
#
# Convention : Reuss Voigt Hill
#
# Bulk Modulus (GPa) = 38.10626 45.38573 41.74600
# Shear Modulus (GPa) = 18.73071 19.78687 19.25879
#
# Velocity S-wave (km/s) = 3.37390 3.46771 3.42113
# Velocity P-wave (km/s) = 6.19159 6.60421 6.40123
#
# Compressibility (1/GPa) = 0.02624241
#
# Stress axis : x y z
#
# Youngs Moduli (GPa) = 47.47117 37.66963 57.74648
#
# Poissons Ratio (x) = 0.20528 0.58037
# Poissons Ratio (y) = 0.25870 0.22195
# Poissons Ratio (z) = 0.47710 0.14478
#
# Static dielectric constant tensor:
#      x y z
#    x 1.576200 0.000000 0.000000 
#    y 0.000000 1.568020 0.000000 
#    z 0.000000 0.000000 1.553080 
# 
# From -- ./inp_files/24089.got.cif
#   From: 2010.05.17/outbox.cif.g08.bks.cpg/sg47_13_cif.got.tgz:24089.got - 2010.06.03 20:15:42.
