data_PCOD9384207
_publ_section_title
;
Structure prediction by ZEFSAII (Michael W. Deem and Ramdas Pophale) SiO2 
 PCOD9384207
Probable space group: P M M M
;
_chemical_formula_sum "Si O2"
_cell_formula_units_Z 64
_cell_length_a 14.291465
_cell_length_b 9.419544
_cell_length_c 29.707131
_cell_angle_alpha 90.000000
_cell_angle_beta 90.000000
_cell_angle_gamma 90.000000
_cell_volume 3999.146745
_symmetry_space_group_name_H-M "P M M M"
_symmetry_group_IT_number 47
_symmetry_cell_setting 'orthorhombic'
loop_
_space_group_symop_operation_xyz
x,y,z
-x,-y,z
x,-y,-z
-x,y,-z
-x,-y,-z
x,y,-z
-x,y,z
x,-y,z
loop_
_atom_site_type_symbol
_atom_site_label
_atom_site_fract_x
_atom_site_fract_y
_atom_site_fract_z
Si Si1 0.612035 0.161816 0.872300
Si Si2 0.391295 0.831066 0.404162
Si Si3 0.286220 0.668850 0.947508
Si Si4 0.895624 0.161759 0.054527
Si Si5 0.391951 0.827004 0.772477
Si Si6 0.108899 0.329181 0.360934
Si Si7 0.725646 0.169518 0.313740
Si Si8 0.775250 0.330178 0.449268
O O1 0.500000 0.156084 0.870504
O O2 0.643100 0.258531 0.913290
O O3 0.640804 0.214719 0.822580
O O4 0.646505 0.000000 0.878916
O O5 0.500000 0.788494 0.406997
O O6 0.349155 0.808225 0.354126
O O7 0.321443 0.747378 0.436782
O O8 0.385965 0.000000 0.413200
O O9 0.289377 0.500000 0.944728
O O10 0.184717 0.728841 0.933557
O O11 0.302965 0.709040 0.000000
O O12 0.000000 0.198264 0.070445
O O13 0.873721 0.000000 0.068677
O O14 0.898837 0.160240 0.000000
O O15 0.500000 0.781004 0.765052
O O16 0.323191 0.783268 0.732557
O O17 0.394085 0.000000 0.772539
O O18 0.115588 0.500000 0.355485
O O19 0.179994 0.251550 0.327021
O O20 0.148777 0.294122 0.410884
O O21 0.000000 0.289086 0.356200
O O22 0.743740 0.000000 0.311483
O O23 0.804786 0.293721 0.500000
O O24 0.761057 0.500000 0.447068
#
# Coordination Sequence:
#
# PCOD9384207 Si02
#       8
#     8   8   8   8   8   8   8   8
#     4   9  18  32  49  68  90 119 156 194 228 264
#     4   9  17  28  43  65  92 120 147 176 217 271
#     4  10  20  31  44  65  94 127 158 189 228 272
#     4   8  14  26  45  67  88 111 143 184 226 265
#     4   8  14  27  49  74  95 115 143 181 224 268
#     4   9  18  32  48  66  90 119 150 187 230 271
#     4   9  16  28  49  73  93 113 141 180 223 269
#     4   9  18  31  45  62  85 116 156 196 229 262
#
# _framework density 16.003413999999999
#
# number of rings (size 3 to 8) (size 9 to 14) (size 15 to 20)
#    0.000    3.125    0.000    1.875    0.000    4.250 
#    0.000    5.625    0.000    2.625    0.000    5.250 
#    0.000    0.000    0.000    0.000    0.000    0.000 
#
# Total GULP energy -356281.449063 kJ/mol
# GULP energy per Si atom -5566.897642 kJ/mol
# Density = 1.596699 g / cm^3
# Si number density = 16.003414 Si / 1000 Ang^3
#
#
#
# Elastic Constant Matrix: (Units=GPa)
#
#
# Indices 1 2 3 4 5 6 
#
# 1 91.1583 28.1893 48.7932 0.0000 0.0000 0.0000
# 2 28.1893 26.0957 37.1006 0.0000 0.0000 0.0000
# 3 48.7932 37.1006 102.2638 0.0000 0.0000 0.0000
# 4 0.0000 0.0000 0.0000 16.4412 0.0000 0.0000
# 5 0.0000 0.0000 0.0000 0.0000 15.9522 0.0000
# 6 0.0000 0.0000 0.0000 0.0000 0.0000 -16.1268
#
#
#
# Elastic Compliance Matrix: (Units=1/GPa)
#
#
# Indices 1 2 3 4 5 6 
#
# 1 0.016900 -0.014026 -0.002975 0.000000 0.000000 0.000000
# 2 -0.014026 0.090781 -0.026242 0.000000 0.000000 0.000000
# 3 -0.002975 -0.026242 0.020719 0.000000 0.000000 0.000000
# 4 0.000000 0.000000 0.000000 0.060823 0.000000 0.000000
# 5 0.000000 0.000000 0.000000 0.000000 0.062687 0.000000
# 6 0.000000 0.000000 0.000000 0.000000 0.000000 -0.062009
#
#
# Mechanical properties :
#
#
# Convention : Reuss Voigt Hill
#
# Bulk Modulus (GPa) = 23.85916 49.74267 36.80092
# Shear Modulus (GPa) = 17.22008 10.28229 13.75119
#
# Velocity S-wave (km/s) = 3.28384 2.53752 2.93450
# Velocity P-wave (km/s) = 5.41473 6.30360 5.87600
#
# Compressibility (1/GPa) = 0.04191262
#
# Stress axis : x y z
#
# Youngs Moduli (GPa) = 59.17326 11.01548 48.26596
#
# Poissons Ratio (x) = 0.15451 0.14358
# Poissons Ratio (y) = 0.82998 1.26662
# Poissons Ratio (z) = 0.17602 0.28907
#
# Static dielectric constant tensor:
#      x y z
#    x 1.529890 0.000000 0.000000 
#    y 0.000000 1.531330 0.000000 
#    z 0.000000 0.000000 1.541250 
# 
# From -- ./inp_files/34710.got.cif
#   From: 2010.05.17/outbox.cif.g08.bks.cpg/sg47_18_cif.got.tgz:34710.got - 2010.06.03 20:15:42.
