data_PCOD9384990
_publ_section_title
;
Structure prediction by ZEFSAII (Michael W. Deem and Ramdas Pophale) SiO2 
 PCOD9384990
Probable space group: P M M M
;
_chemical_formula_sum "Si O2"
_cell_formula_units_Z 64
_cell_length_a 29.304643
_cell_length_b 7.862015
_cell_length_c 14.540562
_cell_angle_alpha 90.000000
_cell_angle_beta 90.000000
_cell_angle_gamma 90.000000
_cell_volume 3350.051594
_symmetry_space_group_name_H-M "P M M M"
_symmetry_group_IT_number 47
_symmetry_cell_setting 'orthorhombic'
loop_
_space_group_symop_operation_xyz
x,y,z
-x,-y,z
x,-y,-z
-x,y,-z
-x,-y,-z
x,y,-z
-x,y,z
x,-y,z
loop_
_atom_site_type_symbol
_atom_site_label
_atom_site_fract_x
_atom_site_fract_y
_atom_site_fract_z
Si Si1 0.444643 0.298999 0.098125
Si Si2 0.948056 0.205482 0.104866
Si Si3 0.359242 0.795915 0.601638
Si Si4 0.860079 0.302228 0.213696
Si Si5 0.551997 0.705556 0.702066
Si Si6 0.772605 0.200090 0.102828
Si Si7 0.275487 0.791438 0.718061
Si Si8 0.186408 0.795316 0.395933
O O1 0.500000 0.290089 0.098717
O O2 0.433068 0.500000 0.097085
O O3 0.431333 0.228562 0.197496
O O4 0.428946 0.224974 0.000000
O O5 0.910270 0.265824 0.175965
O O6 0.000000 0.260393 0.125087
O O7 0.947674 0.000000 0.105060
O O8 0.936872 0.260378 0.000000
O O9 0.347797 0.730924 0.500000
O O10 0.410926 0.754730 0.627726
O O11 0.323493 0.732446 0.677560
O O12 0.354667 0.000000 0.599693
O O13 0.850237 0.500000 0.205288
O O14 0.822739 0.212558 0.148434
O O15 0.851011 0.251444 0.319266
O O16 0.500000 0.763783 0.684909
O O17 0.550333 0.500000 0.707507
O O18 0.738292 0.270511 0.180382
O O19 0.762359 0.000000 0.094977
O O20 0.771156 0.273955 0.000000
O O21 0.234820 0.741036 0.648295
O O22 0.275368 0.000000 0.720616
O O23 0.179728 0.731356 0.500000
O O24 0.187621 0.000000 0.400272
#
# Coordination Sequence:
#
# PCOD9384990 Si02
#       8
#     8   8   8   8   8   8   8   8
#     4   7  10  20  41  65  84 104 134 171 209 251
#     4   9  18  33  52  72  96 131 176 220 254 288
#     4  10  20  33  49  68  92 122 153 189 237 289
#     4  11  21  30  45  73 108 139 164 199 251 303
#     4   9  18  32  49  69  92 118 151 190 227 267
#     4   9  17  31  52  74  97 129 167 201 233 280
#     4   8  15  30  51  73  94 118 153 194 234 278
#     4   9  17  32  55  76  93 121 165 211 248 288
#
# _framework density 19.104182999999999
#
# number of rings (size 3 to 8) (size 9 to 14) (size 15 to 20)
#    0.000    3.000    0.000    4.125    0.000    4.750 
#    0.000    5.000    0.000    4.500    0.000    4.375 
#    0.000    0.000    0.000    0.000    0.000    0.000 
#
# Total GULP energy -356571.575498 kJ/mol
# GULP energy per Si atom -5571.430867 kJ/mol
# Density = 1.906070 g / cm^3
# Si number density = 19.104183 Si / 1000 Ang^3
#
#
#
# Elastic Constant Matrix: (Units=GPa)
#
#
# Indices 1 2 3 4 5 6 
#
# 1 91.7642 0.4712 69.2688 0.0000 0.0000 0.0000
# 2 0.4712 21.2486 9.3485 0.0000 0.0000 0.0000
# 3 69.2688 9.3485 160.1208 0.0000 0.0000 0.0000
# 4 0.0000 0.0000 0.0000 -1.3198 0.0000 0.0000
# 5 0.0000 0.0000 0.0000 0.0000 17.8115 0.0000
# 6 0.0000 0.0000 0.0000 0.0000 0.0000 28.1591
#
#
#
# Elastic Compliance Matrix: (Units=1/GPa)
#
#
# Indices 1 2 3 4 5 6 
#
# 1 0.016345 0.002821 -0.007236 0.000000 0.000000 0.000000
# 2 0.002821 0.048789 -0.004069 0.000000 0.000000 0.000000
# 3 -0.007236 -0.004069 0.009613 0.000000 0.000000 0.000000
# 4 0.000000 0.000000 0.000000 -0.757683 0.000000 0.000000
# 5 0.000000 0.000000 0.000000 0.000000 0.056144 0.000000
# 6 0.000000 0.000000 0.000000 0.000000 0.000000 0.035512
#
#
# Mechanical properties :
#
#
# Convention : Reuss Voigt Hill
#
# Bulk Modulus (GPa) = 17.30699 47.92343 32.61521
# Shear Modulus (GPa) = -9.00816 21.86649 6.42917
#
# Velocity S-wave (km/s) = -2.17383 3.38685 1.83647
# Velocity P-wave (km/s) = 1.66681 6.35878 4.64825
#
# Compressibility (1/GPa) = 0.05778012
#
# Stress axis : x y z
#
# Youngs Moduli (GPa) = 61.18164 20.49626 104.02637
#
# Poissons Ratio (x) = -0.05782 0.75268
# Poissons Ratio (y) = -0.17258 0.42327
# Poissons Ratio (z) = 0.44268 0.08340
#
# Static dielectric constant tensor:
#      x y z
#    x 1.642220 0.000000 0.000000 
#    y 0.000000 1.700500 0.000000 
#    z 0.000000 0.000000 1.718360 
# 
# From -- ./inp_files/25846.got.cif
#   From: 2010.05.17/outbox.cif.g08.bks.cpg/sg47_13_cif.got.tgz:25846.got - 2010.06.03 20:15:42.
