data_PCOD9384715
_publ_section_title
;
Structure prediction by ZEFSAII (Michael W. Deem and Ramdas Pophale) SiO2 
 PCOD9384715
Probable space group: P M M M
;
_chemical_formula_sum "Si O2"
_cell_formula_units_Z 44
_cell_length_a 9.201977
_cell_length_b 8.857146
_cell_length_c 29.486514
_cell_angle_alpha 90.000000
_cell_angle_beta 90.000000
_cell_angle_gamma 90.000000
_cell_volume 2403.246834
_symmetry_space_group_name_H-M "P M M M"
_symmetry_group_IT_number 47
_symmetry_cell_setting 'orthorhombic'
loop_
_space_group_symop_operation_xyz
x,y,z
-x,-y,z
x,-y,-z
-x,y,-z
-x,-y,-z
x,y,-z
-x,y,z
x,-y,z
loop_
_atom_site_type_symbol
_atom_site_label
_atom_site_fract_x
_atom_site_fract_y
_atom_site_fract_z
Si Si1 0.168876 0.182362 0.270194
Si Si2 0.670071 0.319089 0.000000
Si Si3 0.329162 0.679945 0.643748
Si Si4 0.676218 0.822528 0.450223
Si Si5 0.170147 0.817491 0.913052
Si Si6 0.332741 0.816014 0.178909
O O1 0.241241 0.247754 0.315205
O O2 0.254722 0.232783 0.225177
O O3 0.000000 0.224976 0.266962
O O4 0.176798 0.000000 0.272041
O O5 0.748019 0.253729 0.955590
O O6 0.680375 0.500000 0.000000
O O7 0.500000 0.276435 0.000000
O O8 0.500000 0.723364 0.647987
O O9 0.320151 0.500000 0.645763
O O10 0.274897 0.736177 0.594591
O O11 0.727313 0.768999 0.500000
O O12 0.500000 0.810925 0.450856
O O13 0.711393 0.000000 0.446140
O O14 0.245414 0.769999 0.865957
O O15 0.000000 0.777626 0.913254
O O16 0.180278 0.000000 0.916190
O O17 0.500000 0.766309 0.177240
O O18 0.332415 0.000000 0.179221
#
# Coordination Sequence:
#
# PCOD9384715 Si02
#       6
#     8   4   8   8   8   8
#     4  10  20  34  53  76 102 134 172 213 257 305
#     4  11  24  39  54  76 108 145 184 223 262 306
#     4  10  20  32  48  73 104 137 172 210 254 305
#     4   8  14  26  46  72 100 130 166 209 256 305
#     4  10  20  35  57  84 111 139 174 216 262 313
#     4   9  17  31  54  82 108 134 167 211 261 309
#
# _framework density 18.308565999999999
#
# number of rings (size 3 to 8) (size 9 to 14) (size 15 to 20)
#    0.000    2.455    0.000    3.273    0.000    7.636 
#    0.000    2.727    0.000    6.000    0.000    3.818 
#    0.000    0.000    0.000    0.000    0.000    0.000 
#
# Total GULP energy -245510.925963 kJ/mol
# GULP energy per Si atom -5579.793772 kJ/mol
# Density = 1.826689 g / cm^3
# Si number density = 18.308566 Si / 1000 Ang^3
#
#
#
# Elastic Constant Matrix: (Units=GPa)
#
#
# Indices 1 2 3 4 5 6 
#
# 1 140.9987 39.2557 110.4576 0.0000 0.0000 0.0000
# 2 39.2557 13.4535 43.2530 0.0000 0.0000 0.0000
# 3 110.4576 43.2530 218.9992 0.0000 0.0000 0.0000
# 4 0.0000 0.0000 0.0000 -15.0093 0.0000 0.0000
# 5 0.0000 0.0000 0.0000 0.0000 -24.4795 0.0000
# 6 0.0000 0.0000 0.0000 0.0000 0.0000 17.5807
#
#
#
# Elastic Compliance Matrix: (Units=1/GPa)
#
#
# Indices 1 2 3 4 5 6 
#
# 1 0.042822 -0.152072 0.008436 0.000000 0.000000 0.000000
# 2 -0.152072 0.743675 -0.070177 0.000000 0.000000 0.000000
# 3 0.008436 -0.070177 0.014171 0.000000 0.000000 0.000000
# 4 0.000000 0.000000 0.000000 -0.066625 0.000000 0.000000
# 5 0.000000 0.000000 0.000000 0.000000 -0.040850 0.000000
# 6 0.000000 0.000000 0.000000 0.000000 0.000000 0.056880
#
#
# Mechanical properties :
#
#
# Convention : Reuss Voigt Hill
#
# Bulk Modulus (GPa) = 2.68065 84.37602 43.52834
# Shear Modulus (GPa) = 3.84011 7.65073 5.74542
#
# Velocity S-wave (km/s) = 1.44982 2.04642 1.77339
# Velocity P-wave (km/s) = 2.06639 7.19509 5.29336
#
# Compressibility (1/GPa) = 0.37304374
#
# Stress axis : x y z
#
# Youngs Moduli (GPa) = 23.35253 1.34467 70.56534
#
# Poissons Ratio (x) = 0.20449 -0.59532
# Poissons Ratio (y) = 3.55127 4.95205
# Poissons Ratio (z) = -0.19701 0.09436
#
# Static dielectric constant tensor:
#      x y z
#    x 1.615940 0.000000 0.000000 
#    y 0.000000 1.608860 0.000000 
#    z 0.000000 0.000000 1.612720 
# 
# From -- ./inp_files/1993.got.cif
#   From: 2010.05.17/outbox.cif.g08.bks.cpg/sg47_1_cif.got.tgz:1993.got - 2010.06.03 20:15:42.
