data_PCOD9384818
_publ_section_title
;
Structure prediction by ZEFSAII (Michael W. Deem and Ramdas Pophale) SiO2 
 PCOD9384818
Probable space group: P M M M
;
_chemical_formula_sum "Si O2"
_cell_formula_units_Z 48
_cell_length_a 9.460590
_cell_length_b 31.601357
_cell_length_c 7.804917
_cell_angle_alpha 90.000000
_cell_angle_beta 90.000000
_cell_angle_gamma 90.000000
_cell_volume 2333.416383
_symmetry_space_group_name_H-M "P M M M"
_symmetry_group_IT_number 47
_symmetry_cell_setting 'orthorhombic'
loop_
_space_group_symop_operation_xyz
x,y,z
-x,-y,z
x,-y,-z
-x,y,-z
-x,-y,-z
x,y,-z
-x,y,z
x,-y,z
loop_
_atom_site_type_symbol
_atom_site_label
_atom_site_fract_x
_atom_site_fract_y
_atom_site_fract_z
Si Si1 0.839191 0.710955 0.793693
Si Si2 0.339238 0.628048 0.706891
Si Si3 0.836996 0.452347 0.709098
Si Si4 0.338494 0.047943 0.792985
Si Si5 0.159635 0.128850 0.297422
Si Si6 0.659476 0.790318 0.203720
O O1 0.755002 0.668313 0.753510
O O2 0.752545 0.751492 0.726693
O O3 0.000000 0.709814 0.728122
O O4 0.846904 0.714637 0.000000
O O5 0.343944 0.625881 0.500000
O O6 0.500000 0.632421 0.769654
O O7 0.264861 0.584938 0.768765
O O8 0.834933 0.452166 0.500000
O O9 0.797607 0.500000 0.763121
O O10 0.000000 0.444462 0.759888
O O11 0.500000 0.057544 0.737391
O O12 0.230461 0.083474 0.734719
O O13 0.304103 0.000000 0.736963
O O14 0.338899 0.048043 0.000000
O O15 0.152118 0.135373 0.500000
O O16 0.259443 0.165700 0.227217
O O17 0.000000 0.131047 0.226630
O O18 0.500000 0.791508 0.274431
O O19 0.647716 0.783420 0.000000
#
# Coordination Sequence:
#
# PCOD9384818 Si02
#       6
#     8   8   8   8   8   8
#     4  10  21  37  57  79 103 135 174 214 260 313
#     4  10  20  32  49  76 107 138 172 211 258 310
#     4   8  14  26  45  69  98 133 172 213 257 305
#     4   9  19  37  60  84 109 140 181 225 266 311
#     4  11  24  38  53  79 114 147 178 215 261 311
#     4  10  21  38  60  82 103 132 173 218 262 311
#
# _framework density 20.570696999999999
#
# number of rings (size 3 to 8) (size 9 to 14) (size 15 to 20)
#    0.000    2.333    0.000    3.500    0.000    8.333 
#    0.000    4.167    0.000    0.500    0.000    3.500 
#    0.000    0.000    0.000    0.000    0.000    0.000 
#
# Total GULP energy -268076.741795 kJ/mol
# GULP energy per Si atom -5584.932121 kJ/mol
# Density = 2.052388 g / cm^3
# Si number density = 20.570697 Si / 1000 Ang^3
#
#
#
# Elastic Constant Matrix: (Units=GPa)
#
#
# Indices 1 2 3 4 5 6 
#
# 1 208.4159 124.3145 7.4094 0.0000 0.0000 0.0000
# 2 124.3145 156.9627 -3.9755 0.0000 0.0000 0.0000
# 3 7.4094 -3.9755 24.4694 0.0000 0.0000 0.0000
# 4 0.0000 0.0000 0.0000 24.4331 0.0000 0.0000
# 5 0.0000 0.0000 0.0000 0.0000 7.0186 0.0000
# 6 0.0000 0.0000 0.0000 0.0000 0.0000 43.0641
#
#
#
# Elastic Compliance Matrix: (Units=1/GPa)
#
#
# Indices 1 2 3 4 5 6 
#
# 1 0.009489 -0.007619 -0.004111 0.000000 0.000000 0.000000
# 2 -0.007619 0.012515 0.004341 0.000000 0.000000 0.000000
# 3 -0.004111 0.004341 0.042817 0.000000 0.000000 0.000000
# 4 0.000000 0.000000 0.000000 0.040928 0.000000 0.000000
# 5 0.000000 0.000000 0.000000 0.000000 0.142479 0.000000
# 6 0.000000 0.000000 0.000000 0.000000 0.000000 0.023221
#
#
# Mechanical properties :
#
#
# Convention : Reuss Voigt Hill
#
# Bulk Modulus (GPa) = 19.98331 71.70497 45.84414
# Shear Modulus (GPa) = 16.50649 32.37646 24.44148
#
# Velocity S-wave (km/s) = 2.83579 3.97156 3.45072
# Velocity P-wave (km/s) = 4.52303 7.48095 6.18152
#
# Compressibility (1/GPa) = 0.05004177
#
# Stress axis : x y z
#
# Youngs Moduli (GPa) = 105.38447 79.90097 23.35494
#
# Poissons Ratio (x) = 0.60880 0.09602
# Poissons Ratio (y) = 0.80297 -0.10137
# Poissons Ratio (z) = 0.43326 -0.34681
#
# Static dielectric constant tensor:
#      x y z
#    x 1.726630 0.000000 0.000000 
#    y 0.000000 1.693970 0.000000 
#    z 0.000000 0.000000 1.771720 
# 
# From -- ./inp_files/2451.got.cif
#   From: 2010.05.17/outbox.cif.g08.bks.cpg/sg47_2_cif.got.tgz:2451.got - 2010.06.03 20:15:42.
