data_PCOD9384992
_publ_section_title
;
Structure prediction by ZEFSAII (Michael W. Deem and Ramdas Pophale) SiO2 
 PCOD9384992
Probable space group: P M M M
;
_chemical_formula_sum "Si O2"
_cell_formula_units_Z 64
_cell_length_a 15.060097
_cell_length_b 8.785673
_cell_length_c 30.358139
_cell_angle_alpha 90.000000
_cell_angle_beta 90.000000
_cell_angle_gamma 90.000000
_cell_volume 4016.779105
_symmetry_space_group_name_H-M "P M M M"
_symmetry_group_IT_number 47
_symmetry_cell_setting 'orthorhombic'
loop_
_space_group_symop_operation_xyz
x,y,z
-x,-y,z
x,-y,-z
-x,y,-z
-x,-y,-z
x,y,-z
-x,y,z
x,-y,z
loop_
_atom_site_type_symbol
_atom_site_label
_atom_site_fract_x
_atom_site_fract_y
_atom_site_fract_z
Si Si1 0.602682 0.319123 0.231283
Si Si2 0.268519 0.177253 0.696397
Si Si3 0.392244 0.320986 0.048390
Si Si4 0.642114 0.822262 0.450304
Si Si5 0.401098 0.672502 0.364831
Si Si6 0.100590 0.817488 0.359176
Si Si7 0.607513 0.827548 0.138665
Si Si8 0.838053 0.317967 0.549345
O O1 0.500000 0.262409 0.239350
O O2 0.599891 0.500000 0.235902
O O3 0.678133 0.256262 0.263863
O O4 0.626998 0.273292 0.181347
O O5 0.335555 0.206515 0.656080
O O6 0.174205 0.233422 0.676719
O O7 0.259238 0.000000 0.706945
O O8 0.500000 0.310297 0.048397
O O9 0.371181 0.500000 0.051789
O O10 0.359573 0.235582 0.091839
O O11 0.362520 0.265078 0.000000
O O12 0.609682 0.804037 0.500000
O O13 0.596386 0.711554 0.415971
O O14 0.745280 0.772938 0.449823
O O15 0.632121 0.000000 0.438219
O O16 0.500000 0.683865 0.345943
O O17 0.368940 0.500000 0.357306
O O18 0.112231 0.738046 0.406826
O O19 0.000000 0.792155 0.343724
O O20 0.113625 0.000000 0.365499
O O21 0.500000 0.829241 0.135643
O O22 0.637694 0.000000 0.145986
O O23 0.877871 0.291256 0.500000
O O24 0.822749 0.500000 0.552744
#
# Coordination Sequence:
#
# PCOD9384992 Si02
#       8
#     8   8   8   8   8   8   8   8
#     4  10  20  33  49  68  92 123 157 195 239 283
#     4  11  22  36  54  73  93 119 150 188 228 269
#     4   8  13  21  33  50  76 113 155 197 241 285
#     4  10  20  34  52  72  94 121 151 181 215 256
#     4  11  23  36  51  72  97 123 150 182 221 264
#     4  10  22  39  57  77  99 123 150 180 221 273
#     4   9  16  25  38  58  84 114 153 200 242 280
#     4  10  20  34  54  78 101 123 147 178 217 262
#
# _framework density 15.933164
#
# number of rings (size 3 to 8) (size 9 to 14) (size 15 to 20)
#    0.000    2.125    1.250    3.000    0.000    7.750 
#    0.000    3.750    0.000    0.000    0.000    0.000 
#    0.000    0.000    0.000    0.000    0.000    0.625 
#
# Total GULP energy -356590.441569 kJ/mol
# GULP energy per Si atom -5571.725650 kJ/mol
# Density = 1.589690 g / cm^3
# Si number density = 15.933164 Si / 1000 Ang^3
#
#
#
# Elastic Constant Matrix: (Units=GPa)
#
#
# Indices 1 2 3 4 5 6 
#
# 1 62.6878 14.5780 34.7141 0.0000 0.0000 0.0000
# 2 14.5780 36.2353 28.5841 0.0000 0.0000 0.0000
# 3 34.7141 28.5841 106.6528 0.0000 0.0000 0.0000
# 4 0.0000 0.0000 0.0000 27.6460 0.0000 0.0000
# 5 0.0000 0.0000 0.0000 0.0000 11.7712 0.0000
# 6 0.0000 0.0000 0.0000 0.0000 0.0000 11.6094
#
#
#
# Elastic Compliance Matrix: (Units=1/GPa)
#
#
# Indices 1 2 3 4 5 6 
#
# 1 0.019835 -0.003661 -0.005475 0.000000 0.000000 0.000000
# 2 -0.003661 0.035672 -0.008369 0.000000 0.000000 0.000000
# 3 -0.005475 -0.008369 0.013401 0.000000 0.000000 0.000000
# 4 0.000000 0.000000 0.000000 0.036172 0.000000 0.000000
# 5 0.000000 0.000000 0.000000 0.000000 0.084953 0.000000
# 6 0.000000 0.000000 0.000000 0.000000 0.000000 0.086137
#
#
# Mechanical properties :
#
#
# Convention : Reuss Voigt Hill
#
# Bulk Modulus (GPa) = 29.49964 40.14757 34.82360
# Shear Modulus (GPa) = 15.50486 18.71864 17.11175
#
# Velocity S-wave (km/s) = 3.12287 3.43129 3.28070
# Velocity P-wave (km/s) = 5.61764 6.39926 6.02115
#
# Compressibility (1/GPa) = 0.03389872
#
# Stress axis : x y z
#
# Youngs Moduli (GPa) = 50.41531 28.03315 74.62040
#
# Poissons Ratio (x) = 0.10263 0.40854
# Poissons Ratio (y) = 0.18458 0.62449
# Poissons Ratio (z) = 0.27602 0.23460
#
# Static dielectric constant tensor:
#      x y z
#    x 1.541000 0.000000 0.000000 
#    y 0.000000 1.540180 0.000000 
#    z 0.000000 0.000000 1.563020 
# 
# From -- ./inp_files/22166.got.cif
#   From: 2010.05.17/outbox.cif.g08.bks.cpg/sg47_12_cif.got.tgz:22166.got - 2010.06.03 20:15:42.
