data_PCOD9384567
_publ_section_title
;
Structure prediction by ZEFSAII (Michael W. Deem and Ramdas Pophale) SiO2 
 PCOD9384567
Probable space group: P M M M
;
_chemical_formula_sum "Si O2"
_cell_formula_units_Z 52
_cell_length_a 24.200938
_cell_length_b 9.165873
_cell_length_c 14.052964
_cell_angle_alpha 90.000000
_cell_angle_beta 90.000000
_cell_angle_gamma 90.000000
_cell_volume 3117.266757
_symmetry_space_group_name_H-M "P M M M"
_symmetry_group_IT_number 47
_symmetry_cell_setting 'orthorhombic'
loop_
_space_group_symop_operation_xyz
x,y,z
-x,-y,z
x,-y,-z
-x,y,-z
-x,-y,-z
x,y,-z
-x,y,z
x,-y,z
loop_
_atom_site_type_symbol
_atom_site_label
_atom_site_fract_x
_atom_site_fract_y
_atom_site_fract_z
Si Si1 0.061460 0.670017 0.115529
Si Si2 0.827742 0.830478 0.885028
Si Si3 0.613310 0.829931 0.884978
Si Si4 0.500000 0.669397 0.116477
Si Si5 0.559889 0.169759 0.615651
Si Si6 0.328217 0.325792 0.608088
Si Si7 0.721375 0.674421 0.800598
O O1 0.068895 0.500000 0.141666
O O2 0.113429 0.764937 0.147121
O O3 0.000000 0.717576 0.146884
O O4 0.061115 0.675215 0.000000
O O5 0.776684 0.740394 0.844106
O O6 0.822878 0.000000 0.859132
O O7 0.825786 0.820548 0.000000
O O8 0.556065 0.752847 0.854430
O O9 0.667413 0.746976 0.848022
O O10 0.614080 0.000000 0.856316
O O11 0.614497 0.825781 0.000000
O O12 0.500000 0.500000 0.146703
O O13 0.500000 0.669829 0.000000
O O14 0.559313 0.173878 0.500000
O O15 0.500000 0.227363 0.647323
O O16 0.614137 0.256904 0.642806
O O17 0.564075 0.000000 0.642745
O O18 0.316444 0.275669 0.500000
O O19 0.335130 0.500000 0.605337
O O20 0.283072 0.292860 0.687811
O O21 0.719467 0.500000 0.814284
#
# Coordination Sequence:
#
# PCOD9384567 Si02
#       7
#     8   8   8   4   8   8   8
#     4   8  14  26  45  69  98 133 169 199 227 264
#     4  10  20  32  47  70 101 134 165 199 236 273
#     4  10  20  34  51  70  93 120 151 190 235 281
#     4   9  17  31  51  71  90 115 150 191 233 278
#     4   8  14  26  45  67  87 107 134 171 220 280
#     4   9  19  35  51  67  88 115 149 191 239 287
#     4  11  22  34  49  69  92 123 160 197 238 285
#
# _framework density 16.681280000000001
#
# number of rings (size 3 to 8) (size 9 to 14) (size 15 to 20)
#    0.000    2.692    0.000    3.000    0.000    6.462 
#    1.385    3.077    0.000    0.000    0.000    0.000 
#    0.000    0.615    0.000    7.077    0.000    2.308 
#
# Total GULP energy -290042.159361 kJ/mol
# GULP energy per Si atom -5577.733834 kJ/mol
# Density = 1.664331 g / cm^3
# Si number density = 16.681280 Si / 1000 Ang^3
#
#
#
# Elastic Constant Matrix: (Units=GPa)
#
#
# Indices 1 2 3 4 5 6 
#
# 1 141.7610 76.0277 34.5562 0.0000 0.0000 0.0000
# 2 76.0277 91.6307 29.5210 0.0000 0.0000 0.0000
# 3 34.5562 29.5210 41.7809 0.0000 0.0000 0.0000
# 4 0.0000 0.0000 0.0000 9.0469 0.0000 0.0000
# 5 0.0000 0.0000 0.0000 0.0000 12.1587 0.0000
# 6 0.0000 0.0000 0.0000 0.0000 0.0000 38.3275
#
#
#
# Elastic Compliance Matrix: (Units=1/GPa)
#
#
# Indices 1 2 3 4 5 6 
#
# 1 0.013238 -0.009654 -0.004128 0.000000 0.000000 0.000000
# 2 -0.009654 0.021170 -0.006974 0.000000 0.000000 0.000000
# 3 -0.004128 -0.006974 0.032276 0.000000 0.000000 0.000000
# 4 0.000000 0.000000 0.000000 0.110535 0.000000 0.000000
# 5 0.000000 0.000000 0.000000 0.000000 0.082245 0.000000
# 6 0.000000 0.000000 0.000000 0.000000 0.000000 0.026091
#
#
# Mechanical properties :
#
#
# Convention : Reuss Voigt Hill
#
# Bulk Modulus (GPa) = 39.72458 61.70916 50.71687
# Shear Modulus (GPa) = 14.90511 20.91114 17.90813
#
# Velocity S-wave (km/s) = 2.99243 3.54442 3.28006
# Velocity P-wave (km/s) = 5.98373 7.33648 6.69436
#
# Compressibility (1/GPa) = 0.02517333
#
# Stress axis : x y z
#
# Youngs Moduli (GPa) = 75.54195 47.23679 30.98320
#
# Poissons Ratio (x) = 0.45601 0.12789
# Poissons Ratio (y) = 0.72926 0.21606
# Poissons Ratio (z) = 0.31181 0.32941
#
# Static dielectric constant tensor:
#      x y z
#    x 1.542530 0.000000 0.000000 
#    y 0.000000 1.556170 0.000000 
#    z 0.000000 0.000000 1.595480 
# 
# From -- ./inp_files/6956.got.cif
#   From: 2010.05.17/outbox.cif.g08.bks.cpg/sg47_4_cif.got.tgz:6956.got - 2010.06.03 20:15:42.
