data_PCOD9384216
_publ_section_title
;
Structure prediction by ZEFSAII (Michael W. Deem and Ramdas Pophale) SiO2 
 PCOD9384216
Probable space group: P M M M
;
_chemical_formula_sum "Si O2"
_cell_formula_units_Z 48
_cell_length_a 32.397021
_cell_length_b 9.812097
_cell_length_c 7.366899
_cell_angle_alpha 90.000000
_cell_angle_beta 90.000000
_cell_angle_gamma 90.000000
_cell_volume 2341.809837
_symmetry_space_group_name_H-M "P M M M"
_symmetry_group_IT_number 47
_symmetry_cell_setting 'orthorhombic'
loop_
_space_group_symop_operation_xyz
x,y,z
-x,-y,z
x,-y,-z
-x,y,-z
-x,-y,-z
x,y,-z
-x,y,z
x,-y,z
loop_
_atom_site_type_symbol
_atom_site_label
_atom_site_fract_x
_atom_site_fract_y
_atom_site_fract_z
Si Si1 0.711813 0.165817 0.289918
Si Si2 0.453953 0.657487 0.721051
Si Si3 0.801733 0.155373 0.281741
Si Si4 0.953032 0.155690 0.778723
Si Si5 0.879619 0.653777 0.215863
Si Si6 0.378141 0.157765 0.277714
O O1 0.711868 0.210727 0.500000
O O2 0.756597 0.202314 0.212182
O O3 0.667213 0.206781 0.214342
O O4 0.711386 0.000000 0.288498
O O5 0.453644 0.660083 0.500000
O O6 0.500000 0.702056 0.777273
O O7 0.448471 0.500000 0.774752
O O8 0.416365 0.751056 0.782140
O O9 0.798156 0.147623 0.500000
O O10 0.838389 0.258186 0.241633
O O11 0.810280 0.000000 0.218134
O O12 0.918697 0.260791 0.713383
O O13 0.000000 0.188055 0.723899
O O14 0.943542 0.000000 0.723664
O O15 0.952578 0.156350 0.000000
O O16 0.876436 0.500000 0.287640
O O17 0.885740 0.643374 0.000000
O O18 0.377094 0.159923 0.500000
O O19 0.383612 0.000000 0.225371
#
# Coordination Sequence:
#
# PCOD9384216 Si02
#       6
#     8   8   8   8   8   8
#     4   7  11  21  36  53  71  91 120 161 205 243
#     4   8  13  19  24  32  51  79 109 143 184 227
#     4   9  17  30  48  66  84 111 147 183 218 256
#     4   8  14  26  45  67  88 111 142 178 211 245
#     4  10  20  31  44  66  95 122 145 172 210 254
#     4   8  12  18  29  43  58  78 108 148 190 231
#
# _framework density 20.496966
#
# number of rings (size 3 to 8) (size 9 to 14) (size 15 to 20)
#    0.000    3.667    0.000    3.500    0.000    2.000 
#    0.000    4.167    0.000    3.500    0.000    3.500 
#    0.000    0.000    0.000    0.000    0.000    0.833 
#
# Total GULP energy -267500.369988 kJ/mol
# GULP energy per Si atom -5572.924375 kJ/mol
# Density = 2.045031 g / cm^3
# Si number density = 20.496966 Si / 1000 Ang^3
#
#
#
# Elastic Constant Matrix: (Units=GPa)
#
#
# Indices 1 2 3 4 5 6 
#
# 1 242.4893 136.2395 6.3675 0.0000 0.0000 0.0000
# 2 136.2395 119.4179 5.5462 0.0000 0.0000 0.0000
# 3 6.3675 5.5462 73.8081 0.0000 0.0000 0.0000
# 4 0.0000 0.0000 0.0000 -0.4158 0.0000 0.0000
# 5 0.0000 0.0000 0.0000 0.0000 8.2931 0.0000
# 6 0.0000 0.0000 0.0000 0.0000 0.0000 -13.2980
#
#
#
# Elastic Compliance Matrix: (Units=1/GPa)
#
#
# Indices 1 2 3 4 5 6 
#
# 1 0.011487 -0.013104 -0.000006 0.000000 0.000000 0.000000
# 2 -0.013104 0.023353 -0.000624 0.000000 0.000000 0.000000
# 3 -0.000006 -0.000624 0.013596 0.000000 0.000000 0.000000
# 4 0.000000 0.000000 0.000000 -2.404943 0.000000 0.000000
# 5 0.000000 0.000000 0.000000 0.000000 0.120582 0.000000
# 6 0.000000 0.000000 0.000000 0.000000 0.000000 -0.075199
#
#
# Mechanical properties :
#
#
# Convention : Reuss Voigt Hill
#
# Bulk Modulus (GPa) = 47.69608 81.33575 64.51592
# Shear Modulus (GPa) = -2.19619 18.08666 7.94523
#
# Velocity S-wave (km/s) = -1.03624 2.97376 1.97097
# Velocity P-wave (km/s) = 4.67853 7.18046 6.06002
#
# Compressibility (1/GPa) = 0.02096608
#
# Stress axis : x y z
#
# Youngs Moduli (GPa) = 87.05849 42.82079 73.55054
#
# Poissons Ratio (x) = 0.56114 0.00046
# Poissons Ratio (y) = 1.14084 0.04592
# Poissons Ratio (z) = 0.00055 0.02673
#
# Static dielectric constant tensor:
#      x y z
#    x 1.744750 0.000000 0.000000 
#    y 0.000000 1.684650 0.000000 
#    z 0.000000 0.000000 1.914520 
# 
# From -- ./inp_files/19997.got.cif
#   From: 2010.05.17/outbox.cif.g08.bks.cpg/sg47_10_cif.got.tgz:19997.got - 2010.06.03 20:15:42.
