data_PCOD9384489
_publ_section_title
;
Structure prediction by ZEFSAII (Michael W. Deem and Ramdas Pophale) SiO2 
 PCOD9384489
Probable space group: P M M M
;
_chemical_formula_sum "Si O2"
_cell_formula_units_Z 64
_cell_length_a 8.201587
_cell_length_b 20.333258
_cell_length_c 21.475654
_cell_angle_alpha 90.000000
_cell_angle_beta 90.000000
_cell_angle_gamma 90.000000
_cell_volume 3581.387106
_symmetry_space_group_name_H-M "P M M M"
_symmetry_group_IT_number 47
_symmetry_cell_setting 'orthorhombic'
loop_
_space_group_symop_operation_xyz
x,y,z
-x,-y,z
x,-y,-z
-x,y,-z
-x,-y,-z
x,y,-z
-x,y,z
x,-y,z
loop_
_atom_site_type_symbol
_atom_site_label
_atom_site_fract_x
_atom_site_fract_y
_atom_site_fract_z
Si Si1 0.803053 0.073515 0.382351
Si Si2 0.806611 0.290470 0.688303
Si Si3 0.303782 0.426968 0.733158
Si Si4 0.799875 0.788337 0.189341
Si Si5 0.306593 0.789079 0.431794
Si Si6 0.198367 0.072638 0.763633
Si Si7 0.804366 0.290419 0.931466
Si Si8 0.697085 0.573892 0.877615
O O1 0.733073 0.134458 0.419623
O O2 0.758344 0.081157 0.309275
O O3 0.000000 0.076520 0.385800
O O4 0.752956 0.000000 0.402427
O O5 0.752060 0.365849 0.692496
O O6 0.743455 0.252120 0.749766
O O7 0.758682 0.253250 0.625597
O O8 0.000000 0.288639 0.692751
O O9 0.500000 0.427659 0.733498
O O10 0.247703 0.500000 0.713749
O O11 0.251736 0.416885 0.805269
O O12 0.747631 0.863936 0.197940
O O13 0.742981 0.753336 0.126233
O O14 0.000000 0.787452 0.189324
O O15 0.240948 0.770029 0.500000
O O16 0.500000 0.780995 0.432304
O O17 0.000000 0.072069 0.765348
O O18 0.254342 0.000000 0.783857
O O19 0.764742 0.366325 0.917257
O O20 0.000000 0.283357 0.932141
O O21 0.741549 0.272170 0.000000
O O22 0.500000 0.576256 0.879506
O O23 0.746468 0.500000 0.896878
#
# Coordination Sequence:
#
# PCOD9384489 Si02
#       8
#     8   8   8   8   8   8   8   8
#     4   9  17  31  52  77 103 133 173 217 258 304
#     4  11  20  33  56  80 101 130 172 219 258 299
#     4   9  18  33  53  78 107 135 164 204 257 312
#     4   9  16  28  47  72  98 127 165 209 256 299
#     4  11  24  38  51  72 106 144 176 209 256 312
#     4   8  13  24  46  73  97 122 158 206 254 296
#     4  10  20  32  46  68 101 137 170 209 256 303
#     4   9  18  32  49  70  98 132 169 207 245 293
#
# _framework density 17.870170999999999
#
# number of rings (size 3 to 8) (size 9 to 14) (size 15 to 20)
#    0.000    2.500    2.500    2.250    0.000    2.500 
#    0.000    3.750    0.000    0.750    0.000    5.250 
#    0.000    0.000    0.000    1.125    0.000    1.250 
#
# Total GULP energy -356889.655550 kJ/mol
# GULP energy per Si atom -5576.400868 kJ/mol
# Density = 1.782950 g / cm^3
# Si number density = 17.870171 Si / 1000 Ang^3
#
#
#
# Elastic Constant Matrix: (Units=GPa)
#
#
# Indices 1 2 3 4 5 6 
#
# 1 7.6311 9.0025 11.0891 0.0000 0.0000 0.0000
# 2 9.0025 133.1201 78.1180 0.0000 0.0000 0.0000
# 3 11.0891 78.1180 116.6024 0.0000 0.0000 0.0000
# 4 0.0000 0.0000 0.0000 -96.0729 0.0000 0.0000
# 5 0.0000 0.0000 0.0000 0.0000 14.2692 0.0000
# 6 0.0000 0.0000 0.0000 0.0000 0.0000 62.1203
#
#
#
# Elastic Compliance Matrix: (Units=1/GPa)
#
#
# Indices 1 2 3 4 5 6 
#
# 1 0.152768 -0.002975 -0.012535 0.000000 0.000000 0.000000
# 2 -0.002975 0.012437 -0.008049 0.000000 0.000000 0.000000
# 3 -0.012535 -0.008049 0.015161 0.000000 0.000000 0.000000
# 4 0.000000 0.000000 0.000000 -0.010409 0.000000 0.000000
# 5 0.000000 0.000000 0.000000 0.000000 0.070081 0.000000
# 6 0.000000 0.000000 0.000000 0.000000 0.000000 0.016098
#
#
# Mechanical properties :
#
#
# Convention : Reuss Voigt Hill
#
# Bulk Modulus (GPa) = 7.50490 50.41918 28.96204
# Shear Modulus (GPa) = 14.38148 6.67292 10.52720
#
# Velocity S-wave (km/s) = 2.83993 1.93448 2.42976
# Velocity P-wave (km/s) = 3.86813 5.76758 4.91057
#
# Compressibility (1/GPa) = 0.13324631
#
# Stress axis : x y z
#
# Youngs Moduli (GPa) = 6.54588 80.40839 65.96015
#
# Poissons Ratio (x) = 0.23923 0.82683
# Poissons Ratio (y) = 0.01948 0.53091
# Poissons Ratio (z) = 0.08205 0.64720
#
# Static dielectric constant tensor:
#      x y z
#    x 1.629350 0.000000 0.000000 
#    y 0.000000 1.621290 0.000000 
#    z 0.000000 0.000000 1.625300 
# 
# From -- ./inp_files/30139.got.cif
#   From: 2010.05.17/outbox.cif.g08.bks.cpg/sg47_16_cif.got.tgz:30139.got - 2010.06.03 20:15:42.
