data_PCOD9384223
_publ_section_title
;
Structure prediction by ZEFSAII (Michael W. Deem and Ramdas Pophale) SiO2 
 PCOD9384223
Probable space group: P M M M
;
_chemical_formula_sum "Si O2"
_cell_formula_units_Z 64
_cell_length_a 18.531721
_cell_length_b 7.931868
_cell_length_c 20.653790
_cell_angle_alpha 90.000000
_cell_angle_beta 90.000000
_cell_angle_gamma 90.000000
_cell_volume 3035.924649
_symmetry_space_group_name_H-M "P M M M"
_symmetry_group_IT_number 47
_symmetry_cell_setting 'orthorhombic'
loop_
_space_group_symop_operation_xyz
x,y,z
-x,-y,z
x,-y,-z
-x,y,-z
-x,-y,-z
x,y,-z
-x,y,z
x,-y,z
loop_
_atom_site_type_symbol
_atom_site_label
_atom_site_fract_x
_atom_site_fract_y
_atom_site_fract_z
Si Si1 0.380433 0.796491 0.745678
Si Si2 0.272393 0.308748 0.076669
Si Si3 0.221487 0.798662 0.289124
Si Si4 0.260370 0.799996 0.430456
Si Si5 0.114257 0.805462 0.073759
Si Si6 0.922520 0.302986 0.214204
Si Si7 0.579416 0.299274 0.601605
Si Si8 0.423568 0.697295 0.882203
O O1 0.295755 0.742959 0.745669
O O2 0.413535 0.740122 0.677804
O O3 0.420561 0.712747 0.805180
O O4 0.385202 0.000000 0.750805
O O5 0.264252 0.500000 0.104311
O O6 0.199836 0.206757 0.087983
O O7 0.347343 0.226250 0.097369
O O8 0.277419 0.326060 0.000000
O O9 0.226430 0.731683 0.363359
O O10 0.148841 0.764005 0.249720
O O11 0.228370 0.000000 0.293794
O O12 0.236069 0.728647 0.500000
O O13 0.347148 0.777882 0.426416
O O14 0.245601 0.000000 0.431157
O O15 0.081223 0.718339 0.136375
O O16 0.091766 0.000000 0.073503
O O17 0.101741 0.738337 0.000000
O O18 0.923204 0.500000 0.228541
O O19 0.000000 0.228105 0.235536
O O20 0.500000 0.239708 0.579365
O O21 0.582578 0.500000 0.590721
O O22 0.500000 0.767844 0.906027
O O23 0.420933 0.500000 0.901957
#
# Coordination Sequence:
#
# PCOD9384223 Si02
#       8
#     8   8   8   8   8   8   8   8
#     4  10  20  33  50  72  97 129 173 219 262 312
#     4   9  18  33  52  71  93 127 170 213 258 309
#     4   9  19  36  58  82 107 138 176 219 264 312
#     4   9  19  36  57  81 108 140 181 226 270 317
#     4  10  21  37  58  83 110 141 177 216 258 309
#     4  11  24  39  57  84 115 144 174 210 254 308
#     4  10  20  32  47  71 105 142 179 220 265 313
#     4  10  20  31  44  66  96 129 168 217 269 316
#
# _framework density 21.080893
#
# number of rings (size 3 to 8) (size 9 to 14) (size 15 to 20)
#    0.000    2.250    0.000    3.375    0.000   10.500 
#    0.000    3.750    0.000    0.375    0.000    5.250 
#    0.000    0.000    0.000    0.000    0.000    0.000 
#
# Total GULP energy -356969.533391 kJ/mol
# GULP energy per Si atom -5577.648959 kJ/mol
# Density = 2.103291 g / cm^3
# Si number density = 21.080893 Si / 1000 Ang^3
#
#
#
# Elastic Constant Matrix: (Units=GPa)
#
#
# Indices 1 2 3 4 5 6 
#
# 1 130.1240 -2.0192 48.9020 0.0000 0.0000 0.0000
# 2 -2.0192 24.4455 -3.1256 0.0000 0.0000 0.0000
# 3 48.9020 -3.1256 50.8861 0.0000 0.0000 0.0000
# 4 0.0000 0.0000 0.0000 -25.4014 0.0000 0.0000
# 5 0.0000 0.0000 0.0000 0.0000 -14.1996 0.0000
# 6 0.0000 0.0000 0.0000 0.0000 0.0000 12.7148
#
#
#
# Elastic Compliance Matrix: (Units=1/GPa)
#
#
# Indices 1 2 3 4 5 6 
#
# 1 0.012035 -0.000489 -0.011596 0.000000 0.000000 0.000000
# 2 -0.000489 0.041251 0.003003 0.000000 0.000000 0.000000
# 3 -0.011596 0.003003 0.030980 0.000000 0.000000 0.000000
# 4 0.000000 0.000000 0.000000 -0.039368 0.000000 0.000000
# 5 0.000000 0.000000 0.000000 0.000000 -0.070425 0.000000
# 6 0.000000 0.000000 0.000000 0.000000 0.000000 0.078649
#
#
# Mechanical properties :
#
#
# Convention : Reuss Voigt Hill
#
# Bulk Modulus (GPa) = 15.12772 32.55222 23.83997
# Shear Modulus (GPa) = 53.57912 5.40266 29.49089
#
# Velocity S-wave (km/s) = 5.04689 1.60262 3.74430
# Velocity P-wave (km/s) = 6.41507 4.34737 5.47963
#
# Compressibility (1/GPa) = 0.06610382
#
# Stress axis : x y z
#
# Youngs Moduli (GPa) = 83.08871 24.24183 32.27874
#
# Poissons Ratio (x) = 0.01184 0.37431
# Poissons Ratio (y) = 0.04059 -0.09694
# Poissons Ratio (z) = 0.96350 -0.07281
#
# Static dielectric constant tensor:
#      x y z
#    x 1.827840 0.000000 0.000000 
#    y 0.000000 1.768710 0.000000 
#    z 0.000000 0.000000 1.796110 
# 
# From -- ./inp_files/28794.got.cif
#   From: 2010.05.17/outbox.cif.g08.bks.cpg/sg47_15_cif.got.tgz:28794.got - 2010.06.03 20:15:42.
