data_PCOD9384967
_publ_section_title
;
Structure prediction by ZEFSAII (Michael W. Deem and Ramdas Pophale) SiO2 
 PCOD9384967
Probable space group: P M M M
;
_chemical_formula_sum "Si O2"
_cell_formula_units_Z 48
_cell_length_a 13.814762
_cell_length_b 15.207323
_cell_length_c 12.907878
_cell_angle_alpha 90.000000
_cell_angle_beta 90.000000
_cell_angle_gamma 90.000000
_cell_volume 2711.758622
_symmetry_space_group_name_H-M "P M M M"
_symmetry_group_IT_number 47
_symmetry_cell_setting 'orthorhombic'
loop_
_space_group_symop_operation_xyz
x,y,z
-x,-y,z
x,-y,-z
-x,y,-z
-x,-y,-z
x,y,-z
-x,y,z
x,-y,z
loop_
_atom_site_type_symbol
_atom_site_label
_atom_site_fract_x
_atom_site_fract_y
_atom_site_fract_z
Si Si1 0.117847 0.000000 0.882019
Si Si2 0.882995 0.500000 0.379776
Si Si3 0.716485 0.894983 0.387646
Si Si4 0.756685 0.401624 0.000000
Si Si5 0.112856 0.837248 0.735888
Si Si6 0.885858 0.364223 0.798461
Si Si7 0.384207 0.099527 0.824885
Si Si8 0.617458 0.763877 0.000000
O O1 0.143905 0.087541 0.818085
O O2 0.000000 0.000000 0.886440
O O3 0.152871 0.000000 0.000000
O O4 0.847558 0.500000 0.500000
O O5 0.856991 0.583474 0.306620
O O6 0.000000 0.500000 0.386993
O O7 0.678422 0.868848 0.500000
O O8 0.818027 0.849730 0.361767
O O9 0.646687 0.877867 0.291425
O O10 0.732370 0.000000 0.388480
O O11 0.823138 0.390972 0.897597
O O12 0.674931 0.326856 0.000000
O O13 0.715324 0.500000 0.000000
O O14 0.123429 0.740038 0.781161
O O15 0.000000 0.851526 0.711161
O O16 0.000000 0.383587 0.817129
O O17 0.500000 0.095921 0.832123
O O18 0.349198 0.000000 0.850479
O O19 0.353296 0.175766 0.902350
O O20 0.500000 0.752092 0.000000
#
# Coordination Sequence:
#
# PCOD9384967 Si02
#       8
#     4   4   8   4   8   8   8   4
#     4   9  18  32  47  67 100 143 189 230 262 302
#     4   9  18  35  55  75 101 133 176 228 276 318
#     4  10  20  33  48  72 107 144 185 225 259 306
#     4  12  23  36  57  81 111 141 171 209 267 333
#     4  10  20  34  50  72 106 146 190 226 262 311
#     4  10  21  35  54  80 107 140 179 223 271 316
#     4   9  18  35  58  82 107 138 173 215 271 320
#     4  10  21  38  59  83 112 138 172 218 260 320
#
# _framework density 17.700690000000002
#
# number of rings (size 3 to 8) (size 9 to 14) (size 15 to 20)
#    0.000    2.167    1.667    1.500    1.167    2.833 
#    1.500    4.167    0.000    0.000    0.000    0.000 
#    0.000    0.667    0.000    0.000    0.000    0.000 
#
# Total GULP energy -267779.730959 kJ/mol
# GULP energy per Si atom -5578.744395 kJ/mol
# Density = 1.766040 g / cm^3
# Si number density = 17.700690 Si / 1000 Ang^3
#
#
#
# Elastic Constant Matrix: (Units=GPa)
#
#
# Indices 1 2 3 4 5 6 
#
# 1 39.8573 37.0253 26.5629 0.0000 0.0000 0.0000
# 2 37.0253 129.1735 67.9930 0.0000 0.0000 0.0000
# 3 26.5629 67.9930 131.9179 0.0000 0.0000 0.0000
# 4 0.0000 0.0000 0.0000 15.6812 0.0000 0.0000
# 5 0.0000 0.0000 0.0000 0.0000 8.7231 0.0000
# 6 0.0000 0.0000 0.0000 0.0000 0.0000 17.8219
#
#
#
# Elastic Compliance Matrix: (Units=1/GPa)
#
#
# Indices 1 2 3 4 5 6 
#
# 1 0.034814 -0.008630 -0.002562 0.000000 0.000000 0.000000
# 2 -0.008630 0.012763 -0.004841 0.000000 0.000000 0.000000
# 3 -0.002562 -0.004841 0.010591 0.000000 0.000000 0.000000
# 4 0.000000 0.000000 0.000000 0.063771 0.000000 0.000000
# 5 0.000000 0.000000 0.000000 0.000000 0.114638 0.000000
# 6 0.000000 0.000000 0.000000 0.000000 0.000000 0.056111
#
#
# Mechanical properties :
#
#
# Convention : Reuss Voigt Hill
#
# Bulk Modulus (GPa) = 38.30999 62.67899 50.49449
# Shear Modulus (GPa) = 14.99453 19.73639 17.36546
#
# Velocity S-wave (km/s) = 2.91368 3.34279 3.13559
# Velocity P-wave (km/s) = 5.74540 7.09834 6.45740
#
# Compressibility (1/GPa) = 0.02610285
#
# Stress axis : x y z
#
# Youngs Moduli (GPa) = 28.72410 78.35025 94.41730
#
# Poissons Ratio (x) = 0.67619 0.24189
# Poissons Ratio (y) = 0.24790 0.45704
# Poissons Ratio (z) = 0.07359 0.37926
#
# Static dielectric constant tensor:
#      x y z
#    x 1.612060 0.000000 0.000000 
#    y 0.000000 1.599330 0.000000 
#    z 0.000000 0.000000 1.611420 
# 
# From -- ./inp_files/17631.got.cif
#   From: 2010.05.17/outbox.cif.g08.bks.cpg/sg47_9_cif.got.tgz:17631.got - 2010.06.03 20:15:42.
