data_PCOD9384302
_publ_section_title
;
Structure prediction by ZEFSAII (Michael W. Deem and Ramdas Pophale) SiO2 
 PCOD9384302
Probable space group: P M M M
;
_chemical_formula_sum "Si O2"
_cell_formula_units_Z 52
_cell_length_a 15.104625
_cell_length_b 18.924212
_cell_length_c 8.410007
_cell_angle_alpha 90.000000
_cell_angle_beta 90.000000
_cell_angle_gamma 90.000000
_cell_volume 2403.942688
_symmetry_space_group_name_H-M "P M M M"
_symmetry_group_IT_number 47
_symmetry_cell_setting 'orthorhombic'
loop_
_space_group_symop_operation_xyz
x,y,z
-x,-y,z
x,-y,-z
-x,y,-z
-x,-y,-z
x,y,-z
-x,y,z
x,-y,z
loop_
_atom_site_type_symbol
_atom_site_label
_atom_site_fract_x
_atom_site_fract_y
_atom_site_fract_z
Si Si1 0.856136 0.220324 0.820077
Si Si2 0.788268 0.920012 0.307802
Si Si3 0.347129 0.271620 0.179855
Si Si4 0.404729 0.871428 0.311989
Si Si5 0.394021 0.577327 0.310151
Si Si6 0.898729 0.358515 0.328066
Si Si7 0.896151 0.416369 0.000000
O O1 0.850843 0.139626 0.765961
O O2 0.754586 0.247199 0.818989
O O3 0.901659 0.274541 0.700499
O O4 0.890456 0.227742 0.000000
O O5 0.788898 0.911822 0.500000
O O6 0.686671 0.905567 0.251215
O O7 0.813113 0.000000 0.268843
O O8 0.395955 0.212877 0.285446
O O9 0.355312 0.351675 0.236835
O O10 0.381060 0.266098 0.000000
O O11 0.405936 0.886154 0.500000
O O12 0.500000 0.895071 0.245196
O O13 0.380523 0.579532 0.500000
O O14 0.500000 0.579431 0.282356
O O15 0.361657 0.500000 0.252106
O O16 0.856912 0.374475 0.500000
O O17 0.000000 0.385739 0.333562
O O18 0.857091 0.388986 0.166262
O O19 0.893981 0.500000 0.000000
O O20 0.000000 0.392934 0.000000
#
# Coordination Sequence:
#
# PCOD9384302 Si02
#       7
#     8   8   8   8   8   8   4
#     4  10  20  35  54  75 104 141 177 218 267 321
#     4   9  18  32  50  74 103 135 174 222 273 325
#     4  10  20  31  46  69  95 126 166 212 259 310
#     4   9  17  29  46  68  95 130 170 212 262 320
#     4   9  18  32  48  65  88 122 164 210 260 311
#     4  10  20  35  59  88 114 146 188 227 267 319
#     4   9  18  34  56  84 119 151 178 217 265 311
#
# _framework density 21.631129999999999
#
# number of rings (size 3 to 8) (size 9 to 14) (size 15 to 20)
#    0.000    2.538    0.769    1.846    0.000    5.538 
#    0.000    4.615    0.000    0.462    0.000    7.538 
#    0.000    0.000    0.000    0.000    0.000    0.000 
#
# Total GULP energy -290071.041872 kJ/mol
# GULP energy per Si atom -5578.289267 kJ/mol
# Density = 2.158190 g / cm^3
# Si number density = 21.631130 Si / 1000 Ang^3
#
#
#
# Elastic Constant Matrix: (Units=GPa)
#
#
# Indices 1 2 3 4 5 6 
#
# 1 24.2010 -8.7188 5.0735 0.0000 0.0000 0.0000
# 2 -8.7188 105.3414 27.7339 0.0000 0.0000 0.0000
# 3 5.0735 27.7339 94.3688 0.0000 0.0000 0.0000
# 4 0.0000 0.0000 0.0000 24.7623 0.0000 0.0000
# 5 0.0000 0.0000 0.0000 0.0000 4.7219 0.0000
# 6 0.0000 0.0000 0.0000 0.0000 0.0000 16.2387
#
#
#
# Elastic Compliance Matrix: (Units=1/GPa)
#
#
# Indices 1 2 3 4 5 6 
#
# 1 0.043753 0.004596 -0.003703 0.000000 0.000000 0.000000
# 2 0.004596 0.010772 -0.003413 0.000000 0.000000 0.000000
# 3 -0.003703 -0.003413 0.011799 0.000000 0.000000 0.000000
# 4 0.000000 0.000000 0.000000 0.040384 0.000000 0.000000
# 5 0.000000 0.000000 0.000000 0.000000 0.211780 0.000000
# 6 0.000000 0.000000 0.000000 0.000000 0.000000 0.061581
#
#
# Mechanical properties :
#
#
# Convention : Reuss Voigt Hill
#
# Bulk Modulus (GPa) = 16.31742 30.23205 23.27474
# Shear Modulus (GPa) = 12.32935 22.46609 17.39772
#
# Velocity S-wave (km/s) = 2.39002 3.22623 2.83908
# Velocity P-wave (km/s) = 3.89565 5.28058 4.64008
#
# Compressibility (1/GPa) = 0.06128418
#
# Stress axis : x y z
#
# Youngs Moduli (GPa) = 22.85566 92.83433 84.75432
#
# Poissons Ratio (x) = -0.42669 0.31385
# Poissons Ratio (y) = -0.10505 0.28925
# Poissons Ratio (z) = 0.08464 0.31683
#
# Static dielectric constant tensor:
#      x y z
#    x 1.829620 0.000000 0.000000 
#    y 0.000000 1.774480 0.000000 
#    z 0.000000 0.000000 1.806820 
# 
# From -- ./inp_files/9506.got.cif
#   From: 2010.05.17/outbox.cif.g08.bks.cpg/sg47_5_cif.got.tgz:9506.got - 2010.06.03 20:15:42.
