data_PCOD9384710
_publ_section_title
;
Structure prediction by ZEFSAII (Michael W. Deem and Ramdas Pophale) SiO2 
 PCOD9384710
Probable space group: P M M M
;
_chemical_formula_sum "Si O2"
_cell_formula_units_Z 44
_cell_length_a 7.654397
_cell_length_b 31.053832
_cell_length_c 9.393608
_cell_angle_alpha 90.000000
_cell_angle_beta 90.000000
_cell_angle_gamma 90.000000
_cell_volume 2232.845202
_symmetry_space_group_name_H-M "P M M M"
_symmetry_group_IT_number 47
_symmetry_cell_setting 'orthorhombic'
loop_
_space_group_symop_operation_xyz
x,y,z
-x,-y,z
x,-y,-z
-x,y,-z
-x,-y,-z
x,y,-z
-x,y,z
x,-y,z
loop_
_atom_site_type_symbol
_atom_site_label
_atom_site_fract_x
_atom_site_fract_y
_atom_site_fract_z
Si Si1 0.289751 0.869432 0.338902
Si Si2 0.700363 0.385492 0.832810
Si Si3 0.286779 0.951685 0.164492
Si Si4 0.212057 0.700746 0.664121
Si Si5 0.000000 0.548934 0.827065
Si Si6 0.209831 0.215914 0.161706
O O1 0.223770 0.864528 0.500000
O O2 0.500000 0.872723 0.345535
O O3 0.225020 0.913096 0.263987
O O4 0.248971 0.827980 0.244186
O O5 0.500000 0.399486 0.822085
O O6 0.728554 0.342526 0.742220
O O7 0.831477 0.423043 0.786011
O O8 0.737317 0.375736 0.000000
O O9 0.500000 0.951419 0.166654
O O10 0.232094 0.000000 0.206737
O O11 0.235214 0.944496 0.000000
O O12 0.268892 0.702198 0.500000
O O13 0.273716 0.742751 0.750188
O O14 0.000000 0.700807 0.665224
O O15 0.000000 0.500000 0.773850
O O16 0.000000 0.546786 0.000000
O O17 0.000000 0.219762 0.154469
O O18 0.277285 0.215141 0.000000
#
# Coordination Sequence:
#
# PCOD9384710 Si02
#       6
#     8   8   8   8   4   8
#     4  10  20  32  48  73 104 135 168 211 263 318
#     4  10  20  34  56  85 115 150 191 234 282 335
#     4   8  14  26  45  68  94 127 168 213 262 316
#     4  10  20  35  56  79 105 140 180 223 274 329
#     4   9  18  34  57  85 119 155 191 239 288 329
#     4  10  21  36  55  77 102 137 178 218 263 317
#
# _framework density 19.705798999999999
#
# number of rings (size 3 to 8) (size 9 to 14) (size 15 to 20)
#    0.000    2.455    0.909    2.182    0.000    4.727 
#    0.000    3.636    0.000    1.636    0.000    5.091 
#    0.000    0.000    0.000    0.000    0.000    0.000 
#
# Total GULP energy -245692.424664 kJ/mol
# GULP energy per Si atom -5583.918742 kJ/mol
# Density = 1.966095 g / cm^3
# Si number density = 19.705799 Si / 1000 Ang^3
#
#
#
# Elastic Constant Matrix: (Units=GPa)
#
#
# Indices 1 2 3 4 5 6 
#
# 1 54.6553 37.8948 34.5619 0.0000 0.0000 0.0000
# 2 37.8948 205.5962 111.5953 0.0000 0.0000 0.0000
# 3 34.5619 111.5953 145.6022 0.0000 0.0000 0.0000
# 4 0.0000 0.0000 0.0000 -26.0598 0.0000 0.0000
# 5 0.0000 0.0000 0.0000 0.0000 14.7734 0.0000
# 6 0.0000 0.0000 0.0000 0.0000 0.0000 19.7270
#
#
#
# Elastic Compliance Matrix: (Units=1/GPa)
#
#
# Indices 1 2 3 4 5 6 
#
# 1 0.022042 -0.002094 -0.003627 0.000000 0.000000 0.000000
# 2 -0.002094 0.008528 -0.006039 0.000000 0.000000 0.000000
# 3 -0.003627 -0.006039 0.012358 0.000000 0.000000 0.000000
# 4 0.000000 0.000000 0.000000 -0.038373 0.000000 0.000000
# 5 0.000000 0.000000 0.000000 0.000000 0.067689 0.000000
# 6 0.000000 0.000000 0.000000 0.000000 0.000000 0.050692
#
#
# Mechanical properties :
#
#
# Convention : Reuss Voigt Hill
#
# Bulk Modulus (GPa) = 51.52779 85.99530 68.76154
# Shear Modulus (GPa) = 32.69588 16.47490 24.58539
#
# Velocity S-wave (km/s) = 4.07775 2.89458 3.53600
# Velocity P-wave (km/s) = 6.95529 7.40984 7.18616
#
# Compressibility (1/GPa) = 0.01940700
#
# Stress axis : x y z
#
# Youngs Moduli (GPa) = 45.36786 117.26486 80.92214
#
# Poissons Ratio (x) = 0.24553 0.29353
# Poissons Ratio (y) = 0.09499 0.48869
# Poissons Ratio (z) = 0.16457 0.70816
#
# Static dielectric constant tensor:
#      x y z
#    x 1.744430 0.000000 0.000000 
#    y 0.000000 1.646830 0.000000 
#    z 0.000000 0.000000 1.675580 
# 
# From -- ./inp_files/2314.got.cif
#   From: 2010.05.17/outbox.cif.g08.bks.cpg/sg47_2_cif.got.tgz:2314.got - 2010.06.03 20:15:42.
