data_PCOD9384381
_publ_section_title
;
Structure prediction by ZEFSAII (Michael W. Deem and Ramdas Pophale) SiO2 
 PCOD9384381
Probable space group: P M M M
;
_chemical_formula_sum "Si O2"
_cell_formula_units_Z 36
_cell_length_a 9.246143
_cell_length_b 12.645025
_cell_length_c 20.767396
_cell_angle_alpha 90.000000
_cell_angle_beta 90.000000
_cell_angle_gamma 90.000000
_cell_volume 2428.076370
_symmetry_space_group_name_H-M "P M M M"
_symmetry_group_IT_number 47
_symmetry_cell_setting 'orthorhombic'
loop_
_space_group_symop_operation_xyz
x,y,z
-x,-y,z
x,-y,-z
-x,y,-z
-x,-y,-z
x,y,-z
-x,y,z
x,-y,z
loop_
_atom_site_type_symbol
_atom_site_label
_atom_site_fract_x
_atom_site_fract_y
_atom_site_fract_z
Si Si1 0.831522 0.371430 0.928108
Si Si2 0.671394 0.215440 0.577030
Si Si3 0.828987 0.626447 0.329449
Si Si4 0.665680 0.371338 0.198741
Si Si5 0.833463 0.000000 0.421830
O O1 0.826718 0.500000 0.927918
O O2 0.735342 0.334660 0.868467
O O3 0.000000 0.342683 0.918962
O O4 0.785527 0.337575 0.000000
O O5 0.690966 0.228154 0.500000
O O6 0.500000 0.211030 0.589690
O O7 0.745879 0.310158 0.615437
O O8 0.748483 0.105921 0.597008
O O9 0.809226 0.500000 0.337017
O O10 0.761634 0.657622 0.260400
O O11 0.000000 0.648389 0.331247
O O12 0.500000 0.336552 0.206023
O O13 0.665115 0.500000 0.196831
O O14 0.835877 0.000000 0.500000
O O15 0.000000 0.000000 0.399668
#
# Coordination Sequence:
#
# PCOD9384381 Si02
#       5
#     8   8   8   8   4
#     4   8  13  21  33  49  70  98 133 171 208 246
#     4  10  20  33  49  68  89 112 140 177 220 262
#     4  10  20  32  45  61  84 116 151 183 216 258
#     4   9  16  25  37  53  75 104 138 175 213 253
#     4   9  17  31  51  71  89 109 136 171 212 259
#
# _framework density 14.826551
#
# number of rings (size 3 to 8) (size 9 to 14) (size 15 to 20)
#    0.000    2.778    0.000    3.000    0.000    7.556 
#    0.000    4.444    0.000    0.000    0.000    0.000 
#    0.000    0.000    0.000    1.000    0.000   18.889 
#
# Total GULP energy -200507.949285 kJ/mol
# GULP energy per Si atom -5569.665258 kJ/mol
# Density = 1.479281 g / cm^3
# Si number density = 14.826551 Si / 1000 Ang^3
#
#
#
# Elastic Constant Matrix: (Units=GPa)
#
#
# Indices 1 2 3 4 5 6 
#
# 1 132.7053 47.4662 76.5421 0.0000 0.0000 0.0000
# 2 47.4662 35.4881 37.3110 0.0000 0.0000 0.0000
# 3 76.5421 37.3110 84.4521 0.0000 0.0000 0.0000
# 4 0.0000 0.0000 0.0000 -1.4741 0.0000 0.0000
# 5 0.0000 0.0000 0.0000 0.0000 27.8707 0.0000
# 6 0.0000 0.0000 0.0000 0.0000 0.0000 19.3878
#
#
#
# Elastic Compliance Matrix: (Units=1/GPa)
#
#
# Indices 1 2 3 4 5 6 
#
# 1 0.018682 -0.013418 -0.011004 0.000000 0.000000 0.000000
# 2 -0.013418 0.062258 -0.015344 0.000000 0.000000 0.000000
# 3 -0.011004 -0.015344 0.028593 0.000000 0.000000 0.000000
# 4 0.000000 0.000000 0.000000 -0.678386 0.000000 0.000000
# 5 0.000000 0.000000 0.000000 0.000000 0.035880 0.000000
# 6 0.000000 0.000000 0.000000 0.000000 0.000000 0.051579
#
#
# Mechanical properties :
#
#
# Convention : Reuss Voigt Hill
#
# Bulk Modulus (GPa) = 33.33267 63.92046 48.62656
# Shear Modulus (GPa) = -12.75960 15.24530 1.24285
#
# Velocity S-wave (km/s) = -2.93677 3.21010 0.91656
# Velocity P-wave (km/s) = 3.32131 7.54622 5.82994
#
# Compressibility (1/GPa) = 0.03000060
#
# Stress axis : x y z
#
# Youngs Moduli (GPa) = 53.52826 16.06219 34.97346
#
# Poissons Ratio (x) = 0.21553 0.38484
# Poissons Ratio (y) = 0.71826 0.53664
# Poissons Ratio (z) = 0.58901 0.24646
#
# Static dielectric constant tensor:
#      x y z
#    x 1.496050 0.000000 0.000000 
#    y 0.000000 1.463590 0.000000 
#    z 0.000000 0.000000 1.494090 
# 
# From -- ./inp_files/3723.got.cif
#   From: 2010.05.17/outbox.cif.g08.bks.cpg/sg47_2_cif.got.tgz:3723.got - 2010.06.03 20:15:42.
