data_PCOD9384746
_publ_section_title
;
Structure prediction by ZEFSAII (Michael W. Deem and Ramdas Pophale) SiO2 
 PCOD9384746
Probable space group: P M M M
;
_chemical_formula_sum "Si O2"
_cell_formula_units_Z 36
_cell_length_a 21.635523
_cell_length_b 7.637443
_cell_length_c 13.629498
_cell_angle_alpha 90.000000
_cell_angle_beta 90.000000
_cell_angle_gamma 90.000000
_cell_volume 2252.139254
_symmetry_space_group_name_H-M "P M M M"
_symmetry_group_IT_number 47
_symmetry_cell_setting 'orthorhombic'
loop_
_space_group_symop_operation_xyz
x,y,z
-x,-y,z
x,-y,-z
-x,y,-z
-x,-y,-z
x,y,-z
-x,y,z
x,-y,z
loop_
_atom_site_type_symbol
_atom_site_label
_atom_site_fract_x
_atom_site_fract_y
_atom_site_fract_z
Si Si1 0.000000 0.292922 0.388800
Si Si2 0.352652 0.500000 0.611496
Si Si3 0.661137 0.205327 0.112245
Si Si4 0.426941 0.500000 0.192241
Si Si5 0.264100 0.790904 0.304358
Si Si6 0.866053 0.791462 0.388007
O O1 0.066162 0.244487 0.344305
O O2 0.000000 0.500000 0.396670
O O3 0.000000 0.215070 0.500000
O O4 0.374580 0.500000 0.500000
O O5 0.405688 0.500000 0.693967
O O6 0.309992 0.329545 0.632299
O O7 0.605111 0.331202 0.142674
O O8 0.715128 0.236839 0.191777
O O9 0.644075 0.000000 0.119855
O O10 0.679437 0.240531 0.000000
O O11 0.500000 0.500000 0.181340
O O12 0.194075 0.734728 0.328094
O O13 0.270747 0.000000 0.325357
O O14 0.864005 0.719345 0.500000
O O15 0.861156 0.000000 0.395283
#
# Coordination Sequence:
#
# PCOD9384746 Si02
#       6
#     4   4   8   4   8   8
#     4   9  17  25  35  55  84 117 150 186 222 262
#     4  10  20  32  49  69  92 124 157 189 224 266
#     4   9  18  33  52  73  96 120 149 189 235 278
#     4  10  21  35  50  71  98 124 152 186 223 270
#     4   9  18  31  47  69  94 120 154 194 233 273
#     4   9  16  26  40  58  84 118 151 184 224 269
#
# _framework density 15.984802
#
# number of rings (size 3 to 8) (size 9 to 14) (size 15 to 20)
#    0.000    2.778    0.000    1.333    1.556    4.222 
#    0.000    1.111    0.000    0.000    0.000    7.000 
#    0.000    6.222    0.000    0.000    0.000    0.000 
#
# Total GULP energy -200451.928873 kJ/mol
# GULP energy per Si atom -5568.109135 kJ/mol
# Density = 1.594842 g / cm^3
# Si number density = 15.984802 Si / 1000 Ang^3
#
#
#
# Elastic Constant Matrix: (Units=GPa)
#
#
# Indices 1 2 3 4 5 6 
#
# 1 125.1475 30.2313 39.3075 0.0000 0.0000 0.0000
# 2 30.2313 49.2237 29.8429 0.0000 0.0000 0.0000
# 3 39.3075 29.8429 89.6719 0.0000 0.0000 0.0000
# 4 0.0000 0.0000 0.0000 13.3211 0.0000 0.0000
# 5 0.0000 0.0000 0.0000 0.0000 5.5174 0.0000
# 6 0.0000 0.0000 0.0000 0.0000 0.0000 19.7574
#
#
#
# Elastic Compliance Matrix: (Units=1/GPa)
#
#
# Indices 1 2 3 4 5 6 
#
# 1 0.009957 -0.004346 -0.002918 0.000000 0.000000 0.000000
# 2 -0.004346 0.027347 -0.007196 0.000000 0.000000 0.000000
# 3 -0.002918 -0.007196 0.014826 0.000000 0.000000 0.000000
# 4 0.000000 0.000000 0.000000 0.075069 0.000000 0.000000
# 5 0.000000 0.000000 0.000000 0.000000 0.181243 0.000000
# 6 0.000000 0.000000 0.000000 0.000000 0.000000 0.050614
#
#
# Mechanical properties :
#
#
# Convention : Reuss Voigt Hill
#
# Bulk Modulus (GPa) = 43.08597 51.42294 47.25445
# Shear Modulus (GPa) = 12.63539 18.69661 15.66600
#
# Velocity S-wave (km/s) = 2.81457 3.42372 3.13398
# Velocity P-wave (km/s) = 6.12986 6.91874 6.53621
#
# Compressibility (1/GPa) = 0.02320941
#
# Stress axis : x y z
#
# Youngs Moduli (GPa) = 100.43176 36.56653 67.44947
#
# Poissons Ratio (x) = 0.15892 0.19684
# Poissons Ratio (y) = 0.43647 0.48538
# Poissons Ratio (z) = 0.29309 0.26314
#
# Static dielectric constant tensor:
#      x y z
#    x 1.534110 0.000000 0.000000 
#    y 0.000000 1.562940 0.000000 
#    z 0.000000 0.000000 1.531370 
# 
# From -- ./inp_files/18880.got.cif
#   From: 2010.05.17/outbox.cif.g08.bks.cpg/sg47_10_cif.got.tgz:18880.got - 2010.06.03 20:15:42.
