data_PCOD9384101
_publ_section_title
;
Structure prediction by ZEFSAII (Michael W. Deem and Ramdas Pophale) SiO2 
 PCOD9384101
Probable space group: P M M M
;
_chemical_formula_sum "Si O2"
_cell_formula_units_Z 37
_cell_length_a 9.783599
_cell_length_b 27.145034
_cell_length_c 7.473114
_cell_angle_alpha 90.000000
_cell_angle_beta 90.000000
_cell_angle_gamma 90.000000
_cell_volume 1984.680676
_symmetry_space_group_name_H-M "P M M M"
_symmetry_group_IT_number 47
_symmetry_cell_setting 'orthorhombic'
loop_
_space_group_symop_operation_xyz
x,y,z
-x,-y,z
x,-y,-z
-x,y,-z
-x,-y,-z
x,y,-z
-x,y,z
x,-y,z
loop_
_atom_site_type_symbol
_atom_site_label
_atom_site_fract_x
_atom_site_fract_y
_atom_site_fract_z
Si Si1 0.153329 0.643509 0.287696
Si Si2 0.343444 0.444234 0.718380
Si Si3 0.848028 0.898037 0.500000
Si Si4 0.652788 0.734117 0.785050
Si Si5 0.000000 0.000000 0.500000
Si Si6 0.338945 0.152583 0.213747
O O1 0.142579 0.635189 0.500000
O O2 0.242021 0.597894 0.216020
O O3 0.236346 0.693931 0.265293
O O4 0.000000 0.646259 0.214495
O O5 0.343040 0.443579 0.500000
O O6 0.500000 0.434444 0.773325
O O7 0.306679 0.500000 0.772040
O O8 0.760802 0.881247 0.328530
O O9 0.000000 0.873779 0.500000
O O10 0.882948 0.955843 0.500000
O O11 0.500000 0.720738 0.719622
O O12 0.683440 0.790274 0.730886
O O13 0.646853 0.735174 0.000000
O O14 0.500000 0.141993 0.246111
O O15 0.315669 0.148227 0.000000
#
# Coordination Sequence:
#
# PCOD9384101 Si02
#       6
#     8   8   4   8   1   8
#     4  10  20  30  43  70 105 134 167 210 263 328
#     4   8  14  26  44  64  87 122 170 219 265 316
#     4  10  21  39  61  85 123 162 195 234 284 342
#     4   9  19  35  53  74 102 136 175 219 269 324
#     4   8  24  44  56  92 128 166 202 232 284 344
#     4   9  19  37  61  89 117 151 200 249 293 342
#
# _framework density 18.642797999999999
#
# number of rings (size 3 to 8) (size 9 to 14) (size 15 to 20)
#    0.324    2.595    0.000    2.919    1.514    3.459 
#    0.000    6.486    0.000    1.946    0.000    4.541 
#    0.000    0.000    0.000    0.000    0.000    0.000 
#
# Total GULP energy -206027.012955 kJ/mol
# GULP energy per Si atom -5568.297647 kJ/mol
# Density = 1.860037 g / cm^3
# Si number density = 18.642798 Si / 1000 Ang^3
#
#
#
# Elastic Constant Matrix: (Units=GPa)
#
#
# Indices 1 2 3 4 5 6 
#
# 1 157.5509 122.8606 41.4943 0.0000 0.0000 0.0000
# 2 122.8606 144.0032 31.6170 0.0000 0.0000 0.0000
# 3 41.4943 31.6170 68.4306 0.0000 0.0000 0.0000
# 4 0.0000 0.0000 0.0000 12.5964 0.0000 0.0000
# 5 0.0000 0.0000 0.0000 0.0000 2.9484 0.0000
# 6 0.0000 0.0000 0.0000 0.0000 0.0000 77.8532
#
#
#
# Elastic Compliance Matrix: (Units=1/GPa)
#
#
# Indices 1 2 3 4 5 6 
#
# 1 0.020284 -0.016254 -0.004790 0.000000 0.000000 0.000000
# 2 -0.016254 0.020753 0.000267 0.000000 0.000000 0.000000
# 3 -0.004790 0.000267 0.017394 0.000000 0.000000 0.000000
# 4 0.000000 0.000000 0.000000 0.079388 0.000000 0.000000
# 5 0.000000 0.000000 0.000000 0.000000 0.339163 0.000000
# 6 0.000000 0.000000 0.000000 0.000000 0.000000 0.012845
#
#
# Mechanical properties :
#
#
# Convention : Reuss Voigt Hill
#
# Bulk Modulus (GPa) = 59.24712 84.65872 71.95292
# Shear Modulus (GPa) = 9.31089 30.28048 19.79569
#
# Velocity S-wave (km/s) = 2.23723 4.03457 3.26213
# Velocity P-wave (km/s) = 6.20667 8.19836 7.27104
#
# Compressibility (1/GPa) = 0.01687846
#
# Stress axis : x y z
#
# Youngs Moduli (GPa) = 49.30033 48.18509 57.49088
#
# Poissons Ratio (x) = 0.78321 0.27536
# Poissons Ratio (y) = 0.80134 -0.01537
# Poissons Ratio (z) = 0.23613 -0.01288
#
# Static dielectric constant tensor:
#      x y z
#    x 1.651020 0.000000 0.000000 
#    y 0.000000 1.615950 0.000000 
#    z 0.000000 0.000000 1.713110 
# 
# From -- ./inp_files/1472.got.cif
#   From: 2010.05.17/outbox.cif.g08.bks.cpg/sg47_1_cif.got.tgz:1472.got - 2010.06.03 20:15:42.
