data_PCOD9384879
_publ_section_title
;
Structure prediction by ZEFSAII (Michael W. Deem and Ramdas Pophale) SiO2 
 PCOD9384879
Probable space group: P M M M
;
_chemical_formula_sum "Si O2"
_cell_formula_units_Z 64
_cell_length_a 15.067764
_cell_length_b 7.853846
_cell_length_c 26.118434
_cell_angle_alpha 90.000000
_cell_angle_beta 90.000000
_cell_angle_gamma 90.000000
_cell_volume 3090.852816
_symmetry_space_group_name_H-M "P M M M"
_symmetry_group_IT_number 47
_symmetry_cell_setting 'orthorhombic'
loop_
_space_group_symop_operation_xyz
x,y,z
-x,-y,z
x,-y,-z
-x,y,-z
-x,-y,-z
x,y,-z
-x,y,z
x,-y,z
loop_
_atom_site_type_symbol
_atom_site_label
_atom_site_fract_x
_atom_site_fract_y
_atom_site_fract_z
Si Si1 0.902423 0.800322 0.076128
Si Si2 0.601210 0.203584 0.841933
Si Si3 0.724491 0.799206 0.750352
Si Si4 0.704135 0.300773 0.055213
Si Si5 0.102263 0.705140 0.442856
Si Si6 0.746999 0.205065 0.635659
Si Si7 0.097464 0.295540 0.194479
Si Si8 0.601186 0.207847 0.442841
O O1 0.810870 0.719728 0.057666
O O2 0.900214 0.777992 0.137346
O O3 0.000000 0.733488 0.059647
O O4 0.899383 0.000000 0.063251
O O5 0.500000 0.269201 0.845858
O O6 0.654700 0.271949 0.792209
O O7 0.657484 0.231066 0.893870
O O8 0.595876 0.000000 0.835763
O O9 0.732130 0.727247 0.692998
O O10 0.821558 0.778462 0.774414
O O11 0.703946 0.000000 0.745653
O O12 0.683741 0.500000 0.055138
O O13 0.674715 0.227018 0.000000
O O14 0.132982 0.764114 0.500000
O O15 0.102439 0.500000 0.444119
O O16 0.163156 0.757605 0.395426
O O17 0.000000 0.761012 0.436691
O O18 0.668509 0.269910 0.599388
O O19 0.741431 0.000000 0.638736
O O20 0.106690 0.500000 0.190904
O O21 0.000000 0.257535 0.216644
O O22 0.626946 0.262176 0.500000
O O23 0.500000 0.259385 0.433365
O O24 0.602637 0.000000 0.442473
#
# Coordination Sequence:
#
# PCOD9384879 Si02
#       8
#     8   8   8   8   8   8   8   8
#     4  10  20  35  58  87 118 151 185 223 271 328
#     4  10  22  41  63  84 109 147 194 239 287 345
#     4  10  21  36  54  80 113 147 182 226 280 333
#     4  11  24  40  60  88 120 152 189 235 283 335
#     4   9  19  36  55  75 105 148 193 234 281 336
#     4  10  20  32  51  81 112 141 180 229 277 326
#     4  10  20  34  55  81 108 143 185 224 266 321
#     4   8  14  26  46  73 104 136 170 212 265 322
#
# _framework density 20.706258999999999
#
# number of rings (size 3 to 8) (size 9 to 14) (size 15 to 20)
#    0.000    2.250    1.250    2.250    0.000    5.750 
#    0.000    8.125    0.000    0.375    0.000    3.500 
#    0.000    0.000    0.000    0.000    0.000    0.000 
#
# Total GULP energy -357046.088082 kJ/mol
# GULP energy per Si atom -5578.845126 kJ/mol
# Density = 2.065913 g / cm^3
# Si number density = 20.706259 Si / 1000 Ang^3
#
#
#
# Elastic Constant Matrix: (Units=GPa)
#
#
# Indices 1 2 3 4 5 6 
#
# 1 131.0860 -0.5168 102.0338 0.0000 0.0000 0.0000
# 2 -0.5168 26.0761 5.6408 0.0000 0.0000 0.0000
# 3 102.0338 5.6408 189.2478 0.0000 0.0000 0.0000
# 4 0.0000 0.0000 0.0000 11.9980 0.0000 0.0000
# 5 0.0000 0.0000 0.0000 0.0000 -5.9800 0.0000
# 6 0.0000 0.0000 0.0000 0.0000 0.0000 90.6112
#
#
#
# Elastic Compliance Matrix: (Units=1/GPa)
#
#
# Indices 1 2 3 4 5 6 
#
# 1 0.013230 0.001817 -0.007187 0.000000 0.000000 0.000000
# 2 0.001817 0.038848 -0.002138 0.000000 0.000000 0.000000
# 3 -0.007187 -0.002138 0.009223 0.000000 0.000000 0.000000
# 4 0.000000 0.000000 0.000000 0.083348 0.000000 0.000000
# 5 0.000000 0.000000 0.000000 0.000000 -0.167225 0.000000
# 6 0.000000 0.000000 0.000000 0.000000 0.000000 0.011036
#
#
# Mechanical properties :
#
#
# Convention : Reuss Voigt Hill
#
# Bulk Modulus (GPa) = 21.60531 62.30285 41.95408
# Shear Modulus (GPa) = 264.50825 35.27598 149.89211
#
# Velocity S-wave (km/s) = 11.31461 4.13199 8.51745
# Velocity P-wave (km/s) = 13.45923 7.27452 10.81826
#
# Compressibility (1/GPa) = 0.04628493
#
# Stress axis : x y z
#
# Youngs Moduli (GPa) = 75.58546 25.74159 108.42700
#
# Poissons Ratio (x) = -0.04677 0.77929
# Poissons Ratio (y) = -0.13733 0.23177
# Poissons Ratio (z) = 0.54325 0.05502
#
# Static dielectric constant tensor:
#      x y z
#    x 1.728410 0.000000 0.000000 
#    y 0.000000 1.760780 0.000000 
#    z 0.000000 0.000000 1.757310 
# 
# From -- ./inp_files/32766.got.cif
#   From: 2010.05.17/outbox.cif.g08.bks.cpg/sg47_17_cif.got.tgz:32766.got - 2010.06.03 20:15:42.
