data_PCOD9384616
_publ_section_title
;
Structure prediction by ZEFSAII (Michael W. Deem and Ramdas Pophale) SiO2 
 PCOD9384616
Probable space group: P M M M
;
_chemical_formula_sum "Si O2"
_cell_formula_units_Z 52
_cell_length_a 14.740068
_cell_length_b 7.742870
_cell_length_c 25.340598
_cell_angle_alpha 90.000000
_cell_angle_beta 90.000000
_cell_angle_gamma 90.000000
_cell_volume 2892.133354
_symmetry_space_group_name_H-M "P M M M"
_symmetry_group_IT_number 47
_symmetry_cell_setting 'orthorhombic'
loop_
_space_group_symop_operation_xyz
x,y,z
-x,-y,z
x,-y,-z
-x,y,-z
-x,-y,-z
x,y,-z
-x,y,z
x,-y,z
loop_
_atom_site_type_symbol
_atom_site_label
_atom_site_fract_x
_atom_site_fract_y
_atom_site_fract_z
Si Si1 0.899360 0.292103 0.290532
Si Si2 0.281852 0.296980 0.340481
Si Si3 0.396982 0.792394 0.237713
Si Si4 0.294499 0.209676 0.871103
Si Si5 0.100897 0.792406 0.167486
Si Si6 0.393145 0.500000 0.063071
Si Si7 0.397888 0.206636 0.441060
O O1 0.901528 0.500000 0.295762
O O2 0.816296 0.221063 0.324859
O O3 0.883015 0.254761 0.228698
O O4 0.000000 0.225644 0.303870
O O5 0.269271 0.500000 0.344639
O O6 0.348121 0.263306 0.291195
O O7 0.327805 0.242078 0.394761
O O8 0.500000 0.726300 0.234430
O O9 0.339824 0.748082 0.185694
O O10 0.400658 0.000000 0.239034
O O11 0.188230 0.259183 0.866386
O O12 0.345601 0.329123 0.913013
O O13 0.302544 0.000000 0.879541
O O14 0.000000 0.727173 0.152760
O O15 0.098492 0.000000 0.165023
O O16 0.500000 0.500000 0.077261
O O17 0.385539 0.500000 0.000000
O O18 0.373642 0.270535 0.500000
O O19 0.500000 0.271136 0.428157
O O20 0.403885 0.000000 0.444280
#
# Coordination Sequence:
#
# PCOD9384616 Si02
#       7
#     8   8   8   8   8   4   8
#     4   9  18  31  46  69 105 144 176 210 260 325
#     4  11  21  30  47  75 104 133 169 218 269 319
#     4  10  20  32  47  72 107 144 175 208 262 328
#     4  10  21  38  60  85 117 152 187 234 289 338
#     4   9  17  30  52  83 114 145 183 225 274 334
#     4  11  26  44  63  87 113 149 199 245 279 328
#     4   9  19  36  54  69  91 130 176 217 261 319
#
# _framework density 17.979806
#
# number of rings (size 3 to 8) (size 9 to 14) (size 15 to 20)
#    0.000    2.231    1.538    1.846    2.154    4.615 
#    0.000    1.538    0.000    1.385    0.000    5.385 
#    0.000    0.000    0.000    0.000    0.000    0.000 
#
# Total GULP energy -289974.644852 kJ/mol
# GULP energy per Si atom -5576.435478 kJ/mol
# Density = 1.793888 g / cm^3
# Si number density = 17.979806 Si / 1000 Ang^3
#
#
#
# Elastic Constant Matrix: (Units=GPa)
#
#
# Indices 1 2 3 4 5 6 
#
# 1 173.7886 37.1076 76.1122 0.0000 0.0000 0.0000
# 2 37.1076 39.8263 27.0806 0.0000 0.0000 0.0000
# 3 76.1122 27.0806 93.2566 0.0000 0.0000 0.0000
# 4 0.0000 0.0000 0.0000 27.0547 0.0000 0.0000
# 5 0.0000 0.0000 0.0000 0.0000 19.3972 0.0000
# 6 0.0000 0.0000 0.0000 0.0000 0.0000 29.7647
#
#
#
# Elastic Compliance Matrix: (Units=1/GPa)
#
#
# Indices 1 2 3 4 5 6 
#
# 1 0.009558 -0.004487 -0.006498 0.000000 0.000000 0.000000
# 2 -0.004487 0.033393 -0.006035 0.000000 0.000000 0.000000
# 3 -0.006498 -0.006035 0.017779 0.000000 0.000000 0.000000
# 4 0.000000 0.000000 0.000000 0.036962 0.000000 0.000000
# 5 0.000000 0.000000 0.000000 0.000000 0.051554 0.000000
# 6 0.000000 0.000000 0.000000 0.000000 0.000000 0.033597
#
#
# Mechanical properties :
#
#
# Convention : Reuss Voigt Hill
#
# Bulk Modulus (GPa) = 37.46638 65.27470 51.37054
# Shear Modulus (GPa) = 22.14548 26.34805 24.24677
#
# Velocity S-wave (km/s) = 3.51335 3.83224 3.67625
# Velocity P-wave (km/s) = 6.11076 7.48095 6.83030
#
# Compressibility (1/GPa) = 0.02669060
#
# Stress axis : x y z
#
# Youngs Moduli (GPa) = 104.62427 29.94600 56.24687
#
# Poissons Ratio (x) = 0.13438 0.36548
# Poissons Ratio (y) = 0.46947 0.33944
# Poissons Ratio (z) = 0.67983 0.18072
#
# Static dielectric constant tensor:
#      x y z
#    x 1.668180 0.000000 0.000000 
#    y 0.000000 1.650830 0.000000 
#    z 0.000000 0.000000 1.646820 
# 
# From -- ./inp_files/32666.got.cif
#   From: 2010.05.17/outbox.cif.g08.bks.cpg/sg47_17_cif.got.tgz:32666.got - 2010.06.03 20:15:42.
