data_PCOD9384969
_publ_section_title
;
Structure prediction by ZEFSAII (Michael W. Deem and Ramdas Pophale) SiO2 
 PCOD9384969
Probable space group: P M M M
;
_chemical_formula_sum "Si O2"
_cell_formula_units_Z 64
_cell_length_a 32.838130
_cell_length_b 15.043109
_cell_length_c 7.547015
_cell_angle_alpha 90.000000
_cell_angle_beta 90.000000
_cell_angle_gamma 90.000000
_cell_volume 3728.131593
_symmetry_space_group_name_H-M "P M M M"
_symmetry_group_IT_number 47
_symmetry_cell_setting 'orthorhombic'
loop_
_space_group_symop_operation_xyz
x,y,z
-x,-y,z
x,-y,-z
-x,y,-z
-x,-y,-z
x,y,-z
-x,y,z
x,-y,z
loop_
_atom_site_type_symbol
_atom_site_label
_atom_site_fract_x
_atom_site_fract_y
_atom_site_fract_z
Si Si1 0.925638 0.597751 0.789932
Si Si2 0.170283 0.401941 0.285875
Si Si3 0.279422 0.896146 0.716162
Si Si4 0.456206 0.897291 0.212140
Si Si5 0.368582 0.101616 0.288416
Si Si6 0.875596 0.100200 0.710908
Si Si7 0.044677 0.786647 0.786093
Si Si8 0.201533 0.785090 0.717316
O O1 0.936695 0.500000 0.716999
O O2 0.877056 0.609084 0.766111
O O3 0.946714 0.686408 0.719195
O O4 0.934195 0.594955 0.000000
O O5 0.171287 0.402191 0.500000
O O6 0.183522 0.500000 0.224252
O O7 0.195680 0.316793 0.225146
O O8 0.278385 0.895723 0.500000
O O9 0.324564 0.863911 0.772796
O O10 0.242431 0.834629 0.776101
O O11 0.274397 0.000000 0.768003
O O12 0.500000 0.859423 0.273413
O O13 0.412410 0.854801 0.252890
O O14 0.454912 0.000000 0.278466
O O15 0.457854 0.900992 0.000000
O O16 0.365739 0.096605 0.500000
O O17 0.370931 0.000000 0.218496
O O18 0.869485 0.094004 0.500000
O O19 0.918224 0.149643 0.738253
O O20 0.838028 0.159418 0.777396
O O21 0.875699 0.000000 0.782843
O O22 0.000000 0.816911 0.726660
O O23 0.044340 0.782734 0.000000
O O24 0.201686 0.784900 0.500000
#
# Coordination Sequence:
#
# PCOD9384969 Si02
#       8
#     8   8   8   8   8   8   8   8
#     4   9  17  30  48  67  85 105 128 154 186 227
#     4   9  16  26  43  66  87 104 124 153 190 230
#     4   8  13  21  34  53  75  98 126 159 192 225
#     4   8  13  20  29  41  59  87 122 156 190 227
#     4   8  13  20  30  45  64  86 116 156 194 221
#     4  10  20  33  49  67  83 103 135 169 196 225
#     4  10  21  35  49  65  85 108 131 156 192 236
#     4   9  15  25  42  62  82 103 126 156 193 229
#
# _framework density 17.166777
#
# number of rings (size 3 to 8) (size 9 to 14) (size 15 to 20)
#    0.000    3.125    1.250    1.500    0.000    2.750 
#    0.000    3.750    0.000    1.500    0.000    4.375 
#    0.000    0.000    0.000    0.000    0.000    0.625 
#
# Total GULP energy -356381.547216 kJ/mol
# GULP energy per Si atom -5568.461675 kJ/mol
# Density = 1.712770 g / cm^3
# Si number density = 17.166777 Si / 1000 Ang^3
#
#
#
# Elastic Constant Matrix: (Units=GPa)
#
#
# Indices 1 2 3 4 5 6 
#
# 1 158.5356 63.4068 0.1719 0.0000 0.0000 0.0000
# 2 63.4068 92.1764 4.4790 0.0000 0.0000 0.0000
# 3 0.1719 4.4790 39.7325 0.0000 0.0000 0.0000
# 4 0.0000 0.0000 0.0000 5.8356 0.0000 0.0000
# 5 0.0000 0.0000 0.0000 0.0000 20.8692 0.0000
# 6 0.0000 0.0000 0.0000 0.0000 0.0000 1.2333
#
#
#
# Elastic Compliance Matrix: (Units=1/GPa)
#
#
# Indices 1 2 3 4 5 6 
#
# 1 0.008718 -0.006028 0.000642 0.000000 0.000000 0.000000
# 2 -0.006028 0.015077 -0.001674 0.000000 0.000000 0.000000
# 3 0.000642 -0.001674 0.025354 0.000000 0.000000 0.000000
# 4 0.000000 0.000000 0.000000 0.171362 0.000000 0.000000
# 5 0.000000 0.000000 0.000000 0.000000 0.047917 0.000000
# 6 0.000000 0.000000 0.000000 0.000000 0.000000 0.810835
#
#
# Mechanical properties :
#
#
# Convention : Reuss Voigt Hill
#
# Bulk Modulus (GPa) = 28.54753 47.39552 37.97153
# Shear Modulus (GPa) = 4.52464 20.41341 12.46903
#
# Velocity S-wave (km/s) = 1.62524 3.45211 2.69801
# Velocity P-wave (km/s) = 4.49305 6.59986 5.64561
#
# Compressibility (1/GPa) = 0.03502930
#
# Stress axis : x y z
#
# Youngs Moduli (GPa) = 114.70480 66.32710 39.44119
#
# Poissons Ratio (x) = 0.39983 -0.02531
# Poissons Ratio (y) = 0.69146 0.06600
# Poissons Ratio (z) = -0.07362 0.11100
#
# Static dielectric constant tensor:
#      x y z
#    x 1.618380 0.000000 0.000000 
#    y 0.000000 1.573900 0.000000 
#    z 0.000000 0.000000 1.656130 
# 
# From -- ./inp_files/14385.got.cif
#   From: 2010.05.17/outbox.cif.g08.bks.cpg/sg47_8_cif.got.tgz:14385.got - 2010.06.03 20:15:42.
