data_PCOD9384955
_publ_section_title
;
Structure prediction by ZEFSAII (Michael W. Deem and Ramdas Pophale) SiO2 
 PCOD9384955
Probable space group: P M M M
;
_chemical_formula_sum "Si O2"
_cell_formula_units_Z 44
_cell_length_a 11.668785
_cell_length_b 14.858825
_cell_length_c 15.494219
_cell_angle_alpha 90.000000
_cell_angle_beta 90.000000
_cell_angle_gamma 90.000000
_cell_volume 2686.456396
_symmetry_space_group_name_H-M "P M M M"
_symmetry_group_IT_number 47
_symmetry_cell_setting 'orthorhombic'
loop_
_space_group_symop_operation_xyz
x,y,z
-x,-y,z
x,-y,-z
-x,y,-z
-x,-y,-z
x,y,-z
-x,y,z
x,-y,z
loop_
_atom_site_type_symbol
_atom_site_label
_atom_site_fract_x
_atom_site_fract_y
_atom_site_fract_z
Si Si1 0.500000 0.142756 0.099294
Si Si2 0.127390 0.608837 0.000000
Si Si3 0.137029 0.769646 0.755078
Si Si4 0.500000 0.359166 0.898577
Si Si5 0.745475 0.603437 0.824558
Si Si6 0.860966 0.897664 0.597844
Si Si7 0.756258 0.896024 0.897426
O O1 0.500000 0.250855 0.100848
O O2 0.623228 0.111540 0.133393
O O3 0.500000 0.111094 0.000000
O O4 0.193545 0.632242 0.913931
O O5 0.121129 0.500000 0.000000
O O6 0.000000 0.646504 0.000000
O O7 0.207481 0.676727 0.758385
O O8 0.171568 0.827642 0.671311
O O9 0.169946 0.830000 0.838317
O O10 0.000000 0.753029 0.754276
O O11 0.387838 0.391006 0.848206
O O12 0.500000 0.388385 0.000000
O O13 0.775848 0.500000 0.804015
O O14 0.824252 0.875364 0.500000
O O15 0.000000 0.898976 0.597431
O O16 0.823524 0.000000 0.617837
O O17 0.793033 0.000000 0.889268
O O18 0.760170 0.871830 0.000000
#
# Coordination Sequence:
#
# PCOD9384955 Si02
#       7
#     4   4   8   4   8   8   8
#     4   9  17  31  49  66  89 126 172 215 252 286
#     4   9  18  31  45  63  92 132 172 204 246 302
#     4  11  22  33  49  74 105 136 167 204 250 311
#     4  11  19  33  53  70  91 127 185 243 267 279
#     4  11  22  34  49  70  97 134 177 221 263 296
#     4   8  15  31  55  79 101 127 163 207 252 300
#     4  10  20  33  48  68  98 136 172 205 246 298
#
# _framework density 16.378453
#
# number of rings (size 3 to 8) (size 9 to 14) (size 15 to 20)
#    0.000    2.091    2.727    2.182    1.273    4.000 
#    0.000    0.909    0.000    0.545    0.000    5.091 
#    0.000    8.727    0.000    0.000    0.000    0.000 
#
# Total GULP energy -245317.108603 kJ/mol
# GULP energy per Si atom -5575.388832 kJ/mol
# Density = 1.634117 g / cm^3
# Si number density = 16.378453 Si / 1000 Ang^3
#
#
#
# Elastic Constant Matrix: (Units=GPa)
#
#
# Indices 1 2 3 4 5 6 
#
# 1 77.0953 25.7650 26.5278 0.0000 0.0000 0.0000
# 2 25.7650 121.4318 63.9391 0.0000 0.0000 0.0000
# 3 26.5278 63.9391 79.6060 0.0000 0.0000 0.0000
# 4 0.0000 0.0000 0.0000 20.6080 0.0000 0.0000
# 5 0.0000 0.0000 0.0000 0.0000 -23.6395 0.0000
# 6 0.0000 0.0000 0.0000 0.0000 0.0000 -84.7704
#
#
#
# Elastic Compliance Matrix: (Units=1/GPa)
#
#
# Indices 1 2 3 4 5 6 
#
# 1 0.014712 -0.000936 -0.004151 0.000000 0.000000 0.000000
# 2 -0.000936 0.014330 -0.011198 0.000000 0.000000 0.000000
# 3 -0.004151 -0.011198 0.022939 0.000000 0.000000 0.000000
# 4 0.000000 0.000000 0.000000 0.048525 0.000000 0.000000
# 5 0.000000 0.000000 0.000000 0.000000 -0.042302 0.000000
# 6 0.000000 0.000000 0.000000 0.000000 0.000000 -0.011797
#
#
# Mechanical properties :
#
#
# Convention : Reuss Voigt Hill
#
# Bulk Modulus (GPa) = 51.51506 56.73299 54.12403
# Shear Modulus (GPa) = 58.51632 -6.76696 25.87468
#
# Velocity S-wave (km/s) = 5.98374 -2.03484 3.97898
# Velocity P-wave (km/s) = 8.90289 5.40307 7.36392
#
# Compressibility (1/GPa) = 0.01941180
#
# Stress axis : x y z
#
# Youngs Moduli (GPa) = 67.97165 69.78511 43.59389
#
# Poissons Ratio (x) = 0.06531 0.18095
# Poissons Ratio (y) = 0.06362 0.48815
# Poissons Ratio (z) = 0.28214 0.78143
#
# Static dielectric constant tensor:
#      x y z
#    x 1.633940 0.000000 0.000000 
#    y 0.000000 1.577390 0.000000 
#    z 0.000000 0.000000 1.537580 
# 
# From -- ./inp_files/22630.got.cif
#   From: 2010.05.17/outbox.cif.g08.bks.cpg/sg47_12_cif.got.tgz:22630.got - 2010.06.03 20:15:42.
