data_PCOD9384670
_publ_section_title
;
Structure prediction by ZEFSAII (Michael W. Deem and Ramdas Pophale) SiO2 
 PCOD9384670
Probable space group: P M M M
;
_chemical_formula_sum "Si O2"
_cell_formula_units_Z 44
_cell_length_a 30.907940
_cell_length_b 7.609277
_cell_length_c 9.428300
_cell_angle_alpha 90.000000
_cell_angle_beta 90.000000
_cell_angle_gamma 90.000000
_cell_volume 2217.414318
_symmetry_space_group_name_H-M "P M M M"
_symmetry_group_IT_number 47
_symmetry_cell_setting 'orthorhombic'
loop_
_space_group_symop_operation_xyz
x,y,z
-x,-y,z
x,-y,-z
-x,y,-z
-x,-y,-z
x,y,-z
-x,y,z
x,-y,z
loop_
_atom_site_type_symbol
_atom_site_label
_atom_site_fract_x
_atom_site_fract_y
_atom_site_fract_z
Si Si1 0.190442 0.210302 0.338114
Si Si2 0.451909 0.785349 0.663981
Si Si3 0.712549 0.708107 0.660307
Si Si4 0.948204 0.500000 0.332943
Si Si5 0.105300 0.211154 0.831220
Si Si6 0.629314 0.791663 0.158086
O O1 0.185098 0.279437 0.500000
O O2 0.238798 0.254461 0.288386
O O3 0.151950 0.264213 0.234238
O O4 0.188027 0.000000 0.346263
O O5 0.446763 0.732449 0.500000
O O6 0.500000 0.732065 0.712918
O O7 0.411789 0.720146 0.755841
O O8 0.451384 0.000000 0.665005
O O9 0.708992 0.782092 0.500000
O O10 0.708013 0.500000 0.651499
O O11 0.673994 0.771797 0.758254
O O12 0.935886 0.500000 0.500000
O O13 0.928987 0.329163 0.253482
O O14 0.000000 0.500000 0.324217
O O15 0.099268 0.000000 0.809485
O O16 0.103560 0.243725 0.000000
O O17 0.621712 0.000000 0.146761
O O18 0.632458 0.717904 0.000000
#
# Coordination Sequence:
#
# PCOD9384670 Si02
#       6
#     8   8   8   4   8   8
#     4   9  18  34  57  84 113 147 188 234 283 336
#     4   8  14  26  46  71  96 124 162 209 261 317
#     4  10  21  35  52  76 105 140 182 225 269 320
#     4  11  25  43  65  93 125 165 213 261 304 353
#     4  10  22  40  63  93 128 164 202 249 307 368
#     4  10  20  32  48  72 102 136 172 213 264 321
#
# _framework density 19.842932999999999
#
# number of rings (size 3 to 8) (size 9 to 14) (size 15 to 20)
#    0.000    2.455    0.000    2.455    1.273    5.455 
#    0.000    5.455    0.000    0.545    0.000    3.818 
#    0.000    0.000    0.000    0.000    0.000    0.000 
#
# Total GULP energy -245540.339278 kJ/mol
# GULP energy per Si atom -5580.462256 kJ/mol
# Density = 1.979777 g / cm^3
# Si number density = 19.842933 Si / 1000 Ang^3
#
#
#
# Elastic Constant Matrix: (Units=GPa)
#
#
# Indices 1 2 3 4 5 6 
#
# 1 163.8822 29.9409 106.9363 0.0000 0.0000 0.0000
# 2 29.9409 57.8477 36.9012 0.0000 0.0000 0.0000
# 3 106.9363 36.9012 130.5483 0.0000 0.0000 0.0000
# 4 0.0000 0.0000 0.0000 13.0559 0.0000 0.0000
# 5 0.0000 0.0000 0.0000 0.0000 4.8466 0.0000
# 6 0.0000 0.0000 0.0000 0.0000 0.0000 63.3805
#
#
#
# Elastic Compliance Matrix: (Units=1/GPa)
#
#
# Indices 1 2 3 4 5 6 
#
# 1 0.013109 0.000079 -0.010760 0.000000 0.000000 0.000000
# 2 0.000079 0.021090 -0.006026 0.000000 0.000000 0.000000
# 3 -0.010760 -0.006026 0.018177 0.000000 0.000000 0.000000
# 4 0.000000 0.000000 0.000000 0.076594 0.000000 0.000000
# 5 0.000000 0.000000 0.000000 0.000000 0.206331 0.000000
# 6 0.000000 0.000000 0.000000 0.000000 0.000000 0.015778
#
#
# Mechanical properties :
#
#
# Convention : Reuss Voigt Hill
#
# Bulk Modulus (GPa) = 52.73808 77.75946 65.24877
# Shear Modulus (GPa) = 12.79382 28.15657 20.47520
#
# Velocity S-wave (km/s) = 2.54196 3.77101 3.21575
# Velocity P-wave (km/s) = 5.93724 7.63107 6.83682
#
# Compressibility (1/GPa) = 0.01896163
#
# Stress axis : x y z
#
# Youngs Moduli (GPa) = 76.28548 47.41599 55.01371
#
# Poissons Ratio (x) = -0.00375 0.59195
# Poissons Ratio (y) = -0.00603 0.33152
# Poissons Ratio (z) = 0.82084 0.28574
#
# Static dielectric constant tensor:
#      x y z
#    x 1.682070 0.000000 0.000000 
#    y 0.000000 1.740260 0.000000 
#    z 0.000000 0.000000 1.680140 
# 
# From -- ./inp_files/13622.got.cif
#   From: 2010.05.17/outbox.cif.g08.bks.cpg/sg47_7_cif.got.tgz:13622.got - 2010.06.03 20:15:42.
