data_PCOD9384323
_publ_section_title
;
Structure prediction by ZEFSAII (Michael W. Deem and Ramdas Pophale) SiO2 
 PCOD9384323
Probable space group: P M M M
;
_chemical_formula_sum "Si O2"
_cell_formula_units_Z 48
_cell_length_a 7.634164
_cell_length_b 9.331168
_cell_length_c 36.109052
_cell_angle_alpha 90.000000
_cell_angle_beta 90.000000
_cell_angle_gamma 90.000000
_cell_volume 2572.252398
_symmetry_space_group_name_H-M "P M M M"
_symmetry_group_IT_number 47
_symmetry_cell_setting 'orthorhombic'
loop_
_space_group_symop_operation_xyz
x,y,z
-x,-y,z
x,-y,-z
-x,y,-z
-x,-y,-z
x,y,-z
-x,y,z
x,-y,z
loop_
_atom_site_type_symbol
_atom_site_label
_atom_site_fract_x
_atom_site_fract_y
_atom_site_fract_z
Si Si1 0.000000 0.173961 0.817942
Si Si2 0.000000 0.175471 0.097476
Si Si3 0.710477 0.337475 0.313762
Si Si4 0.293412 0.171553 0.760015
Si Si5 0.786185 0.665941 0.458659
Si Si6 0.299014 0.825593 0.041679
Si Si7 0.210157 0.161433 0.612466
O O1 0.171448 0.214798 0.794346
O O2 0.000000 0.225327 0.860177
O O3 0.000000 0.000000 0.819461
O O4 0.168738 0.221483 0.073780
O O5 0.000000 0.000000 0.098114
O O6 0.500000 0.343393 0.311707
O O7 0.778146 0.500000 0.314477
O O8 0.766895 0.251830 0.277173
O O9 0.754409 0.254285 0.351207
O O10 0.500000 0.200651 0.766489
O O11 0.275410 0.000000 0.754502
O O12 0.731636 0.711801 0.500000
O O13 0.734713 0.500000 0.453391
O O14 0.723251 0.762006 0.424759
O O15 0.000000 0.668277 0.458370
O O16 0.500000 0.781354 0.047532
O O17 0.296849 0.000000 0.041795
O O18 0.244404 0.782265 0.000000
O O19 0.000000 0.153407 0.608760
O O20 0.278223 0.000000 0.616577
#
# Coordination Sequence:
#
# PCOD9384323 Si02
#       7
#     4   4   8   8   8   8   8
#     4   9  18  29  43  64  87 117 159 201 244 298
#     4   9  15  22  33  51  75 105 146 197 243 282
#     4  10  21  36  53  72  93 119 154 196 241 289
#     4   9  18  33  50  67  92 124 155 194 245 297
#     4   8  14  26  44  66  95 130 164 197 233 275
#     4   8  13  20  30  46  71 106 148 194 242 286
#     4  10  20  31  47  74 102 127 156 192 236 286
#
# _framework density 18.660688
#
# number of rings (size 3 to 8) (size 9 to 14) (size 15 to 20)
#    0.000    3.000    0.000    2.250    1.167    4.000 
#    0.000    5.000    0.000    0.500    0.000    3.500 
#    0.000    0.000    0.000    0.000    0.000    6.667 
#
# Total GULP energy -267614.215196 kJ/mol
# GULP energy per Si atom -5575.296150 kJ/mol
# Density = 1.861822 g / cm^3
# Si number density = 18.660688 Si / 1000 Ang^3
#
#
#
# Elastic Constant Matrix: (Units=GPa)
#
#
# Indices 1 2 3 4 5 6 
#
# 1 64.8443 29.7389 67.9330 0.0000 0.0000 0.0000
# 2 29.7389 59.4913 70.3995 0.0000 0.0000 0.0000
# 3 67.9330 70.3995 217.4030 0.0000 0.0000 0.0000
# 4 0.0000 0.0000 0.0000 -18.2126 0.0000 0.0000
# 5 0.0000 0.0000 0.0000 0.0000 10.9720 0.0000
# 6 0.0000 0.0000 0.0000 0.0000 0.0000 7.8387
#
#
#
# Elastic Compliance Matrix: (Units=1/GPa)
#
#
# Indices 1 2 3 4 5 6 
#
# 1 0.023819 -0.005025 -0.005816 0.000000 0.000000 0.000000
# 2 -0.005025 0.028312 -0.007598 0.000000 0.000000 0.000000
# 3 -0.005816 -0.007598 0.008877 0.000000 0.000000 0.000000
# 4 0.000000 0.000000 0.000000 -0.054907 0.000000 0.000000
# 5 0.000000 0.000000 0.000000 0.000000 0.091141 0.000000
# 6 0.000000 0.000000 0.000000 0.000000 0.000000 0.127572
#
#
# Mechanical properties :
#
#
# Convention : Reuss Voigt Hill
#
# Bulk Modulus (GPa) = 41.43951 75.32015 58.37983
# Shear Modulus (GPa) = 18.53676 11.69743 15.11709
#
# Velocity S-wave (km/s) = 3.15518 2.50641 2.84932
# Velocity P-wave (km/s) = 5.96059 6.98761 6.49443
#
# Compressibility (1/GPa) = 0.02413156
#
# Stress axis : x y z
#
# Youngs Moduli (GPa) = 41.98397 35.32076 112.64612
#
# Poissons Ratio (x) = 0.17747 0.65511
# Poissons Ratio (y) = 0.21095 0.85588
# Poissons Ratio (z) = 0.24416 0.26836
#
# Static dielectric constant tensor:
#      x y z
#    x 1.690950 0.000000 0.000000 
#    y 0.000000 1.635550 0.000000 
#    z 0.000000 0.000000 1.623230 
# 
# From -- ./inp_files/34132.got.cif
#   From: 2010.05.17/outbox.cif.g08.bks.cpg/sg47_18_cif.got.tgz:34132.got - 2010.06.03 20:15:42.
