data_PCOD9384817
_publ_section_title
;
Structure prediction by ZEFSAII (Michael W. Deem and Ramdas Pophale) SiO2 
 PCOD9384817
Probable space group: P M M M
;
_chemical_formula_sum "Si O2"
_cell_formula_units_Z 44
_cell_length_a 7.961347
_cell_length_b 29.402341
_cell_length_c 9.416513
_cell_angle_alpha 90.000000
_cell_angle_beta 90.000000
_cell_angle_gamma 90.000000
_cell_volume 2204.238450
_symmetry_space_group_name_H-M "P M M M"
_symmetry_group_IT_number 47
_symmetry_cell_setting 'orthorhombic'
loop_
_space_group_symop_operation_xyz
x,y,z
-x,-y,z
x,-y,-z
-x,y,-z
-x,-y,-z
x,y,-z
-x,y,z
x,-y,z
loop_
_atom_site_type_symbol
_atom_site_label
_atom_site_fract_x
_atom_site_fract_y
_atom_site_fract_z
Si Si1 0.299733 0.000000 0.662924
Si Si2 0.702679 0.727224 0.661991
Si Si3 0.204946 0.551098 0.664040
Si Si4 0.796958 0.361770 0.838241
Si Si5 0.701214 0.813929 0.839024
Si Si6 0.199616 0.901807 0.336958
O O1 0.242996 0.951720 0.723802
O O2 0.500000 0.000000 0.659392
O O3 0.232792 0.000000 0.500000
O O4 0.765382 0.726629 0.500000
O O5 0.500000 0.730161 0.656406
O O6 0.747699 0.681461 0.744757
O O7 0.766211 0.771215 0.747968
O O8 0.254471 0.559096 0.500000
O O9 0.258210 0.500000 0.705042
O O10 0.263236 0.591657 0.764569
O O11 0.000000 0.551246 0.666396
O O12 0.000000 0.363623 0.841659
O O13 0.736346 0.357327 0.000000
O O14 0.500000 0.808727 0.847497
O O15 0.735370 0.860773 0.757901
O O16 0.767791 0.814143 0.000000
O O17 0.267003 0.898854 0.500000
O O18 0.000000 0.898164 0.344177
#
# Coordination Sequence:
#
# PCOD9384817 Si02
#       6
#     4   8   8   8   8   8
#     4   9  17  31  54  81 108 141 180 220 258 299
#     4  10  21  37  57  78 100 132 174 216 259 309
#     4   8  14  26  45  69  98 133 172 213 256 302
#     4  10  20  32  49  76 107 137 169 208 257 311
#     4  10  21  37  56  77 102 134 172 213 258 309
#     4  10  20  34  54  81 111 141 174 214 260 307
#
# _framework density 19.961542999999999
#
# number of rings (size 3 to 8) (size 9 to 14) (size 15 to 20)
#    0.000    2.455    0.000    3.000    0.000    6.545 
#    0.000    2.273    0.000    3.273    0.000    3.818 
#    0.000    0.000    0.000    0.000    0.000    0.000 
#
# Total GULP energy -245588.291291 kJ/mol
# GULP energy per Si atom -5581.552075 kJ/mol
# Density = 1.991611 g / cm^3
# Si number density = 19.961543 Si / 1000 Ang^3
#
#
#
# Elastic Constant Matrix: (Units=GPa)
#
#
# Indices 1 2 3 4 5 6 
#
# 1 16.5374 1.6866 10.6296 0.0000 0.0000 0.0000
# 2 1.6866 209.0250 125.7775 0.0000 0.0000 0.0000
# 3 10.6296 125.7775 165.4064 0.0000 0.0000 0.0000
# 4 0.0000 0.0000 0.0000 -14.9422 0.0000 0.0000
# 5 0.0000 0.0000 0.0000 0.0000 17.0294 0.0000
# 6 0.0000 0.0000 0.0000 0.0000 0.0000 29.1643
#
#
#
# Elastic Compliance Matrix: (Units=1/GPa)
#
#
# Indices 1 2 3 4 5 6 
#
# 1 0.064543 0.003641 -0.006917 0.000000 0.000000 0.000000
# 2 0.003641 0.009025 -0.007097 0.000000 0.000000 0.000000
# 3 -0.006917 -0.007097 0.011887 0.000000 0.000000 0.000000
# 4 0.000000 0.000000 0.000000 -0.066925 0.000000 0.000000
# 5 0.000000 0.000000 0.000000 0.000000 0.058722 0.000000
# 6 0.000000 0.000000 0.000000 0.000000 0.000000 0.034289
#
#
# Mechanical properties :
#
#
# Convention : Reuss Voigt Hill
#
# Bulk Modulus (GPa) = 15.45336 74.12844 44.79090
# Shear Modulus (GPa) = 32.49790 23.10864 27.80327
#
# Velocity S-wave (km/s) = 4.03926 3.40613 3.73613
# Velocity P-wave (km/s) = 5.43254 7.25846 6.41084
#
# Compressibility (1/GPa) = 0.06471086
#
# Stress axis : x y z
#
# Youngs Moduli (GPa) = 15.49343 110.80126 84.12716
#
# Poissons Ratio (x) = -0.40344 0.58187
# Poissons Ratio (y) = -0.05641 0.59704
# Poissons Ratio (z) = 0.10716 0.78634
#
# Static dielectric constant tensor:
#      x y z
#    x 1.727420 0.000000 0.000000 
#    y 0.000000 1.681950 0.000000 
#    z 0.000000 0.000000 1.697300 
# 
# From -- ./inp_files/2305.got.cif
#   From: 2010.05.17/outbox.cif.g08.bks.cpg/sg47_2_cif.got.tgz:2305.got - 2010.06.03 20:15:42.
