data_PCOD9384066
_publ_section_title
;
Structure prediction by ZEFSAII (Michael W. Deem and Ramdas Pophale) SiO2 
 PCOD9384066
Probable space group: P M M M
;
_chemical_formula_sum "Si O2"
_cell_formula_units_Z 44
_cell_length_a 20.429010
_cell_length_b 7.228906
_cell_length_c 14.813692
_cell_angle_alpha 90.000000
_cell_angle_beta 90.000000
_cell_angle_gamma 90.000000
_cell_volume 2187.677042
_symmetry_space_group_name_H-M "P M M M"
_symmetry_group_IT_number 47
_symmetry_cell_setting 'orthorhombic'
loop_
_space_group_symop_operation_xyz
x,y,z
-x,-y,z
x,-y,-z
-x,y,-z
-x,-y,-z
x,y,-z
-x,y,z
x,-y,z
loop_
_atom_site_type_symbol
_atom_site_label
_atom_site_fract_x
_atom_site_fract_y
_atom_site_fract_z
Si Si1 0.072431 0.725447 0.788132
Si Si2 0.282317 0.275645 0.399610
Si Si3 0.800206 0.724584 0.896800
Si Si4 0.332041 0.722504 0.208777
Si Si5 0.421965 0.000000 0.893365
Si Si6 0.130081 0.275279 0.600090
O O1 0.073009 0.500000 0.789115
O O2 0.132416 0.785582 0.850611
O O3 0.087874 0.783099 0.685427
O O4 0.000000 0.783765 0.816419
O O5 0.303190 0.216574 0.500000
O O6 0.282033 0.500000 0.399370
O O7 0.324887 0.220877 0.313606
O O8 0.206185 0.221252 0.387081
O O9 0.801554 0.500000 0.896843
O O10 0.736627 0.774626 0.838961
O O11 0.794549 0.785268 0.000000
O O12 0.338922 0.500000 0.203925
O O13 0.389264 0.824688 0.155808
O O14 0.500000 0.000000 0.884141
O O15 0.405835 0.000000 0.000000
O O16 0.108828 0.216330 0.500000
O O17 0.129259 0.500000 0.600053
#
# Coordination Sequence:
#
# PCOD9384066 Si02
#       6
#     8   8   8   8   4   8
#     4   9  15  21  30  52  92 136 176 225 281 328
#     4   8  13  24  48  80 109 140 183 232 277 324
#     4   9  16  26  42  65  92 130 184 233 272 322
#     4  10  19  36  62  86 113 151 189 228 277 328
#     4  11  26  44  61  89 122 146 180 227 273 331
#     4   8  12  19  32  54  89 131 174 222 274 324
#
# _framework density 20.112656999999999
#
# number of rings (size 3 to 8) (size 9 to 14) (size 15 to 20)
#    0.000    3.000    1.818    1.636    0.000    2.182 
#    0.000    5.000    0.000    1.091    0.000    3.182 
#    0.000    2.182    0.000    4.182    0.000    8.727 
#
# Total GULP energy -245638.419224 kJ/mol
# GULP energy per Si atom -5582.691346 kJ/mol
# Density = 2.006688 g / cm^3
# Si number density = 20.112657 Si / 1000 Ang^3
#
#
#
# Elastic Constant Matrix: (Units=GPa)
#
#
# Indices 1 2 3 4 5 6 
#
# 1 104.6111 22.9055 73.9893 0.0000 0.0000 0.0000
# 2 22.9055 100.7860 21.9306 0.0000 0.0000 0.0000
# 3 73.9893 21.9306 160.0170 0.0000 0.0000 0.0000
# 4 0.0000 0.0000 0.0000 -15.5356 0.0000 0.0000
# 5 0.0000 0.0000 0.0000 0.0000 25.1201 0.0000
# 6 0.0000 0.0000 0.0000 0.0000 0.0000 35.2319
#
#
#
# Elastic Compliance Matrix: (Units=1/GPa)
#
#
# Indices 1 2 3 4 5 6 
#
# 1 0.014549 -0.001899 -0.006467 0.000000 0.000000 0.000000
# 2 -0.001899 0.010475 -0.000557 0.000000 0.000000 0.000000
# 3 -0.006467 -0.000557 0.009316 0.000000 0.000000 0.000000
# 4 0.000000 0.000000 0.000000 -0.064368 0.000000 0.000000
# 5 0.000000 0.000000 0.000000 0.000000 0.039809 0.000000
# 6 0.000000 0.000000 0.000000 0.000000 0.000000 0.028383
#
#
# Mechanical properties :
#
#
# Convention : Reuss Voigt Hill
#
# Bulk Modulus (GPa) = 60.63332 67.00722 63.82027
# Shear Modulus (GPa) = 81.28964 25.40255 53.34610
#
# Velocity S-wave (km/s) = 6.36435 3.55774 5.15570
# Velocity P-wave (km/s) = 9.17708 7.08978 8.20012
#
# Compressibility (1/GPa) = 0.01649258
#
# Stress axis : x y z
#
# Youngs Moduli (GPa) = 68.73319 95.46578 107.34309
#
# Poissons Ratio (x) = 0.18132 0.69418
# Poissons Ratio (y) = 0.13055 0.05983
# Poissons Ratio (z) = 0.44449 0.05321
#
# Static dielectric constant tensor:
#      x y z
#    x 1.648890 0.000000 0.000000 
#    y 0.000000 0.329080 0.000000 
#    z 0.000000 0.000000 1.706200 
# 
# From -- ./inp_files/24320.got.cif
#   From: 2010.05.17/outbox.cif.g08.bks.cpg/sg47_13_cif.got.tgz:24320.got - 2010.06.03 20:15:42.
