data_PCOD9384865
_publ_section_title
;
Structure prediction by ZEFSAII (Michael W. Deem and Ramdas Pophale) SiO2 
 PCOD9384865
Probable space group: P M M M
;
_chemical_formula_sum "Si O2"
_cell_formula_units_Z 64
_cell_length_a 24.576130
_cell_length_b 8.842113
_cell_length_c 14.665310
_cell_angle_alpha 90.000000
_cell_angle_beta 90.000000
_cell_angle_gamma 90.000000
_cell_volume 3186.843995
_symmetry_space_group_name_H-M "P M M M"
_symmetry_group_IT_number 47
_symmetry_cell_setting 'orthorhombic'
loop_
_space_group_symop_operation_xyz
x,y,z
-x,-y,z
x,-y,-z
-x,y,-z
-x,-y,-z
x,y,-z
-x,y,z
x,-y,z
loop_
_atom_site_type_symbol
_atom_site_label
_atom_site_fract_x
_atom_site_fract_y
_atom_site_fract_z
Si Si1 0.720855 0.319613 0.893428
Si Si2 0.893286 0.683928 0.397721
Si Si3 0.438350 0.322672 0.711518
Si Si4 0.565005 0.171400 0.900124
Si Si5 0.230114 0.323886 0.609091
Si Si6 0.163492 0.825052 0.109313
Si Si7 0.328318 0.178441 0.282651
Si Si8 0.939573 0.682728 0.208397
O O1 0.714794 0.500000 0.885925
O O2 0.782538 0.270781 0.868552
O O3 0.682246 0.238877 0.820384
O O4 0.712672 0.276502 0.000000
O O5 0.907196 0.736521 0.500000
O O6 0.892003 0.500000 0.401677
O O7 0.831490 0.731234 0.373600
O O8 0.932201 0.724718 0.314925
O O9 0.500000 0.157045 0.908859
O O10 0.435954 0.500000 0.692088
O O11 0.430577 0.290405 0.819303
O O12 0.384701 0.240780 0.674393
O O13 0.500000 0.268499 0.687564
O O14 0.584530 0.000000 0.877111
O O15 0.586483 0.215281 0.000000
O O16 0.237470 0.317658 0.500000
O O17 0.233316 0.500000 0.637394
O O18 0.276907 0.235041 0.659868
O O19 0.109664 0.757955 0.154515
O O20 0.171968 0.000000 0.136180
O O21 0.157181 0.819614 0.000000
O O22 0.330063 0.000000 0.281810
O O23 0.934806 0.500000 0.201527
O O24 0.000000 0.725748 0.176499
#
# Coordination Sequence:
#
# PCOD9384865 Si02
#       8
#     8   8   8   8   8   8   8   8
#     4  10  21  38  60  84 111 144 184 232 283 335
#     4   8  15  30  53  80 109 141 176 217 268 322
#     4  10  21  36  53  73 100 138 183 226 268 319
#     4   8  14  26  44  65  91 125 165 209 256 305
#     4   9  18  35  60  86 111 142 183 231 280 332
#     4  10  21  37  56  77 104 141 185 234 289 341
#     4  12  24  36  56  84 115 149 181 222 275 331
#     4  10  20  32  50  79 112 148 191 234 272 317
#
# _framework density 20.082564999999999
#
# number of rings (size 3 to 8) (size 9 to 14) (size 15 to 20)
#    0.000    2.375    0.000    4.125    0.000    5.000 
#    0.000    3.750    0.000    1.500    0.000    3.500 
#    0.000    0.000    0.000    0.000    0.000    0.000 
#
# Total GULP energy -357050.855663 kJ/mol
# GULP energy per Si atom -5578.919620 kJ/mol
# Density = 2.003686 g / cm^3
# Si number density = 20.082565 Si / 1000 Ang^3
#
#
#
# Elastic Constant Matrix: (Units=GPa)
#
#
# Indices 1 2 3 4 5 6 
#
# 1 113.6376 32.8262 20.7623 0.0000 0.0000 0.0000
# 2 32.8262 56.6850 9.3021 0.0000 0.0000 0.0000
# 3 20.7623 9.3021 12.5465 0.0000 0.0000 0.0000
# 4 0.0000 0.0000 0.0000 16.7487 0.0000 0.0000
# 5 0.0000 0.0000 0.0000 0.0000 10.5164 0.0000
# 6 0.0000 0.0000 0.0000 0.0000 0.0000 6.2292
#
#
#
# Elastic Compliance Matrix: (Units=1/GPa)
#
#
# Indices 1 2 3 4 5 6 
#
# 1 0.013666 -0.004785 -0.019067 0.000000 0.000000 0.000000
# 2 -0.004785 0.021760 -0.008215 0.000000 0.000000 0.000000
# 3 -0.019067 -0.008215 0.117347 0.000000 0.000000 0.000000
# 4 0.000000 0.000000 0.000000 0.059706 0.000000 0.000000
# 5 0.000000 0.000000 0.000000 0.000000 0.095090 0.000000
# 6 0.000000 0.000000 0.000000 0.000000 0.000000 0.160534
#
#
# Mechanical properties :
#
#
# Convention : Reuss Voigt Hill
#
# Bulk Modulus (GPa) = 11.28166 34.29446 22.78806
# Shear Modulus (GPa) = 8.90022 14.69742 11.79882
#
# Velocity S-wave (km/s) = 2.10747 2.70821 2.42650
# Velocity P-wave (km/s) = 3.39879 5.18584 4.38433
#
# Compressibility (1/GPa) = 0.08863943
#
# Stress axis : x y z
#
# Youngs Moduli (GPa) = 73.17544 45.95503 8.52170
#
# Poissons Ratio (x) = 0.21989 0.16248
# Poissons Ratio (y) = 0.35014 0.07001
# Poissons Ratio (z) = 1.39524 0.37753
#
# Static dielectric constant tensor:
#      x y z
#    x 1.738880 0.000000 0.000000 
#    y 0.000000 1.688930 0.000000 
#    z 0.000000 0.000000 1.737070 
# 
# From -- ./inp_files/25551.got.cif
#   From: 2010.05.17/outbox.cif.g08.bks.cpg/sg47_13_cif.got.tgz:25551.got - 2010.06.03 20:15:42.
