data_PCOD9384190
_publ_section_title
;
Structure prediction by ZEFSAII (Michael W. Deem and Ramdas Pophale) SiO2 
 PCOD9384190
Probable space group: P M M M
;
_chemical_formula_sum "Si O2"
_cell_formula_units_Z 64
_cell_length_a 29.791096
_cell_length_b 8.045437
_cell_length_c 15.029571
_cell_angle_alpha 90.000000
_cell_angle_beta 90.000000
_cell_angle_gamma 90.000000
_cell_volume 3602.323438
_symmetry_space_group_name_H-M "P M M M"
_symmetry_group_IT_number 47
_symmetry_cell_setting 'orthorhombic'
loop_
_space_group_symop_operation_xyz
x,y,z
-x,-y,z
x,-y,-z
-x,y,-z
-x,-y,-z
x,y,-z
-x,y,z
x,-y,z
loop_
_atom_site_type_symbol
_atom_site_label
_atom_site_fract_x
_atom_site_fract_y
_atom_site_fract_z
Si Si1 0.087460 0.701096 0.601087
Si Si2 0.867477 0.202154 0.896317
Si Si3 0.354075 0.803093 0.398023
Si Si4 0.048891 0.198475 0.782638
Si Si5 0.548439 0.699970 0.395159
Si Si6 0.809868 0.702599 0.601529
Si Si7 0.233267 0.800367 0.899417
Si Si8 0.271055 0.697005 0.278435
O O1 0.076278 0.751900 0.500000
O O2 0.086208 0.500000 0.603407
O O3 0.056497 0.768819 0.678554
O O4 0.139016 0.754609 0.620166
O O5 0.907943 0.266209 0.835600
O O6 0.817047 0.260560 0.873415
O O7 0.866904 0.000000 0.889366
O O8 0.875311 0.241746 0.000000
O O9 0.349986 0.734590 0.500000
O O10 0.403915 0.763881 0.361587
O O11 0.315378 0.739540 0.333530
O O12 0.349605 0.000000 0.403924
O O13 0.000000 0.264370 0.810432
O O14 0.048387 0.000000 0.797234
O O15 0.548150 0.745653 0.500000
O O16 0.500000 0.756868 0.357810
O O17 0.549184 0.500000 0.389945
O O18 0.798718 0.750638 0.500000
O O19 0.809909 0.500000 0.603693
O O20 0.772382 0.766590 0.668713
O O21 0.268076 0.754644 0.823091
O O22 0.230986 0.000000 0.903287
O O23 0.243012 0.741148 0.000000
O O24 0.266699 0.500000 0.277842
#
# Coordination Sequence:
#
# PCOD9384190 Si02
#       8
#     8   8   8   8   8   8   8   8
#     4   9  18  33  50  64  81 111 150 184 214 257
#     4   8  15  30  51  71  90 114 143 174 213 266
#     4  10  20  31  43  64  97 134 169 202 235 276
#     4  10  20  31  45  68  93 113 137 175 220 261
#     4   8  14  26  44  64  88 123 167 210 247 280
#     4   8  15  28  45  65  87 112 145 183 221 262
#     4   9  18  33  51  68  88 116 149 186 228 275
#     4  11  20  29  46  69  94 123 152 188 234 280
#
# _framework density 17.766311999999999
#
# number of rings (size 3 to 8) (size 9 to 14) (size 15 to 20)
#    0.000    2.875    0.000    3.750    0.000    2.750 
#    0.000    4.375    0.000    2.625    0.000    0.875 
#    0.000    0.500    0.000    5.250    0.000    2.500 
#
# Total GULP energy -356705.086849 kJ/mol
# GULP energy per Si atom -5573.516982 kJ/mol
# Density = 1.772587 g / cm^3
# Si number density = 17.766312 Si / 1000 Ang^3
#
#
#
# Elastic Constant Matrix: (Units=GPa)
#
#
# Indices 1 2 3 4 5 6 
#
# 1 84.0098 6.4759 62.6469 0.0000 0.0000 0.0000
# 2 6.4759 11.9140 4.2910 0.0000 0.0000 0.0000
# 3 62.6469 4.2910 74.5580 0.0000 0.0000 0.0000
# 4 0.0000 0.0000 0.0000 8.3215 0.0000 0.0000
# 5 0.0000 0.0000 0.0000 0.0000 13.7230 0.0000
# 6 0.0000 0.0000 0.0000 0.0000 0.0000 11.6360
#
#
#
# Elastic Compliance Matrix: (Units=1/GPa)
#
#
# Indices 1 2 3 4 5 6 
#
# 1 0.032611 -0.008023 -0.026939 0.000000 0.000000 0.000000
# 2 -0.008023 0.087686 0.001695 0.000000 0.000000 0.000000
# 3 -0.026939 0.001695 0.035950 0.000000 0.000000 0.000000
# 4 0.000000 0.000000 0.000000 0.120171 0.000000 0.000000
# 5 0.000000 0.000000 0.000000 0.000000 0.072870 0.000000
# 6 0.000000 0.000000 0.000000 0.000000 0.000000 0.085940
#
#
# Mechanical properties :
#
#
# Convention : Reuss Voigt Hill
#
# Bulk Modulus (GPa) = 11.14681 35.25662 23.20171
# Shear Modulus (GPa) = 9.40439 13.20729 11.30584
#
# Velocity S-wave (km/s) = 2.30323 2.72947 2.52536
# Velocity P-wave (km/s) = 3.65526 5.46087 4.64661
#
# Compressibility (1/GPa) = 0.08971180
#
# Stress axis : x y z
#
# Youngs Moduli (GPa) = 30.66491 11.40436 27.81624
#
# Poissons Ratio (x) = 0.09150 0.74934
# Poissons Ratio (y) = 0.24603 -0.04714
# Poissons Ratio (z) = 0.82608 -0.01933
#
# Static dielectric constant tensor:
#      x y z
#    x 1.631400 0.000000 0.000000 
#    y 0.000000 1.633810 0.000000 
#    z 0.000000 0.000000 1.605430 
# 
# From -- ./inp_files/8334.got.cif
#   From: 2010.05.17/outbox.cif.g08.bks.cpg/sg47_5_cif.got.tgz:8334.got - 2010.06.03 20:15:42.
