data_PCOD9384563
_publ_section_title
;
Structure prediction by ZEFSAII (Michael W. Deem and Ramdas Pophale) SiO2 
 PCOD9384563
Probable space group: P M M M
;
_chemical_formula_sum "Si O2"
_cell_formula_units_Z 44
_cell_length_a 9.541376
_cell_length_b 31.096458
_cell_length_c 7.702339
_cell_angle_alpha 90.000000
_cell_angle_beta 90.000000
_cell_angle_gamma 90.000000
_cell_volume 2285.307073
_symmetry_space_group_name_H-M "P M M M"
_symmetry_group_IT_number 47
_symmetry_cell_setting 'orthorhombic'
loop_
_space_group_symop_operation_xyz
x,y,z
-x,-y,z
x,-y,-z
-x,y,-z
-x,-y,-z
x,y,-z
-x,y,z
x,-y,z
loop_
_atom_site_type_symbol
_atom_site_label
_atom_site_fract_x
_atom_site_fract_y
_atom_site_fract_z
Si Si1 0.840458 0.859981 0.795218
Si Si2 0.343496 0.778408 0.706148
Si Si3 0.665345 0.448538 0.000000
Si Si4 0.836356 0.046264 0.291071
Si Si5 0.167720 0.600936 0.293778
Si Si6 0.159159 0.300161 0.711607
O O1 0.746065 0.821518 0.727838
O O2 0.778385 0.907648 0.763643
O O3 0.000000 0.858423 0.721612
O O4 0.850899 0.854319 0.000000
O O5 0.355039 0.771293 0.500000
O O6 0.500000 0.782891 0.778088
O O7 0.261541 0.736895 0.776802
O O8 0.742604 0.429129 0.168913
O O9 0.678103 0.500000 0.000000
O O10 0.500000 0.437518 0.000000
O O11 0.834815 0.045858 0.500000
O O12 0.000000 0.046733 0.234645
O O13 0.776447 0.000000 0.231964
O O14 0.196735 0.595137 0.500000
O O15 0.197360 0.650815 0.245371
O O16 0.000000 0.594337 0.269742
O O17 0.156946 0.298793 0.500000
O O18 0.000000 0.291744 0.769944
#
# Coordination Sequence:
#
# PCOD9384563 Si02
#       6
#     8   8   4   8   8   8
#     4  10  20  32  47  70 100 134 170 206 251 308
#     4  10  20  33  51  75 102 135 174 214 259 312
#     4  11  25  41  57  85 125 165 203 241 288 349
#     4   8  14  26  46  71  95 120 156 205 258 308
#     4   9  19  38  64  91 117 150 196 249 301 349
#     4   8  15  31  56  83 108 135 173 222 274 326
#
# _framework density 19.253430000000002
#
# number of rings (size 3 to 8) (size 9 to 14) (size 15 to 20)
#    0.000    2.818    0.000    3.000    0.000    4.727 
#    1.636    5.455    0.000    0.545    0.000    3.818 
#    0.000    0.000    0.000    0.000    0.000    0.000 
#
# Total GULP energy -245268.024594 kJ/mol
# GULP energy per Si atom -5574.273286 kJ/mol
# Density = 1.920961 g / cm^3
# Si number density = 19.253430 Si / 1000 Ang^3
#
#
#
# Elastic Constant Matrix: (Units=GPa)
#
#
# Indices 1 2 3 4 5 6 
#
# 1 93.5185 95.2412 34.0371 0.0000 0.0000 0.0000
# 2 95.2412 155.1054 37.8288 0.0000 0.0000 0.0000
# 3 34.0371 37.8288 57.1151 0.0000 0.0000 0.0000
# 4 0.0000 0.0000 0.0000 67.4828 0.0000 0.0000
# 5 0.0000 0.0000 0.0000 0.0000 12.9516 0.0000
# 6 0.0000 0.0000 0.0000 0.0000 0.0000 -22.5388
#
#
#
# Elastic Compliance Matrix: (Units=1/GPa)
#
#
# Indices 1 2 3 4 5 6 
#
# 1 0.030678 -0.017149 -0.006924 0.000000 0.000000 0.000000
# 2 -0.017149 0.017275 -0.001222 0.000000 0.000000 0.000000
# 3 -0.006924 -0.001222 0.022444 0.000000 0.000000 0.000000
# 4 0.000000 0.000000 0.000000 0.014819 0.000000 0.000000
# 5 0.000000 0.000000 0.000000 0.000000 0.077210 0.000000
# 6 0.000000 0.000000 0.000000 0.000000 0.000000 -0.044368
#
#
# Mechanical properties :
#
#
# Convention : Reuss Voigt Hill
#
# Bulk Modulus (GPa) = 50.48634 71.10591 60.79612
# Shear Modulus (GPa) = 28.53049 20.82125 24.67587
#
# Velocity S-wave (km/s) = 3.85364 3.29208 3.58388
# Velocity P-wave (km/s) = 6.78820 7.17371 6.98362
#
# Compressibility (1/GPa) = 0.01980734
#
# Stress axis : x y z
#
# Youngs Moduli (GPa) = 32.59691 57.88591 44.55456
#
# Poissons Ratio (x) = 0.99267 0.30850
# Poissons Ratio (y) = 0.55899 0.05446
# Poissons Ratio (z) = 0.22570 0.07076
#
# Static dielectric constant tensor:
#      x y z
#    x 1.664910 0.000000 0.000000 
#    y 0.000000 1.679540 0.000000 
#    z 0.000000 0.000000 1.694300 
# 
# From -- ./inp_files/1973.got.cif
#   From: 2010.05.17/outbox.cif.g08.bks.cpg/sg47_1_cif.got.tgz:1973.got - 2010.06.03 20:15:42.
