data_PCOD9384106
_publ_section_title
;
Structure prediction by ZEFSAII (Michael W. Deem and Ramdas Pophale) SiO2 
 PCOD9384106
Probable space group: P M M M
;
_chemical_formula_sum "Si O2"
_cell_formula_units_Z 45
_cell_length_a 7.967609
_cell_length_b 12.815618
_cell_length_c 24.519381
_cell_angle_alpha 90.000000
_cell_angle_beta 90.000000
_cell_angle_gamma 90.000000
_cell_volume 2503.669907
_symmetry_space_group_name_H-M "P M M M"
_symmetry_group_IT_number 47
_symmetry_cell_setting 'orthorhombic'
loop_
_space_group_symop_operation_xyz
x,y,z
-x,-y,z
x,-y,-z
-x,y,-z
-x,-y,-z
x,y,-z
-x,y,z
x,-y,z
loop_
_atom_site_type_symbol
_atom_site_label
_atom_site_fract_x
_atom_site_fract_y
_atom_site_fract_z
Si Si1 0.302136 0.117924 0.155000
Si Si2 0.500000 0.500000 0.500000
Si Si3 0.800363 0.725710 0.939612
Si Si4 0.793563 0.500000 0.406240
Si Si5 0.300788 0.500000 0.774144
Si Si6 0.799106 0.332205 0.314027
Si Si7 0.802167 0.116081 0.722916
Si Si8 0.701920 0.500000 0.101842
O O1 0.500000 0.118358 0.166475
O O2 0.267521 0.201072 0.108219
O O3 0.214336 0.139995 0.212646
O O4 0.253069 0.000000 0.137891
O O5 0.653273 0.500000 0.453013
O O6 0.760095 0.605438 0.927047
O O7 0.000000 0.738364 0.939931
O O8 0.734575 0.753082 0.000000
O O9 0.759418 0.399494 0.367524
O O10 0.000000 0.500000 0.419509
O O11 0.500000 0.500000 0.778370
O O12 0.250486 0.399659 0.738760
O O13 0.233409 0.500000 0.835571
O O14 0.729696 0.214970 0.309427
O O15 0.000000 0.325436 0.312777
O O16 0.000000 0.109745 0.710151
O O17 0.729180 0.000000 0.713679
O O18 0.500000 0.500000 0.102315
#
# Coordination Sequence:
#
# PCOD9384106 Si02
#       8
#     8   1   8   4   4   8   8   4
#     4  10  21  36  53  76 104 133 168 212 266 323
#     4  12  22  36  60  86 110 160 198 228 286 308
#     4  11  24  39  54  71  92 124 169 219 266 317
#     4   9  20  36  54  83 118 149 192 238 272 317
#     4  10  20  30  47  73 101 133 165 204 254 317
#     4   9  18  32  50  77 111 141 172 217 264 307
#     4   9  17  31  53  79 107 140 174 209 260 325
#     4  11  23  37  53  76 101 129 164 206 263 329
#
# _framework density 17.973616
#
# number of rings (size 3 to 8) (size 9 to 14) (size 15 to 20)
#    0.000    2.133    0.000    3.600    2.489    8.889 
#    0.000    1.778    0.000    0.000    0.000    1.244 
#    0.000    4.267    0.000    0.000    0.000    0.000 
#
# Total GULP energy -250697.170263 kJ/mol
# GULP energy per Si atom -5571.048228 kJ/mol
# Density = 1.793271 g / cm^3
# Si number density = 17.973616 Si / 1000 Ang^3
#
#
#
# Elastic Constant Matrix: (Units=GPa)
#
#
# Indices 1 2 3 4 5 6 
#
# 1 37.1448 13.0400 20.8455 0.0000 0.0000 0.0000
# 2 13.0400 133.6963 44.7486 0.0000 0.0000 0.0000
# 3 20.8455 44.7486 72.1504 0.0000 0.0000 0.0000
# 4 0.0000 0.0000 0.0000 -1.7418 0.0000 0.0000
# 5 0.0000 0.0000 0.0000 0.0000 38.8938 0.0000
# 6 0.0000 0.0000 0.0000 0.0000 0.0000 -0.7777
#
#
#
# Elastic Compliance Matrix: (Units=1/GPa)
#
#
# Indices 1 2 3 4 5 6 
#
# 1 0.032132 -0.000034 -0.009262 0.000000 0.000000 0.000000
# 2 -0.000034 0.009439 -0.005844 0.000000 0.000000 0.000000
# 3 -0.009262 -0.005844 0.020161 0.000000 0.000000 0.000000
# 4 0.000000 0.000000 0.000000 -0.574114 0.000000 0.000000
# 5 0.000000 0.000000 0.000000 0.000000 0.025711 0.000000
# 6 0.000000 0.000000 0.000000 0.000000 0.000000 -1.285909
#
#
# Mechanical properties :
#
#
# Convention : Reuss Voigt Hill
#
# Bulk Modulus (GPa) = 31.79637 44.47328 38.13482
# Shear Modulus (GPa) = -2.88714 18.23203 7.67244
#
# Velocity S-wave (km/s) = -1.26878 3.18838 2.06833
# Velocity P-wave (km/s) = 3.94748 6.19288 5.19299
#
# Compressibility (1/GPa) = 0.03145013
#
# Stress axis : x y z
#
# Youngs Moduli (GPa) = 31.12210 105.94226 49.60112
#
# Poissons Ratio (x) = 0.00358 0.45942
# Poissons Ratio (y) = 0.00105 0.28989
# Poissons Ratio (z) = 0.28826 0.61918
#
# Static dielectric constant tensor:
#      x y z
#    x 1.632590 0.000000 0.000000 
#    y 0.000000 1.639590 0.000000 
#    z 0.000000 0.000000 1.594700 
# 
# From -- ./inp_files/31914.got.cif
#   From: 2010.05.17/outbox.cif.g08.bks.cpg/sg47_16_cif.got.tgz:31914.got - 2010.06.03 20:15:42.
