data_PCOD9384573
_publ_section_title
;
Structure prediction by ZEFSAII (Michael W. Deem and Ramdas Pophale) SiO2 
 PCOD9384573
Probable space group: P M M M
;
_chemical_formula_sum "Si O2"
_cell_formula_units_Z 48
_cell_length_a 14.289298
_cell_length_b 20.050586
_cell_length_c 8.823836
_cell_angle_alpha 90.000000
_cell_angle_beta 90.000000
_cell_angle_gamma 90.000000
_cell_volume 2528.106650
_symmetry_space_group_name_H-M "P M M M"
_symmetry_group_IT_number 47
_symmetry_cell_setting 'orthorhombic'
loop_
_space_group_symop_operation_xyz
x,y,z
-x,-y,z
x,-y,-z
-x,y,-z
-x,-y,-z
x,y,-z
-x,y,z
x,-y,z
loop_
_atom_site_type_symbol
_atom_site_label
_atom_site_fract_x
_atom_site_fract_y
_atom_site_fract_z
Si Si1 0.886633 0.425238 0.672083
Si Si2 0.608913 0.714397 0.180896
Si Si3 0.112118 0.293872 0.169490
Si Si4 0.238563 0.192668 0.677360
Si Si5 0.386900 0.573604 0.678465
Si Si6 0.105386 0.077420 0.315436
O O1 0.856895 0.408685 0.500000
O O2 0.855830 0.500000 0.707650
O O3 0.860005 0.369221 0.790545
O O4 0.000000 0.426150 0.669785
O O5 0.500000 0.722646 0.227431
O O6 0.672315 0.774768 0.241345
O O7 0.643224 0.642426 0.243544
O O8 0.612622 0.712344 0.000000
O O9 0.157035 0.246581 0.293645
O O10 0.000000 0.289458 0.174359
O O11 0.143684 0.275401 0.000000
O O12 0.259274 0.185469 0.500000
O O13 0.190093 0.124609 0.736067
O O14 0.364182 0.576980 0.500000
O O15 0.500000 0.573393 0.691292
O O16 0.356236 0.500000 0.735381
O O17 0.105074 0.080432 0.500000
O O18 0.000000 0.098823 0.266368
O O19 0.117378 0.000000 0.272920
#
# Coordination Sequence:
#
# PCOD9384573 Si02
#       6
#     8   8   8   8   8   8
#     4   8  14  26  44  64  88 123 168 214 256 299
#     4  10  21  36  53  74 104 142 181 222 268 317
#     4  10  20  32  47  70 102 136 167 204 251 304
#     4  11  21  33  54  80 105 135 171 212 257 308
#     4   8  14  27  49  75 101 130 168 218 274 326
#     4   8  15  30  54  85 116 140 165 203 253 307
#
# _framework density 18.986540999999999
#
# number of rings (size 3 to 8) (size 9 to 14) (size 15 to 20)
#    0.000    2.833    0.000    3.500    0.000    3.333 
#    0.000    4.167    0.000    7.500    0.000    9.333 
#    0.000    0.000    0.000    0.000    0.000    0.000 
#
# Total GULP energy -267609.764984 kJ/mol
# GULP energy per Si atom -5575.203437 kJ/mol
# Density = 1.894333 g / cm^3
# Si number density = 18.986541 Si / 1000 Ang^3
#
#
#
# Elastic Constant Matrix: (Units=GPa)
#
#
# Indices 1 2 3 4 5 6 
#
# 1 111.3937 48.9405 16.9593 0.0000 0.0000 0.0000
# 2 48.9405 106.7876 20.9876 0.0000 0.0000 0.0000
# 3 16.9593 20.9876 21.8217 0.0000 0.0000 0.0000
# 4 0.0000 0.0000 0.0000 -6.7411 0.0000 0.0000
# 5 0.0000 0.0000 0.0000 0.0000 17.8062 0.0000
# 6 0.0000 0.0000 0.0000 0.0000 0.0000 65.8580
#
#
#
# Elastic Compliance Matrix: (Units=1/GPa)
#
#
# Indices 1 2 3 4 5 6 
#
# 1 0.011639 -0.004385 -0.004828 0.000000 0.000000 0.000000
# 2 -0.004385 0.013199 -0.009287 0.000000 0.000000 0.000000
# 3 -0.004828 -0.009287 0.058510 0.000000 0.000000 0.000000
# 4 0.000000 0.000000 0.000000 -0.148344 0.000000 0.000000
# 5 0.000000 0.000000 0.000000 0.000000 0.056160 0.000000
# 6 0.000000 0.000000 0.000000 0.000000 0.000000 0.015184
#
#
# Mechanical properties :
#
#
# Convention : Reuss Voigt Hill
#
# Bulk Modulus (GPa) = 21.57573 45.97530 33.77551
# Shear Modulus (GPa) = 85.03888 25.59232 55.31560
#
# Velocity S-wave (km/s) = 6.69972 3.67538 5.40346
# Velocity P-wave (km/s) = 8.44018 6.50219 7.53377
#
# Compressibility (1/GPa) = 0.04634838
#
# Stress axis : x y z
#
# Youngs Moduli (GPa) = 85.91938 75.76178 17.09120
#
# Poissons Ratio (x) = 0.33223 0.08251
# Poissons Ratio (y) = 0.37677 0.15872
# Poissons Ratio (z) = 0.41480 0.70357
#
# Static dielectric constant tensor:
#      x y z
#    x 1.722640 0.000000 0.000000 
#    y 0.000000 1.664910 0.000000 
#    z 0.000000 0.000000 1.672980 
# 
# From -- ./inp_files/6364.got.cif
#   From: 2010.05.17/outbox.cif.g08.bks.cpg/sg47_4_cif.got.tgz:6364.got - 2010.06.03 20:15:42.
