data_PCOD9384960
_publ_section_title
;
Structure prediction by ZEFSAII (Michael W. Deem and Ramdas Pophale) SiO2 
 PCOD9384960
Probable space group: P M M M
;
_chemical_formula_sum "Si O2"
_cell_formula_units_Z 52
_cell_length_a 7.477116
_cell_length_b 21.522328
_cell_length_c 15.441410
_cell_angle_alpha 90.000000
_cell_angle_beta 90.000000
_cell_angle_gamma 90.000000
_cell_volume 2484.908025
_symmetry_space_group_name_H-M "P M M M"
_symmetry_group_IT_number 47
_symmetry_cell_setting 'orthorhombic'
loop_
_space_group_symop_operation_xyz
x,y,z
-x,-y,z
x,-y,-z
-x,y,-z
-x,-y,-z
x,y,-z
-x,y,z
x,-y,z
loop_
_atom_site_type_symbol
_atom_site_label
_atom_site_fract_x
_atom_site_fract_y
_atom_site_fract_z
Si Si1 0.785843 0.929377 0.500000
Si Si2 0.291039 0.134694 0.320889
Si Si3 0.216923 0.201262 0.905848
Si Si4 0.297302 0.734475 0.732095
Si Si5 0.717329 0.500000 0.399933
Si Si6 0.793813 0.931477 0.851447
Si Si7 0.717835 0.500000 0.897657
Si Si8 0.281446 0.595697 0.747898
O O1 0.726542 0.893884 0.414631
O O2 0.000000 0.931137 0.500000
O O3 0.718784 0.000000 0.500000
O O4 0.500000 0.139137 0.297246
O O5 0.216091 0.205011 0.315439
O O6 0.208758 0.088761 0.249479
O O7 0.298190 0.241731 0.830521
O O8 0.280508 0.129829 0.897332
O O9 0.000000 0.200820 0.894869
O O10 0.259288 0.225907 0.000000
O O11 0.500000 0.727179 0.698008
O O12 0.216273 0.666066 0.735930
O O13 0.500000 0.500000 0.403572
O O14 0.779601 0.500000 0.500000
O O15 0.769265 0.557731 0.338525
O O16 0.000000 0.935585 0.879670
O O17 0.713789 0.000000 0.863554
O O18 0.500000 0.500000 0.900061
O O19 0.772213 0.441052 0.836180
O O20 0.775206 0.500000 0.000000
O O21 0.500000 0.596631 0.751579
#
# Coordination Sequence:
#
# PCOD9384960 Si02
#       8
#     4   8   8   8   4   8   4   8
#     4  11  23  37  53  71  91 118 155 198 242 289
#     4  10  20  33  48  69  96 123 153 190 236 287
#     4   9  18  31  46  66  92 122 157 196 235 277
#     4   9  18  32  48  68  96 128 158 190 231 281
#     4   8  13  23  40  65  93 122 152 186 232 276
#     4   9  17  30  48  67  88 118 155 194 237 282
#     4   8  13  21  36  61  93 125 157 196 236 270
#     4   8  14  25  40  62  94 125 157 192 228 278
#
# _framework density 20.926327000000001
#
# number of rings (size 3 to 8) (size 9 to 14) (size 15 to 20)
#    0.000    3.000    0.000    2.077    0.000    4.615 
#    1.385    3.077    0.000    0.000    0.000    6.462 
#    0.000    6.154    0.000    0.000    0.000    0.000 
#
# Total GULP energy -289749.618647 kJ/mol
# GULP energy per Si atom -5572.108051 kJ/mol
# Density = 2.087870 g / cm^3
# Si number density = 20.926327 Si / 1000 Ang^3
#
#
#
# Elastic Constant Matrix: (Units=GPa)
#
#
# Indices 1 2 3 4 5 6 
#
# 1 62.9769 4.5377 -4.6475 0.0000 0.0000 0.0000
# 2 4.5377 174.3264 50.6671 0.0000 0.0000 0.0000
# 3 -4.6475 50.6671 135.4583 0.0000 0.0000 0.0000
# 4 0.0000 0.0000 0.0000 -8.2012 0.0000 0.0000
# 5 0.0000 0.0000 0.0000 0.0000 4.3198 0.0000
# 6 0.0000 0.0000 0.0000 0.0000 0.0000 14.0679
#
#
#
# Elastic Compliance Matrix: (Units=1/GPa)
#
#
# Indices 1 2 3 4 5 6 
#
# 1 0.015984 -0.000646 0.000790 0.000000 0.000000 0.000000
# 2 -0.000646 0.006462 -0.002439 0.000000 0.000000 0.000000
# 3 0.000790 -0.002439 0.008322 0.000000 0.000000 0.000000
# 4 0.000000 0.000000 0.000000 -0.121934 0.000000 0.000000
# 5 0.000000 0.000000 0.000000 0.000000 0.231491 0.000000
# 6 0.000000 0.000000 0.000000 0.000000 0.000000 0.071084
#
#
# Mechanical properties :
#
#
# Convention : Reuss Voigt Hill
#
# Bulk Modulus (GPa) = 38.20058 52.65290 45.42674
# Shear Modulus (GPa) = 22.24950 23.51761 22.88355
#
# Velocity S-wave (km/s) = 3.26426 3.35599 3.31044
# Velocity P-wave (km/s) = 5.70102 6.34292 6.03051
#
# Compressibility (1/GPa) = 0.02617761
#
# Stress axis : x y z
#
# Youngs Moduli (GPa) = 62.56390 154.74775 120.16590
#
# Poissons Ratio (x) = 0.09991 -0.09492
# Poissons Ratio (y) = 0.04039 0.29312
# Poissons Ratio (z) = -0.04942 0.37747
#
# Static dielectric constant tensor:
#      x y z
#    x 1.905610 0.000000 0.000000 
#    y 0.000000 1.768090 0.000000 
#    z 0.000000 0.000000 1.711500 
# 
# From -- ./inp_files/21559.got.cif
#   From: 2010.05.17/outbox.cif.g08.bks.cpg/sg47_11_cif.got.tgz:21559.got - 2010.06.03 20:15:42.
