data_PCOD9384094
_publ_section_title
;
Structure prediction by ZEFSAII (Michael W. Deem and Ramdas Pophale) SiO2 
 PCOD9384094
Probable space group: P M M M
;
_chemical_formula_sum "Si O2"
_cell_formula_units_Z 44
_cell_length_a 7.439185
_cell_length_b 31.293139
_cell_length_c 9.613865
_cell_angle_alpha 90.000000
_cell_angle_beta 90.000000
_cell_angle_gamma 90.000000
_cell_volume 2238.064031
_symmetry_space_group_name_H-M "P M M M"
_symmetry_group_IT_number 47
_symmetry_cell_setting 'orthorhombic'
loop_
_space_group_symop_operation_xyz
x,y,z
-x,-y,z
x,-y,-z
-x,y,-z
-x,-y,-z
x,y,-z
-x,y,z
x,-y,z
loop_
_atom_site_type_symbol
_atom_site_label
_atom_site_fract_x
_atom_site_fract_y
_atom_site_fract_z
Si Si1 0.279958 0.360731 0.661566
Si Si2 0.785646 0.103154 0.664937
Si Si3 0.713350 0.718356 0.843897
Si Si4 0.500000 0.051008 0.164312
Si Si5 0.716318 0.545926 0.333336
Si Si6 0.215776 0.799447 0.343752
O O1 0.226574 0.355793 0.500000
O O2 0.500000 0.360969 0.661650
O O3 0.215950 0.321152 0.752969
O O4 0.220893 0.407553 0.715820
O O5 0.754111 0.095588 0.500000
O O6 0.671792 0.071622 0.759503
O O7 0.728193 0.152339 0.693077
O O8 0.000000 0.099390 0.688666
O O9 0.500000 0.711257 0.854025
O O10 0.736571 0.762818 0.763791
O O11 0.786702 0.719893 0.000000
O O12 0.500000 0.000000 0.180614
O O13 0.500000 0.060931 0.000000
O O14 0.748220 0.546187 0.500000
O O15 0.500000 0.545434 0.314958
O O16 0.784373 0.500000 0.279295
O O17 0.281798 0.789140 0.500000
O O18 0.000000 0.801046 0.350624
#
# Coordination Sequence:
#
# PCOD9384094 Si02
#       6
#     8   8   8   4   8   8
#     4   8  13  22  36  54  79 114 155 196 241 292
#     4   9  20  40  64  89 116 149 193 244 292 335
#     4  10  20  30  42  66  99 132 164 199 243 298
#     4  11  25  41  59  89 127 163 197 233 278 337
#     4   7   9  14  27  48  72 100 140 191 241 287
#     4   9  19  36  56  77 100 128 167 214 261 308
#
# _framework density 19.659848
#
# number of rings (size 3 to 8) (size 9 to 14) (size 15 to 20)
#    0.000    3.182    0.000    3.545    1.273    3.636 
#    0.000    3.636    0.000    0.545    0.000    3.818 
#    0.000    0.727    0.000    8.364    0.000    9.636 
#
# Total GULP energy -245282.170908 kJ/mol
# GULP energy per Si atom -5574.594793 kJ/mol
# Density = 1.961510 g / cm^3
# Si number density = 19.659848 Si / 1000 Ang^3
#
#
#
# Elastic Constant Matrix: (Units=GPa)
#
#
# Indices 1 2 3 4 5 6 
#
# 1 70.0118 36.3719 31.1168 0.0000 0.0000 0.0000
# 2 36.3719 176.1056 115.7532 0.0000 0.0000 0.0000
# 3 31.1168 115.7532 112.7272 0.0000 0.0000 0.0000
# 4 0.0000 0.0000 0.0000 -29.2499 0.0000 0.0000
# 5 0.0000 0.0000 0.0000 0.0000 -19.2267 0.0000
# 6 0.0000 0.0000 0.0000 0.0000 0.0000 105.3602
#
#
#
# Elastic Compliance Matrix: (Units=1/GPa)
#
#
# Indices 1 2 3 4 5 6 
#
# 1 0.016372 -0.001264 -0.003221 0.000000 0.000000 0.000000
# 2 -0.001264 0.017566 -0.017689 0.000000 0.000000 0.000000
# 3 -0.003221 -0.017689 0.027924 0.000000 0.000000 0.000000
# 4 0.000000 0.000000 0.000000 -0.034188 0.000000 0.000000
# 5 0.000000 0.000000 0.000000 0.000000 -0.052011 0.000000
# 6 0.000000 0.000000 0.000000 0.000000 0.000000 0.009491
#
#
# Mechanical properties :
#
#
# Convention : Reuss Voigt Hill
#
# Bulk Modulus (GPa) = 57.09871 80.59204 68.84538
# Shear Modulus (GPa) = 141.48289 23.08359 82.28324
#
# Velocity S-wave (km/s) = 8.49245 3.43030 6.47644
# Velocity P-wave (km/s) = 11.19234 7.53469 9.54044
#
# Compressibility (1/GPa) = 0.01751353
#
# Stress axis : x y z
#
# Youngs Moduli (GPa) = 61.08122 56.92717 35.81163
#
# Poissons Ratio (x) = 0.07196 0.11536
# Poissons Ratio (y) = 0.07721 0.63347
# Poissons Ratio (z) = 0.19675 1.00698
#
# Static dielectric constant tensor:
#      x y z
#    x 1.987710 0.000000 0.000000 
#    y 0.000000 1.703860 0.000000 
#    z 0.000000 0.000000 1.663850 
# 
# From -- ./inp_files/2093.got.cif
#   From: 2010.05.17/outbox.cif.g08.bks.cpg/sg47_2_cif.got.tgz:2093.got - 2010.06.03 20:15:42.
