data_PCOD9384110
_publ_section_title
;
Structure prediction by ZEFSAII (Michael W. Deem and Ramdas Pophale) SiO2 
 PCOD9384110
Probable space group: P M M M
;
_chemical_formula_sum "Si O2"
_cell_formula_units_Z 56
_cell_length_a 7.453614
_cell_length_b 14.244458
_cell_length_c 30.645331
_cell_angle_alpha 90.000000
_cell_angle_beta 90.000000
_cell_angle_gamma 90.000000
_cell_volume 3253.697276
_symmetry_space_group_name_H-M "P M M M"
_symmetry_group_IT_number 47
_symmetry_cell_setting 'orthorhombic'
loop_
_space_group_symop_operation_xyz
x,y,z
-x,-y,z
x,-y,-z
-x,y,-z
-x,-y,-z
x,y,-z
-x,y,z
x,-y,z
loop_
_atom_site_type_symbol
_atom_site_label
_atom_site_fract_x
_atom_site_fract_y
_atom_site_fract_z
Si Si1 0.780451 0.609783 0.142539
Si Si2 0.219178 0.108245 0.451022
Si Si3 0.219991 0.606543 0.684801
Si Si4 0.287031 0.894059 0.717910
Si Si5 0.215786 0.387628 0.046903
Si Si6 0.785334 0.286513 0.771443
Si Si7 0.208694 0.779274 0.368618
O O1 0.729460 0.500000 0.148829
O O2 0.719975 0.644005 0.094523
O O3 0.718852 0.674652 0.182381
O O4 0.000000 0.610160 0.142018
O O5 0.272544 0.136879 0.500000
O O6 0.285766 0.172613 0.411636
O O7 0.000000 0.108391 0.450086
O O8 0.273426 0.000000 0.444209
O O9 0.276436 0.500000 0.678320
O O10 0.277770 0.647493 0.731653
O O11 0.283655 0.680791 0.648702
O O12 0.000000 0.608099 0.684846
O O13 0.500000 0.898380 0.712667
O O14 0.251361 0.820053 0.756673
O O15 0.215731 0.849210 0.672923
O O16 0.219683 0.000000 0.725060
O O17 0.246531 0.500000 0.046948
O O18 0.000000 0.374559 0.046518
O O19 0.283958 0.351102 0.000000
O O20 0.000000 0.295748 0.772675
O O21 0.000000 0.761873 0.378299
#
# Coordination Sequence:
#
# PCOD9384110 Si02
#       7
#     8   8   8   8   8   8   8
#     4   8  12  18  31  52  77 104 132 159 185 216
#     4   8  13  21  35  57  81  99 118 151 191 223
#     4   8  13  21  34  53  75  97 122 152 183 211
#     4  10  20  31  41  54  75 100 121 148 191 234
#     4   7   9  13  22  40  70 105 132 151 177 216
#     4   9  16  25  39  57  74  97 129 159 184 215
#     4   9  16  26  43  62  76  97 129 157 178 211
#
# _framework density 17.211189999999998
#
# number of rings (size 3 to 8) (size 9 to 14) (size 15 to 20)
#    0.000    3.571    0.000    3.857    0.000    3.429 
#    0.000    0.000    0.000   11.571    0.000    5.000 
#    0.000    1.143    0.000   15.857    0.000   10.571 
#
# Total GULP energy -311780.833127 kJ/mol
# GULP energy per Si atom -5567.514877 kJ/mol
# Density = 1.717202 g / cm^3
# Si number density = 17.211190 Si / 1000 Ang^3
#
#
#
# Elastic Constant Matrix: (Units=GPa)
#
#
# Indices 1 2 3 4 5 6 
#
# 1 49.0649 -0.3001 2.1180 0.0000 0.0000 0.0000
# 2 -0.3001 126.9028 89.2074 0.0000 0.0000 0.0000
# 3 2.1180 89.2074 161.6047 0.0000 0.0000 0.0000
# 4 0.0000 0.0000 0.0000 22.7447 0.0000 0.0000
# 5 0.0000 0.0000 0.0000 0.0000 -18.7518 0.0000
# 6 0.0000 0.0000 0.0000 0.0000 0.0000 16.3018
#
#
#
# Elastic Compliance Matrix: (Units=1/GPa)
#
#
# Indices 1 2 3 4 5 6 
#
# 1 0.020404 0.000386 -0.000481 0.000000 0.000000 0.000000
# 2 0.000386 0.012884 -0.007117 0.000000 0.000000 0.000000
# 3 -0.000481 -0.007117 0.010123 0.000000 0.000000 0.000000
# 4 0.000000 0.000000 0.000000 0.043966 0.000000 0.000000
# 5 0.000000 0.000000 0.000000 0.000000 -0.053328 0.000000
# 6 0.000000 0.000000 0.000000 0.000000 0.000000 0.061343
#
#
# Mechanical properties :
#
#
# Convention : Reuss Voigt Hill
#
# Bulk Modulus (GPa) = 34.49707 57.73589 46.11648
# Shear Modulus (GPa) = 41.84866 20.49542 31.17204
#
# Velocity S-wave (km/s) = 4.93635 3.45457 4.26038
# Velocity P-wave (km/s) = 7.25100 7.03779 7.14519
#
# Compressibility (1/GPa) = 0.02898797
#
# Stress axis : x y z
#
# Youngs Moduli (GPa) = 49.00936 77.61540 98.78506
#
# Poissons Ratio (x) = -0.02996 0.04747
# Poissons Ratio (y) = -0.01892 0.70307
# Poissons Ratio (z) = 0.02355 0.55240
#
# Static dielectric constant tensor:
#      x y z
#    x 1.637690 0.000000 0.000000 
#    y 0.000000 1.564960 0.000000 
#    z 0.000000 0.000000 1.615590 
# 
# From -- ./inp_files/22103.got.cif
#   From: 2010.05.17/outbox.cif.g08.bks.cpg/sg47_12_cif.got.tgz:22103.got - 2010.06.03 20:15:42.
