data_PCOD9384040
_publ_section_title
;
Structure prediction by ZEFSAII (Michael W. Deem and Ramdas Pophale) SiO2 
 PCOD9384040
Probable space group: P M M M
;
_chemical_formula_sum "Si O2"
_cell_formula_units_Z 64
_cell_length_a 26.023463
_cell_length_b 15.010196
_cell_length_c 7.661029
_cell_angle_alpha 90.000000
_cell_angle_beta 90.000000
_cell_angle_gamma 90.000000
_cell_volume 2992.530312
_symmetry_space_group_name_H-M "P M M M"
_symmetry_group_IT_number 47
_symmetry_cell_setting 'orthorhombic'
loop_
_space_group_symop_operation_xyz
x,y,z
-x,-y,z
x,-y,-z
-x,y,-z
-x,-y,-z
x,y,-z
-x,y,z
x,-y,z
loop_
_atom_site_type_symbol
_atom_site_label
_atom_site_fract_x
_atom_site_fract_y
_atom_site_fract_z
Si Si1 0.846094 0.901197 0.205079
Si Si2 0.941603 0.209394 0.295294
Si Si3 0.555811 0.792951 0.293711
Si Si4 0.060420 0.595579 0.210204
Si Si5 0.243584 0.219817 0.206346
Si Si6 0.343292 0.896452 0.287986
Si Si7 0.287973 0.597986 0.213149
Si Si8 0.408111 0.401352 0.789137
O O1 0.902863 0.861451 0.217552
O O2 0.805097 0.832130 0.282412
O O3 0.842465 0.000000 0.281599
O O4 0.833502 0.908414 0.000000
O O5 0.944669 0.192064 0.500000
O O6 0.919480 0.309417 0.271030
O O7 0.000000 0.207006 0.223020
O O8 0.554613 0.812416 0.500000
O O9 0.500000 0.817759 0.219445
O O10 0.605267 0.845900 0.224303
O O11 0.563698 0.686892 0.273632
O O12 0.082423 0.500000 0.269561
O O13 0.000000 0.595339 0.261301
O O14 0.062608 0.596285 0.000000
O O15 0.293536 0.157575 0.226142
O O16 0.256699 0.317305 0.279019
O O17 0.234078 0.233624 0.000000
O O18 0.342747 0.894156 0.500000
O O19 0.342134 0.000000 0.234545
O O20 0.269811 0.500000 0.268298
O O21 0.348036 0.606979 0.261965
O O22 0.287322 0.599119 0.000000
O O23 0.426289 0.500000 0.731885
O O24 0.410511 0.400574 0.000000
#
# Coordination Sequence:
#
# PCOD9384040 Si02
#       8
#     8   8   8   8   8   8   8   8
#     4  10  22  38  55  79 109 140 177 223 276 329
#     4  10  21  36  55  80 110 146 186 226 269 317
#     4  10  21  35  50  72 104 140 178 219 262 312
#     4   8  14  27  50  79 109 142 180 219 259 308
#     4  10  19  35  60  84 107 135 171 218 265 315
#     4  10  21  36  54  76 101 133 175 221 271 322
#     4   8  14  27  51  81 108 134 165 203 252 309
#     4   9  17  31  52  77 104 136 174 213 257 312
#
# _framework density 21.386583000000002
#
# number of rings (size 3 to 8) (size 9 to 14) (size 15 to 20)
#    0.000    2.625    1.250    1.875    0.000    3.750 
#    0.000    5.625    0.000    2.625    0.000    1.750 
#    0.000    0.000    0.000    0.000    0.000    0.000 
#
# Total GULP energy -357039.851805 kJ/mol
# GULP energy per Si atom -5578.747684 kJ/mol
# Density = 2.133791 g / cm^3
# Si number density = 21.386583 Si / 1000 Ang^3
#
#
#
# Elastic Constant Matrix: (Units=GPa)
#
#
# Indices 1 2 3 4 5 6 
#
# 1 86.2548 53.4391 -7.7048 0.0000 0.0000 0.0000
# 2 53.4391 126.5103 -11.0576 0.0000 0.0000 0.0000
# 3 -7.7048 -11.0576 33.9167 0.0000 0.0000 0.0000
# 4 0.0000 0.0000 0.0000 -19.8861 0.0000 0.0000
# 5 0.0000 0.0000 0.0000 0.0000 12.8572 0.0000
# 6 0.0000 0.0000 0.0000 0.0000 0.0000 -5.4179
#
#
#
# Elastic Compliance Matrix: (Units=1/GPa)
#
#
# Indices 1 2 3 4 5 6 
#
# 1 0.015772 -0.006535 0.001452 0.000000 0.000000 0.000000
# 2 -0.006535 0.010844 0.002051 0.000000 0.000000 0.000000
# 3 0.001452 0.002051 0.030482 0.000000 0.000000 0.000000
# 4 0.000000 0.000000 0.000000 -0.050286 0.000000 0.000000
# 5 0.000000 0.000000 0.000000 0.000000 0.077777 0.000000
# 6 0.000000 0.000000 0.000000 0.000000 0.000000 -0.184574
#
#
# Mechanical properties :
#
#
# Convention : Reuss Voigt Hill
#
# Bulk Modulus (GPa) = 19.59455 35.11502 27.35478
# Shear Modulus (GPa) = -65.01252 11.64434 -26.68409
#
# Velocity S-wave (km/s) = -5.51949 2.33592 -3.53612
# Velocity P-wave (km/s) = 5.60693 4.87136 1.96310
#
# Compressibility (1/GPa) = 0.05103461
#
# Stress axis : x y z
#
# Youngs Moduli (GPa) = 63.40231 92.21381 32.80571
#
# Poissons Ratio (x) = 0.60266 -0.04764
# Poissons Ratio (y) = 0.41436 -0.06728
# Poissons Ratio (z) = -0.09208 -0.18912
#
# Static dielectric constant tensor:
#      x y z
#    x 1.768660 0.000000 0.000000 
#    y 0.000000 1.786000 0.000000 
#    z 0.000000 0.000000 1.797680 
# 
# From -- ./inp_files/12665.got.cif
#   From: 2010.05.17/outbox.cif.g08.bks.cpg/sg47_7_cif.got.tgz:12665.got - 2010.06.03 20:15:42.
