data_PCOD9384360
_publ_section_title
;
Structure prediction by ZEFSAII (Michael W. Deem and Ramdas Pophale) SiO2 
 PCOD9384360
Probable space group: P M M M
;
_chemical_formula_sum "Si O2"
_cell_formula_units_Z 44
_cell_length_a 23.987519
_cell_length_b 14.500236
_cell_length_c 9.116256
_cell_angle_alpha 90.000000
_cell_angle_beta 90.000000
_cell_angle_gamma 90.000000
_cell_volume 3170.858886
_symmetry_space_group_name_H-M "P M M M"
_symmetry_group_IT_number 47
_symmetry_cell_setting 'orthorhombic'
loop_
_space_group_symop_operation_xyz
x,y,z
-x,-y,z
x,-y,-z
-x,y,-z
-x,-y,-z
x,y,-z
-x,y,z
x,-y,z
loop_
_atom_site_type_symbol
_atom_site_label
_atom_site_fract_x
_atom_site_fract_y
_atom_site_fract_z
Si Si1 0.787800 0.609603 0.825262
Si Si2 0.111026 0.283423 0.676326
Si Si3 0.561887 0.387936 0.828565
Si Si4 0.000000 0.605372 0.321936
Si Si5 0.934110 0.106612 0.824759
Si Si6 0.326768 0.387897 0.332117
O O1 0.795677 0.500000 0.794486
O O2 0.835516 0.667491 0.745563
O O3 0.727018 0.636718 0.763921
O O4 0.790136 0.622165 0.000000
O O5 0.114581 0.283881 0.500000
O O6 0.101427 0.180780 0.736807
O O7 0.055832 0.341123 0.722055
O O8 0.500000 0.358067 0.778983
O O9 0.562003 0.500000 0.822272
O O10 0.614748 0.355366 0.736097
O O11 0.568451 0.363666 0.000000
O O12 0.000000 0.500000 0.269360
O O13 0.000000 0.603426 0.500000
O O14 0.000000 0.119899 0.791245
O O15 0.920505 0.000000 0.791309
O O16 0.927443 0.119876 0.000000
O O17 0.320140 0.357859 0.500000
O O18 0.328817 0.500000 0.331938
#
# Coordination Sequence:
#
# PCOD9384360 Si02
#       6
#     8   8   8   4   8   8
#     4  10  20  32  44  58  79 110 145 177 209 250
#     4  11  20  31  47  66  86 108 135 171 212 252
#     4   8  13  21  33  49  70  97 129 166 207 247
#     4   9  18  30  42  59  84 110 133 163 206 249
#     4   9  18  33  51  68  87 109 131 161 203 251
#     4   9  16  25  37  53  73  99 133 173 212 246
#
# _framework density 13.876367
#
# number of rings (size 3 to 8) (size 9 to 14) (size 15 to 20)
#    0.000    2.636    0.909    3.273    0.000    4.727 
#    0.000    2.727    0.000    2.182    0.000    0.000 
#    0.000    0.000    0.000    0.000    0.000    0.909 
#
# Total GULP energy -245142.383150 kJ/mol
# GULP energy per Si atom -5571.417799 kJ/mol
# Density = 1.384478 g / cm^3
# Si number density = 13.876367 Si / 1000 Ang^3
#
#
#
# Elastic Constant Matrix: (Units=GPa)
#
#
# Indices 1 2 3 4 5 6 
#
# 1 123.8439 44.6930 59.5158 0.0000 0.0000 0.0000
# 2 44.6930 56.6085 38.5157 0.0000 0.0000 0.0000
# 3 59.5158 38.5157 67.4356 0.0000 0.0000 0.0000
# 4 0.0000 0.0000 0.0000 16.4289 0.0000 0.0000
# 5 0.0000 0.0000 0.0000 0.0000 25.6868 0.0000
# 6 0.0000 0.0000 0.0000 0.0000 0.0000 1.8302
#
#
#
# Elastic Compliance Matrix: (Units=1/GPa)
#
#
# Indices 1 2 3 4 5 6 
#
# 1 0.014704 -0.004546 -0.010381 0.000000 0.000000 0.000000
# 2 -0.004546 0.030299 -0.013293 0.000000 0.000000 0.000000
# 3 -0.010381 -0.013293 0.031583 0.000000 0.000000 0.000000
# 4 0.000000 0.000000 0.000000 0.060868 0.000000 0.000000
# 5 0.000000 0.000000 0.000000 0.000000 0.038930 0.000000
# 6 0.000000 0.000000 0.000000 0.000000 0.000000 0.546390
#
#
# Mechanical properties :
#
#
# Convention : Reuss Voigt Hill
#
# Bulk Modulus (GPa) = 49.63715 59.25967 54.44841
# Shear Modulus (GPa) = 6.36191 15.80008 11.08099
#
# Velocity S-wave (km/s) = 2.14352 3.37802 2.82893
# Velocity P-wave (km/s) = 6.47880 7.61662 7.07064
#
# Compressibility (1/GPa) = 0.02014620
#
# Stress axis : x y z
#
# Youngs Moduli (GPa) = 68.00926 33.00479 31.66309
#
# Poissons Ratio (x) = 0.15004 0.32868
# Poissons Ratio (y) = 0.30918 0.42089
# Poissons Ratio (z) = 0.70597 0.43873
#
# Static dielectric constant tensor:
#      x y z
#    x 1.456370 0.000000 0.000000 
#    y 0.000000 1.429810 0.000000 
#    z 0.000000 0.000000 1.462200 
# 
# From -- ./inp_files/10886.got.cif
#   From: 2010.05.17/outbox.cif.g08.bks.cpg/sg47_6_cif.got.tgz:10886.got - 2010.06.03 20:15:42.
