data_PCOD9384137
_publ_section_title
;
Structure prediction by ZEFSAII (Michael W. Deem and Ramdas Pophale) SiO2 
 PCOD9384137
Probable space group: P M M M
;
_chemical_formula_sum "Si O2"
_cell_formula_units_Z 40
_cell_length_a 18.503965
_cell_length_b 9.176298
_cell_length_c 17.128651
_cell_angle_alpha 90.000000
_cell_angle_beta 90.000000
_cell_angle_gamma 90.000000
_cell_volume 2908.408919
_symmetry_space_group_name_H-M "P M M M"
_symmetry_group_IT_number 47
_symmetry_cell_setting 'orthorhombic'
loop_
_space_group_symop_operation_xyz
x,y,z
-x,-y,z
x,-y,-z
-x,y,-z
-x,-y,-z
x,y,-z
-x,y,z
x,-y,z
loop_
_atom_site_type_symbol
_atom_site_label
_atom_site_fract_x
_atom_site_fract_y
_atom_site_fract_z
Si Si1 0.273662 0.672046 0.093868
Si Si2 0.087860 0.668233 0.500000
Si Si3 0.000000 0.671537 0.093622
Si Si4 0.419388 0.169222 0.905299
Si Si5 0.862368 0.825039 0.171592
Si Si6 0.915031 0.173600 0.342424
O O1 0.266937 0.500000 0.108869
O O2 0.352338 0.731559 0.118616
O O3 0.210962 0.760634 0.136683
O O4 0.266686 0.693788 0.000000
O O5 0.108813 0.500000 0.500000
O O6 0.111038 0.746152 0.420233
O O7 0.000000 0.676686 0.500000
O O8 0.929459 0.750391 0.127539
O O9 0.000000 0.500000 0.114731
O O10 0.000000 0.681751 0.000000
O O11 0.500000 0.214126 0.879096
O O12 0.407847 0.000000 0.882967
O O13 0.420546 0.172555 0.000000
O O14 0.872241 0.791974 0.263517
O O15 0.865619 0.000000 0.161946
O O16 0.000000 0.210775 0.329126
O O17 0.911896 0.000000 0.355326
#
# Coordination Sequence:
#
# PCOD9384137 Si02
#       6
#     8   4   4   8   8   8
#     4  10  20  31  42  60  86 114 144 179 221 260
#     4   9  17  27  43  67  85 101 128 161 206 259
#     4  11  23  35  45  58  79 108 143 185 228 259
#     4   8  14  26  44  63  81 104 137 175 213 255
#     4  11  21  33  47  62  80 109 148 183 215 252
#     4   9  17  31  46  61  81 105 135 172 213 254
#
# _framework density 13.753223999999999
#
# number of rings (size 3 to 8) (size 9 to 14) (size 15 to 20)
#    0.000    2.400    1.000    3.000    0.000    7.600 
#    0.000    2.000    0.000    0.000    0.000    0.000 
#    0.000    0.000    0.000    0.900    0.000   17.400 
#
# Total GULP energy -222958.251742 kJ/mol
# GULP energy per Si atom -5573.956294 kJ/mol
# Density = 1.372192 g / cm^3
# Si number density = 13.753224 Si / 1000 Ang^3
#
#
#
# Elastic Constant Matrix: (Units=GPa)
#
#
# Indices 1 2 3 4 5 6 
#
# 1 97.9142 57.1118 43.5802 0.0000 0.0000 0.0000
# 2 57.1118 80.2272 57.9855 0.0000 0.0000 0.0000
# 3 43.5802 57.9855 74.0608 0.0000 0.0000 0.0000
# 4 0.0000 0.0000 0.0000 12.5031 0.0000 0.0000
# 5 0.0000 0.0000 0.0000 0.0000 -0.0426 0.0000
# 6 0.0000 0.0000 0.0000 0.0000 0.0000 15.9297
#
#
#
# Elastic Compliance Matrix: (Units=1/GPa)
#
#
# Indices 1 2 3 4 5 6 
#
# 1 0.017515 -0.011562 -0.001254 0.000000 0.000000 0.000000
# 2 -0.011562 0.036346 -0.021653 0.000000 0.000000 0.000000
# 3 -0.001254 -0.021653 0.031193 0.000000 0.000000 0.000000
# 4 0.000000 0.000000 0.000000 0.079980 0.000000 0.000000
# 5 0.000000 0.000000 0.000000 0.000000-23.470716 0.000000
# 6 0.000000 0.000000 0.000000 0.000000 0.000000 0.062776
#
#
# Mechanical properties :
#
#
# Convention : Reuss Voigt Hill
#
# Bulk Modulus (GPa) = 62.05097 63.28413 62.66755
# Shear Modulus (GPa) = -0.21581 11.91301 5.84860
#
# Velocity S-wave (km/s) = -0.39656 2.94632 2.06440
# Velocity P-wave (km/s) = 6.70863 7.59528 7.16568
#
# Compressibility (1/GPa) = 0.01611578
#
# Stress axis : x y z
#
# Youngs Moduli (GPa) = 57.09291 27.51372 32.05825
#
# Poissons Ratio (x) = 0.31813 0.04020
# Poissons Ratio (y) = 0.66013 0.69415
# Poissons Ratio (z) = 0.07159 0.59575
#
# Static dielectric constant tensor:
#      x y z
#    x 1.442410 0.000000 0.000000 
#    y 0.000000 1.457850 0.000000 
#    z 0.000000 0.000000 1.434980 
# 
# From -- ./inp_files/28394.got.cif
#   From: 2010.05.17/outbox.cif.g08.bks.cpg/sg47_15_cif.got.tgz:28394.got - 2010.06.03 20:15:42.
