data_PCOD9384984
_publ_section_title
;
Structure prediction by ZEFSAII (Michael W. Deem and Ramdas Pophale) SiO2 
 PCOD9384984
Probable space group: P M M M
;
_chemical_formula_sum "Si O2"
_cell_formula_units_Z 52
_cell_length_a 7.589424
_cell_length_b 14.820663
_cell_length_c 24.377196
_cell_angle_alpha 90.000000
_cell_angle_beta 90.000000
_cell_angle_gamma 90.000000
_cell_volume 2741.954209
_symmetry_space_group_name_H-M "P M M M"
_symmetry_group_IT_number 47
_symmetry_cell_setting 'orthorhombic'
loop_
_space_group_symop_operation_xyz
x,y,z
-x,-y,z
x,-y,-z
-x,y,-z
-x,-y,-z
x,y,-z
-x,y,z
x,-y,z
loop_
_atom_site_type_symbol
_atom_site_label
_atom_site_fract_x
_atom_site_fract_y
_atom_site_fract_z
Si Si1 0.209574 0.603266 0.380150
Si Si2 0.292186 0.899678 0.099862
Si Si3 0.205609 0.706353 0.059571
Si Si4 0.784472 0.604218 0.167174
Si Si5 0.213095 0.900105 0.771210
Si Si6 0.215831 0.286681 0.275487
Si Si7 0.709404 0.397407 0.500000
O O1 0.280669 0.500000 0.378020
O O2 0.277514 0.665627 0.331136
O O3 0.237920 0.641830 0.441258
O O4 0.000000 0.596350 0.372252
O O5 0.500000 0.899390 0.088505
O O6 0.213834 0.813575 0.069804
O O7 0.265024 0.886953 0.165197
O O8 0.222927 0.000000 0.085906
O O9 0.279744 0.655826 0.112799
O O10 0.000000 0.680660 0.057583
O O11 0.284149 0.684956 0.000000
O O12 0.731687 0.500000 0.167304
O O13 0.730177 0.655148 0.222483
O O14 0.000000 0.606927 0.167092
O O15 0.273782 0.815960 0.735063
O O16 0.000000 0.900049 0.770245
O O17 0.274139 0.000000 0.754368
O O18 0.000000 0.285914 0.276394
O O19 0.783890 0.500000 0.500000
O O20 0.500000 0.402253 0.500000
#
# Coordination Sequence:
#
# PCOD9384984 Si02
#       7
#     8   8   8   8   8   8   4
#     4   9  16  26  43  67  93 122 156 189 220 261
#     4  10  20  33  49  68  90 117 149 187 233 283
#     4  10  20  33  49  69  91 117 152 191 232 280
#     4   9  16  27  45  69  95 119 147 188 232 271
#     4   9  16  28  48  71  95 121 148 183 229 279
#     4   9  15  25  44  71  96 118 148 187 229 270
#     4   9  17  29  43  61  92 129 158 186 223 263
#
# _framework density 18.964576000000001
#
# number of rings (size 3 to 8) (size 9 to 14) (size 15 to 20)
#    0.000    2.692    1.538    1.154    0.000    4.615 
#    0.000    3.846    0.000    0.462    0.000    1.615 
#    0.000    4.308    0.000    0.000    0.000    0.000 
#
# Total GULP energy -290017.738093 kJ/mol
# GULP energy per Si atom -5577.264194 kJ/mol
# Density = 1.892141 g / cm^3
# Si number density = 18.964576 Si / 1000 Ang^3
#
#
#
# Elastic Constant Matrix: (Units=GPa)
#
#
# Indices 1 2 3 4 5 6 
#
# 1 41.8303 -0.2451 0.4493 0.0000 0.0000 0.0000
# 2 -0.2451 109.5524 76.6078 0.0000 0.0000 0.0000
# 3 0.4493 76.6078 160.7887 0.0000 0.0000 0.0000
# 4 0.0000 0.0000 0.0000 169.2092 0.0000 0.0000
# 5 0.0000 0.0000 0.0000 0.0000 -38.4189 0.0000
# 6 0.0000 0.0000 0.0000 0.0000 0.0000 -7.1493
#
#
#
# Elastic Compliance Matrix: (Units=1/GPa)
#
#
# Indices 1 2 3 4 5 6 
#
# 1 0.023909 0.000150 -0.000138 0.000000 0.000000 0.000000
# 2 0.000150 0.013690 -0.006523 0.000000 0.000000 0.000000
# 3 -0.000138 -0.006523 0.009328 0.000000 0.000000 0.000000
# 4 0.000000 0.000000 0.000000 0.005910 0.000000 0.000000
# 5 0.000000 0.000000 0.000000 0.000000 -0.026029 0.000000
# 6 0.000000 0.000000 0.000000 0.000000 0.000000 -0.139874
#
#
# Mechanical properties :
#
#
# Convention : Reuss Voigt Hill
#
# Bulk Modulus (GPa) = 29.49528 51.75505 40.62516
# Shear Modulus (GPa) = -56.34192 40.41883 -7.96154
#
# Velocity S-wave (km/s) = -5.45651 4.62159 -2.05115
# Velocity P-wave (km/s) = 4.91034 7.47184 3.98227
#
# Compressibility (1/GPa) = 0.03390374
#
# Stress axis : x y z
#
# Youngs Moduli (GPa) = 41.82613 73.04749 107.20912
#
# Poissons Ratio (x) = -0.01098 0.01484
# Poissons Ratio (y) = -0.00629 0.69931
# Poissons Ratio (z) = 0.00579 0.47648
#
# Static dielectric constant tensor:
#      x y z
#    x 1.700590 0.000000 0.000000 
#    y 0.000000 1.660790 0.000000 
#    z 0.000000 0.000000 1.658420 
# 
# From -- ./inp_files/7645.got.cif
#   From: 2010.05.17/outbox.cif.g08.bks.cpg/sg47_4_cif.got.tgz:7645.got - 2010.06.03 20:15:42.
