data_PCOD9384448
_publ_section_title
;
Structure prediction by ZEFSAII (Michael W. Deem and Ramdas Pophale) SiO2 
 PCOD9384448
Probable space group: P M M M
;
_chemical_formula_sum "Si O2"
_cell_formula_units_Z 56
_cell_length_a 15.993083
_cell_length_b 20.449207
_cell_length_c 8.777431
_cell_angle_alpha 90.000000
_cell_angle_beta 90.000000
_cell_angle_gamma 90.000000
_cell_volume 2870.622512
_symmetry_space_group_name_H-M "P M M M"
_symmetry_group_IT_number 47
_symmetry_cell_setting 'orthorhombic'
loop_
_space_group_symop_operation_xyz
x,y,z
-x,-y,z
x,-y,-z
-x,y,-z
-x,-y,-z
x,y,-z
-x,y,z
x,-y,z
loop_
_atom_site_type_symbol
_atom_site_label
_atom_site_fract_x
_atom_site_fract_y
_atom_site_fract_z
Si Si1 0.711039 0.071383 0.330690
Si Si2 0.592474 0.681516 0.821793
Si Si3 0.219250 0.682116 0.182014
Si Si4 0.907544 0.214046 0.318054
Si Si5 0.902922 0.577206 0.680866
Si Si6 0.405211 0.838241 0.168854
Si Si7 0.882128 0.926842 0.821894
O O1 0.748857 0.077068 0.500000
O O2 0.648579 0.129175 0.298259
O O3 0.783120 0.073167 0.206544
O O4 0.669308 0.000000 0.321947
O O5 0.500000 0.660880 0.758313
O O6 0.685887 0.667078 0.759283
O O7 0.592485 0.760356 0.819532
O O8 0.592170 0.660753 0.000000
O O9 0.170181 0.745763 0.247491
O O10 0.159744 0.621995 0.225918
O O11 0.225449 0.690849 0.000000
O O12 0.899969 0.217013 0.500000
O O13 0.909175 0.138597 0.264462
O O14 0.000000 0.242119 0.276238
O O15 0.893583 0.591448 0.500000
O O16 0.887391 0.500000 0.702837
O O17 0.000000 0.589645 0.720459
O O18 0.500000 0.862210 0.177274
O O19 0.371759 0.854638 0.000000
O O20 0.909348 0.000000 0.769872
O O21 0.902290 0.921017 0.000000
#
# Coordination Sequence:
#
# PCOD9384448 Si02
#       7
#     8   8   8   8   8   8   8
#     4  10  20  32  46  65  91 124 162 207 264 333
#     4   8  16  32  52  75 104 137 173 215 266 322
#     4  11  21  33  57  89 116 145 184 233 281 321
#     4  11  24  39  55  78 111 149 184 221 272 336
#     4   9  19  37  59  82 114 158 197 225 266 329
#     4   9  17  30  48  67  89 123 168 216 267 324
#     4  10  21  37  56  75  97 130 175 228 280 326
#
# _framework density 19.507964999999999
#
# number of rings (size 3 to 8) (size 9 to 14) (size 15 to 20)
#    0.000    2.286    0.000    4.286    0.000    7.143 
#    0.000    4.286    0.000    3.857    0.000    3.000 
#    0.000    0.000    0.000    0.000    0.000    0.000 
#
# Total GULP energy -311985.628010 kJ/mol
# GULP energy per Si atom -5571.171929 kJ/mol
# Density = 1.946356 g / cm^3
# Si number density = 19.507965 Si / 1000 Ang^3
#
#
#
# Elastic Constant Matrix: (Units=GPa)
#
#
# Indices 1 2 3 4 5 6 
#
# 1 124.6536 38.4911 30.7999 0.0000 0.0000 0.0000
# 2 38.4911 53.8110 17.8251 0.0000 0.0000 0.0000
# 3 30.7999 17.8251 40.4248 0.0000 0.0000 0.0000
# 4 0.0000 0.0000 0.0000 33.0898 0.0000 0.0000
# 5 0.0000 0.0000 0.0000 0.0000 20.7173 0.0000
# 6 0.0000 0.0000 0.0000 0.0000 0.0000 17.5555
#
#
#
# Elastic Compliance Matrix: (Units=1/GPa)
#
#
# Indices 1 2 3 4 5 6 
#
# 1 0.011405 -0.006182 -0.005963 0.000000 0.000000 0.000000
# 2 -0.006182 0.025114 -0.006363 0.000000 0.000000 0.000000
# 3 -0.005963 -0.006363 0.032087 0.000000 0.000000 0.000000
# 4 0.000000 0.000000 0.000000 0.030221 0.000000 0.000000
# 5 0.000000 0.000000 0.000000 0.000000 0.048269 0.000000
# 6 0.000000 0.000000 0.000000 0.000000 0.000000 0.056962
#
#
# Mechanical properties :
#
#
# Convention : Reuss Voigt Hill
#
# Bulk Modulus (GPa) = 31.65854 43.68019 37.66936
# Shear Modulus (GPa) = 19.87250 23.05739 21.46494
#
# Velocity S-wave (km/s) = 3.19515 3.44168 3.32070
# Velocity P-wave (km/s) = 5.46587 6.18329 5.83561
#
# Compressibility (1/GPa) = 0.03158705
#
# Stress axis : x y z
#
# Youngs Moduli (GPa) = 87.68330 39.81880 31.16571
#
# Poissons Ratio (x) = 0.24618 0.18585
# Poissons Ratio (y) = 0.54210 0.19832
# Poissons Ratio (z) = 0.52287 0.25338
#
# Static dielectric constant tensor:
#      x y z
#    x 1.739060 0.000000 0.000000 
#    y 0.000000 1.677830 0.000000 
#    z 0.000000 0.000000 1.678670 
# 
# From -- ./inp_files/7196.got.cif
#   From: 2010.05.17/outbox.cif.g08.bks.cpg/sg47_4_cif.got.tgz:7196.got - 2010.06.03 20:15:42.
