data_PCOD9384362
_publ_section_title
;
Structure prediction by ZEFSAII (Michael W. Deem and Ramdas Pophale) SiO2 
 PCOD9384362
Probable space group: P M M M
;
_chemical_formula_sum "Si O2"
_cell_formula_units_Z 56
_cell_length_a 32.249617
_cell_length_b 9.150920
_cell_length_c 14.464423
_cell_angle_alpha 90.000000
_cell_angle_beta 90.000000
_cell_angle_gamma 90.000000
_cell_volume 4268.648886
_symmetry_space_group_name_H-M "P M M M"
_symmetry_group_IT_number 47
_symmetry_cell_setting 'orthorhombic'
loop_
_space_group_symop_operation_xyz
x,y,z
-x,-y,z
x,-y,-z
-x,y,-z
-x,-y,-z
x,y,-z
-x,y,z
x,-y,z
loop_
_atom_site_type_symbol
_atom_site_label
_atom_site_fract_x
_atom_site_fract_y
_atom_site_fract_z
Si Si1 0.000000 0.177308 0.105504
Si Si2 0.590322 0.829599 0.887208
Si Si3 0.326408 0.331773 0.112710
Si Si4 0.917245 0.824248 0.216595
Si Si5 0.950945 0.674297 0.607140
Si Si6 0.158064 0.674081 0.889838
Si Si7 0.756672 0.167550 0.112308
Si Si8 0.500000 0.821829 0.892802
O O1 0.958439 0.220678 0.159084
O O2 0.000000 0.000000 0.103336
O O3 0.000000 0.230200 0.000000
O O4 0.629985 0.737574 0.857082
O O5 0.544836 0.778029 0.853485
O O6 0.595913 0.000000 0.862799
O O7 0.588936 0.824453 0.000000
O O8 0.322791 0.500000 0.140595
O O9 0.286360 0.240226 0.143368
O O10 0.326520 0.328086 0.000000
O O11 0.924511 0.764042 0.319489
O O12 0.877720 0.753467 0.167403
O O13 0.914237 0.000000 0.215848
O O14 0.941026 0.706190 0.500000
O O15 0.945690 0.500000 0.621497
O O16 0.000000 0.706932 0.620488
O O17 0.157028 0.500000 0.875914
O O18 0.202910 0.738851 0.863019
O O19 0.152141 0.702037 0.000000
O O20 0.760342 0.000000 0.143254
O O21 0.755360 0.166110 0.000000
O O22 0.500000 0.000000 0.893236
O O23 0.500000 0.774241 0.000000
#
# Coordination Sequence:
#
# PCOD9384362 Si02
#       8
#     4   8   8   8   8   8   8   4
#     4   9  18  30  42  59  84 110 133 157 184 213
#     4   8  12  18  27  37  49  68  95 126 161 204
#     4   9  15  21  29  42  59  77  99 131 170 210
#     4  11  20  31  47  66  86 108 132 160 189 220
#     4   9  18  33  51  68  87 109 130 156 190 225
#     4  10  20  32  44  59  80 105 130 156 187 225
#     4   9  16  26  39  52  65  85 114 146 178 213
#     4   7  10  16  25  35  47  65  91 123 159 201
#
# _framework density 13.118905
#
# number of rings (size 3 to 8) (size 9 to 14) (size 15 to 20)
#    0.000    2.857    0.714    3.429    0.000    5.143 
#    0.000    1.071    0.000    3.857    0.000    0.000 
#    0.000    0.000    0.000    0.000    0.000    0.000 
#
# Total GULP energy -311752.885399 kJ/mol
# GULP energy per Si atom -5567.015811 kJ/mol
# Density = 1.308905 g / cm^3
# Si number density = 13.118905 Si / 1000 Ang^3
#
#
#
# Elastic Constant Matrix: (Units=GPa)
#
#
# Indices 1 2 3 4 5 6 
#
# 1 129.6405 58.7325 33.2838 0.0000 0.0000 0.0000
# 2 58.7325 71.1518 28.4690 0.0000 0.0000 0.0000
# 3 33.2838 28.4690 37.4761 0.0000 0.0000 0.0000
# 4 0.0000 0.0000 0.0000 12.2834 0.0000 0.0000
# 5 0.0000 0.0000 0.0000 0.0000 0.9027 0.0000
# 6 0.0000 0.0000 0.0000 0.0000 0.0000 16.8179
#
#
#
# Elastic Compliance Matrix: (Units=1/GPa)
#
#
# Indices 1 2 3 4 5 6 
#
# 1 0.012905 -0.008716 -0.004840 0.000000 0.000000 0.000000
# 2 -0.008716 0.026078 -0.012070 0.000000 0.000000 0.000000
# 3 -0.004840 -0.012070 0.040151 0.000000 0.000000 0.000000
# 4 0.000000 0.000000 0.000000 0.081411 0.000000 0.000000
# 5 0.000000 0.000000 0.000000 0.000000 1.107758 0.000000
# 6 0.000000 0.000000 0.000000 0.000000 0.000000 0.059460
#
#
# Mechanical properties :
#
#
# Convention : Reuss Voigt Hill
#
# Bulk Modulus (GPa) = 35.86430 53.24876 44.55653
# Shear Modulus (GPa) = 3.60150 13.85303 8.72727
#
# Velocity S-wave (km/s) = 1.65869 3.25308 2.58203
# Velocity P-wave (km/s) = 5.57365 7.40186 6.55183
#
# Compressibility (1/GPa) = 0.02788288
#
# Stress axis : x y z
#
# Youngs Moduli (GPa) = 77.48995 38.34632 24.90577
#
# Poissons Ratio (x) = 0.33421 0.12055
# Poissons Ratio (y) = 0.67538 0.30061
# Poissons Ratio (z) = 0.37508 0.46283
#
# Static dielectric constant tensor:
#      x y z
#    x 1.442550 0.000000 0.000000 
#    y 0.000000 1.436390 0.000000 
#    z 0.000000 0.000000 1.393660 
# 
# From -- ./inp_files/25809.got.cif
#   From: 2010.05.17/outbox.cif.g08.bks.cpg/sg47_13_cif.got.tgz:25809.got - 2010.06.03 20:15:42.
