data_PCOD9384808
_publ_section_title
;
Structure prediction by ZEFSAII (Michael W. Deem and Ramdas Pophale) SiO2 
 PCOD9384808
Probable space group: P M M M
;
_chemical_formula_sum "Si O2"
_cell_formula_units_Z 40
_cell_length_a 26.291597
_cell_length_b 7.577018
_cell_length_c 9.548645
_cell_angle_alpha 90.000000
_cell_angle_beta 90.000000
_cell_angle_gamma 90.000000
_cell_volume 1902.203748
_symmetry_space_group_name_H-M "P M M M"
_symmetry_group_IT_number 47
_symmetry_cell_setting 'orthorhombic'
loop_
_space_group_symop_operation_xyz
x,y,z
-x,-y,z
x,-y,-z
-x,y,-z
-x,-y,-z
x,y,-z
-x,y,z
x,-y,z
loop_
_atom_site_type_symbol
_atom_site_label
_atom_site_fract_x
_atom_site_fract_y
_atom_site_fract_z
Si Si1 0.557489 0.787231 0.341088
Si Si2 0.847427 0.212433 0.841081
Si Si3 0.654360 0.709700 0.157756
Si Si4 0.942497 0.784663 0.338986
Si Si5 0.748002 0.711595 0.658755
O O1 0.569792 0.727428 0.500000
O O2 0.500000 0.727549 0.307293
O O3 0.600293 0.733758 0.232223
O O4 0.556604 0.000000 0.343620
O O5 0.898615 0.277134 0.764856
O O6 0.798766 0.253782 0.746529
O O7 0.851127 0.000000 0.847873
O O8 0.841916 0.278510 0.000000
O O9 0.663015 0.500000 0.147199
O O10 0.699253 0.781692 0.256271
O O11 0.655406 0.782235 0.000000
O O12 0.932114 0.731994 0.500000
O O13 0.000000 0.729660 0.302364
O O14 0.942192 0.000000 0.337373
O O15 0.751020 0.780645 0.500000
O O16 0.742463 0.500000 0.648901
#
# Coordination Sequence:
#
# PCOD9384808 Si02
#       5
#     8   8   8   8   8
#     4   9  19  36  56  78 105 137 172 208 247 293
#     4  10  20  32  49  76 106 134 166 205 251 303
#     4  10  21  36  54  77 104 133 167 208 253 301
#     4   8  14  26  45  69  98 132 168 206 248 293
#     4  10  21  37  56  75  97 131 173 212 253 301
#
# _framework density 21.028241000000001
#
# number of rings (size 3 to 8) (size 9 to 14) (size 15 to 20)
#    0.000    2.600    0.000    3.000    0.000    6.000 
#    0.000    5.000    0.000    0.600    0.000    4.200 
#    0.000    0.000    0.000    0.000    0.000    0.000 
#
# Total GULP energy -223374.789063 kJ/mol
# GULP energy per Si atom -5584.369727 kJ/mol
# Density = 2.098038 g / cm^3
# Si number density = 21.028241 Si / 1000 Ang^3
#
#
#
# Elastic Constant Matrix: (Units=GPa)
#
#
# Indices 1 2 3 4 5 6 
#
# 1 174.5588 -1.3921 147.7183 0.0000 0.0000 0.0000
# 2 -1.3921 47.0012 8.5587 0.0000 0.0000 0.0000
# 3 147.7183 8.5587 225.7415 0.0000 0.0000 0.0000
# 4 0.0000 0.0000 0.0000 16.3210 0.0000 0.0000
# 5 0.0000 0.0000 0.0000 0.0000 155.1150 0.0000
# 6 0.0000 0.0000 0.0000 0.0000 0.0000 26.7632
#
#
#
# Elastic Compliance Matrix: (Units=1/GPa)
#
#
# Indices 1 2 3 4 5 6 
#
# 1 0.013013 0.001949 -0.008589 0.000000 0.000000 0.000000
# 2 0.001949 0.021716 -0.002099 0.000000 0.000000 0.000000
# 3 -0.008589 -0.002099 0.010130 0.000000 0.000000 0.000000
# 4 0.000000 0.000000 0.000000 0.061271 0.000000 0.000000
# 5 0.000000 0.000000 0.000000 0.000000 0.006447 0.000000
# 6 0.000000 0.000000 0.000000 0.000000 0.000000 0.037365
#
#
# Mechanical properties :
#
#
# Convention : Reuss Voigt Hill
#
# Bulk Modulus (GPa) = 36.52118 84.11901 60.32009
# Shear Modulus (GPa) = 28.32143 59.13428 43.72786
#
# Velocity S-wave (km/s) = 3.67390 5.30871 4.56508
# Velocity P-wave (km/s) = 5.94996 8.81285 7.51892
#
# Compressibility (1/GPa) = 0.02738137
#
# Stress axis : x y z
#
# Youngs Moduli (GPa) = 76.84892 46.04896 98.71915
#
# Poissons Ratio (x) = -0.08977 0.84789
# Poissons Ratio (y) = -0.14981 0.20721
# Poissons Ratio (z) = 0.66005 0.09666
#
# Static dielectric constant tensor:
#      x y z
#    x 1.716330 0.000000 0.000000 
#    y 0.000000 1.811230 0.000000 
#    z 0.000000 0.000000 1.740170 
# 
# From -- ./inp_files/1372.got.cif
#   From: 2010.05.17/outbox.cif.g08.bks.cpg/sg47_1_cif.got.tgz:1372.got - 2010.06.03 20:15:42.
