data_PCOD9384658
_publ_section_title
;
Structure prediction by ZEFSAII (Michael W. Deem and Ramdas Pophale) SiO2 
 PCOD9384658
Probable space group: P M M M
;
_chemical_formula_sum "Si O2"
_cell_formula_units_Z 44
_cell_length_a 30.951620
_cell_length_b 7.704912
_cell_length_c 9.768302
_cell_angle_alpha 90.000000
_cell_angle_beta 90.000000
_cell_angle_gamma 90.000000
_cell_volume 2329.539858
_symmetry_space_group_name_H-M "P M M M"
_symmetry_group_IT_number 47
_symmetry_cell_setting 'orthorhombic'
loop_
_space_group_symop_operation_xyz
x,y,z
-x,-y,z
x,-y,-z
-x,y,-z
-x,-y,-z
x,y,-z
-x,y,z
x,-y,z
loop_
_atom_site_type_symbol
_atom_site_label
_atom_site_fract_x
_atom_site_fract_y
_atom_site_fract_z
Si Si1 0.205024 0.705247 0.155262
Si Si2 0.950971 0.787912 0.156727
Si Si3 0.615975 0.795077 0.336408
Si Si4 0.697479 0.791174 0.844006
Si Si5 0.450861 0.500000 0.666165
Si Si6 0.873980 0.794120 0.346329
O O1 0.198983 0.500000 0.147737
O O2 0.254314 0.739491 0.199282
O O3 0.169621 0.773111 0.259767
O O4 0.199832 0.777281 0.000000
O O5 0.914416 0.723507 0.259620
O O6 0.000000 0.735632 0.191721
O O7 0.950384 0.000000 0.157358
O O8 0.941804 0.734958 0.000000
O O9 0.622575 0.777540 0.500000
O O10 0.658968 0.737869 0.255931
O O11 0.576413 0.670972 0.295463
O O12 0.607852 0.000000 0.308774
O O13 0.696627 0.000000 0.847271
O O14 0.690974 0.727238 0.000000
O O15 0.500000 0.500000 0.717265
O O16 0.452751 0.500000 0.500000
O O17 0.870622 0.722538 0.500000
O O18 0.881458 0.000000 0.357922
#
# Coordination Sequence:
#
# PCOD9384658 Si02
#       6
#     8   8   8   8   4   8
#     4  10  21  35  51  72  97 129 169 208 248 300
#     4   8  14  26  46  71  96 124 161 204 249 297
#     4   9  18  32  51  76 104 135 173 216 260 309
#     4   9  18  33  53  76 101 130 164 205 254 304
#     4   9  18  32  51  77 107 139 177 219 262 307
#     4  10  20  32  48  72 101 132 164 201 249 302
#
# _framework density 18.88785
#
# number of rings (size 3 to 8) (size 9 to 14) (size 15 to 20)
#    0.000    2.818    0.000    1.636    1.273    3.636 
#    0.000    5.455    0.000    1.636    0.000    6.364 
#    0.000    0.000    0.000    0.000    0.000    0.000 
#
# Total GULP energy -245364.151459 kJ/mol
# GULP energy per Si atom -5576.457988 kJ/mol
# Density = 1.884486 g / cm^3
# Si number density = 18.887850 Si / 1000 Ang^3
#
#
#
# Elastic Constant Matrix: (Units=GPa)
#
#
# Indices 1 2 3 4 5 6 
#
# 1 179.7856 33.2188 106.7096 0.0000 0.0000 0.0000
# 2 33.2188 46.0096 27.7431 0.0000 0.0000 0.0000
# 3 106.7096 27.7431 91.3562 0.0000 0.0000 0.0000
# 4 0.0000 0.0000 0.0000 8.0879 0.0000 0.0000
# 5 0.0000 0.0000 0.0000 0.0000 29.0734 0.0000
# 6 0.0000 0.0000 0.0000 0.0000 0.0000 72.6969
#
#
#
# Elastic Compliance Matrix: (Units=1/GPa)
#
#
# Indices 1 2 3 4 5 6 
#
# 1 0.018141 -0.000392 -0.021070 0.000000 0.000000 0.000000
# 2 -0.000392 0.026615 -0.007624 0.000000 0.000000 0.000000
# 3 -0.021070 -0.007624 0.037873 0.000000 0.000000 0.000000
# 4 0.000000 0.000000 0.000000 0.123641 0.000000 0.000000
# 5 0.000000 0.000000 0.000000 0.000000 0.034396 0.000000
# 6 0.000000 0.000000 0.000000 0.000000 0.000000 0.013756
#
#
# Mechanical properties :
#
#
# Convention : Reuss Voigt Hill
#
# Bulk Modulus (GPa) = 40.89136 72.49938 56.69537
# Shear Modulus (GPa) = 15.58865 31.93698 23.76281
#
# Velocity S-wave (km/s) = 2.87597 4.11649 3.55082
# Velocity P-wave (km/s) = 5.72056 7.81418 6.84785
#
# Compressibility (1/GPa) = 0.02445505
#
# Stress axis : x y z
#
# Youngs Moduli (GPa) = 55.12472 37.57260 26.40423
#
# Poissons Ratio (x) = 0.01475 0.55634
# Poissons Ratio (y) = 0.02164 0.20131
# Poissons Ratio (z) = 1.16149 0.28645
#
# Static dielectric constant tensor:
#      x y z
#    x 1.630090 0.000000 0.000000 
#    y 0.000000 1.693250 0.000000 
#    z 0.000000 0.000000 1.669330 
# 
# From -- ./inp_files/2205.got.cif
#   From: 2010.05.17/outbox.cif.g08.bks.cpg/sg47_2_cif.got.tgz:2205.got - 2010.06.03 20:15:42.
