data_PCOD9384815
_publ_section_title
;
Structure prediction by ZEFSAII (Michael W. Deem and Ramdas Pophale) SiO2 
 PCOD9384815
Probable space group: P M M M
;
_chemical_formula_sum "Si O2"
_cell_formula_units_Z 40
_cell_length_a 8.568099
_cell_length_b 9.765718
_cell_length_c 26.354168
_cell_angle_alpha 90.000000
_cell_angle_beta 90.000000
_cell_angle_gamma 90.000000
_cell_volume 2205.149130
_symmetry_space_group_name_H-M "P M M M"
_symmetry_group_IT_number 47
_symmetry_cell_setting 'orthorhombic'
loop_
_space_group_symop_operation_xyz
x,y,z
-x,-y,z
x,-y,-z
-x,y,-z
-x,-y,-z
x,y,-z
-x,y,z
x,-y,z
loop_
_atom_site_type_symbol
_atom_site_label
_atom_site_fract_x
_atom_site_fract_y
_atom_site_fract_z
Si Si1 0.813889 0.341479 0.648132
Si Si2 0.811151 0.842431 0.150895
Si Si3 0.686592 0.341502 0.241844
Si Si4 0.688109 0.839891 0.442892
Si Si5 0.190152 0.343177 0.942340
O O1 0.768410 0.500000 0.639156
O O2 0.738813 0.299391 0.701697
O O3 0.759898 0.249991 0.601379
O O4 0.000000 0.334878 0.653249
O O5 0.756248 0.757152 0.199463
O O6 0.756991 0.762580 0.100318
O O7 0.000000 0.842808 0.150348
O O8 0.758256 0.000000 0.152092
O O9 0.500000 0.338884 0.238847
O O10 0.739155 0.500000 0.234105
O O11 0.736224 0.797677 0.500000
O O12 0.500000 0.830207 0.440521
O O13 0.729117 0.000000 0.436639
O O14 0.237378 0.500000 0.930627
O O15 0.000000 0.341808 0.942257
O O16 0.239386 0.310618 0.000000
#
# Coordination Sequence:
#
# PCOD9384815 Si02
#       5
#     8   8   8   8   8
#     4  10  21  36  55  80 107 134 168 213 262 308
#     4  10  20  32  49  76 107 137 169 207 254 306
#     4  10  21  37  56  75  97 131 174 215 257 307
#     4   9  19  36  56  78 106 141 178 212 249 298
#     4   8  14  26  46  72 101 134 171 209 250 297
#
# _framework density 18.139362999999999
#
# number of rings (size 3 to 8) (size 9 to 14) (size 15 to 20)
#    0.000    2.600    0.000    3.000    0.000    6.000 
#    0.000    5.000    0.000    0.600    0.000    4.200 
#    0.000    0.000    0.000    0.000    0.000    0.000 
#
# Total GULP energy -223172.577959 kJ/mol
# GULP energy per Si atom -5579.314449 kJ/mol
# Density = 1.809808 g / cm^3
# Si number density = 18.139363 Si / 1000 Ang^3
#
#
#
# Elastic Constant Matrix: (Units=GPa)
#
#
# Indices 1 2 3 4 5 6 
#
# 1 12.4924 25.2962 26.0700 0.0000 0.0000 0.0000
# 2 25.2962 115.8578 117.6086 0.0000 0.0000 0.0000
# 3 26.0700 117.6086 174.5484 0.0000 0.0000 0.0000
# 4 0.0000 0.0000 0.0000 -115.7853 0.0000 0.0000
# 5 0.0000 0.0000 0.0000 0.0000 81.5119 0.0000
# 6 0.0000 0.0000 0.0000 0.0000 0.0000 23.3296
#
#
#
# Elastic Compliance Matrix: (Units=1/GPa)
#
#
# Indices 1 2 3 4 5 6 
#
# 1 0.143544 -0.030307 -0.001019 0.000000 0.000000 0.000000
# 2 -0.030307 0.033711 -0.018187 0.000000 0.000000 0.000000
# 3 -0.001019 -0.018187 0.018136 0.000000 0.000000 0.000000
# 4 0.000000 0.000000 0.000000 -0.008637 0.000000 0.000000
# 5 0.000000 0.000000 0.000000 0.000000 0.012268 0.000000
# 6 0.000000 0.000000 0.000000 0.000000 0.000000 0.042864
#
#
# Mechanical properties :
#
#
# Convention : Reuss Voigt Hill
#
# Bulk Modulus (GPa) = 10.37730 71.20535 40.79132
# Shear Modulus (GPa) = 13.40363 6.73948 10.07155
#
# Velocity S-wave (km/s) = 2.72127 1.92963 2.35889
# Velocity P-wave (km/s) = 3.95057 6.65616 5.47318
#
# Compressibility (1/GPa) = 0.09636423
#
# Stress axis : x y z
#
# Youngs Moduli (GPa) = 6.96649 29.66429 55.14040
#
# Poissons Ratio (x) = 0.89904 0.05617
# Poissons Ratio (y) = 0.21114 1.00285
# Poissons Ratio (z) = 0.00710 0.53951
#
# Static dielectric constant tensor:
#      x y z
#    x 1.622370 0.000000 0.000000 
#    y 0.000000 1.611400 0.000000 
#    z 0.000000 0.000000 1.599090 
# 
# From -- ./inp_files/1348.got.cif
#   From: 2010.05.17/outbox.cif.g08.bks.cpg/sg47_1_cif.got.tgz:1348.got - 2010.06.03 20:15:42.
