data_PCOD9384205
_publ_section_title
;
Structure prediction by ZEFSAII (Michael W. Deem and Ramdas Pophale) SiO2 
 PCOD9384205
Probable space group: P M M M
;
_chemical_formula_sum "Si O2"
_cell_formula_units_Z 64
_cell_length_a 20.821934
_cell_length_b 18.487381
_cell_length_c 8.158364
_cell_angle_alpha 90.000000
_cell_angle_beta 90.000000
_cell_angle_gamma 90.000000
_cell_volume 3140.505334
_symmetry_space_group_name_H-M "P M M M"
_symmetry_group_IT_number 47
_symmetry_cell_setting 'orthorhombic'
loop_
_space_group_symop_operation_xyz
x,y,z
-x,-y,z
x,-y,-z
-x,y,-z
-x,-y,-z
x,y,-z
-x,y,z
x,-y,z
loop_
_atom_site_type_symbol
_atom_site_label
_atom_site_fract_x
_atom_site_fract_y
_atom_site_fract_z
Si Si1 0.926823 0.615496 0.309421
Si Si2 0.740460 0.879050 0.302028
Si Si3 0.924083 0.226912 0.186485
Si Si4 0.400065 0.078695 0.802881
Si Si5 0.124188 0.076936 0.194174
Si Si6 0.569538 0.759999 0.802130
Si Si7 0.211842 0.422028 0.806654
Si Si8 0.708941 0.282257 0.694378
O O1 0.926492 0.595196 0.500000
O O2 0.914008 0.701238 0.290016
O O3 0.864754 0.582016 0.224877
O O4 0.000000 0.601229 0.245768
O O5 0.745009 0.882795 0.500000
O O6 0.674505 0.914376 0.243590
O O7 0.800069 0.918589 0.221142
O O8 0.738871 0.794463 0.247267
O O9 0.900100 0.152646 0.264260
O O10 0.000000 0.219023 0.170520
O O11 0.897561 0.237405 0.000000
O O12 0.427352 0.155881 0.744070
O O13 0.423858 0.000000 0.743195
O O14 0.408052 0.078578 0.000000
O O15 0.099773 0.000000 0.259793
O O16 0.108624 0.078927 0.000000
O O17 0.500000 0.729813 0.750154
O O18 0.634294 0.719459 0.748727
O O19 0.570842 0.761337 0.000000
O O20 0.234352 0.500000 0.738240
O O21 0.249732 0.352054 0.742478
O O22 0.222101 0.422053 0.000000
O O23 0.709135 0.278192 0.500000
#
# Coordination Sequence:
#
# PCOD9384205 Si02
#       8
#     8   8   8   8   8   8   8   8
#     4  10  21  37  58  84 114 147 181 217 258 310
#     4  10  20  32  47  69  96 129 172 216 259 312
#     4   9  18  33  52  71  93 127 171 217 264 314
#     4   9  17  29  46  70 102 139 178 221 268 315
#     4  10  20  31  44  65  93 126 167 218 273 321
#     4   9  18  33  54  80 110 146 187 230 276 324
#     4  11  24  40  60  87 116 144 175 214 261 315
#     4  10  21  37  58  82 109 143 181 223 269 320
#
# _framework density 20.378886000000001
#
# number of rings (size 3 to 8) (size 9 to 14) (size 15 to 20)
#    0.000    2.250    0.000    2.625    0.000    8.750 
#    0.000    3.750    0.000    0.375    0.000    8.750 
#    0.000    0.000    0.000    0.000    0.000    0.000 
#
# Total GULP energy -356929.581743 kJ/mol
# GULP energy per Si atom -5577.024715 kJ/mol
# Density = 2.033250 g / cm^3
# Si number density = 20.378886 Si / 1000 Ang^3
#
#
#
# Elastic Constant Matrix: (Units=GPa)
#
#
# Indices 1 2 3 4 5 6 
#
# 1 48.6989 55.4880 3.9043 0.0000 0.0000 0.0000
# 2 55.4880 119.1675 7.8346 0.0000 0.0000 0.0000
# 3 3.9043 7.8346 17.2474 0.0000 0.0000 0.0000
# 4 0.0000 0.0000 0.0000 -17.7105 0.0000 0.0000
# 5 0.0000 0.0000 0.0000 0.0000 -11.2651 0.0000
# 6 0.0000 0.0000 0.0000 0.0000 0.0000 -7.1095
#
#
#
# Elastic Compliance Matrix: (Units=1/GPa)
#
#
# Indices 1 2 3 4 5 6 
#
# 1 0.043748 -0.020326 -0.000670 0.000000 0.000000 0.000000
# 2 -0.020326 0.018094 -0.003618 0.000000 0.000000 0.000000
# 3 -0.000670 -0.003618 0.059775 0.000000 0.000000 0.000000
# 4 0.000000 0.000000 0.000000 -0.056464 0.000000 0.000000
# 5 0.000000 0.000000 0.000000 0.000000 -0.088770 0.000000
# 6 0.000000 0.000000 0.000000 0.000000 0.000000 -0.140657
#
#
# Mechanical properties :
#
#
# Convention : Reuss Voigt Hill
#
# Bulk Modulus (GPa) = 13.81437 35.50749 24.66093
# Shear Modulus (GPa) = -54.99621 0.64211 -27.17705
#
# Velocity S-wave (km/s) = -5.20052 0.56193 -3.65579
# Velocity P-wave (km/s) = 5.40991 4.22877 2.38585
#
# Compressibility (1/GPa) = 0.07238838
#
# Stress axis : x y z
#
# Youngs Moduli (GPa) = 22.85813 55.26700 16.72943
#
# Poissons Ratio (x) = 1.12338 0.01121
# Poissons Ratio (y) = 0.46462 0.06052
# Poissons Ratio (z) = 0.01532 0.19995
#
# Static dielectric constant tensor:
#      x y z
#    x 1.765080 0.000000 0.000000 
#    y 0.000000 1.807300 0.000000 
#    z 0.000000 0.000000 1.726450 
# 
# From -- ./inp_files/10026.got.cif
#   From: 2010.05.17/outbox.cif.g08.bks.cpg/sg47_6_cif.got.tgz:10026.got - 2010.06.03 20:15:42.
