data_PCOD9384405
_publ_section_title
;
Structure prediction by ZEFSAII (Michael W. Deem and Ramdas Pophale) SiO2 
 PCOD9384405
Probable space group: P M M M
;
_chemical_formula_sum "Si O2"
_cell_formula_units_Z 40
_cell_length_a 7.379963
_cell_length_b 9.349293
_cell_length_c 26.857479
_cell_angle_alpha 90.000000
_cell_angle_beta 90.000000
_cell_angle_gamma 90.000000
_cell_volume 1853.097200
_symmetry_space_group_name_H-M "P M M M"
_symmetry_group_IT_number 47
_symmetry_cell_setting 'orthorhombic'
loop_
_space_group_symop_operation_xyz
x,y,z
-x,-y,z
x,-y,-z
-x,y,-z
-x,-y,-z
x,y,-z
-x,y,z
x,-y,z
loop_
_atom_site_type_symbol
_atom_site_label
_atom_site_fract_x
_atom_site_fract_y
_atom_site_fract_z
Si Si1 0.221497 0.335491 0.302974
Si Si2 0.221080 0.835084 0.598533
Si Si3 0.290486 0.325654 0.000000
Si Si4 0.221195 0.334916 0.500000
Si Si5 0.215386 0.838774 0.207208
Si Si6 0.717929 0.336858 0.108004
O O1 0.279642 0.500000 0.305370
O O2 0.277437 0.246072 0.351374
O O3 0.283972 0.258600 0.252474
O O4 0.000000 0.336756 0.302827
O O5 0.278321 0.748888 0.549524
O O6 0.000000 0.835863 0.598396
O O7 0.279218 0.000000 0.597665
O O8 0.212720 0.285223 0.053858
O O9 0.289581 0.500000 0.000000
O O10 0.500000 0.277575 0.000000
O O11 0.278914 0.500000 0.500000
O O12 0.000000 0.335531 0.500000
O O13 0.241672 0.763500 0.154243
O O14 0.000000 0.848746 0.214938
O O15 0.288342 0.000000 0.208019
O O16 0.500000 0.344094 0.103572
O O17 0.781742 0.500000 0.117137
#
# Coordination Sequence:
#
# PCOD9384405 Si02
#       6
#     8   8   4   4   8   8
#     4   9  16  26  40  56  75 104 143 183 221 264
#     4   9  15  22  32  47  69  98 133 174 220 267
#     4   7  12  26  48  71  92 114 144 183 224 267
#     4   9  15  21  29  43  65  95 134 177 216 257
#     4  10  20  32  45  64  92 124 155 187 225 270
#     4   9  17  31  52  74  93 116 149 188 228 270
#
# _framework density 21.585481999999999
#
# number of rings (size 3 to 8) (size 9 to 14) (size 15 to 20)
#    0.000    3.000    0.000    3.300    0.000    7.600 
#    0.000    1.000    0.000    4.800    0.000    0.000 
#    0.000    0.000    0.000    0.900    0.000   17.600 
#
# Total GULP energy -223334.748025 kJ/mol
# GULP energy per Si atom -5583.368701 kJ/mol
# Density = 2.153635 g / cm^3
# Si number density = 21.585482 Si / 1000 Ang^3
#
#
#
# Elastic Constant Matrix: (Units=GPa)
#
#
# Indices 1 2 3 4 5 6 
#
# 1 75.4788 6.1281 1.9244 0.0000 0.0000 0.0000
# 2 6.1281 210.5753 146.3127 0.0000 0.0000 0.0000
# 3 1.9244 146.3127 249.0053 0.0000 0.0000 0.0000
# 4 0.0000 0.0000 0.0000 -47.8269 0.0000 0.0000
# 5 0.0000 0.0000 0.0000 0.0000 17.2379 0.0000
# 6 0.0000 0.0000 0.0000 0.0000 0.0000 4.7581
#
#
#
# Elastic Compliance Matrix: (Units=1/GPa)
#
#
# Indices 1 2 3 4 5 6 
#
# 1 0.013287 -0.000533 0.000210 0.000000 0.000000 0.000000
# 2 -0.000533 0.008047 -0.004724 0.000000 0.000000 0.000000
# 3 0.000210 -0.004724 0.006790 0.000000 0.000000 0.000000
# 4 0.000000 0.000000 0.000000 -0.020909 0.000000 0.000000
# 5 0.000000 0.000000 0.000000 0.000000 0.058012 0.000000
# 6 0.000000 0.000000 0.000000 0.000000 0.000000 0.210168
#
#
# Mechanical properties :
#
#
# Convention : Reuss Voigt Hill
#
# Bulk Modulus (GPa) = 55.46143 93.75443 74.60793
# Shear Modulus (GPa) = 17.15276 20.21342 18.68309
#
# Velocity S-wave (km/s) = 2.82200 3.06344 2.94520
# Velocity P-wave (km/s) = 6.03058 7.48607 6.79739
#
# Compressibility (1/GPa) = 0.01803055
#
# Stress axis : x y z
#
# Youngs Moduli (GPa) = 75.26354 124.27264 147.27141
#
# Poissons Ratio (x) = 0.06622 -0.03099
# Poissons Ratio (y) = 0.04011 0.69573
# Poissons Ratio (z) = -0.01584 0.58708
#
# Static dielectric constant tensor:
#      x y z
#    x 1.873200 0.000000 0.000000 
#    y 0.000000 1.730470 0.000000 
#    z 0.000000 0.000000 1.757240 
# 
# From -- ./inp_files/12997.got.cif
#   From: 2010.05.17/outbox.cif.g08.bks.cpg/sg47_7_cif.got.tgz:12997.got - 2010.06.03 20:15:42.
