data_PCOD9384068
_publ_section_title
;
Structure prediction by ZEFSAII (Michael W. Deem and Ramdas Pophale) SiO2 
 PCOD9384068
Probable space group: P M M M
;
_chemical_formula_sum "Si O2"
_cell_formula_units_Z 38
_cell_length_a 24.788200
_cell_length_b 9.788073
_cell_length_c 7.820237
_cell_angle_alpha 90.000000
_cell_angle_beta 90.000000
_cell_angle_gamma 90.000000
_cell_volume 1897.414024
_symmetry_space_group_name_H-M "P M M M"
_symmetry_group_IT_number 47
_symmetry_cell_setting 'orthorhombic'
loop_
_space_group_symop_operation_xyz
x,y,z
-x,-y,z
x,-y,-z
-x,y,-z
-x,-y,-z
x,y,-z
-x,y,z
x,-y,z
loop_
_atom_site_type_symbol
_atom_site_label
_atom_site_fract_x
_atom_site_fract_y
_atom_site_fract_z
Si Si1 0.940017 0.156946 0.206339
Si Si2 0.721294 0.341271 0.800028
Si Si3 0.840058 0.345101 0.702441
Si Si4 0.403989 0.000000 0.000000
Si Si5 0.385037 0.785222 0.691341
Si Si6 0.564225 0.500000 0.798026
O O1 0.891176 0.251319 0.262209
O O2 0.000000 0.202061 0.263582
O O3 0.932383 0.000000 0.262956
O O4 0.940485 0.156442 0.000000
O O5 0.717848 0.500000 0.739523
O O6 0.783439 0.297631 0.781455
O O7 0.679118 0.244154 0.707230
O O8 0.706834 0.340357 0.000000
O O9 0.831409 0.349849 0.500000
O O10 0.850236 0.500000 0.765121
O O11 0.402502 0.881770 0.847188
O O12 0.397664 0.835363 0.500000
O O13 0.411716 0.636714 0.717393
O O14 0.500000 0.500000 0.779383
O O15 0.577637 0.500000 0.000000
#
# Coordination Sequence:
#
# PCOD9384068 Si02
#       6
#     8   8   8   2   8   4
#     4   9  19  37  57  76 103 144 193 243 300 367
#     4  10  19  36  63  90 121 159 206 261 320 378
#     4  10  21  35  53  83 116 148 193 245 306 373
#     4  12  26  46  63  96 144 184 225 264 338 398
#     4  12  24  43  70  99 136 179 225 277 333 394
#     4  11  23  45  77 108 137 175 231 287 330 384
#
# _framework density 20.027258
#
# number of rings (size 3 to 8) (size 9 to 14) (size 15 to 20)
#    0.000    1.579    3.158    2.526    0.000    4.211 
#    1.895    4.211    0.000    1.263    0.000    0.000 
#    0.000    0.000    0.000    0.000    0.000    0.000 
#
# Total GULP energy -211723.888942 kJ/mol
# GULP energy per Si atom -5571.681288 kJ/mol
# Density = 1.998168 g / cm^3
# Si number density = 20.027258 Si / 1000 Ang^3
#
#
#
# Elastic Constant Matrix: (Units=GPa)
#
#
# Indices 1 2 3 4 5 6 
#
# 1 73.7864 29.5573 21.2953 0.0000 0.0000 0.0000
# 2 29.5573 90.1395 43.0841 0.0000 0.0000 0.0000
# 3 21.2953 43.0841 122.9278 0.0000 0.0000 0.0000
# 4 0.0000 0.0000 0.0000 11.7678 0.0000 0.0000
# 5 0.0000 0.0000 0.0000 0.0000 70.7373 0.0000
# 6 0.0000 0.0000 0.0000 0.0000 0.0000 -10.0917
#
#
#
# Elastic Compliance Matrix: (Units=1/GPa)
#
#
# Indices 1 2 3 4 5 6 
#
# 1 0.015725 -0.004630 -0.001101 0.000000 0.000000 0.000000
# 2 -0.004630 0.014690 -0.004346 0.000000 0.000000 0.000000
# 3 -0.001101 -0.004346 0.009849 0.000000 0.000000 0.000000
# 4 0.000000 0.000000 0.000000 0.084978 0.000000 0.000000
# 5 0.000000 0.000000 0.000000 0.000000 0.014137 0.000000
# 6 0.000000 0.000000 0.000000 0.000000 0.000000 -0.099091
#
#
# Mechanical properties :
#
#
# Convention : Reuss Voigt Hill
#
# Bulk Modulus (GPa) = 49.73083 52.74745 51.23914
# Shear Modulus (GPa) = 74.46556 27.34380 50.90468
#
# Velocity S-wave (km/s) = 6.10433 3.69904 5.04707
# Velocity P-wave (km/s) = 8.63535 6.68124 7.72037
#
# Compressibility (1/GPa) = 0.02010825
#
# Stress axis : x y z
#
# Youngs Moduli (GPa) = 63.59231 68.07562 101.53317
#
# Poissons Ratio (x) = 0.31518 0.11183
# Poissons Ratio (y) = 0.29443 0.44130
# Poissons Ratio (z) = 0.07004 0.29588
#
# Static dielectric constant tensor:
#      x y z
#    x 1.710990 0.000000 0.000000 
#    y 0.000000 1.681780 0.000000 
#    z 0.000000 0.000000 1.734320 
# 
# From -- ./inp_files/12140.got.cif
#   From: 2010.05.17/outbox.cif.g08.bks.cpg/sg47_7_cif.got.tgz:12140.got - 2010.06.03 20:15:42.
