data_PCOD9384697
_publ_section_title
;
Structure prediction by ZEFSAII (Michael W. Deem and Ramdas Pophale) SiO2 
 PCOD9384697
Probable space group: P M M M
;
_chemical_formula_sum "Si O2"
_cell_formula_units_Z 64
_cell_length_a 23.649545
_cell_length_b 9.189340
_cell_length_c 15.370952
_cell_angle_alpha 90.000000
_cell_angle_beta 90.000000
_cell_angle_gamma 90.000000
_cell_volume 3340.472313
_symmetry_space_group_name_H-M "P M M M"
_symmetry_group_IT_number 47
_symmetry_cell_setting 'orthorhombic'
loop_
_space_group_symop_operation_xyz
x,y,z
-x,-y,z
x,-y,-z
-x,y,-z
-x,-y,-z
x,y,-z
-x,y,z
x,-y,z
loop_
_atom_site_type_symbol
_atom_site_label
_atom_site_fract_x
_atom_site_fract_y
_atom_site_fract_z
Si Si1 0.780634 0.166785 0.141165
Si Si2 0.610369 0.173526 0.602474
Si Si3 0.893873 0.326049 0.906826
Si Si4 0.337006 0.325261 0.101532
Si Si5 0.174057 0.165992 0.338940
Si Si6 0.722074 0.660365 0.398253
Si Si7 0.064065 0.674480 0.282918
Si Si8 0.563235 0.673792 0.234193
O O1 0.832802 0.250799 0.097618
O O2 0.721502 0.247174 0.126623
O O3 0.798595 0.164961 0.242386
O O4 0.776990 0.000000 0.111072
O O5 0.599631 0.210087 0.500000
O O6 0.672465 0.231973 0.630589
O O7 0.570255 0.248264 0.672846
O O8 0.608283 0.000000 0.609191
O O9 0.885910 0.500000 0.903970
O O10 0.927968 0.288535 0.819683
O O11 0.921001 0.289379 0.000000
O O12 0.329550 0.500000 0.109162
O O13 0.387925 0.281819 0.166184
O O14 0.349866 0.293749 0.000000
O O15 0.216877 0.268894 0.389503
O O16 0.112224 0.236348 0.332358
O O17 0.172540 0.000000 0.371016
O O18 0.711253 0.643394 0.500000
O O19 0.718902 0.500000 0.355959
O O20 0.073336 0.500000 0.292167
O O21 0.000000 0.706939 0.309680
O O22 0.500000 0.701894 0.199830
O O23 0.568939 0.500000 0.247689
#
# Coordination Sequence:
#
# PCOD9384697 Si02
#       8
#     8   8   8   8   8   8   8   8
#     4  10  20  32  48  73 102 131 167 210 257 311
#     4  10  21  37  58  85 116 146 174 209 259 319
#     4   9  17  29  46  69  97 128 163 206 256 307
#     4  10  21  36  54  76 103 137 177 223 274 321
#     4  10  20  33  51  75 104 138 172 210 257 308
#     4  10  20  34  55  83 111 136 164 202 250 305
#     4   9  18  32  49  69  95 131 174 216 257 301
#     4  10  22  39  58  80 106 140 183 227 268 313
#
# _framework density 19.158968000000002
#
# number of rings (size 3 to 8) (size 9 to 14) (size 15 to 20)
#    0.000    2.250    0.000    2.625    0.000    8.750 
#    0.000    3.750    0.000    0.375    0.000    7.875 
#    0.000    0.000    0.000    0.000    0.000    0.000 
#
# Total GULP energy -356973.206461 kJ/mol
# GULP energy per Si atom -5577.706351 kJ/mol
# Density = 1.911536 g / cm^3
# Si number density = 19.158968 Si / 1000 Ang^3
#
#
#
# Elastic Constant Matrix: (Units=GPa)
#
#
# Indices 1 2 3 4 5 6 
#
# 1 101.8953 25.8565 22.1065 0.0000 0.0000 0.0000
# 2 25.8565 34.5090 16.2624 0.0000 0.0000 0.0000
# 3 22.1065 16.2624 31.9296 0.0000 0.0000 0.0000
# 4 0.0000 0.0000 0.0000 16.9436 0.0000 0.0000
# 5 0.0000 0.0000 0.0000 0.0000 6.0560 0.0000
# 6 0.0000 0.0000 0.0000 0.0000 0.0000 0.2632
#
#
#
# Elastic Compliance Matrix: (Units=1/GPa)
#
#
# Indices 1 2 3 4 5 6 
#
# 1 0.012745 -0.007093 -0.005211 0.000000 0.000000 0.000000
# 2 -0.007093 0.042078 -0.016520 0.000000 0.000000 0.000000
# 3 -0.005211 -0.016520 0.043340 0.000000 0.000000 0.000000
# 4 0.000000 0.000000 0.000000 0.059019 0.000000 0.000000
# 5 0.000000 0.000000 0.000000 0.000000 0.165126 0.000000
# 6 0.000000 0.000000 0.000000 0.000000 0.000000 3.798816
#
#
# Mechanical properties :
#
#
# Convention : Reuss Voigt Hill
#
# Bulk Modulus (GPa) = 24.68253 32.97608 28.82930
# Shear Modulus (GPa) = 1.19267 11.59315 6.39291
#
# Velocity S-wave (km/s) = 0.78985 2.46255 1.82866
# Velocity P-wave (km/s) = 3.70713 5.03336 4.42027
#
# Compressibility (1/GPa) = 0.04051449
#
# Stress axis : x y z
#
# Youngs Moduli (GPa) = 78.46520 23.76550 23.07314
#
# Poissons Ratio (x) = 0.16858 0.12023
# Poissons Ratio (y) = 0.55659 0.38116
# Poissons Ratio (z) = 0.40887 0.39260
#
# Static dielectric constant tensor:
#      x y z
#    x 1.644180 0.000000 0.000000 
#    y 0.000000 1.660190 0.000000 
#    z 0.000000 0.000000 1.721160 
# 
# From -- ./inp_files/10019.got.cif
#   From: 2010.05.17/outbox.cif.g08.bks.cpg/sg47_6_cif.got.tgz:10019.got - 2010.06.03 20:15:42.
