data_PCOD9384985
_publ_section_title
;
Structure prediction by ZEFSAII (Michael W. Deem and Ramdas Pophale) SiO2 
 PCOD9384985
Probable space group: P M M M
;
_chemical_formula_sum "Si O2"
_cell_formula_units_Z 52
_cell_length_a 7.319933
_cell_length_b 9.334138
_cell_length_c 34.625893
_cell_angle_alpha 90.000000
_cell_angle_beta 90.000000
_cell_angle_gamma 90.000000
_cell_volume 2365.823307
_symmetry_space_group_name_H-M "P M M M"
_symmetry_group_IT_number 47
_symmetry_cell_setting 'orthorhombic'
loop_
_space_group_symop_operation_xyz
x,y,z
-x,-y,z
x,-y,-z
-x,y,-z
-x,-y,-z
x,y,-z
-x,y,z
x,-y,z
loop_
_atom_site_type_symbol
_atom_site_label
_atom_site_fract_x
_atom_site_fract_y
_atom_site_fract_z
Si Si1 0.722248 0.334280 0.543164
Si Si2 0.782270 0.162543 0.228492
Si Si3 0.776892 0.665325 0.846626
Si Si4 0.222835 0.665494 0.000000
Si Si5 0.718247 0.337796 0.693468
Si Si6 0.222737 0.165405 0.076652
Si Si7 0.276726 0.164503 0.618543
O O1 0.779776 0.290114 0.500000
O O2 0.500000 0.332339 0.543254
O O3 0.775854 0.500000 0.549191
O O4 0.782324 0.235869 0.578375
O O5 0.714651 0.253285 0.191937
O O6 0.751828 0.245965 0.268263
O O7 0.000000 0.152530 0.223440
O O8 0.711035 0.000000 0.229794
O O9 0.718989 0.500000 0.847349
O O10 0.720552 0.751453 0.884766
O O11 0.000000 0.664380 0.846449
O O12 0.280224 0.749596 0.961598
O O13 0.280772 0.500000 0.000000
O O14 0.000000 0.664807 0.000000
O O15 0.500000 0.347319 0.689273
O O16 0.788476 0.500000 0.697001
O O17 0.785073 0.256764 0.655255
O O18 0.000000 0.164549 0.076570
O O19 0.281004 0.000000 0.076434
O O20 0.500000 0.165709 0.618617
O O21 0.219916 0.000000 0.621834
#
# Coordination Sequence:
#
# PCOD9384985 Si02
#       7
#     8   8   8   4   8   8   8
#     4   8  13  21  33  50  75 108 143 177 214 258
#     4  10  20  33  49  69  92 118 150 189 231 273
#     4   9  16  26  40  57  78 106 140 177 217 262
#     4   9  15  21  29  43  65  95 132 171 210 255
#     4  10  20  33  49  68  91 121 155 189 227 272
#     4   9  15  22  32  47  69  98 133 172 213 257
#     4   9  16  25  38  57  82 112 145 181 221 265
#
# _framework density 21.979664
#
# number of rings (size 3 to 8) (size 9 to 14) (size 15 to 20)
#    0.000    2.846    0.000    3.000    0.000    8.615 
#    0.000    1.538    0.000    0.000    0.000    0.000 
#    0.000    0.615    0.000    7.154    0.000   22.462 
#
# Total GULP energy -290634.060743 kJ/mol
# GULP energy per Si atom -5589.116553 kJ/mol
# Density = 2.192964 g / cm^3
# Si number density = 21.979664 Si / 1000 Ang^3
#
#
#
# Elastic Constant Matrix: (Units=GPa)
#
#
# Indices 1 2 3 4 5 6 
#
# 1 88.2293 8.0498 3.1006 0.0000 0.0000 0.0000
# 2 8.0498 256.5745 167.2057 0.0000 0.0000 0.0000
# 3 3.1006 167.2057 249.7416 0.0000 0.0000 0.0000
# 4 0.0000 0.0000 0.0000 47.2823 0.0000 0.0000
# 5 0.0000 0.0000 0.0000 0.0000 4.0026 0.0000
# 6 0.0000 0.0000 0.0000 0.0000 0.0000 -5.8039
#
#
#
# Elastic Compliance Matrix: (Units=1/GPa)
#
#
# Indices 1 2 3 4 5 6 
#
# 1 0.011371 -0.000470 0.000173 0.000000 0.000000 0.000000
# 2 -0.000470 0.006934 -0.004636 0.000000 0.000000 0.000000
# 3 0.000173 -0.004636 0.007106 0.000000 0.000000 0.000000
# 4 0.000000 0.000000 0.000000 0.021150 0.000000 0.000000
# 5 0.000000 0.000000 0.000000 0.000000 0.249840 0.000000
# 6 0.000000 0.000000 0.000000 0.000000 0.000000 -0.172297
#
#
# Mechanical properties :
#
#
# Convention : Reuss Voigt Hill
#
# Bulk Modulus (GPa) = 64.32882 105.69528 85.01205
# Shear Modulus (GPa) = 35.93234 36.84214 36.38724
#
# Velocity S-wave (km/s) = 4.04765 4.09857 4.07319
# Velocity P-wave (km/s) = 7.15371 8.40178 7.80274
#
# Compressibility (1/GPa) = 0.01554513
#
# Stress axis : x y z
#
# Youngs Moduli (GPa) = 87.94403 144.22321 140.72393
#
# Poissons Ratio (x) = 0.06774 -0.02439
# Poissons Ratio (y) = 0.04131 0.65245
# Poissons Ratio (z) = -0.01524 0.66867
#
# Static dielectric constant tensor:
#      x y z
#    x 2.034280 0.000000 0.000000 
#    y 0.000000 1.734490 0.000000 
#    z 0.000000 0.000000 1.739850 
# 
# From -- ./inp_files/14130.got.cif
#   From: 2010.05.17/outbox.cif.g08.bks.cpg/sg47_8_cif.got.tgz:14130.got - 2010.06.03 20:15:42.
