data_PCOD9384177
_publ_section_title
;
Structure prediction by ZEFSAII (Michael W. Deem and Ramdas Pophale) SiO2 
 PCOD9384177
Probable space group: P M M M
;
_chemical_formula_sum "Si O2"
_cell_formula_units_Z 64
_cell_length_a 31.656980
_cell_length_b 14.485064
_cell_length_c 9.001429
_cell_angle_alpha 90.000000
_cell_angle_beta 90.000000
_cell_angle_gamma 90.000000
_cell_volume 4127.635705
_symmetry_space_group_name_H-M "P M M M"
_symmetry_group_IT_number 47
_symmetry_cell_setting 'orthorhombic'
loop_
_space_group_symop_operation_xyz
x,y,z
-x,-y,z
x,-y,-z
-x,y,-z
-x,-y,-z
x,y,-z
-x,y,z
x,-y,z
loop_
_atom_site_type_symbol
_atom_site_label
_atom_site_fract_x
_atom_site_fract_y
_atom_site_fract_z
Si Si1 0.752478 0.604187 0.323536
Si Si2 0.950822 0.109342 0.176067
Si Si3 0.875084 0.215138 0.323426
Si Si4 0.204052 0.889830 0.823331
Si Si5 0.633449 0.890177 0.176581
Si Si6 0.843831 0.393551 0.176398
Si Si7 0.713973 0.796722 0.677522
Si Si8 0.546721 0.888082 0.326404
O O1 0.762606 0.609566 0.500000
O O2 0.736827 0.500000 0.293567
O O3 0.795710 0.618010 0.233277
O O4 0.721072 0.687981 0.290551
O O5 0.918207 0.167765 0.270823
O O6 0.000000 0.129791 0.207332
O O7 0.944237 0.000000 0.202181
O O8 0.943503 0.125504 0.000000
O O9 0.870843 0.213818 0.500000
O O10 0.836158 0.159110 0.250572
O O11 0.871535 0.318854 0.261639
O O12 0.246580 0.850037 0.750659
O O13 0.201843 0.000000 0.801540
O O14 0.204170 0.871484 0.000000
O O15 0.670793 0.835938 0.256850
O O16 0.587367 0.858891 0.233414
O O17 0.637779 0.000000 0.210072
O O18 0.636658 0.879277 0.000000
O O19 0.855708 0.500000 0.206052
O O20 0.845597 0.377567 0.000000
O O21 0.714967 0.809711 0.500000
O O22 0.551895 0.863406 0.500000
O O23 0.500000 0.856467 0.276464
O O24 0.546021 0.000000 0.319607
#
# Coordination Sequence:
#
# PCOD9384177 Si02
#       8
#     8   8   8   8   8   8   8   8
#     4   9  18  33  51  71  95 122 156 201 251 296
#     4   9  19  37  59  80 103 133 167 203 244 288
#     4  12  23  34  52  78 105 133 163 200 245 290
#     4  11  23  36  49  67  96 133 169 205 240 279
#     4  10  20  31  43  62  92 131 168 201 239 284
#     4  10  20  34  54  77  99 127 164 204 245 290
#     4  11  21  32  48  69  94 128 163 199 244 292
#     4   8  14  26  44  64  86 115 155 203 248 287
#
# _framework density 15.505243999999999
#
# number of rings (size 3 to 8) (size 9 to 14) (size 15 to 20)
#    0.000    2.000    1.250    4.125    0.000    6.750 
#    0.000    1.875    0.000    0.375    0.000    2.625 
#    0.000    0.500    0.000    5.750    0.000    1.875 
#
# Total GULP energy -357126.722716 kJ/mol
# GULP energy per Si atom -5580.105042 kJ/mol
# Density = 1.546995 g / cm^3
# Si number density = 15.505244 Si / 1000 Ang^3
#
#
#
# Elastic Constant Matrix: (Units=GPa)
#
#
# Indices 1 2 3 4 5 6 
#
# 1 103.3304 61.8859 65.9227 0.0000 0.0000 0.0000
# 2 61.8859 87.5336 66.0029 0.0000 0.0000 0.0000
# 3 65.9227 66.0029 86.0630 0.0000 0.0000 0.0000
# 4 0.0000 0.0000 0.0000 21.0816 0.0000 0.0000
# 5 0.0000 0.0000 0.0000 0.0000 29.3663 0.0000
# 6 0.0000 0.0000 0.0000 0.0000 0.0000 5.1913
#
#
#
# Elastic Compliance Matrix: (Units=1/GPa)
#
#
# Indices 1 2 3 4 5 6 
#
# 1 0.020260 -0.006218 -0.010750 0.000000 0.000000 0.000000
# 2 -0.006218 0.028997 -0.017476 0.000000 0.000000 0.000000
# 3 -0.010750 -0.017476 0.033257 0.000000 0.000000 0.000000
# 4 0.000000 0.000000 0.000000 0.047435 0.000000 0.000000
# 5 0.000000 0.000000 0.000000 0.000000 0.034053 0.000000
# 6 0.000000 0.000000 0.000000 0.000000 0.000000 0.192629
#
#
# Mechanical properties :
#
#
# Convention : Reuss Voigt Hill
#
# Bulk Modulus (GPa) = 73.38891 73.83887 73.61389
# Shear Modulus (GPa) = 11.62627 16.66888 14.14758
#
# Velocity S-wave (km/s) = 2.74127 3.28235 3.02394
# Velocity P-wave (km/s) = 7.57983 7.87974 7.73124
#
# Compressibility (1/GPa) = 0.01362604
#
# Stress axis : x y z
#
# Youngs Moduli (GPa) = 49.35816 34.48592 30.06930
#
# Poissons Ratio (x) = 0.21442 0.32326
# Poissons Ratio (y) = 0.30689 0.52549
# Poissons Ratio (z) = 0.53062 0.60267
#
# Static dielectric constant tensor:
#      x y z
#    x 1.496940 0.000000 0.000000 
#    y 0.000000 1.517570 0.000000 
#    z 0.000000 0.000000 1.515710 
# 
# From -- ./inp_files/14348.got.cif
#   From: 2010.05.17/outbox.cif.g08.bks.cpg/sg47_8_cif.got.tgz:14348.got - 2010.06.03 20:15:42.
