data_PCOD9384628
_publ_section_title
;
Structure prediction by ZEFSAII (Michael W. Deem and Ramdas Pophale) SiO2 
 PCOD9384628
Probable space group: P M M M
;
_chemical_formula_sum "Si O2"
_cell_formula_units_Z 44
_cell_length_a 8.558104
_cell_length_b 7.717847
_cell_length_c 31.089334
_cell_angle_alpha 90.000000
_cell_angle_beta 90.000000
_cell_angle_gamma 90.000000
_cell_volume 2053.454779
_symmetry_space_group_name_H-M "P M M M"
_symmetry_group_IT_number 47
_symmetry_cell_setting 'orthorhombic'
loop_
_space_group_symop_operation_xyz
x,y,z
-x,-y,z
x,-y,-z
-x,y,-z
-x,-y,-z
x,y,-z
-x,y,z
x,-y,z
loop_
_atom_site_type_symbol
_atom_site_label
_atom_site_fract_x
_atom_site_fract_y
_atom_site_fract_z
Si Si1 0.316101 0.801038 0.723698
Si Si2 0.176070 0.700779 0.188087
Si Si3 0.313371 0.792049 0.453428
Si Si4 0.179411 0.800452 0.906917
Si Si5 0.185323 0.797422 0.364144
Si Si6 0.500000 0.789419 0.949372
O O1 0.500000 0.800579 0.716356
O O2 0.279943 0.722114 0.769935
O O3 0.239683 0.719690 0.681198
O O4 0.259247 0.000000 0.726992
O O5 0.176530 0.500000 0.175625
O O6 0.214384 0.798474 0.144223
O O7 0.000000 0.751464 0.201039
O O8 0.256922 0.724769 0.500000
O O9 0.500000 0.771204 0.452305
O O10 0.246142 0.720763 0.408958
O O11 0.280849 0.000000 0.453665
O O12 0.334856 0.724335 0.929385
O O13 0.000000 0.728098 0.912459
O O14 0.169304 0.000000 0.921568
O O15 0.000000 0.797403 0.365377
O O16 0.241177 0.000000 0.363297
O O17 0.500000 0.000000 0.942798
O O18 0.500000 0.755051 0.000000
#
# Coordination Sequence:
#
# PCOD9384628 Si02
#       6
#     8   8   8   8   8   4
#     4  10  20  32  48  70  96 128 165 205 249 300
#     4  10  21  36  53  74 101 132 167 210 258 305
#     4   8  13  21  33  50  76 111 148 187 234 288
#     4   9  18  33  54  79 108 142 177 215 259 306
#     4   9  16  25  38  57  83 116 154 196 240 289
#     4   9  18  32  53  83 113 139 175 221 260 301
#
# _framework density 21.427303999999999
#
# number of rings (size 3 to 8) (size 9 to 14) (size 15 to 20)
#    0.000    2.818    0.000    2.182    1.273    5.091 
#    0.000    3.636    0.000    1.091    0.000    2.545 
#    0.000    0.727    0.000    7.636    0.000   10.545 
#
# Total GULP energy -245147.965753 kJ/mol
# GULP energy per Si atom -5571.544676 kJ/mol
# Density = 2.137853 g / cm^3
# Si number density = 21.427304 Si / 1000 Ang^3
#
#
#
# Elastic Constant Matrix: (Units=GPa)
#
#
# Indices 1 2 3 4 5 6 
#
# 1 84.4608 10.9215 76.7886 0.0000 0.0000 0.0000
# 2 10.9215 34.5744 6.4400 0.0000 0.0000 0.0000
# 3 76.7886 6.4400 115.2076 0.0000 0.0000 0.0000
# 4 0.0000 0.0000 0.0000 1237.1641 0.0000 0.0000
# 5 0.0000 0.0000 0.0000 0.0000 87.2738 0.0000
# 6 0.0000 0.0000 0.0000 0.0000 0.0000 1.8517
#
#
#
# Elastic Compliance Matrix: (Units=1/GPa)
#
#
# Indices 1 2 3 4 5 6 
#
# 1 0.031255 -0.006056 -0.020494 0.000000 0.000000 0.000000
# 2 -0.006056 0.030401 0.002337 0.000000 0.000000 0.000000
# 3 -0.020494 0.002337 0.022209 0.000000 0.000000 0.000000
# 4 0.000000 0.000000 0.000000 0.000808 0.000000 0.000000
# 5 0.000000 0.000000 0.000000 0.000000 0.011458 0.000000
# 6 0.000000 0.000000 0.000000 0.000000 0.000000 0.540056
#
#
# Mechanical properties :
#
#
# Convention : Reuss Voigt Hill
#
# Bulk Modulus (GPa) = 28.21700 46.94923 37.58311
# Shear Modulus (GPa) = 7.17952 274.59743 140.88847
#
# Velocity S-wave (km/s) = 1.83246 11.33275 8.11755
# Velocity P-wave (km/s) = 4.20411 13.89965 10.26827
#
# Compressibility (1/GPa) = 0.03543963
#
# Stress axis : x y z
#
# Youngs Moduli (GPa) = 31.99495 32.89392 45.02709
#
# Poissons Ratio (x) = 0.19920 0.92277
# Poissons Ratio (y) = 0.19375 -0.10522
# Poissons Ratio (z) = 0.65569 -0.07687
#
# Static dielectric constant tensor:
#      x y z
#    x 1.766020 0.000000 0.000000 
#    y 0.000000 1.826360 0.000000 
#    z 0.000000 0.000000 1.787820 
# 
# From -- ./inp_files/33922.got.cif
#   From: 2010.05.17/outbox.cif.g08.bks.cpg/sg47_17_cif.got.tgz:33922.got - 2010.06.03 20:15:42.
