data_PCOD9384462
_publ_section_title
;
Structure prediction by ZEFSAII (Michael W. Deem and Ramdas Pophale) SiO2 
 PCOD9384462
Probable space group: P M M M
;
_chemical_formula_sum "Si O2"
_cell_formula_units_Z 36
_cell_length_a 9.334328
_cell_length_b 7.390053
_cell_length_c 24.477868
_cell_angle_alpha 90.000000
_cell_angle_beta 90.000000
_cell_angle_gamma 90.000000
_cell_volume 1688.512185
_symmetry_space_group_name_H-M "P M M M"
_symmetry_group_IT_number 47
_symmetry_cell_setting 'orthorhombic'
loop_
_space_group_symop_operation_xyz
x,y,z
-x,-y,z
x,-y,-z
-x,y,-z
-x,-y,-z
x,y,-z
-x,y,z
x,-y,z
loop_
_atom_site_type_symbol
_atom_site_label
_atom_site_fract_x
_atom_site_fract_y
_atom_site_fract_z
Si Si1 0.328385 0.782163 0.941272
Si Si2 0.165045 0.278506 0.500000
Si Si3 0.161995 0.783295 0.716184
Si Si4 0.662246 0.715972 0.393774
Si Si5 0.666941 0.221197 0.177974
O O1 0.500000 0.749325 0.940962
O O2 0.277412 0.718966 0.881833
O O3 0.310062 0.000000 0.941837
O O4 0.272446 0.714385 0.000000
O O5 0.164466 0.500000 0.500000
O O6 0.247842 0.217458 0.445715
O O7 0.000000 0.221218 0.500000
O O8 0.255044 0.747826 0.662514
O O9 0.240496 0.716256 0.770820
O O10 0.000000 0.714334 0.710398
O O11 0.153903 0.000000 0.721657
O O12 0.500000 0.787044 0.392139
O O13 0.652630 0.500000 0.400531
O O14 0.500000 0.273723 0.184140
O O15 0.668112 0.000000 0.177625
#
# Coordination Sequence:
#
# PCOD9384462 Si02
#       5
#     8   4   8   8   8
#     4   7   9  14  27  49  75 103 139 182 223 262
#     4   9  17  31  52  75  98 123 148 178 222 273
#     4  10  20  32  46  66  94 127 159 190 227 272
#     4  10  20  34  53  75  96 119 151 190 228 267
#     4   8  13  22  37  56  80 113 150 186 225 268
#
# _framework density 21.320546
#
# number of rings (size 3 to 8) (size 9 to 14) (size 15 to 20)
#    0.000    3.222    0.000    3.667    0.000    4.000 
#    0.000    0.556    0.000    4.000    0.000    4.667 
#    0.000    0.889    0.000   10.222    0.000   11.778 
#
# Total GULP energy -200793.364560 kJ/mol
# GULP energy per Si atom -5577.593460 kJ/mol
# Density = 2.127202 g / cm^3
# Si number density = 21.320546 Si / 1000 Ang^3
#
#
#
# Elastic Constant Matrix: (Units=GPa)
#
#
# Indices 1 2 3 4 5 6 
#
# 1 157.9726 6.6246 128.2952 0.0000 0.0000 0.0000
# 2 6.6246 71.5387 3.2490 0.0000 0.0000 0.0000
# 3 128.2952 3.2490 275.1799 0.0000 0.0000 0.0000
# 4 0.0000 0.0000 0.0000 21.5054 0.0000 0.0000
# 5 0.0000 0.0000 0.0000 0.0000 87.5754 0.0000
# 6 0.0000 0.0000 0.0000 0.0000 0.0000 1.8282
#
#
#
# Elastic Compliance Matrix: (Units=1/GPa)
#
#
# Indices 1 2 3 4 5 6 
#
# 1 0.010226 -0.000731 -0.004759 0.000000 0.000000 0.000000
# 2 -0.000731 0.014038 0.000175 0.000000 0.000000 0.000000
# 3 -0.004759 0.000175 0.005851 0.000000 0.000000 0.000000
# 4 0.000000 0.000000 0.000000 0.046500 0.000000 0.000000
# 5 0.000000 0.000000 0.000000 0.000000 0.011419 0.000000
# 6 0.000000 0.000000 0.000000 0.000000 0.000000 0.546997
#
#
# Mechanical properties :
#
#
# Convention : Reuss Voigt Hill
#
# Bulk Modulus (GPa) = 51.32117 86.78102 69.05109
# Shear Modulus (GPa) = 7.66689 46.61662 27.14176
#
# Velocity S-wave (km/s) = 1.89837 4.68104 3.57183
# Velocity P-wave (km/s) = 5.37853 8.36705 7.03335
#
# Compressibility (1/GPa) = 0.01948514
#
# Stress axis : x y z
#
# Youngs Moduli (GPa) = 97.79326 71.23438 170.92304
#
# Poissons Ratio (x) = 0.05206 0.81339
# Poissons Ratio (y) = 0.07147 -0.02991
# Poissons Ratio (z) = 0.46538 -0.01246
#
# Static dielectric constant tensor:
#      x y z
#    x 1.748900 0.000000 0.000000 
#    y 0.000000 1.867800 0.000000 
#    z 0.000000 0.000000 1.773850 
# 
# From -- ./inp_files/3934.got.cif
#   From: 2010.05.17/outbox.cif.g08.bks.cpg/sg47_2_cif.got.tgz:3934.got - 2010.06.03 20:15:42.
