data_PCOD9384368
_publ_section_title
;
Structure prediction by ZEFSAII (Michael W. Deem and Ramdas Pophale) SiO2 
 PCOD9384368
Probable space group: P M M M
;
_chemical_formula_sum "Si O2"
_cell_formula_units_Z 52
_cell_length_a 14.216566
_cell_length_b 8.567456
_cell_length_c 24.702386
_cell_angle_alpha 90.000000
_cell_angle_beta 90.000000
_cell_angle_gamma 90.000000
_cell_volume 3008.745765
_symmetry_space_group_name_H-M "P M M M"
_symmetry_group_IT_number 47
_symmetry_cell_setting 'orthorhombic'
loop_
_space_group_symop_operation_xyz
x,y,z
-x,-y,z
x,-y,-z
-x,y,-z
-x,-y,-z
x,y,-z
-x,y,z
x,-y,z
loop_
_atom_site_type_symbol
_atom_site_label
_atom_site_fract_x
_atom_site_fract_y
_atom_site_fract_z
Si Si1 0.394512 0.309553 0.269424
Si Si2 0.285067 0.311907 0.835634
Si Si3 0.202787 0.186020 0.938009
Si Si4 0.892627 0.188100 0.438033
Si Si5 0.786507 0.688088 0.662992
Si Si6 0.000000 0.324353 0.065578
Si Si7 0.896359 0.310266 0.231653
O O1 0.500000 0.257072 0.281916
O O2 0.393523 0.500000 0.270100
O O3 0.363330 0.264388 0.208375
O O4 0.313715 0.259976 0.311797
O O5 0.286521 0.500000 0.838723
O O6 0.280206 0.246065 0.895837
O O7 0.186929 0.261090 0.807764
O O8 0.098581 0.244149 0.920562
O O9 0.201903 0.000000 0.938074
O O10 0.218234 0.240767 0.000000
O O11 0.872982 0.236965 0.500000
O O12 0.818518 0.248880 0.394602
O O13 0.000000 0.239250 0.424661
O O14 0.892166 0.000000 0.436954
O O15 0.784410 0.500000 0.660750
O O16 0.864562 0.733603 0.707829
O O17 0.000000 0.500000 0.087972
O O18 0.000000 0.330347 0.000000
O O19 0.897534 0.500000 0.230027
O O20 0.000000 0.252832 0.217843
#
# Coordination Sequence:
#
# PCOD9384368 Si02
#       7
#     8   8   8   8   8   4   8
#     4   8  15  30  51  74  98 120 147 192 249 294
#     4   9  17  28  46  69  87 115 156 189 225 280
#     4  10  20  32  44  61  91 125 152 187 236 279
#     4   9  18  31  45  64  96 136 167 191 227 271
#     4   9  16  27  47  72  93 119 157 195 232 275
#     4   9  17  29  45  63  83 115 159 193 214 255
#     4   8  14  24  38  60  90 116 140 179 228 270
#
# _framework density 17.282948000000001
#
# number of rings (size 3 to 8) (size 9 to 14) (size 15 to 20)
#    0.000    3.154    0.000    3.462    1.077    3.077 
#    0.000    3.846    0.000    3.692    0.000    6.462 
#    0.000    0.000    0.000    0.000    0.000    0.000 
#
# Total GULP energy -289610.721859 kJ/mol
# GULP energy per Si atom -5569.436959 kJ/mol
# Density = 1.724361 g / cm^3
# Si number density = 17.282948 Si / 1000 Ang^3
#
#
#
# Elastic Constant Matrix: (Units=GPa)
#
#
# Indices 1 2 3 4 5 6 
#
# 1 80.5047 10.2004 41.1168 0.0000 0.0000 0.0000
# 2 10.2004 12.0497 17.1125 0.0000 0.0000 0.0000
# 3 41.1168 17.1125 109.8348 0.0000 0.0000 0.0000
# 4 0.0000 0.0000 0.0000 -18.8888 0.0000 0.0000
# 5 0.0000 0.0000 0.0000 0.0000 19.3423 0.0000
# 6 0.0000 0.0000 0.0000 0.0000 0.0000 9.3153
#
#
#
# Elastic Compliance Matrix: (Units=1/GPa)
#
#
# Indices 1 2 3 4 5 6 
#
# 1 0.015729 -0.006360 -0.004897 0.000000 0.000000 0.000000
# 2 -0.006360 0.109142 -0.014624 0.000000 0.000000 0.000000
# 3 -0.004897 -0.014624 0.013216 0.000000 0.000000 0.000000
# 4 0.000000 0.000000 0.000000 -0.052941 0.000000 0.000000
# 5 0.000000 0.000000 0.000000 0.000000 0.051700 0.000000
# 6 0.000000 0.000000 0.000000 0.000000 0.000000 0.107351
#
#
# Mechanical properties :
#
#
# Convention : Reuss Voigt Hill
#
# Bulk Modulus (GPa) = 11.58414 37.69429 24.63921
# Shear Modulus (GPa) = 15.39728 10.88437 13.14083
#
# Velocity S-wave (km/s) = 2.98802 2.51225 2.76041
# Velocity P-wave (km/s) = 4.31527 5.50206 4.94440
#
# Compressibility (1/GPa) = 0.08632495
#
# Stress axis : x y z
#
# Youngs Moduli (GPa) = 63.57828 9.16240 75.66447
#
# Poissons Ratio (x) = 0.05827 0.37054
# Poissons Ratio (y) = 0.40436 1.10649
# Poissons Ratio (z) = 0.31135 0.13399
#
# Static dielectric constant tensor:
#      x y z
#    x 1.587100 0.000000 0.000000 
#    y 0.000000 1.592590 0.000000 
#    z 0.000000 0.000000 1.611940 
# 
# From -- ./inp_files/32640.got.cif
#   From: 2010.05.17/outbox.cif.g08.bks.cpg/sg47_17_cif.got.tgz:32640.got - 2010.06.03 20:15:42.
