data_PCOD9384077
_publ_section_title
;
Structure prediction by ZEFSAII (Michael W. Deem and Ramdas Pophale) SiO2 
 PCOD9384077
Probable space group: P M M M
;
_chemical_formula_sum "Si O2"
_cell_formula_units_Z 64
_cell_length_a 7.338187
_cell_length_b 20.794659
_cell_length_c 20.885834
_cell_angle_alpha 90.000000
_cell_angle_beta 90.000000
_cell_angle_gamma 90.000000
_cell_volume 3187.075851
_symmetry_space_group_name_H-M "P M M M"
_symmetry_group_IT_number 47
_symmetry_cell_setting 'orthorhombic'
loop_
_space_group_symop_operation_xyz
x,y,z
-x,-y,z
x,-y,-z
-x,y,-z
-x,-y,-z
x,y,-z
-x,y,z
x,-y,z
loop_
_atom_site_type_symbol
_atom_site_label
_atom_site_fract_x
_atom_site_fract_y
_atom_site_fract_z
Si Si1 0.721937 0.070544 0.707248
Si Si2 0.277610 0.831375 0.816665
Si Si3 0.277737 0.885449 0.431006
Si Si4 0.278099 0.291390 0.748085
Si Si5 0.278095 0.072605 0.926192
Si Si6 0.791172 0.600254 0.430915
Si Si7 0.710618 0.430339 0.285976
Si Si8 0.719753 0.256955 0.604297
O O1 0.500000 0.072512 0.706679
O O2 0.778725 0.126031 0.755488
O O3 0.781937 0.081025 0.634259
O O4 0.776009 0.000000 0.730206
O O5 0.500000 0.830698 0.817877
O O6 0.219830 0.758059 0.803142
O O7 0.217638 0.870804 0.879014
O O8 0.219365 0.911435 0.500000
O O9 0.500000 0.887576 0.430359
O O10 0.223805 0.810572 0.425116
O O11 0.500000 0.293842 0.749322
O O12 0.211739 0.365019 0.744693
O O13 0.230111 0.260873 0.679132
O O14 0.500000 0.072654 0.924830
O O15 0.223043 0.000000 0.906399
O O16 0.223578 0.082127 0.000000
O O17 0.712327 0.580606 0.500000
O O18 0.710213 0.578206 0.363354
O O19 0.786948 0.677864 0.427732
O O20 0.000000 0.578833 0.429581
O O21 0.500000 0.432310 0.266066
O O22 0.792622 0.500000 0.271043
O O23 0.500000 0.259284 0.600462
#
# Coordination Sequence:
#
# PCOD9384077 Si02
#       8
#     8   8   8   8   8   8   8   8
#     4   9  15  20  26  40  64  92 119 148 189 239
#     4   9  13  19  31  45  63  91 126 162 196 226
#     4   9  15  21  30  44  62  87 120 157 197 237
#     4   8  13  22  37  53  67  84 116 160 195 224
#     4   8  13  19  26  40  66 101 138 168 190 219
#     4  10  20  30  40  57  79 100 124 157 199 245
#     4   9  18  31  45  59  75  97 125 158 196 239
#     4   9  15  26  41  55  71  95 128 164 201 241
#
# _framework density 20.081102999999999
#
# number of rings (size 3 to 8) (size 9 to 14) (size 15 to 20)
#    0.000    3.125    1.250    2.250    0.000    3.750 
#    0.000    2.500    0.000    0.000    0.000    0.000 
#    0.000    1.000    0.000    9.625    0.000   12.500 
#
# Total GULP energy -357007.430157 kJ/mol
# GULP energy per Si atom -5578.241096 kJ/mol
# Density = 2.003540 g / cm^3
# Si number density = 20.081103 Si / 1000 Ang^3
#
#
#
# Elastic Constant Matrix: (Units=GPa)
#
#
# Indices 1 2 3 4 5 6 
#
# 1 74.1675 2.7868 2.0135 0.0000 0.0000 0.0000
# 2 2.7868 153.6852 67.1140 0.0000 0.0000 0.0000
# 3 2.0135 67.1140 95.4596 0.0000 0.0000 0.0000
# 4 0.0000 0.0000 0.0000 137.8002 0.0000 0.0000
# 5 0.0000 0.0000 0.0000 0.0000 3.1337 0.0000
# 6 0.0000 0.0000 0.0000 0.0000 0.0000 -74.2170
#
#
#
# Elastic Compliance Matrix: (Units=1/GPa)
#
#
# Indices 1 2 3 4 5 6 
#
# 1 0.013494 -0.000174 -0.000162 0.000000 0.000000 0.000000
# 2 -0.000174 0.009392 -0.006599 0.000000 0.000000 0.000000
# 3 -0.000162 -0.006599 0.015119 0.000000 0.000000 0.000000
# 4 0.000000 0.000000 0.000000 0.007257 0.000000 0.000000
# 5 0.000000 0.000000 0.000000 0.000000 0.319110 0.000000
# 6 0.000000 0.000000 0.000000 0.000000 0.000000 -0.013474
#
#
# Mechanical properties :
#
#
# Convention : Reuss Voigt Hill
#
# Bulk Modulus (GPa) = 41.43630 51.90456 46.67043
# Shear Modulus (GPa) = 13.41153 30.10324 21.75738
#
# Velocity S-wave (km/s) = 2.58712 3.87600 3.29519
# Velocity P-wave (km/s) = 5.44091 6.77752 6.14566
#
# Compressibility (1/GPa) = 0.02413343
#
# Stress axis : x y z
#
# Youngs Moduli (GPa) = 74.10736 106.47460 66.14248
#
# Poissons Ratio (x) = 0.01850 0.01075
# Poissons Ratio (y) = 0.01288 0.43650
# Poissons Ratio (z) = 0.01204 0.70267
#
# Static dielectric constant tensor:
#      x y z
#    x 1.775300 0.000000 0.000000 
#    y 0.000000 1.734110 0.000000 
#    z 0.000000 0.000000 1.680110 
# 
# From -- ./inp_files/30158.got.cif
#   From: 2010.05.17/outbox.cif.g08.bks.cpg/sg47_16_cif.got.tgz:30158.got - 2010.06.03 20:15:42.
