data_PCOD9384717
_publ_section_title
;
Structure prediction by ZEFSAII (Michael W. Deem and Ramdas Pophale) SiO2 
 PCOD9384717
Probable space group: P M M M
;
_chemical_formula_sum "Si O2"
_cell_formula_units_Z 44
_cell_length_a 9.092070
_cell_length_b 30.944042
_cell_length_c 7.942764
_cell_angle_alpha 90.000000
_cell_angle_beta 90.000000
_cell_angle_gamma 90.000000
_cell_volume 2234.660082
_symmetry_space_group_name_H-M "P M M M"
_symmetry_group_IT_number 47
_symmetry_cell_setting 'orthorhombic'
loop_
_space_group_symop_operation_xyz
x,y,z
-x,-y,z
x,-y,-z
-x,y,-z
-x,-y,-z
x,y,-z
-x,y,z
x,-y,z
loop_
_atom_site_type_symbol
_atom_site_label
_atom_site_fract_x
_atom_site_fract_y
_atom_site_fract_z
Si Si1 0.828797 0.812309 0.204742
Si Si2 0.167901 0.639732 0.300330
Si Si3 0.172523 0.453427 0.797400
Si Si4 0.334203 0.274071 0.201489
Si Si5 0.171738 0.948306 0.000000
Si Si6 0.324264 0.100045 0.692010
O O1 0.763247 0.766295 0.260994
O O2 0.736548 0.851647 0.279835
O O3 0.000000 0.815901 0.250333
O O4 0.819163 0.815035 0.000000
O O5 0.158847 0.643256 0.500000
O O6 0.234002 0.592486 0.260085
O O7 0.260435 0.680011 0.236754
O O8 0.000000 0.641599 0.230494
O O9 0.234703 0.500000 0.740062
O O10 0.000000 0.453084 0.745041
O O11 0.176001 0.453455 0.000000
O O12 0.500000 0.272082 0.269667
O O13 0.342213 0.269580 0.000000
O O14 0.248563 0.929125 0.834096
O O15 0.000000 0.935262 0.000000
O O16 0.181214 0.000000 0.000000
O O17 0.291119 0.086310 0.500000
O O18 0.500000 0.099550 0.714692
#
# Coordination Sequence:
#
# PCOD9384717 Si02
#       6
#     8   8   8   8   4   8
#     4  10  20  36  61  90 119 154 197 246 301 359
#     4  10  20  32  48  73 105 139 175 219 273 333
#     4   8  14  26  46  71  97 127 166 214 268 327
#     4  10  21  36  55  78 106 145 190 234 282 337
#     4  11  25  45  69  97 131 173 219 269 320 367
#     4  11  24  41  65  97 132 171 213 260 316 377
#
# _framework density 19.689793999999999
#
# number of rings (size 3 to 8) (size 9 to 14) (size 15 to 20)
#    0.000    2.091    0.909    3.000    0.000    6.545 
#    0.000    3.636    0.000    0.545    0.000    3.818 
#    0.000    0.000    0.000    0.000    0.000    0.000 
#
# Total GULP energy -245604.978522 kJ/mol
# GULP energy per Si atom -5581.931330 kJ/mol
# Density = 1.964498 g / cm^3
# Si number density = 19.689794 Si / 1000 Ang^3
#
#
#
# Elastic Constant Matrix: (Units=GPa)
#
#
# Indices 1 2 3 4 5 6 
#
# 1 101.6447 58.9523 52.3290 0.0000 0.0000 0.0000
# 2 58.9523 126.4311 46.3777 0.0000 0.0000 0.0000
# 3 52.3290 46.3777 69.6179 0.0000 0.0000 0.0000
# 4 0.0000 0.0000 0.0000 -23.6565 0.0000 0.0000
# 5 0.0000 0.0000 0.0000 0.0000 16.4225 0.0000
# 6 0.0000 0.0000 0.0000 0.0000 0.0000 -50.0711
#
#
#
# Elastic Compliance Matrix: (Units=1/GPa)
#
#
# Indices 1 2 3 4 5 6 
#
# 1 0.017782 -0.004484 -0.010379 0.000000 0.000000 0.000000
# 2 -0.004484 0.011598 -0.004356 0.000000 0.000000 0.000000
# 3 -0.010379 -0.004356 0.025067 0.000000 0.000000 0.000000
# 4 0.000000 0.000000 0.000000 -0.042272 0.000000 0.000000
# 5 0.000000 0.000000 0.000000 0.000000 0.060892 0.000000
# 6 0.000000 0.000000 0.000000 0.000000 0.000000 -0.019972
#
#
# Mechanical properties :
#
#
# Convention : Reuss Voigt Hill
#
# Bulk Modulus (GPa) = 62.46186 68.11244 65.28715
# Shear Modulus (GPa) = 51.61503 -2.12538 24.74483
#
# Velocity S-wave (km/s) = 5.12553 -1.04008 3.54889
# Velocity P-wave (km/s) = 8.17434 5.76416 7.07267
#
# Compressibility (1/GPa) = 0.01600977
#
# Stress axis : x y z
#
# Youngs Moduli (GPa) = 56.23554 86.22045 39.89276
#
# Poissons Ratio (x) = 0.38664 0.41404
# Poissons Ratio (y) = 0.25218 0.17376
# Poissons Ratio (z) = 0.58366 0.37555
#
# Static dielectric constant tensor:
#      x y z
#    x 1.684030 0.000000 0.000000 
#    y 0.000000 1.690630 0.000000 
#    z 0.000000 0.000000 1.703560 
# 
# From -- ./inp_files/1966.got.cif
#   From: 2010.05.17/outbox.cif.g08.bks.cpg/sg47_1_cif.got.tgz:1966.got - 2010.06.03 20:15:42.
