data_PCOD9384000
_publ_section_title
;
Structure prediction by ZEFSAII (Michael W. Deem and Ramdas Pophale) SiO2 
 PCOD9384000
Probable space group: P M M M
;
_chemical_formula_sum "Si O2"
_cell_formula_units_Z 52
_cell_length_a 14.464593
_cell_length_b 7.678445
_cell_length_c 22.520320
_cell_angle_alpha 90.000000
_cell_angle_beta 90.000000
_cell_angle_gamma 90.000000
_cell_volume 2501.232443
_symmetry_space_group_name_H-M "P M M M"
_symmetry_group_IT_number 47
_symmetry_cell_setting 'orthorhombic'
loop_
_space_group_symop_operation_xyz
x,y,z
-x,-y,z
x,-y,-z
-x,y,-z
-x,-y,-z
x,y,-z
-x,y,z
x,-y,z
loop_
_atom_site_type_symbol
_atom_site_label
_atom_site_fract_x
_atom_site_fract_y
_atom_site_fract_z
Si Si1 0.605542 0.707708 0.736768
Si Si2 0.893322 0.708992 0.065732
Si Si3 0.400717 0.212259 0.932638
Si Si4 0.708260 0.294629 0.378709
Si Si5 0.104279 0.287245 0.568965
Si Si6 0.744933 0.207032 0.841936
Si Si7 0.606429 0.790639 0.500000
O O1 0.500000 0.774374 0.750678
O O2 0.595302 0.500000 0.732022
O O3 0.644924 0.778403 0.674079
O O4 0.690270 0.735320 0.782981
O O5 0.891495 0.500000 0.063205
O O6 0.843935 0.756701 0.127912
O O7 0.000000 0.766133 0.067633
O O8 0.855119 0.770800 0.000000
O O9 0.500000 0.261210 0.906998
O O10 0.319746 0.282199 0.893753
O O11 0.396786 0.000000 0.933322
O O12 0.395625 0.270533 0.000000
O O13 0.719154 0.500000 0.365937
O O14 0.812117 0.224318 0.389625
O O15 0.656777 0.274728 0.441153
O O16 0.120417 0.235955 0.500000
O O17 0.105671 0.500000 0.569455
O O18 0.000000 0.233525 0.585560
O O19 0.738439 0.000000 0.839309
O O20 0.500000 0.734423 0.500000
O O21 0.609811 0.000000 0.500000
#
# Coordination Sequence:
#
# PCOD9384000 Si02
#       7
#     8   8   8   8   8   8   4
#     4  10  22  38  54  75 107 147 191 236 278 328
#     4   9  19  37  60  85 114 148 185 228 280 335
#     4   8  14  25  42  67  98 128 162 207 256 308
#     4  10  19  35  58  80 103 140 188 232 272 325
#     4   8  13  24  48  82 110 128 157 209 266 316
#     4  11  21  33  53  79 108 145 185 227 276 330
#     4  11  23  35  50  77 110 138 169 223 294 355
#
# _framework density 20.789752
#
# number of rings (size 3 to 8) (size 9 to 14) (size 15 to 20)
#    0.000    2.538    0.769    3.462    0.000    4.000 
#    0.000    1.538    0.000    3.692    0.000    6.462 
#    0.000    0.000    0.000    0.000    0.000    0.000 
#
# Total GULP energy -289522.700886 kJ/mol
# GULP energy per Si atom -5567.744248 kJ/mol
# Density = 2.074243 g / cm^3
# Si number density = 20.789752 Si / 1000 Ang^3
#
#
#
# Elastic Constant Matrix: (Units=GPa)
#
#
# Indices 1 2 3 4 5 6 
#
# 1 128.6238 5.9233 63.6603 0.0000 0.0000 0.0000
# 2 5.9233 41.9950 1.2635 0.0000 0.0000 0.0000
# 3 63.6603 1.2635 115.9044 0.0000 0.0000 0.0000
# 4 0.0000 0.0000 0.0000 -20.1541 0.0000 0.0000
# 5 0.0000 0.0000 0.0000 0.0000 12.4730 0.0000
# 6 0.0000 0.0000 0.0000 0.0000 0.0000 2.0933
#
#
#
# Elastic Compliance Matrix: (Units=1/GPa)
#
#
# Indices 1 2 3 4 5 6 
#
# 1 0.010752 -0.001339 -0.005891 0.000000 0.000000 0.000000
# 2 -0.001339 0.023987 0.000474 0.000000 0.000000 0.000000
# 3 -0.005891 0.000474 0.011858 0.000000 0.000000 0.000000
# 4 0.000000 0.000000 0.000000 -0.049618 0.000000 0.000000
# 5 0.000000 0.000000 0.000000 0.000000 0.080173 0.000000
# 6 0.000000 0.000000 0.000000 0.000000 0.000000 0.477719
#
#
# Mechanical properties :
#
#
# Convention : Reuss Voigt Hill
#
# Bulk Modulus (GPa) = 30.22519 47.57970 38.90244
# Shear Modulus (GPa) = 8.62944 13.26085 10.94514
#
# Velocity S-wave (km/s) = 2.03956 2.52832 2.29698
# Velocity P-wave (km/s) = 4.48514 5.60883 5.07816
#
# Compressibility (1/GPa) = 0.03308499
#
# Stress axis : x y z
#
# Youngs Moduli (GPa) = 93.00705 41.68930 84.33004
#
# Poissons Ratio (x) = 0.05583 0.49678
# Poissons Ratio (y) = 0.12456 -0.03998
# Poissons Ratio (z) = 0.54789 -0.01977
#
# Static dielectric constant tensor:
#      x y z
#    x 1.815440 0.000000 0.000000 
#    y 0.000000 1.778780 0.000000 
#    z 0.000000 0.000000 1.769860 
# 
# From -- ./inp_files/30845.got.cif
#   From: 2010.05.17/outbox.cif.g08.bks.cpg/sg47_16_cif.got.tgz:30845.got - 2010.06.03 20:15:42.
