data_PCOD9384661
_publ_section_title
;
Structure prediction by ZEFSAII (Michael W. Deem and Ramdas Pophale) SiO2 
 PCOD9384661
Probable space group: P M M M
;
_chemical_formula_sum "Si O2"
_cell_formula_units_Z 64
_cell_length_a 9.208092
_cell_length_b 18.773959
_cell_length_c 21.449688
_cell_angle_alpha 90.000000
_cell_angle_beta 90.000000
_cell_angle_gamma 90.000000
_cell_volume 3708.057793
_symmetry_space_group_name_H-M "P M M M"
_symmetry_group_IT_number 47
_symmetry_cell_setting 'orthorhombic'
loop_
_space_group_symop_operation_xyz
x,y,z
-x,-y,z
x,-y,-z
-x,y,-z
-x,-y,-z
x,y,-z
-x,y,z
x,-y,z
loop_
_atom_site_type_symbol
_atom_site_label
_atom_site_fract_x
_atom_site_fract_y
_atom_site_fract_z
Si Si1 0.823520 0.582588 0.430801
Si Si2 0.327347 0.415052 0.804958
Si Si3 0.831052 0.413517 0.069298
Si Si4 0.174066 0.916360 0.806594
Si Si5 0.824874 0.666218 0.308025
Si Si6 0.670590 0.913570 0.068482
Si Si7 0.325546 0.916548 0.428398
Si Si8 0.825434 0.166964 0.317645
O O1 0.775362 0.605934 0.500000
O O2 0.781178 0.500000 0.422187
O O3 0.776397 0.629675 0.372740
O O4 0.000000 0.584200 0.431251
O O5 0.500000 0.405385 0.803006
O O6 0.297049 0.500000 0.798077
O O7 0.264476 0.391212 0.872010
O O8 0.250035 0.372629 0.749754
O O9 0.826533 0.500000 0.068300
O O10 0.000000 0.393464 0.078236
O O11 0.784320 0.389445 0.000000
O O12 0.244381 0.888811 0.870632
O O13 0.220351 0.873953 0.745250
O O14 0.000000 0.911450 0.811908
O O15 0.211641 0.000000 0.799067
O O16 0.791778 0.749785 0.310799
O O17 0.000000 0.658061 0.302536
O O18 0.500000 0.896770 0.073890
O O19 0.682553 0.000000 0.068101
O O20 0.722431 0.888913 0.000000
O O21 0.285208 0.898988 0.500000
O O22 0.500000 0.910053 0.423404
O O23 0.248576 0.868008 0.377573
O O24 0.289233 0.000000 0.417831
O O25 0.000000 0.159569 0.323549
#
# Coordination Sequence:
#
# PCOD9384661 Si02
#       8
#     8   8   8   8   8   8   8   8
#     4   8  14  26  46  71  94 116 149 195 241 282
#     4  10  20  32  48  72 101 132 166 206 251 298
#     4   8  14  26  46  72  99 126 159 201 249 300
#     4   9  17  29  45  66  94 125 155 191 237 287
#     4  10  20  33  50  71  97 131 168 204 243 293
#     4   8  14  25  42  66  93 117 147 191 237 280
#     4   9  19  36  56  77 101 131 168 206 245 296
#     4  10  21  34  49  73 102 131 166 208 250 290
#
# _framework density 17.259709999999998
#
# number of rings (size 3 to 8) (size 9 to 14) (size 15 to 20)
#    0.000    3.000    0.000    2.625    0.000    4.250 
#    0.000    5.625    0.000    1.125    0.000    3.500 
#    0.000    0.000    0.000    0.000    0.000    0.000 
#
# Total GULP energy -356583.743590 kJ/mol
# GULP energy per Si atom -5571.620994 kJ/mol
# Density = 1.722043 g / cm^3
# Si number density = 17.259710 Si / 1000 Ang^3
#
#
#
# Elastic Constant Matrix: (Units=GPa)
#
#
# Indices 1 2 3 4 5 6 
#
# 1 30.3246 40.1423 64.4320 0.0000 0.0000 0.0000
# 2 40.1423 64.7782 90.4502 0.0000 0.0000 0.0000
# 3 64.4320 90.4502 209.4046 0.0000 0.0000 0.0000
# 4 0.0000 0.0000 0.0000 -5.0994 0.0000 0.0000
# 5 0.0000 0.0000 0.0000 0.0000 23.6680 0.0000
# 6 0.0000 0.0000 0.0000 0.0000 0.0000 13.8432
#
#
#
# Elastic Compliance Matrix: (Units=1/GPa)
#
#
# Indices 1 2 3 4 5 6 
#
# 1 0.217219 -0.104022 -0.021905 0.000000 0.000000 0.000000
# 2 -0.104022 0.088710 -0.006311 0.000000 0.000000 0.000000
# 3 -0.021905 -0.006311 0.014242 0.000000 0.000000 0.000000
# 4 0.000000 0.000000 0.000000 -0.196102 0.000000 0.000000
# 5 0.000000 0.000000 0.000000 0.000000 0.042251 0.000000
# 6 0.000000 0.000000 0.000000 0.000000 0.000000 0.072238
#
#
# Mechanical properties :
#
#
# Convention : Reuss Voigt Hill
#
# Bulk Modulus (GPa) = 17.95490 77.17294 47.56392
# Shear Modulus (GPa) = 9.58590 13.78121 11.68356
#
# Velocity S-wave (km/s) = 2.35923 2.82877 2.60460
# Velocity P-wave (km/s) = 4.22453 7.44843 6.05499
#
# Compressibility (1/GPa) = 0.05569511
#
# Stress axis : x y z
#
# Youngs Moduli (GPa) = 4.60365 11.27264 70.21713
#
# Poissons Ratio (x) = 1.17260 1.53813
# Poissons Ratio (y) = 0.47888 0.44314
# Poissons Ratio (z) = 0.10084 0.07114
#
# Static dielectric constant tensor:
#      x y z
#    x 1.569800 0.000000 0.000000 
#    y 0.000000 1.565650 0.000000 
#    z 0.000000 0.000000 1.589830 
# 
# From -- ./inp_files/29996.got.cif
#   From: 2010.05.17/outbox.cif.g08.bks.cpg/sg47_15_cif.got.tgz:29996.got - 2010.06.03 20:15:42.
