data_PCOD9384241
_publ_section_title
;
Structure prediction by ZEFSAII (Michael W. Deem and Ramdas Pophale) SiO2 
 PCOD9384241
Probable space group: P M M M
;
_chemical_formula_sum "Si O2"
_cell_formula_units_Z 64
_cell_length_a 7.729480
_cell_length_b 24.825312
_cell_length_c 19.665373
_cell_angle_alpha 90.000000
_cell_angle_beta 90.000000
_cell_angle_gamma 90.000000
_cell_volume 3773.524564
_symmetry_space_group_name_H-M "P M M M"
_symmetry_group_IT_number 47
_symmetry_cell_setting 'orthorhombic'
loop_
_space_group_symop_operation_xyz
x,y,z
-x,-y,z
x,-y,-z
-x,y,-z
-x,-y,-z
x,y,-z
-x,y,z
x,-y,z
loop_
_atom_site_type_symbol
_atom_site_label
_atom_site_fract_x
_atom_site_fract_y
_atom_site_fract_z
Si Si1 0.207072 0.270845 0.217779
Si Si2 0.205819 0.059664 0.782045
Si Si3 0.204626 0.662694 0.340365
Si Si4 0.706749 0.769681 0.577197
Si Si5 0.791913 0.164349 0.294216
Si Si6 0.709220 0.112120 0.076380
Si Si7 0.292211 0.763877 0.925081
Si Si8 0.211573 0.439396 0.578445
O O1 0.275282 0.317365 0.267603
O O2 0.273828 0.213720 0.247289
O O3 0.242978 0.272646 0.138293
O O4 0.000000 0.269951 0.226277
O O5 0.275676 0.107752 0.734412
O O6 0.230287 0.076875 0.860527
O O7 0.000000 0.057121 0.769874
O O8 0.278484 0.000000 0.770188
O O9 0.224634 0.714103 0.390164
O O10 0.276791 0.608774 0.374225
O O11 0.000000 0.653090 0.331907
O O12 0.769738 0.776979 0.500000
O O13 0.500000 0.765294 0.575770
O O14 0.752451 0.817870 0.628899
O O15 0.000000 0.163220 0.287556
O O16 0.500000 0.111800 0.077162
O O17 0.767783 0.174268 0.086311
O O18 0.763367 0.095222 0.000000
O O19 0.500000 0.766083 0.926947
O O20 0.231067 0.746851 0.000000
O O21 0.263105 0.430174 0.500000
O O22 0.264187 0.500000 0.598198
O O23 0.000000 0.438551 0.578957
#
# Coordination Sequence:
#
# PCOD9384241 Si02
#       8
#     8   8   8   8   8   8   8   8
#     4   9  16  26  41  62  85 110 140 173 213 256
#     4  10  20  33  48  65  85 108 138 177 215 255
#     4   9  17  28  43  65  93 120 147 180 215 250
#     4  10  20  31  45  67  90 111 139 176 215 256
#     4   9  18  32  47  64  85 109 138 170 211 261
#     4   9  18  31  45  62  85 113 144 175 207 249
#     4   9  17  28  42  60  82 110 142 173 208 252
#     4   8  13  22  39  63  89 120 157 187 207 236
#
# _framework density 16.960270000000001
#
# number of rings (size 3 to 8) (size 9 to 14) (size 15 to 20)
#    0.000    2.875    1.250    2.625    0.000    5.000 
#    0.000    2.500    0.000    0.750    0.000    4.375 
#    0.000    0.500    0.000    6.250    0.000    1.000 
#
# Total GULP energy -356621.294643 kJ/mol
# GULP energy per Si atom -5572.207729 kJ/mol
# Density = 1.692167 g / cm^3
# Si number density = 16.960270 Si / 1000 Ang^3
#
#
#
# Elastic Constant Matrix: (Units=GPa)
#
#
# Indices 1 2 3 4 5 6 
#
# 1 21.6620 5.0725 -5.5885 0.0000 0.0000 0.0000
# 2 5.0725 124.1598 79.0348 0.0000 0.0000 0.0000
# 3 -5.5885 79.0348 130.4807 0.0000 0.0000 0.0000
# 4 0.0000 0.0000 0.0000 25.7066 0.0000 0.0000
# 5 0.0000 0.0000 0.0000 0.0000 20.1327 0.0000
# 6 0.0000 0.0000 0.0000 0.0000 0.0000 0.4441
#
#
#
# Elastic Compliance Matrix: (Units=1/GPa)
#
#
# Indices 1 2 3 4 5 6 
#
# 1 0.048816 -0.005412 0.005369 0.000000 0.000000 0.000000
# 2 -0.005412 0.013708 -0.008535 0.000000 0.000000 0.000000
# 3 0.005369 -0.008535 0.013064 0.000000 0.000000 0.000000
# 4 0.000000 0.000000 0.000000 0.038901 0.000000 0.000000
# 5 0.000000 0.000000 0.000000 0.000000 0.049670 0.000000
# 6 0.000000 0.000000 0.000000 0.000000 0.000000 2.251937
#
#
# Mechanical properties :
#
#
# Convention : Reuss Voigt Hill
#
# Bulk Modulus (GPa) = 17.11398 48.14893 32.63145
# Shear Modulus (GPa) = 2.03854 22.44225 12.24040
#
# Velocity S-wave (km/s) = 1.09753 3.64156 2.68938
# Velocity P-wave (km/s) = 3.42325 6.79207 5.37823
#
# Compressibility (1/GPa) = 0.05843178
#
# Stress axis : x y z
#
# Youngs Moduli (GPa) = 20.48504 72.94789 76.54686
#
# Poissons Ratio (x) = 0.39479 -0.41098
# Poissons Ratio (y) = 0.11087 0.65335
# Poissons Ratio (z) = -0.10998 0.62263
#
# Static dielectric constant tensor:
#      x y z
#    x 1.616210 0.000000 0.000000 
#    y 0.000000 1.575840 0.000000 
#    z 0.000000 0.000000 1.592130 
# 
# From -- ./inp_files/27169.got.cif
#   From: 2010.05.17/outbox.cif.g08.bks.cpg/sg47_14_cif.got.tgz:27169.got - 2010.06.03 20:15:42.
