data_PCOD9384120
_publ_section_title
;
Structure prediction by ZEFSAII (Michael W. Deem and Ramdas Pophale) SiO2 
 PCOD9384120
Probable space group: P M M M
;
_chemical_formula_sum "Si O2"
_cell_formula_units_Z 48
_cell_length_a 14.306995
_cell_length_b 7.485996
_cell_length_c 24.685646
_cell_angle_alpha 90.000000
_cell_angle_beta 90.000000
_cell_angle_gamma 90.000000
_cell_volume 2643.884708
_symmetry_space_group_name_H-M "P M M M"
_symmetry_group_IT_number 47
_symmetry_cell_setting 'orthorhombic'
loop_
_space_group_symop_operation_xyz
x,y,z
-x,-y,z
x,-y,-z
-x,y,-z
-x,-y,-z
x,y,-z
-x,y,z
x,-y,z
loop_
_atom_site_type_symbol
_atom_site_label
_atom_site_fract_x
_atom_site_fract_y
_atom_site_fract_z
Si Si1 0.893586 0.218997 0.770221
Si Si2 0.219379 0.214634 0.335642
Si Si3 0.107296 0.217944 0.438466
Si Si4 0.607355 0.218321 0.938763
Si Si5 0.724634 0.793095 0.838723
Si Si6 0.394316 0.711269 0.733624
O O1 0.849174 0.274856 0.712836
O O2 0.821942 0.282575 0.816369
O O3 0.000000 0.275893 0.776494
O O4 0.892395 0.000000 0.770397
O O5 0.179797 0.279754 0.392918
O O6 0.324080 0.258612 0.316515
O O7 0.214169 0.000000 0.336829
O O8 0.127906 0.275102 0.500000
O O9 0.000000 0.269211 0.425290
O O10 0.108539 0.000000 0.438547
O O11 0.500000 0.272776 0.928615
O O12 0.674865 0.284730 0.891440
O O13 0.607371 0.000000 0.937455
O O14 0.633047 0.271009 0.000000
O O15 0.654265 0.788710 0.787439
O O16 0.743306 0.000000 0.851587
O O17 0.500000 0.777963 0.725698
O O18 0.398485 0.500000 0.742579
#
# Coordination Sequence:
#
# PCOD9384120 Si02
#       6
#     8   8   8   8   8   8
#     4   8  13  21  35  57  82 105 130 161 196 232
#     4   9  16  26  43  64  83 108 140 168 195 236
#     4   8  13  22  40  68  96 115 133 164 206 246
#     4   8  13  21  35  57  82 104 129 166 207 241
#     4   9  16  26  43  63  80 104 138 170 198 238
#     4  10  20  31  42  58  82 109 134 167 213 253
#
# _framework density 18.155104999999999
#
# number of rings (size 3 to 8) (size 9 to 14) (size 15 to 20)
#    0.000    3.333    0.000    3.500    0.000    4.000 
#    0.000    0.000    0.000   14.500    0.000   10.500 
#    0.000    0.000    0.000    6.000    0.000    7.333 
#
# Total GULP energy -267489.134971 kJ/mol
# GULP energy per Si atom -5572.690312 kJ/mol
# Density = 1.811378 g / cm^3
# Si number density = 18.155105 Si / 1000 Ang^3
#
#
#
# Elastic Constant Matrix: (Units=GPa)
#
#
# Indices 1 2 3 4 5 6 
#
# 1 163.4051 -2.3775 82.4070 0.0000 0.0000 0.0000
# 2 -2.3775 49.4775 -2.4304 0.0000 0.0000 0.0000
# 3 82.4070 -2.4304 107.9210 0.0000 0.0000 0.0000
# 4 0.0000 0.0000 0.0000 -17.5045 0.0000 0.0000
# 5 0.0000 0.0000 0.0000 0.0000 28.7580 0.0000
# 6 0.0000 0.0000 0.0000 0.0000 0.0000 28.7978
#
#
#
# Elastic Compliance Matrix: (Units=1/GPa)
#
#
# Indices 1 2 3 4 5 6 
#
# 1 0.009953 0.000105 -0.007597 0.000000 0.000000 0.000000
# 2 0.000105 0.020235 0.000375 0.000000 0.000000 0.000000
# 3 -0.007597 0.000375 0.015076 0.000000 0.000000 0.000000
# 4 0.000000 0.000000 0.000000 -0.057128 0.000000 0.000000
# 5 0.000000 0.000000 0.000000 0.000000 0.034773 0.000000
# 6 0.000000 0.000000 0.000000 0.000000 0.000000 0.034725
#
#
# Mechanical properties :
#
#
# Convention : Reuss Voigt Hill
#
# Bulk Modulus (GPa) = 32.22743 52.88908 42.55826
# Shear Modulus (GPa) = 60.81989 24.22388 42.52189
#
# Velocity S-wave (km/s) = 5.79421 3.65673 4.84482
# Velocity P-wave (km/s) = 7.90908 6.85740 7.40194
#
# Compressibility (1/GPa) = 0.03102947
#
# Stress axis : x y z
#
# Youngs Moduli (GPa) = 100.47465 49.42002 66.33151
#
# Poissons Ratio (x) = -0.00519 0.50395
# Poissons Ratio (y) = -0.01055 -0.02491
# Poissons Ratio (z) = 0.76335 -0.01856
#
# Static dielectric constant tensor:
#      x y z
#    x 1.616220 0.000000 0.000000 
#    y 0.000000 1.684780 0.000000 
#    z 0.000000 0.000000 1.616860 
# 
# From -- ./inp_files/7497.got.cif
#   From: 2010.05.17/outbox.cif.g08.bks.cpg/sg47_4_cif.got.tgz:7497.got - 2010.06.03 20:15:42.
