data_PCOD9384586
_publ_section_title
;
Structure prediction by ZEFSAII (Michael W. Deem and Ramdas Pophale) SiO2 
 PCOD9384586
Probable space group: P M M M
;
_chemical_formula_sum "Si O2"
_cell_formula_units_Z 52
_cell_length_a 14.529233
_cell_length_b 12.974298
_cell_length_c 16.792382
_cell_angle_alpha 90.000000
_cell_angle_beta 90.000000
_cell_angle_gamma 90.000000
_cell_volume 3165.474814
_symmetry_space_group_name_H-M "P M M M"
_symmetry_group_IT_number 47
_symmetry_cell_setting 'orthorhombic'
loop_
_space_group_symop_operation_xyz
x,y,z
-x,-y,z
x,-y,-z
-x,y,-z
-x,-y,-z
x,y,-z
-x,y,z
x,-y,z
loop_
_atom_site_type_symbol
_atom_site_label
_atom_site_fract_x
_atom_site_fract_y
_atom_site_fract_z
Si Si1 0.893399 0.877572 0.594833
Si Si2 0.393583 0.874879 0.000000
Si Si3 0.708910 0.117419 0.838818
Si Si4 0.106258 0.618889 0.808476
Si Si5 0.103135 0.820580 0.094179
Si Si6 0.395050 0.377181 0.594405
Si Si7 0.755038 0.739670 0.697718
O O1 0.881308 0.859150 0.500000
O O2 0.821952 0.812846 0.646279
O O3 0.000000 0.852189 0.614746
O O4 0.881065 0.000000 0.608360
O O5 0.343189 0.843427 0.918304
O O6 0.500000 0.843517 0.000000
O O7 0.389426 0.000000 0.000000
O O8 0.816953 0.119416 0.861247
O O9 0.702034 0.191885 0.763646
O O10 0.679558 0.000000 0.822153
O O11 0.123192 0.500000 0.830310
O O12 0.113092 0.700619 0.880724
O O13 0.178762 0.659188 0.743706
O O14 0.000000 0.625912 0.779419
O O15 0.000000 0.853142 0.117325
O O16 0.113150 0.833725 0.000000
O O17 0.384626 0.358280 0.500000
O O18 0.500000 0.348379 0.616652
O O19 0.385691 0.500000 0.606873
O O20 0.318488 0.317235 0.643031
#
# Coordination Sequence:
#
# PCOD9384586 Si02
#       7
#     8   4   8   8   8   8   8
#     4   9  18  32  49  71 102 139 173 201 235 288
#     4   9  18  34  51  63  84 121 159 195 239 290
#     4  10  20  32  47  70  99 127 161 202 244 288
#     4   9  18  30  43  65  98 130 159 196 243 291
#     4   9  17  29  46  67  92 124 164 203 240 283
#     4   9  19  36  56  77 100 126 159 203 256 310
#     4  11  19  30  51  76  99 126 166 207 249 289
#
# _framework density 16.427237000000002
#
# number of rings (size 3 to 8) (size 9 to 14) (size 15 to 20)
#    0.000    2.538    0.769    2.769    0.000    1.846 
#    0.000    2.308    0.000    1.385    0.000   11.846 
#    0.000    4.923    0.000    0.000    0.000    0.000 
#
# Total GULP energy -289855.839500 kJ/mol
# GULP energy per Si atom -5574.150760 kJ/mol
# Density = 1.638985 g / cm^3
# Si number density = 16.427237 Si / 1000 Ang^3
#
#
#
# Elastic Constant Matrix: (Units=GPa)
#
#
# Indices 1 2 3 4 5 6 
#
# 1 61.4978 12.3600 31.8857 0.0000 0.0000 0.0000
# 2 12.3600 42.9491 16.4102 0.0000 0.0000 0.0000
# 3 31.8857 16.4102 52.1117 0.0000 0.0000 0.0000
# 4 0.0000 0.0000 0.0000 13.6585 0.0000 0.0000
# 5 0.0000 0.0000 0.0000 0.0000 21.5295 0.0000
# 6 0.0000 0.0000 0.0000 0.0000 0.0000 24.2664
#
#
#
# Elastic Compliance Matrix: (Units=1/GPa)
#
#
# Indices 1 2 3 4 5 6 
#
# 1 0.023897 -0.001467 -0.014160 0.000000 0.000000 0.000000
# 2 -0.001467 0.026558 -0.007466 0.000000 0.000000 0.000000
# 3 -0.014160 -0.007466 0.030205 0.000000 0.000000 0.000000
# 4 0.000000 0.000000 0.000000 0.073214 0.000000 0.000000
# 5 0.000000 0.000000 0.000000 0.000000 0.046448 0.000000
# 6 0.000000 0.000000 0.000000 0.000000 0.000000 0.041209
#
#
# Mechanical properties :
#
#
# Convention : Reuss Voigt Hill
#
# Bulk Modulus (GPa) = 29.00685 30.87450 29.94068
# Shear Modulus (GPa) = 16.71073 18.28441 17.49757
#
# Velocity S-wave (km/s) = 3.19291 3.33987 3.26721
# Velocity P-wave (km/s) = 5.59366 5.80590 5.70076
#
# Compressibility (1/GPa) = 0.03447462
#
# Stress axis : x y z
#
# Youngs Moduli (GPa) = 41.84546 37.65339 33.10733
#
# Poissons Ratio (x) = 0.05523 0.46881
# Poissons Ratio (y) = 0.06138 0.24717
# Poissons Ratio (z) = 0.59254 0.28111
#
# Static dielectric constant tensor:
#      x y z
#    x 1.545010 0.000000 0.000000 
#    y 0.000000 1.540330 0.000000 
#    z 0.000000 0.000000 1.542350 
# 
# From -- ./inp_files/28156.got.cif
#   From: 2010.05.17/outbox.cif.g08.bks.cpg/sg47_15_cif.got.tgz:28156.got - 2010.06.03 20:15:42.
