data_PCOD9384916
_publ_section_title
;
Structure prediction by ZEFSAII (Michael W. Deem and Ramdas Pophale) SiO2 
 PCOD9384916
Probable space group: P M M M
;
_chemical_formula_sum "Si O2"
_cell_formula_units_Z 64
_cell_length_a 32.065746
_cell_length_b 9.008156
_cell_length_c 14.628390
_cell_angle_alpha 90.000000
_cell_angle_beta 90.000000
_cell_angle_gamma 90.000000
_cell_volume 4225.457880
_symmetry_space_group_name_H-M "P M M M"
_symmetry_group_IT_number 47
_symmetry_cell_setting 'orthorhombic'
loop_
_space_group_symop_operation_xyz
x,y,z
-x,-y,z
x,-y,-z
-x,y,-z
-x,-y,-z
x,y,-z
-x,y,z
x,-y,z
loop_
_atom_site_type_symbol
_atom_site_label
_atom_site_fract_x
_atom_site_fract_y
_atom_site_fract_z
Si Si1 0.216492 0.823330 0.391560
Si Si2 0.322277 0.177504 0.895127
Si Si3 0.130308 0.669819 0.388878
Si Si4 0.545829 0.180993 0.294249
Si Si5 0.292525 0.323238 0.715417
Si Si6 0.420759 0.179926 0.899022
Si Si7 0.630869 0.177529 0.391781
Si Si8 0.046116 0.173899 0.611035
O O1 0.222151 0.790504 0.500000
O O2 0.170560 0.766680 0.364222
O O3 0.251961 0.742599 0.333996
O O4 0.219614 0.000000 0.380213
O O5 0.297010 0.263943 0.818650
O O6 0.371680 0.213399 0.885970
O O7 0.318365 0.000000 0.880748
O O8 0.310407 0.209893 0.000000
O O9 0.128753 0.671092 0.500000
O O10 0.135645 0.500000 0.359610
O O11 0.086272 0.736121 0.356412
O O12 0.500000 0.229936 0.325360
O O13 0.554194 0.230171 0.189748
O O14 0.585375 0.224346 0.355148
O O15 0.545656 0.000000 0.294423
O O16 0.291813 0.500000 0.713000
O O17 0.332859 0.261378 0.661595
O O18 0.423851 0.000000 0.900799
O O19 0.433868 0.233173 0.000000
O O20 0.634238 0.201020 0.500000
O O21 0.635376 0.000000 0.374181
O O22 0.046156 0.181621 0.500000
O O23 0.000000 0.225735 0.641010
O O24 0.050414 0.000000 0.634320
#
# Coordination Sequence:
#
# PCOD9384916 Si02
#       8
#     8   8   8   8   8   8   8   8
#     4  10  20  33  48  64  85 117 155 192 231 275
#     4   9  17  32  54  74  93 118 145 173 208 256
#     4   9  16  25  37  55  81 110 143 188 238 281
#     4   9  16  26  43  68  94 115 140 179 222 261
#     4  12  23  33  49  71  94 116 143 183 224 267
#     4   8  13  23  42  67  92 114 135 166 209 254
#     4  10  20  34  50  66  88 118 152 188 223 262
#     4   8  13  21  33  49  71 104 148 193 233 274
#
# _framework density 15.146288
#
# number of rings (size 3 to 8) (size 9 to 14) (size 15 to 20)
#    0.000    2.625    1.250    3.375    0.000    5.000 
#    0.000    3.750    0.000    0.375    0.000    0.875 
#    0.000    2.000    0.000    0.000    0.000    0.625 
#
# Total GULP energy -356638.798699 kJ/mol
# GULP energy per Si atom -5572.481230 kJ/mol
# Density = 1.511181 g / cm^3
# Si number density = 15.146288 Si / 1000 Ang^3
#
#
#
# Elastic Constant Matrix: (Units=GPa)
#
#
# Indices 1 2 3 4 5 6 
#
# 1 117.8523 49.1860 46.9685 0.0000 0.0000 0.0000
# 2 49.1860 52.9389 38.7254 0.0000 0.0000 0.0000
# 3 46.9685 38.7254 56.7730 0.0000 0.0000 0.0000
# 4 0.0000 0.0000 0.0000 8.8419 0.0000 0.0000
# 5 0.0000 0.0000 0.0000 0.0000 2.8035 0.0000
# 6 0.0000 0.0000 0.0000 0.0000 0.0000 -10.3286
#
#
#
# Elastic Compliance Matrix: (Units=1/GPa)
#
#
# Indices 1 2 3 4 5 6 
#
# 1 0.014726 -0.009521 -0.005689 0.000000 0.000000 0.000000
# 2 -0.009521 0.043857 -0.022039 0.000000 0.000000 0.000000
# 3 -0.005689 -0.022039 0.037353 0.000000 0.000000 0.000000
# 4 0.000000 0.000000 0.000000 0.113097 0.000000 0.000000
# 5 0.000000 0.000000 0.000000 0.000000 0.356697 0.000000
# 6 0.000000 0.000000 0.000000 0.000000 0.000000 -0.096818
#
#
# Mechanical properties :
#
#
# Convention : Reuss Voigt Hill
#
# Bulk Modulus (GPa) = 46.64222 55.25823 50.95022
# Shear Modulus (GPa) = 9.08176 6.44233 7.76204
#
# Velocity S-wave (km/s) = 2.45134 2.06462 2.26624
# Velocity P-wave (km/s) = 6.23485 6.49967 6.36864
#
# Compressibility (1/GPa) = 0.02143980
#
# Stress axis : x y z
#
# Youngs Moduli (GPa) = 67.90835 22.80137 26.77153
#
# Poissons Ratio (x) = 0.21708 0.15229
# Poissons Ratio (y) = 0.64652 0.59002
# Poissons Ratio (z) = 0.38630 0.50252
#
# Static dielectric constant tensor:
#      x y z
#    x 1.506740 0.000000 0.000000 
#    y 0.000000 1.504040 0.000000 
#    z 0.000000 0.000000 1.494780 
# 
# From -- ./inp_files/8219.got.cif
#   From: 2010.05.17/outbox.cif.g08.bks.cpg/sg47_5_cif.got.tgz:8219.got - 2010.06.03 20:15:42.
