data_PCOD9384310
_publ_section_title
;
Structure prediction by ZEFSAII (Michael W. Deem and Ramdas Pophale) SiO2 
 PCOD9384310
Probable space group: P M M M
;
_chemical_formula_sum "Si O2"
_cell_formula_units_Z 44
_cell_length_a 29.103716
_cell_length_b 9.929202
_cell_length_c 7.586343
_cell_angle_alpha 90.000000
_cell_angle_beta 90.000000
_cell_angle_gamma 90.000000
_cell_volume 2192.276176
_symmetry_space_group_name_H-M "P M M M"
_symmetry_group_IT_number 47
_symmetry_cell_setting 'orthorhombic'
loop_
_space_group_symop_operation_xyz
x,y,z
-x,-y,z
x,-y,-z
-x,y,-z
-x,-y,-z
x,y,-z
-x,y,z
x,-y,z
loop_
_atom_site_type_symbol
_atom_site_label
_atom_site_fract_x
_atom_site_fract_y
_atom_site_fract_z
Si Si1 0.100058 0.846711 0.790188
Si Si2 0.365041 0.848010 0.790373
Si Si3 0.000000 0.153480 0.709438
Si Si4 0.715296 0.654354 0.215303
Si Si5 0.447593 0.651270 0.712465
Si Si6 0.819511 0.345771 0.215298
O O1 0.049058 0.786888 0.762304
O O2 0.141158 0.754736 0.720831
O O3 0.100824 0.000000 0.718506
O O4 0.106472 0.856173 0.000000
O O5 0.322884 0.758272 0.720136
O O6 0.411642 0.764193 0.765576
O O7 0.367307 0.000000 0.719211
O O8 0.357707 0.858496 0.000000
O O9 0.000000 0.146271 0.500000
O O10 0.000000 0.000000 0.783715
O O11 0.705648 0.500000 0.269807
O O12 0.767413 0.689797 0.268060
O O13 0.714443 0.654305 0.000000
O O14 0.448298 0.648453 0.500000
O O15 0.500000 0.676733 0.771867
O O16 0.434107 0.500000 0.772635
O O17 0.828325 0.500000 0.268774
O O18 0.820074 0.344162 0.000000
#
# Coordination Sequence:
#
# PCOD9384310 Si02
#       6
#     8   8   4   8   8   8
#     4   9  16  26  43  66  87 108 141 185 223 255
#     4  10  20  31  46  73 105 131 156 191 235 281
#     4   9  17  29  44  61  84 116 148 175 212 266
#     4   8  14  26  44  65  91 123 155 186 223 269
#     4   9  19  36  55  72  91 121 163 204 239 280
#     4   8  14  25  42  65  91 117 146 182 224 266
#
# _framework density 20.070464000000001
#
# number of rings (size 3 to 8) (size 9 to 14) (size 15 to 20)
#    0.000    3.182    0.000    2.455    0.000    4.000 
#    0.000    6.818    0.000    4.364    0.000    5.091 
#    0.000    0.000    0.000    0.000    0.000    0.000 
#
# Total GULP energy -245316.443012 kJ/mol
# GULP energy per Si atom -5575.373705 kJ/mol
# Density = 2.002478 g / cm^3
# Si number density = 20.070464 Si / 1000 Ang^3
#
#
#
# Elastic Constant Matrix: (Units=GPa)
#
#
# Indices 1 2 3 4 5 6 
#
# 1 180.3422 132.0851 0.6141 0.0000 0.0000 0.0000
# 2 132.0851 144.1867 5.7481 0.0000 0.0000 0.0000
# 3 0.6141 5.7481 43.6147 0.0000 0.0000 0.0000
# 4 0.0000 0.0000 0.0000 4.6119 0.0000 0.0000
# 5 0.0000 0.0000 0.0000 0.0000 130.9655 0.0000
# 6 0.0000 0.0000 0.0000 0.0000 0.0000 43.3240
#
#
#
# Elastic Compliance Matrix: (Units=1/GPa)
#
#
# Indices 1 2 3 4 5 6 
#
# 1 0.016994 -0.015640 0.001822 0.000000 0.000000 0.000000
# 2 -0.015640 0.021367 -0.002596 0.000000 0.000000 0.000000
# 3 0.001822 -0.002596 0.023244 0.000000 0.000000 0.000000
# 4 0.000000 0.000000 0.000000 0.216828 0.000000 0.000000
# 5 0.000000 0.000000 0.000000 0.000000 0.007636 0.000000
# 6 0.000000 0.000000 0.000000 0.000000 0.000000 0.023082
#
#
# Mechanical properties :
#
#
# Convention : Reuss Voigt Hill
#
# Bulk Modulus (GPa) = 34.75008 71.67093 53.21050
# Shear Modulus (GPa) = 14.22187 51.09338 32.65763
#
# Velocity S-wave (km/s) = 2.66484 5.05097 4.03817
# Velocity P-wave (km/s) = 5.17881 8.35485 6.95067
#
# Compressibility (1/GPa) = 0.02877692
#
# Stress axis : x y z
#
# Youngs Moduli (GPa) = 58.84438 46.80217 43.02098
#
# Poissons Ratio (x) = 0.73200 -0.07838
# Poissons Ratio (y) = 0.92034 0.11167
# Poissons Ratio (z) = -0.10721 0.12148
#
# Static dielectric constant tensor:
#      x y z
#    x 1.704450 0.000000 0.000000 
#    y 0.000000 1.700460 0.000000 
#    z 0.000000 0.000000 1.756240 
# 
# From -- ./inp_files/2136.got.cif
#   From: 2010.05.17/outbox.cif.g08.bks.cpg/sg47_2_cif.got.tgz:2136.got - 2010.06.03 20:15:42.
