data_PCOD9384722
_publ_section_title
;
Structure prediction by ZEFSAII (Michael W. Deem and Ramdas Pophale) SiO2 
 PCOD9384722
Probable space group: P M M M
;
_chemical_formula_sum "Si O2"
_cell_formula_units_Z 56
_cell_length_a 16.001077
_cell_length_b 23.948016
_cell_length_c 8.975429
_cell_angle_alpha 90.000000
_cell_angle_beta 90.000000
_cell_angle_gamma 90.000000
_cell_volume 3439.330971
_symmetry_space_group_name_H-M "P M M M"
_symmetry_group_IT_number 47
_symmetry_cell_setting 'orthorhombic'
loop_
_space_group_symop_operation_xyz
x,y,z
-x,-y,z
x,-y,-z
-x,y,-z
-x,-y,-z
x,y,-z
-x,y,z
x,-y,z
loop_
_atom_site_type_symbol
_atom_site_label
_atom_site_fract_x
_atom_site_fract_y
_atom_site_fract_z
Si Si1 0.378921 0.647479 0.672209
Si Si2 0.500000 0.435202 0.822826
Si Si3 0.100430 0.438019 0.173227
Si Si4 0.898822 0.000000 0.329032
Si Si5 0.408253 0.233619 0.179448
Si Si6 0.815680 0.333714 0.328242
Si Si7 0.098281 0.876812 0.318872
Si Si8 0.218715 0.215482 0.820850
O O1 0.404462 0.650163 0.500000
O O2 0.420860 0.595784 0.753004
O O3 0.405504 0.704054 0.755022
O O4 0.279487 0.645049 0.676490
O O5 0.500000 0.500000 0.786445
O O6 0.500000 0.428145 0.000000
O O7 0.128392 0.500000 0.227260
O O8 0.130849 0.384097 0.261632
O O9 0.000000 0.438447 0.176255
O O10 0.126623 0.432917 0.000000
O O11 0.876786 0.060556 0.264931
O O12 0.868550 0.000000 0.500000
O O13 0.000000 0.000000 0.334564
O O14 0.500000 0.208978 0.222745
O O15 0.317407 0.208405 0.223902
O O16 0.407070 0.236002 0.000000
O O17 0.838829 0.322120 0.500000
O O18 0.813641 0.275749 0.237251
O O19 0.103329 0.875967 0.500000
O O20 0.159621 0.831418 0.249745
O O21 0.000000 0.867181 0.281587
O O22 0.214339 0.214013 0.000000
#
# Coordination Sequence:
#
# PCOD9384722 Si02
#       8
#     8   4   8   4   8   8   8   8
#     4  10  20  33  49  69  91 115 146 188 236 281
#     4  11  23  35  47  65  89 119 153 184 223 284
#     4   9  19  36  55  72  90 116 154 199 244 291
#     4   7  12  26  49  73  96 131 176 210 241 287
#     4   9  17  31  51  70  91 123 160 197 239 291
#     4  10  21  35  51  72  97 124 156 196 243 294
#     4   9  17  31  51  74 103 138 173 208 245 290
#     4  10  20  32  48  74 104 132 164 203 249 298
#
# _framework density 16.282236999999999
#
# number of rings (size 3 to 8) (size 9 to 14) (size 15 to 20)
#    0.000    2.571    0.714    2.786    0.000    4.857 
#    0.000    3.929    0.000    1.286    0.000    0.500 
#    0.000    4.000    0.000    0.000    0.000    0.000 
#
# Total GULP energy -311807.984779 kJ/mol
# GULP energy per Si atom -5567.999728 kJ/mol
# Density = 1.624518 g / cm^3
# Si number density = 16.282237 Si / 1000 Ang^3
#
#
#
# Elastic Constant Matrix: (Units=GPa)
#
#
# Indices 1 2 3 4 5 6 
#
# 1 81.1772 63.8240 32.4783 0.0000 0.0000 0.0000
# 2 63.8240 121.1614 42.6372 0.0000 0.0000 0.0000
# 3 32.4783 42.6372 30.7762 0.0000 0.0000 0.0000
# 4 0.0000 0.0000 0.0000 27.3301 0.0000 0.0000
# 5 0.0000 0.0000 0.0000 0.0000 44.4182 0.0000
# 6 0.0000 0.0000 0.0000 0.0000 0.0000 6.9029
#
#
#
# Elastic Compliance Matrix: (Units=1/GPa)
#
#
# Indices 1 2 3 4 5 6 
#
# 1 0.024276 -0.007361 -0.015420 0.000000 0.000000 0.000000
# 2 -0.007361 0.018337 -0.017636 0.000000 0.000000 0.000000
# 3 -0.015420 -0.017636 0.073199 0.000000 0.000000 0.000000
# 4 0.000000 0.000000 0.000000 0.036590 0.000000 0.000000
# 5 0.000000 0.000000 0.000000 0.000000 0.022513 0.000000
# 6 0.000000 0.000000 0.000000 0.000000 0.000000 0.144866
#
#
# Mechanical properties :
#
#
# Convention : Reuss Voigt Hill
#
# Bulk Modulus (GPa) = 28.59042 56.77709 42.68375
# Shear Modulus (GPa) = 12.12783 22.00860 17.06821
#
# Velocity S-wave (km/s) = 2.73216 3.68053 3.24122
# Velocity P-wave (km/s) = 5.24884 7.28066 6.34658
#
# Compressibility (1/GPa) = 0.03497675
#
# Stress axis : x y z
#
# Youngs Moduli (GPa) = 41.19298 54.53338 13.66147
#
# Poissons Ratio (x) = 0.40144 0.21066
# Poissons Ratio (y) = 0.30324 0.24093
# Poissons Ratio (z) = 0.63520 0.96175
#
# Static dielectric constant tensor:
#      x y z
#    x 1.573020 0.000000 0.000000 
#    y 0.000000 1.529890 0.000000 
#    z 0.000000 0.000000 1.554490 
# 
# From -- ./inp_files/7410.got.cif
#   From: 2010.05.17/outbox.cif.g08.bks.cpg/sg47_4_cif.got.tgz:7410.got - 2010.06.03 20:15:42.
