data_PCOD9384160
_publ_section_title
;
Structure prediction by ZEFSAII (Michael W. Deem and Ramdas Pophale) SiO2 
 PCOD9384160
Probable space group: P M M M
;
_chemical_formula_sum "Si O2"
_cell_formula_units_Z 48
_cell_length_a 32.506921
_cell_length_b 9.775789
_cell_length_c 7.357776
_cell_angle_alpha 90.000000
_cell_angle_beta 90.000000
_cell_angle_gamma 90.000000
_cell_volume 2338.159949
_symmetry_space_group_name_H-M "P M M M"
_symmetry_group_IT_number 47
_symmetry_cell_setting 'orthorhombic'
loop_
_space_group_symop_operation_xyz
x,y,z
-x,-y,z
x,-y,-z
-x,y,-z
-x,-y,-z
x,y,-z
-x,y,z
x,-y,z
loop_
_atom_site_type_symbol
_atom_site_label
_atom_site_fract_x
_atom_site_fract_y
_atom_site_fract_z
Si Si1 0.713541 0.157773 0.721673
Si Si2 0.454318 0.658296 0.721424
Si Si3 0.787758 0.345445 0.715821
Si Si4 0.955754 0.165019 0.783290
Si Si5 0.866113 0.843193 0.218458
Si Si6 0.378930 0.157522 0.278700
O O1 0.714126 0.157649 0.500000
O O2 0.749031 0.258704 0.786959
O O3 0.667268 0.198389 0.776873
O O4 0.720925 0.000000 0.776695
O O5 0.453943 0.661214 0.500000
O O6 0.500000 0.705725 0.777329
O O7 0.449733 0.500000 0.774686
O O8 0.416164 0.748345 0.784508
O O9 0.781346 0.356285 0.500000
O O10 0.790846 0.500000 0.787787
O O11 0.829038 0.257673 0.740101
O O12 0.910900 0.208430 0.714388
O O13 0.000000 0.214966 0.710853
O O14 0.955494 0.000000 0.761344
O O15 0.956390 0.191813 0.000000
O O16 0.858710 0.000000 0.282401
O O17 0.869117 0.851004 0.000000
O O18 0.379182 0.160888 0.500000
O O19 0.385137 0.000000 0.225348
#
# Coordination Sequence:
#
# PCOD9384160 Si02
#       6
#     8   8   8   8   8   8
#     4   8  14  25  39  53  70  94 127 168 210 248
#     4   8  13  19  25  35  54  81 112 146 186 232
#     4  10  20  31  43  61  85 114 147 179 212 252
#     4   7  10  19  38  64  89 108 130 166 208 246
#     4   9  17  29  47  70  91 112 140 173 212 256
#     4   8  13  20  30  44  60  80 111 153 198 239
#
# _framework density 20.528963999999998
#
# number of rings (size 3 to 8) (size 9 to 14) (size 15 to 20)
#    0.000    3.667    0.000    3.500    0.000    2.333 
#    0.000    5.000    0.000    1.000    0.000    5.833 
#    0.000    0.000    0.000    0.000    0.000    0.833 
#
# Total GULP energy -267483.849028 kJ/mol
# GULP energy per Si atom -5572.580188 kJ/mol
# Density = 2.048224 g / cm^3
# Si number density = 20.528964 Si / 1000 Ang^3
#
#
#
# Elastic Constant Matrix: (Units=GPa)
#
#
# Indices 1 2 3 4 5 6 
#
# 1 260.4238 131.8926 5.8549 0.0000 0.0000 0.0000
# 2 131.8926 107.0770 4.8513 0.0000 0.0000 0.0000
# 3 5.8549 4.8513 73.6835 0.0000 0.0000 0.0000
# 4 0.0000 0.0000 0.0000 -0.4272 0.0000 0.0000
# 5 0.0000 0.0000 0.0000 0.0000 7.6002 0.0000
# 6 0.0000 0.0000 0.0000 0.0000 0.0000 -13.2831
#
#
#
# Elastic Compliance Matrix: (Units=1/GPa)
#
#
# Indices 1 2 3 4 5 6 
#
# 1 0.010208 -0.012574 0.000017 0.000000 0.000000 0.000000
# 2 -0.012574 0.024856 -0.000637 0.000000 0.000000 0.000000
# 3 0.000017 -0.000637 0.013612 0.000000 0.000000 0.000000
# 4 0.000000 0.000000 0.000000 -2.340960 0.000000 0.000000
# 5 0.000000 0.000000 0.000000 0.000000 0.131576 0.000000
# 6 0.000000 0.000000 0.000000 0.000000 0.000000 -0.075284
#
#
# Mechanical properties :
#
#
# Convention : Reuss Voigt Hill
#
# Bulk Modulus (GPa) = 44.86998 80.70908 62.78953
# Shear Modulus (GPa) = -2.27048 18.68368 8.20660
#
# Velocity S-wave (km/s) = -1.05280 3.02008 2.00156
# Velocity P-wave (km/s) = 4.51957 7.18062 5.99949
#
# Compressibility (1/GPa) = 0.02228661
#
# Stress axis : x y z
#
# Youngs Moduli (GPa) = 97.96416 40.23109 73.46352
#
# Poissons Ratio (x) = 0.50588 -0.00123
# Poissons Ratio (y) = 1.23183 0.04682
# Poissons Ratio (z) = -0.00164 0.02564
#
# Static dielectric constant tensor:
#      x y z
#    x 1.753050 0.000000 0.000000 
#    y 0.000000 1.684540 0.000000 
#    z 0.000000 0.000000 1.891970 
# 
# From -- ./inp_files/4706.got.cif
#   From: 2010.05.17/outbox.cif.g08.bks.cpg/sg47_3_cif.got.tgz:4706.got - 2010.06.03 20:15:42.
