data_PCOD9384054
_publ_section_title
;
Structure prediction by ZEFSAII (Michael W. Deem and Ramdas Pophale) SiO2 
 PCOD9384054
Probable space group: P M M M
;
_chemical_formula_sum "Si O2"
_cell_formula_units_Z 60
_cell_length_a 15.986766
_cell_length_b 13.626781
_cell_length_c 15.265832
_cell_angle_alpha 90.000000
_cell_angle_beta 90.000000
_cell_angle_gamma 90.000000
_cell_volume 3325.633400
_symmetry_space_group_name_H-M "P M M M"
_symmetry_group_IT_number 47
_symmetry_cell_setting 'orthorhombic'
loop_
_space_group_symop_operation_xyz
x,y,z
-x,-y,z
x,-y,-z
-x,y,-z
-x,-y,-z
x,y,-z
-x,y,z
x,-y,z
loop_
_atom_site_type_symbol
_atom_site_label
_atom_site_fract_x
_atom_site_fract_y
_atom_site_fract_z
Si Si1 0.258999 0.113569 0.306017
Si Si2 0.744405 0.304884 0.600446
Si Si3 0.659272 0.692342 0.902013
Si Si4 0.593849 0.616059 0.279358
Si Si5 0.099382 0.111846 0.000000
Si Si6 0.094802 0.615736 0.702778
Si Si7 0.401691 0.890901 0.168446
Si Si8 0.164239 0.239131 0.839102
O O1 0.253160 0.187168 0.387078
O O2 0.349440 0.119488 0.258240
O O3 0.198576 0.162746 0.233551
O O4 0.240239 0.000000 0.323252
O O5 0.732161 0.332926 0.500000
O O6 0.667640 0.339287 0.661794
O O7 0.830599 0.350322 0.638243
O O8 0.614057 0.637068 0.822563
O O9 0.626681 0.804338 0.894853
O O10 0.756937 0.700660 0.877606
O O11 0.646137 0.654131 0.000000
O O12 0.500000 0.653738 0.299132
O O13 0.594444 0.500000 0.293771
O O14 0.126275 0.174077 0.915698
O O15 0.000000 0.104550 0.000000
O O16 0.134035 0.000000 0.000000
O O17 0.105600 0.500000 0.721854
O O18 0.106275 0.683235 0.788832
O O19 0.000000 0.629503 0.668329
O O20 0.500000 0.883404 0.184280
O O21 0.382860 0.000000 0.133509
#
# Coordination Sequence:
#
# PCOD9384054 Si02
#       8
#     8   8   8   8   4   8   8   8
#     4   9  18  34  56  81 111 150 190 231 282 341
#     4  11  23  39  62  90 119 151 190 237 292 356
#     4  11  21  35  56  83 112 151 196 239 287 339
#     4  11  24  42  61  82 114 154 198 246 292 344
#     4  11  22  34  53  83 120 159 203 253 295 346
#     4  10  21  39  64  89 115 149 189 239 299 356
#     4   9  17  30  50  77 110 147 187 233 285 336
#     4  10  19  36  55  83 115 154 199 240 286 350
#
# _framework density 18.041675999999999
#
# number of rings (size 3 to 8) (size 9 to 14) (size 15 to 20)
#    0.000    1.800    4.667    1.600    0.000    4.000 
#    0.000    3.000    0.000    4.800    0.000    6.533 
#    0.000    0.000    0.000    0.000    0.000    0.000 
#
# Total GULP energy -334606.752610 kJ/mol
# GULP energy per Si atom -5576.779210 kJ/mol
# Density = 1.800061 g / cm^3
# Si number density = 18.041676 Si / 1000 Ang^3
#
#
#
# Elastic Constant Matrix: (Units=GPa)
#
#
# Indices 1 2 3 4 5 6 
#
# 1 109.0422 30.0235 38.3443 0.0000 0.0000 0.0000
# 2 30.0235 71.8028 32.2150 0.0000 0.0000 0.0000
# 3 38.3443 32.2150 101.0281 0.0000 0.0000 0.0000
# 4 0.0000 0.0000 0.0000 11.4654 0.0000 0.0000
# 5 0.0000 0.0000 0.0000 0.0000 2.7586 0.0000
# 6 0.0000 0.0000 0.0000 0.0000 0.0000 25.7784
#
#
#
# Elastic Compliance Matrix: (Units=1/GPa)
#
#
# Indices 1 2 3 4 5 6 
#
# 1 0.011193 -0.003237 -0.003216 0.000000 0.000000 0.000000
# 2 -0.003237 0.017188 -0.004252 0.000000 0.000000 0.000000
# 3 -0.003216 -0.004252 0.012475 0.000000 0.000000 0.000000
# 4 0.000000 0.000000 0.000000 0.087219 0.000000 0.000000
# 5 0.000000 0.000000 0.000000 0.000000 0.362508 0.000000
# 6 0.000000 0.000000 0.000000 0.000000 0.000000 0.038792
#
#
# Mechanical properties :
#
#
# Convention : Reuss Voigt Hill
#
# Bulk Modulus (GPa) = 51.42645 53.67095 52.54870
# Shear Modulus (GPa) = 8.97233 20.08649 14.52941
#
# Velocity S-wave (km/s) = 2.23247 3.34029 2.84090
# Velocity P-wave (km/s) = 5.93392 6.68503 6.32064
#
# Compressibility (1/GPa) = 0.01944525
#
# Stress axis : x y z
#
# Youngs Moduli (GPa) = 89.34163 58.17850 80.16228
#
# Poissons Ratio (x) = 0.18835 0.25779
# Poissons Ratio (y) = 0.28923 0.34087
# Poissons Ratio (z) = 0.28731 0.24739
#
# Static dielectric constant tensor:
#      x y z
#    x 1.631360 0.000000 0.000000 
#    y 0.000000 1.635690 0.000000 
#    z 0.000000 0.000000 1.618380 
# 
# From -- ./inp_files/23913.got.cif
#   From: 2010.05.17/outbox.cif.g08.bks.cpg/sg47_12_cif.got.tgz:23913.got - 2010.06.03 20:15:42.
