data_PCOD9384121
_publ_section_title
;
Structure prediction by ZEFSAII (Michael W. Deem and Ramdas Pophale) SiO2 
 PCOD9384121
Probable space group: P M M M
;
_chemical_formula_sum "Si O2"
_cell_formula_units_Z 64
_cell_length_a 7.778039
_cell_length_b 24.066078
_cell_length_c 14.546254
_cell_angle_alpha 90.000000
_cell_angle_beta 90.000000
_cell_angle_gamma 90.000000
_cell_volume 2722.868095
_symmetry_space_group_name_H-M "P M M M"
_symmetry_group_IT_number 47
_symmetry_cell_setting 'orthorhombic'
loop_
_space_group_symop_operation_xyz
x,y,z
-x,-y,z
x,-y,-z
-x,y,-z
-x,-y,-z
x,y,-z
-x,y,z
x,-y,z
loop_
_atom_site_type_symbol
_atom_site_label
_atom_site_fract_x
_atom_site_fract_y
_atom_site_fract_z
Si Si1 0.700831 0.797412 0.129904
Si Si2 0.210129 0.060503 0.694052
Si Si3 0.696419 0.701069 0.631060
Si Si4 0.801024 0.918714 0.902276
Si Si5 0.296237 0.439602 0.193264
Si Si6 0.701438 0.321130 0.149887
Si Si7 0.196328 0.417780 0.598503
Si Si8 0.206151 0.819090 0.338518
O O1 0.500000 0.799618 0.104065
O O2 0.794061 0.851873 0.094963
O O3 0.771883 0.736039 0.107002
O O4 0.712818 0.806483 0.239397
O O5 0.268699 0.065023 0.801537
O O6 0.260076 0.117240 0.640921
O O7 0.000000 0.060897 0.695506
O O8 0.264263 0.000000 0.658101
O O9 0.500000 0.691763 0.604533
O O10 0.706123 0.692657 0.741389
O O11 0.802797 0.649240 0.596058
O O12 0.747048 0.763774 0.605678
O O13 0.000000 0.936178 0.901466
O O14 0.723431 0.937673 0.000000
O O15 0.500000 0.439517 0.173524
O O16 0.224951 0.500000 0.166483
O O17 0.224462 0.383498 0.145319
O O18 0.279973 0.434008 0.304397
O O19 0.500000 0.323733 0.122366
O O20 0.271863 0.436168 0.500000
O O21 0.000000 0.436842 0.603029
O O22 0.000000 0.819175 0.329905
#
# Coordination Sequence:
#
# PCOD9384121 Si02
#       8
#     8   8   8   8   8   8   8   8
#     4   9  15  24  39  56  75 100 130 165 205 247
#     4   8  14  24  38  57  80 107 139 170 198 234
#     4   9  16  27  43  60  78 101 131 167 206 247
#     4   9  17  27  38  54  77 105 138 175 210 243
#     4   9  17  29  44  60  80 109 142 171 200 240
#     4   7  12  23  38  56  74  93 122 160 199 237
#     4  10  20  31  42  58  82 111 141 173 206 237
#     4   9  15  24  40  60  80 101 128 165 207 244
#
# _framework density 23.504626999999999
#
# number of rings (size 3 to 8) (size 9 to 14) (size 15 to 20)
#    0.000    3.250    0.000    3.750    0.000    2.000 
#    0.000    3.125    0.000    9.375    0.000    3.500 
#    0.000    1.000    0.000   12.000    0.000    3.125 
#
# Total GULP energy -356276.795159 kJ/mol
# GULP energy per Si atom -5566.824924 kJ/mol
# Density = 2.345113 g / cm^3
# Si number density = 23.504627 Si / 1000 Ang^3
#
#
#
# Elastic Constant Matrix: (Units=GPa)
#
#
# Indices 1 2 3 4 5 6 
#
# 1 50.5047 17.5665 0.0811 0.0000 0.0000 0.0000
# 2 17.5665 259.4860 1.8987 0.0000 0.0000 0.0000
# 3 0.0811 1.8987 27.5251 0.0000 0.0000 0.0000
# 4 0.0000 0.0000 0.0000 -16.1531 0.0000 0.0000
# 5 0.0000 0.0000 0.0000 0.0000 4.9088 0.0000
# 6 0.0000 0.0000 0.0000 0.0000 0.0000 6.3363
#
#
#
# Elastic Compliance Matrix: (Units=1/GPa)
#
#
# Indices 1 2 3 4 5 6 
#
# 1 0.020278 -0.001373 0.000035 0.000000 0.000000 0.000000
# 2 -0.001373 0.003949 -0.000268 0.000000 0.000000 0.000000
# 3 0.000035 -0.000268 0.036349 0.000000 0.000000 0.000000
# 4 0.000000 0.000000 0.000000 -0.061908 0.000000 0.000000
# 5 0.000000 0.000000 0.000000 0.000000 0.203715 0.000000
# 6 0.000000 0.000000 0.000000 0.000000 0.000000 0.157821
#
#
# Mechanical properties :
#
#
# Convention : Reuss Voigt Hill
#
# Bulk Modulus (GPa) = 17.43302 41.84538 29.63920
# Shear Modulus (GPa) = 13.07063 20.21637 16.64350
#
# Velocity S-wave (km/s) = 2.36071 2.93593 2.66389
# Velocity P-wave (km/s) = 3.85533 5.41614 4.70097
#
# Compressibility (1/GPa) = 0.05736240
#
# Stress axis : x y z
#
# Youngs Moduli (GPa) = 49.31541 253.24893 27.51116
#
# Poissons Ratio (x) = 0.34771 -0.00096
# Poissons Ratio (y) = 0.06771 0.00738
# Poissons Ratio (z) = -0.00172 0.06796
#
# Static dielectric constant tensor:
#      x y z
#    x 1.853750 0.000000 0.000000 
#    y 0.000000 1.978840 0.000000 
#    z 0.000000 0.000000 1.880720 
# 
# From -- ./inp_files/11911.got.cif
#   From: 2010.05.17/outbox.cif.g08.bks.cpg/sg47_6_cif.got.tgz:11911.got - 2010.06.03 20:15:42.
