data_PCOD9384944
_publ_section_title
;
Structure prediction by ZEFSAII (Michael W. Deem and Ramdas Pophale) SiO2 
 PCOD9384944
Probable space group: P M M M
;
_chemical_formula_sum "Si O2"
_cell_formula_units_Z 52
_cell_length_a 24.125989
_cell_length_b 14.311247
_cell_length_c 9.188431
_cell_angle_alpha 90.000000
_cell_angle_beta 90.000000
_cell_angle_gamma 90.000000
_cell_volume 3172.517024
_symmetry_space_group_name_H-M "P M M M"
_symmetry_group_IT_number 47
_symmetry_cell_setting 'orthorhombic'
loop_
_space_group_symop_operation_xyz
x,y,z
-x,-y,z
x,-y,-z
-x,y,-z
-x,-y,-z
x,y,-z
-x,y,z
x,-y,z
loop_
_atom_site_type_symbol
_atom_site_label
_atom_site_fract_x
_atom_site_fract_y
_atom_site_fract_z
Si Si1 0.938367 0.111867 0.160801
Si Si2 0.822363 0.293633 0.826206
Si Si3 0.937190 0.608728 0.823645
Si Si4 0.277416 0.387896 0.665938
Si Si5 0.831764 0.108424 0.670209
Si Si6 0.611896 0.613937 0.168069
Si Si7 0.500000 0.613829 0.331922
O O1 0.896667 0.123937 0.292283
O O2 0.000000 0.149745 0.181621
O O3 0.942713 0.000000 0.148225
O O4 0.917942 0.145405 0.000000
O O5 0.884746 0.327170 0.781346
O O6 0.777255 0.360200 0.753097
O O7 0.806943 0.190031 0.768917
O O8 0.818905 0.299007 0.000000
O O9 0.926845 0.500000 0.782683
O O10 0.000000 0.633100 0.773560
O O11 0.938726 0.611580 0.000000
O O12 0.275168 0.352846 0.500000
O O13 0.280648 0.500000 0.660669
O O14 0.332979 0.354869 0.747711
O O15 0.820545 0.121451 0.500000
O O16 0.818780 0.000000 0.708685
O O17 0.612000 0.500000 0.168928
O O18 0.555753 0.643539 0.249241
O O19 0.612414 0.643359 0.000000
O O20 0.500000 0.500000 0.331358
O O21 0.500000 0.643367 0.500000
#
# Coordination Sequence:
#
# PCOD9384944 Si02
#       7
#     8   8   8   8   8   8   4
#     4   8  14  26  44  63  81 102 130 165 206 256
#     4  11  21  32  50  72  91 115 151 194 239 288
#     4   8  15  29  48  69  91 113 141 182 231 280
#     4  10  20  33  48  67  94 126 158 194 236 280
#     4  10  21  35  48  63  86 115 146 182 228 283
#     4   9  16  26  41  62  89 122 161 200 232 265
#     4   9  15  23  37  59  89 125 162 195 230 271
#
# _framework density 16.390771000000001
#
# number of rings (size 3 to 8) (size 9 to 14) (size 15 to 20)
#    0.000    2.692    0.000    3.462    0.000    6.154 
#    0.000    3.077    0.000    1.385    0.000    5.385 
#    0.000    0.000    0.000    0.692    0.000   12.846 
#
# Total GULP energy -289541.807640 kJ/mol
# GULP energy per Si atom -5568.111685 kJ/mol
# Density = 1.635346 g / cm^3
# Si number density = 16.390771 Si / 1000 Ang^3
#
#
#
# Elastic Constant Matrix: (Units=GPa)
#
#
# Indices 1 2 3 4 5 6 
#
# 1 98.4408 18.6133 46.7721 0.0000 0.0000 0.0000
# 2 18.6133 55.7310 23.3202 0.0000 0.0000 0.0000
# 3 46.7721 23.3202 89.3284 0.0000 0.0000 0.0000
# 4 0.0000 0.0000 0.0000 16.5704 0.0000 0.0000
# 5 0.0000 0.0000 0.0000 0.0000 14.1936 0.0000
# 6 0.0000 0.0000 0.0000 0.0000 0.0000 -0.2454
#
#
#
# Elastic Compliance Matrix: (Units=1/GPa)
#
#
# Indices 1 2 3 4 5 6 
#
# 1 0.013675 -0.001764 -0.006700 0.000000 0.000000 0.000000
# 2 -0.001764 0.020371 -0.004395 0.000000 0.000000 0.000000
# 3 -0.006700 -0.004395 0.015850 0.000000 0.000000 0.000000
# 4 0.000000 0.000000 0.000000 0.060348 0.000000 0.000000
# 5 0.000000 0.000000 0.000000 0.000000 0.070454 0.000000
# 6 0.000000 0.000000 0.000000 0.000000 0.000000 -4.075753
#
#
# Mechanical properties :
#
#
# Convention : Reuss Voigt Hill
#
# Bulk Modulus (GPa) = 41.35670 46.76792 44.06231
# Shear Modulus (GPa) = -1.29491 16.42338 7.56424
#
# Velocity S-wave (km/s) = -0.88980 3.16886 2.15057
# Velocity P-wave (km/s) = 4.92248 6.47950 5.75390
#
# Compressibility (1/GPa) = 0.02417988
#
# Stress axis : x y z
#
# Youngs Moduli (GPa) = 73.12518 49.08864 63.09178
#
# Poissons Ratio (x) = 0.08658 0.42270
# Poissons Ratio (y) = 0.12898 0.27727
# Poissons Ratio (z) = 0.48993 0.21573
#
# Static dielectric constant tensor:
#      x y z
#    x 1.559900 0.000000 0.000000 
#    y 0.000000 1.591200 0.000000 
#    z 0.000000 0.000000 1.554680 
# 
# From -- ./inp_files/12531.got.cif
#   From: 2010.05.17/outbox.cif.g08.bks.cpg/sg47_7_cif.got.tgz:12531.got - 2010.06.03 20:15:42.
