data_PCOD9384896
_publ_section_title
;
Structure prediction by ZEFSAII (Michael W. Deem and Ramdas Pophale) SiO2 
 PCOD9384896
Probable space group: P M M M
;
_chemical_formula_sum "Si O2"
_cell_formula_units_Z 35
_cell_length_a 16.511994
_cell_length_b 12.600047
_cell_length_c 11.397666
_cell_angle_alpha 90.000000
_cell_angle_beta 90.000000
_cell_angle_gamma 90.000000
_cell_volume 2371.306072
_symmetry_space_group_name_H-M "P M M M"
_symmetry_group_IT_number 47
_symmetry_cell_setting 'orthorhombic'
loop_
_space_group_symop_operation_xyz
x,y,z
-x,-y,z
x,-y,-z
-x,y,-z
-x,-y,-z
x,y,-z
-x,y,z
x,-y,z
loop_
_atom_site_type_symbol
_atom_site_label
_atom_site_fract_x
_atom_site_fract_y
_atom_site_fract_z
Si Si1 0.721634 0.330917 0.240461
Si Si2 0.335313 0.120219 0.138941
Si Si3 0.832853 0.500000 0.869604
Si Si4 0.500000 0.120799 0.714747
Si Si5 0.000000 0.500000 0.000000
Si Si6 0.322826 0.625633 0.500000
Si Si7 0.405201 0.500000 0.141757
Si Si8 0.500000 0.283494 0.500000
O O1 0.720197 0.214443 0.185947
O O2 0.798891 0.398225 0.198540
O O3 0.713449 0.327738 0.380402
O O4 0.643965 0.398581 0.192018
O O5 0.420762 0.132062 0.205155
O O6 0.305576 0.000000 0.161279
O O7 0.347288 0.131806 0.000000
O O8 0.927299 0.500000 0.899265
O O9 0.792382 0.500000 0.000000
O O10 0.500000 0.207309 0.613261
O O11 0.500000 0.000000 0.666621
O O12 0.308387 0.500000 0.500000
O O13 0.418636 0.648262 0.500000
O O14 0.500000 0.500000 0.177365
O O15 0.402860 0.500000 0.000000
#
# Coordination Sequence:
#
# PCOD9384896 Si02
#       8
#     8   8   4   4   1   4   4   2
#     4  11  20  34  51  71 104 140 173 219 261 311
#     4  10  20  33  49  70  96 137 185 233 281 311
#     4   9  18  35  59  85 107 123 160 199 267 332
#     4  10  20  33  46  62  91 138 198 247 270 294
#     4   8  20  36  64  98 100 132 152 196 278 354
#     4  12  23  33  47  68  99 147 187 224 268 294
#     4  10  21  30  43  66  93 129 175 219 261 307
#     4  12  22  34  44  60  98 150 202 236 256 302
#
# _framework density 14.759798999999999
#
# number of rings (size 3 to 8) (size 9 to 14) (size 15 to 20)
#    0.343    1.257    4.571    3.429    3.200    1.371 
#    0.000    0.571    0.000    1.371    0.000    1.600 
#    0.000    0.000    0.000    2.057    0.000    0.000 
#
# Total GULP energy -194951.298318 kJ/mol
# GULP energy per Si atom -5570.037095 kJ/mol
# Density = 1.472621 g / cm^3
# Si number density = 14.759799 Si / 1000 Ang^3
#
#
#
# Elastic Constant Matrix: (Units=GPa)
#
#
# Indices 1 2 3 4 5 6 
#
# 1 88.4404 23.7955 23.1015 0.0000 0.0000 0.0000
# 2 23.7955 93.2103 35.5324 0.0000 0.0000 0.0000
# 3 23.1015 35.5324 101.4026 0.0000 0.0000 0.0000
# 4 0.0000 0.0000 0.0000 19.6071 0.0000 0.0000
# 5 0.0000 0.0000 0.0000 0.0000 0.5929 0.0000
# 6 0.0000 0.0000 0.0000 0.0000 0.0000 2.6289
#
#
#
# Elastic Compliance Matrix: (Units=1/GPa)
#
#
# Indices 1 2 3 4 5 6 
#
# 1 0.012480 -0.002426 -0.001993 0.000000 0.000000 0.000000
# 2 -0.002426 0.012854 -0.003951 0.000000 0.000000 0.000000
# 3 -0.001993 -0.003951 0.011700 0.000000 0.000000 0.000000
# 4 0.000000 0.000000 0.000000 0.051002 0.000000 0.000000
# 5 0.000000 0.000000 0.000000 0.000000 1.686541 0.000000
# 6 0.000000 0.000000 0.000000 0.000000 0.000000 0.380386
#
#
# Mechanical properties :
#
#
# Convention : Reuss Voigt Hill
#
# Bulk Modulus (GPa) = 49.27742 49.76799 49.52271
# Shear Modulus (GPa) = 2.29519 17.94072 10.11795
#
# Velocity S-wave (km/s) = 1.24836 3.49020 2.62106
# Velocity P-wave (km/s) = 5.96126 7.07346 6.54104
#
# Compressibility (1/GPa) = 0.02029327
#
# Stress axis : x y z
#
# Youngs Moduli (GPa) = 80.12509 77.79581 85.46741
#
# Poissons Ratio (x) = 0.18876 0.17034
# Poissons Ratio (y) = 0.19441 0.33772
# Poissons Ratio (z) = 0.15970 0.30741
#
# Static dielectric constant tensor:
#      x y z
#    x 1.451450 0.000000 0.000000 
#    y 0.000000 1.510050 0.000000 
#    z 0.000000 0.000000 1.506130 
# 
# From -- ./inp_files/18356.got.cif
#   From: 2010.05.17/outbox.cif.g08.bks.cpg/sg47_10_cif.got.tgz:18356.got - 2010.06.03 20:15:42.
