data_PCOD9384005
_publ_section_title
;
Structure prediction by ZEFSAII (Michael W. Deem and Ramdas Pophale) SiO2 
 PCOD9384005
Probable space group: P M M M
;
_chemical_formula_sum "Si O2"
_cell_formula_units_Z 48
_cell_length_a 14.370953
_cell_length_b 12.683261
_cell_length_c 14.408610
_cell_angle_alpha 90.000000
_cell_angle_beta 90.000000
_cell_angle_gamma 90.000000
_cell_volume 2626.265237
_symmetry_space_group_name_H-M "P M M M"
_symmetry_group_IT_number 47
_symmetry_cell_setting 'orthorhombic'
loop_
_space_group_symop_operation_xyz
x,y,z
-x,-y,z
x,-y,-z
-x,y,-z
-x,-y,-z
x,y,-z
-x,y,z
x,-y,z
loop_
_atom_site_type_symbol
_atom_site_label
_atom_site_fract_x
_atom_site_fract_y
_atom_site_fract_z
Si Si1 0.394281 0.500000 0.887515
Si Si2 0.893594 0.000000 0.387342
Si Si3 0.793539 0.217993 0.388174
Si Si4 0.604342 0.120728 0.887383
Si Si5 0.262337 0.694722 0.111730
Si Si6 0.395593 0.121618 0.387421
Si Si7 0.110101 0.373845 0.748917
O O1 0.500000 0.500000 0.852345
O O2 0.335194 0.397335 0.862036
O O3 0.399506 0.500000 0.000000
O O4 0.843117 0.892015 0.360319
O O5 0.892939 0.000000 0.500000
O O6 0.000000 0.000000 0.355509
O O7 0.799575 0.228052 0.500000
O O8 0.685776 0.201138 0.360843
O O9 0.843599 0.314144 0.337953
O O10 0.500000 0.156663 0.860231
O O11 0.687651 0.196773 0.859635
O O12 0.616072 0.000000 0.857293
O O13 0.604296 0.121111 0.000000
O O14 0.166286 0.670850 0.162816
O O15 0.250981 0.693368 0.000000
O O16 0.395956 0.120738 0.500000
O O17 0.500000 0.147925 0.356563
O O18 0.375273 0.000000 0.360422
O O19 0.122667 0.500000 0.743975
O O20 0.000000 0.352154 0.753203
#
# Coordination Sequence:
#
# PCOD9384005 Si02
#       7
#     4   4   8   8   8   8   8
#     4   9  16  28  53  87 112 135 175 227 279 323
#     4   9  16  28  51  83 110 134 173 224 277 327
#     4  10  19  35  59  84 112 144 178 224 279 329
#     4   8  14  27  51  83 116 148 178 211 261 327
#     4  10  19  35  58  81 109 145 183 226 275 323
#     4   8  13  25  50  83 115 145 175 209 257 321
#     4  11  25  42  57  76 105 141 189 241 282 329
#
# _framework density 18.276906
#
# number of rings (size 3 to 8) (size 9 to 14) (size 15 to 20)
#    0.000    2.667    1.667    2.000    0.000    3.667 
#    1.500    3.333    0.000    2.000    0.000    4.667 
#    0.000    0.000    0.000    0.000    0.000    0.000 
#
# Total GULP energy -267730.009610 kJ/mol
# GULP energy per Si atom -5577.708534 kJ/mol
# Density = 1.823531 g / cm^3
# Si number density = 18.276906 Si / 1000 Ang^3
#
#
#
# Elastic Constant Matrix: (Units=GPa)
#
#
# Indices 1 2 3 4 5 6 
#
# 1 169.7752 77.3350 39.4898 0.0000 0.0000 0.0000
# 2 77.3350 93.4639 27.8357 0.0000 0.0000 0.0000
# 3 39.4898 27.8357 74.8749 0.0000 0.0000 0.0000
# 4 0.0000 0.0000 0.0000 -56.4854 0.0000 0.0000
# 5 0.0000 0.0000 0.0000 0.0000 -574.0971 0.0000
# 6 0.0000 0.0000 0.0000 0.0000 0.0000 22.9076
#
#
#
# Elastic Compliance Matrix: (Units=1/GPa)
#
#
# Indices 1 2 3 4 5 6 
#
# 1 0.009831 -0.007411 -0.002430 0.000000 0.000000 0.000000
# 2 -0.007411 0.017618 -0.002641 0.000000 0.000000 0.000000
# 3 -0.002430 -0.002641 0.015619 0.000000 0.000000 0.000000
# 4 0.000000 0.000000 0.000000 -0.017704 0.000000 0.000000
# 5 0.000000 0.000000 0.000000 0.000000 -0.001742 0.000000
# 6 0.000000 0.000000 0.000000 0.000000 0.000000 0.043654
#
#
# Mechanical properties :
#
#
# Convention : Reuss Voigt Hill
#
# Bulk Modulus (GPa) = 55.23580 69.71502 62.47541
# Shear Modulus (GPa) = 50.87782 -108.63807 -28.88012
#
# Velocity S-wave (km/s) = 5.28182 -7.71810 -3.97941
# Velocity P-wave (km/s) = 8.21487 6.41864 3.62527
#
# Compressibility (1/GPa) = 0.01810420
#
# Stress axis : x y z
#
# Youngs Moduli (GPa) = 101.71803 56.76052 64.02441
#
# Poissons Ratio (x) = 0.42064 0.15558
# Poissons Ratio (y) = 0.75382 0.16910
# Poissons Ratio (z) = 0.24717 0.14991
#
# Static dielectric constant tensor:
#      x y z
#    x 1.628920 0.000000 0.000000 
#    y 0.000000 1.634750 0.000000 
#    z 0.000000 0.000000 1.668540 
# 
# From -- ./inp_files/23585.got.cif
#   From: 2010.05.17/outbox.cif.g08.bks.cpg/sg47_12_cif.got.tgz:23585.got - 2010.06.03 20:15:42.
