data_PCOD9384706
_publ_section_title
;
Structure prediction by ZEFSAII (Michael W. Deem and Ramdas Pophale) SiO2 
 PCOD9384706
Probable space group: P M M M
;
_chemical_formula_sum "Si O2"
_cell_formula_units_Z 44
_cell_length_a 32.736936
_cell_length_b 7.617741
_cell_length_c 9.304809
_cell_angle_alpha 90.000000
_cell_angle_beta 90.000000
_cell_angle_gamma 90.000000
_cell_volume 2320.447222
_symmetry_space_group_name_H-M "P M M M"
_symmetry_group_IT_number 47
_symmetry_cell_setting 'orthorhombic'
loop_
_space_group_symop_operation_xyz
x,y,z
-x,-y,z
x,-y,-z
-x,y,-z
-x,-y,-z
x,y,-z
-x,y,z
x,-y,z
loop_
_atom_site_type_symbol
_atom_site_label
_atom_site_fract_x
_atom_site_fract_y
_atom_site_fract_z
Si Si1 0.000000 0.715232 0.335091
Si Si2 0.749859 0.799100 0.325282
Si Si3 0.839574 0.211079 0.663441
Si Si4 0.400875 0.500000 0.171623
Si Si5 0.920715 0.289939 0.161954
Si Si6 0.313881 0.500000 0.673997
Si Si7 0.548482 0.207164 0.668172
O O1 0.959174 0.775109 0.253950
O O2 0.000000 0.500000 0.334982
O O3 0.000000 0.771513 0.500000
O O4 0.751764 0.802337 0.500000
O O5 0.794916 0.732177 0.281002
O O6 0.713487 0.669295 0.286936
O O7 0.743576 0.000000 0.276708
O O8 0.845859 0.276799 0.500000
O O9 0.877886 0.256295 0.760650
O O10 0.836817 0.000000 0.656041
O O11 0.356461 0.500000 0.244496
O O12 0.425430 0.331019 0.230243
O O13 0.398464 0.500000 0.000000
O O14 0.925522 0.500000 0.153778
O O15 0.921081 0.219868 0.000000
O O16 0.319969 0.500000 0.500000
O O17 0.557631 0.245851 0.500000
O O18 0.500000 0.237516 0.688711
O O19 0.556160 0.000000 0.691388
#
# Coordination Sequence:
#
# PCOD9384706 Si02
#       7
#     4   8   8   4   8   4   8
#     4   9  17  31  50  71  96 129 168 208 250 297
#     4   8  16  32  54  80 105 130 173 234 285 324
#     4   9  18  33  53  77 102 127 162 212 264 311
#     4  12  25  37  52  83 126 164 193 235 292 353
#     4  10  20  32  48  73 103 134 165 201 247 306
#     4  10  20  35  57  80 104 146 197 238 282 333
#     4   9  19  38  64  90 115 150 200 252 295 338
#
# _framework density 18.961863000000001
#
# number of rings (size 3 to 8) (size 9 to 14) (size 15 to 20)
#    0.000    2.636    0.000    3.545    1.273    5.091 
#    0.000    4.091    0.000    3.818    0.000    0.000 
#    0.000    0.000    0.000    0.000    0.000    0.000 
#
# Total GULP energy -245554.750324 kJ/mol
# GULP energy per Si atom -5580.789780 kJ/mol
# Density = 1.891870 g / cm^3
# Si number density = 18.961863 Si / 1000 Ang^3
#
#
#
# Elastic Constant Matrix: (Units=GPa)
#
#
# Indices 1 2 3 4 5 6 
#
# 1 162.1632 64.5752 98.9655 0.0000 0.0000 0.0000
# 2 64.5752 72.8034 46.5560 0.0000 0.0000 0.0000
# 3 98.9655 46.5560 123.1698 0.0000 0.0000 0.0000
# 4 0.0000 0.0000 0.0000 7.5671 0.0000 0.0000
# 5 0.0000 0.0000 0.0000 0.0000 -18.4491 0.0000
# 6 0.0000 0.0000 0.0000 0.0000 0.0000 234.4509
#
#
#
# Elastic Compliance Matrix: (Units=1/GPa)
#
#
# Indices 1 2 3 4 5 6 
#
# 1 0.014435 -0.007104 -0.008913 0.000000 0.000000 0.000000
# 2 -0.007104 0.021610 -0.002460 0.000000 0.000000 0.000000
# 3 -0.008913 -0.002460 0.016211 0.000000 0.000000 0.000000
# 4 0.000000 0.000000 0.000000 0.132151 0.000000 0.000000
# 5 0.000000 0.000000 0.000000 0.000000 -0.054203 0.000000
# 6 0.000000 0.000000 0.000000 0.000000 0.000000 0.004265
#
#
# Mechanical properties :
#
#
# Convention : Reuss Voigt Hill
#
# Bulk Modulus (GPa) = 65.35673 86.48110 75.91891
# Shear Modulus (GPa) = 28.32481 54.58310 41.45396
#
# Velocity S-wave (km/s) = 3.86914 5.37105 4.68073
# Velocity P-wave (km/s) = 7.38259 9.17449 8.32688
#
# Compressibility (1/GPa) = 0.01530064
#
# Stress axis : x y z
#
# Youngs Moduli (GPa) = 69.27579 46.27522 61.68816
#
# Poissons Ratio (x) = 0.32873 0.54984
# Poissons Ratio (y) = 0.49212 0.15177
# Poissons Ratio (z) = 0.61748 0.11385
#
# Static dielectric constant tensor:
#      x y z
#    x 1.641820 0.000000 0.000000 
#    y 0.000000 1.690780 0.000000 
#    z 0.000000 0.000000 1.635330 
# 
# From -- ./inp_files/13768.got.cif
#   From: 2010.05.17/outbox.cif.g08.bks.cpg/sg47_7_cif.got.tgz:13768.got - 2010.06.03 20:15:42.
