data_PCOD9384178
_publ_section_title
;
Structure prediction by ZEFSAII (Michael W. Deem and Ramdas Pophale) SiO2 
 PCOD9384178
Probable space group: P M M M
;
_chemical_formula_sum "Si O2"
_cell_formula_units_Z 64
_cell_length_a 15.730424
_cell_length_b 29.701276
_cell_length_c 9.444278
_cell_angle_alpha 90.000000
_cell_angle_beta 90.000000
_cell_angle_gamma 90.000000
_cell_volume 4412.495736
_symmetry_space_group_name_H-M "P M M M"
_symmetry_group_IT_number 47
_symmetry_cell_setting 'orthorhombic'
loop_
_space_group_symop_operation_xyz
x,y,z
-x,-y,z
x,-y,-z
-x,y,-z
-x,-y,-z
x,y,-z
-x,y,z
x,-y,z
loop_
_atom_site_type_symbol
_atom_site_label
_atom_site_fract_x
_atom_site_fract_y
_atom_site_fract_z
Si Si1 0.396602 0.050768 0.164056
Si Si2 0.737089 0.714129 0.333738
Si Si3 0.094756 0.394530 0.836429
Si Si4 0.904177 0.714875 0.164148
Si Si5 0.603154 0.137036 0.337996
Si Si6 0.598270 0.553243 0.832441
Si Si7 0.398822 0.772199 0.831015
Si Si8 0.259311 0.605637 0.664762
O O1 0.500000 0.051056 0.167294
O O2 0.367025 0.090637 0.265932
O O3 0.369945 0.000000 0.203815
O O4 0.372722 0.058992 0.000000
O O5 0.732450 0.725908 0.500000
O O6 0.826875 0.729126 0.264376
O O7 0.659994 0.735785 0.246327
O O8 0.733801 0.659845 0.322285
O O9 0.094614 0.339826 0.833327
O O10 0.171565 0.409352 0.738273
O O11 0.000000 0.409266 0.793252
O O12 0.108795 0.407748 0.000000
O O13 0.000000 0.729534 0.204798
O O14 0.889012 0.727898 0.000000
O O15 0.632629 0.142349 0.500000
O O16 0.500000 0.134995 0.342176
O O17 0.623326 0.179769 0.240021
O O18 0.500000 0.563631 0.798939
O O19 0.611269 0.500000 0.807416
O O20 0.662742 0.582490 0.743205
O O21 0.610740 0.561271 0.000000
O O22 0.500000 0.764161 0.807584
O O23 0.384695 0.772811 0.000000
O O24 0.258819 0.594261 0.500000
#
# Coordination Sequence:
#
# PCOD9384178 Si02
#       8
#     8   8   8   8   8   8   8   8
#     4   8  13  21  33  49  69  93 124 165 209 250
#     4  10  20  31  43  63  90 115 140 171 207 248
#     4   8  14  26  45  67  90 117 145 169 195 232
#     4   8  14  26  44  64  85 109 138 171 204 240
#     4   9  16  25  37  52  71  97 130 170 215 258
#     4   9  19  36  55  71  86 108 140 175 209 247
#     4  10  20  32  44  56  74 107 149 185 215 250
#     4  10  20  31  46  70  95 116 136 165 208 251
#
# _framework density 14.504263
#
# number of rings (size 3 to 8) (size 9 to 14) (size 15 to 20)
#    0.000    3.000    0.000    3.000    0.000    5.500 
#    0.000    6.875    0.000    0.375    0.000    2.625 
#    0.000    0.000    0.000    0.000    0.000    0.625 
#
# Total GULP energy -356348.157094 kJ/mol
# GULP energy per Si atom -5567.939955 kJ/mol
# Density = 1.447125 g / cm^3
# Si number density = 14.504263 Si / 1000 Ang^3
#
#
#
# Elastic Constant Matrix: (Units=GPa)
#
#
# Indices 1 2 3 4 5 6 
#
# 1 85.6774 42.4698 75.0672 0.0000 0.0000 0.0000
# 2 42.4698 26.8606 46.0665 0.0000 0.0000 0.0000
# 3 75.0672 46.0665 106.9881 0.0000 0.0000 0.0000
# 4 0.0000 0.0000 0.0000 21.7682 0.0000 0.0000
# 5 0.0000 0.0000 0.0000 0.0000 5.5550 0.0000
# 6 0.0000 0.0000 0.0000 0.0000 0.0000 -3.4210
#
#
#
# Elastic Compliance Matrix: (Units=1/GPa)
#
#
# Indices 1 2 3 4 5 6 
#
# 1 0.054496 -0.078714 -0.004344 0.000000 0.000000 0.000000
# 2 -0.078714 0.256033 -0.055013 0.000000 0.000000 0.000000
# 3 -0.004344 -0.055013 0.036082 0.000000 0.000000 0.000000
# 4 0.000000 0.000000 0.000000 0.045939 0.000000 0.000000
# 5 0.000000 0.000000 0.000000 0.000000 0.180017 0.000000
# 6 0.000000 0.000000 0.000000 0.000000 0.000000 -0.292316
#
#
# Mechanical properties :
#
#
# Convention : Reuss Voigt Hill
#
# Bulk Modulus (GPa) = 14.19060 60.74811 37.46935
# Shear Modulus (GPa) = 8.62242 8.50863 8.56552
#
# Velocity S-wave (km/s) = 2.44083 2.42467 2.43276
# Velocity P-wave (km/s) = 4.21290 7.05780 5.81210
#
# Compressibility (1/GPa) = 0.07046919
#
# Stress axis : x y z
#
# Youngs Moduli (GPa) = 18.34990 3.90574 27.71464
#
# Poissons Ratio (x) = 0.30744 0.12040
# Poissons Ratio (y) = 1.44440 1.52465
# Poissons Ratio (z) = 0.07972 0.21486
#
# Static dielectric constant tensor:
#      x y z
#    x 1.467810 0.000000 0.000000 
#    y 0.000000 1.473590 0.000000 
#    z 0.000000 0.000000 1.482350 
# 
# From -- ./inp_files/8318.got.cif
#   From: 2010.05.17/outbox.cif.g08.bks.cpg/sg47_5_cif.got.tgz:8318.got - 2010.06.03 20:15:42.
