data_PCOD9384869
_publ_section_title
;
Structure prediction by ZEFSAII (Michael W. Deem and Ramdas Pophale) SiO2 
 PCOD9384869
Probable space group: P M M M
;
_chemical_formula_sum "Si O2"
_cell_formula_units_Z 64
_cell_length_a 14.787751
_cell_length_b 18.551788
_cell_length_c 13.544694
_cell_angle_alpha 90.000000
_cell_angle_beta 90.000000
_cell_angle_gamma 90.000000
_cell_volume 3715.840808
_symmetry_space_group_name_H-M "P M M M"
_symmetry_group_IT_number 47
_symmetry_cell_setting 'orthorhombic'
loop_
_space_group_symop_operation_xyz
x,y,z
-x,-y,z
x,-y,-z
-x,y,-z
-x,-y,-z
x,y,-z
-x,y,z
x,-y,z
loop_
_atom_site_type_symbol
_atom_site_label
_atom_site_fract_x
_atom_site_fract_y
_atom_site_fract_z
Si Si1 0.607450 0.677957 0.614374
Si Si2 0.769455 0.712524 0.886093
Si Si3 0.602393 0.216650 0.204999
Si Si4 0.261632 0.581856 0.258172
Si Si5 0.799684 0.084704 0.611910
Si Si6 0.599251 0.915373 0.326571
Si Si7 0.894026 0.637527 0.385820
Si Si8 0.107473 0.214445 0.723974
O O1 0.634784 0.689629 0.500000
O O2 0.500000 0.663189 0.614839
O O3 0.622079 0.745635 0.688059
O O4 0.663330 0.614741 0.667454
O O5 0.676528 0.756405 0.870395
O O6 0.750062 0.635664 0.834076
O O7 0.844492 0.755033 0.822164
O O8 0.793573 0.705636 0.000000
O O9 0.500000 0.236600 0.177247
O O10 0.606983 0.132404 0.228514
O O11 0.281741 0.500000 0.231124
O O12 0.168179 0.588620 0.317976
O O13 0.832839 0.096001 0.500000
O O14 0.691211 0.097095 0.613821
O O15 0.846756 0.141511 0.684364
O O16 0.814667 0.000000 0.637488
O O17 0.500000 0.896289 0.371567
O O18 0.597359 0.000000 0.306037
O O19 0.872133 0.626975 0.500000
O O20 0.877217 0.720793 0.354915
O O21 0.000000 0.623404 0.370455
O O22 0.000000 0.205245 0.736359
#
# Coordination Sequence:
#
# PCOD9384869 Si02
#       8
#     8   8   8   8   8   8   8   8
#     4   9  18  31  48  73 105 142 180 212 245 294
#     4  10  21  38  58  79  98 126 170 219 272 322
#     4   9  17  32  53  78 105 137 175 219 264 307
#     4  10  21  35  51  75 104 133 164 205 256 312
#     4  10  20  32  50  80 115 150 184 214 250 300
#     4   9  17  30  49  75 111 150 181 210 249 296
#     4   9  18  32  51  75 102 134 169 204 248 305
#     4  10  20  36  55  75 102 137 177 224 268 307
#
# _framework density 17.223557
#
# number of rings (size 3 to 8) (size 9 to 14) (size 15 to 20)
#    0.000    2.500    1.250    0.750    0.000    4.000 
#    0.000    4.375    0.000    1.500    0.000    9.625 
#    0.000    0.000    0.000    0.000    0.000    0.000 
#
# Total GULP energy -356683.042182 kJ/mol
# GULP energy per Si atom -5573.172534 kJ/mol
# Density = 1.718436 g / cm^3
# Si number density = 17.223557 Si / 1000 Ang^3
#
#
#
# Elastic Constant Matrix: (Units=GPa)
#
#
# Indices 1 2 3 4 5 6 
#
# 1 57.8742 26.7982 20.2092 0.0000 0.0000 0.0000
# 2 26.7982 52.3344 16.0729 0.0000 0.0000 0.0000
# 3 20.2092 16.0729 73.6566 0.0000 0.0000 0.0000
# 4 0.0000 0.0000 0.0000 6.1586 0.0000 0.0000
# 5 0.0000 0.0000 0.0000 0.0000 12.4926 0.0000
# 6 0.0000 0.0000 0.0000 0.0000 0.0000 18.0372
#
#
#
# Elastic Compliance Matrix: (Units=1/GPa)
#
#
# Indices 1 2 3 4 5 6 
#
# 1 0.023773 -0.010901 -0.004144 0.000000 0.000000 0.000000
# 2 -0.010901 0.025479 -0.002569 0.000000 0.000000 0.000000
# 3 -0.004144 -0.002569 0.015274 0.000000 0.000000 0.000000
# 4 0.000000 0.000000 0.000000 0.162374 0.000000 0.000000
# 5 0.000000 0.000000 0.000000 0.000000 0.080047 0.000000
# 6 0.000000 0.000000 0.000000 0.000000 0.000000 0.055441
#
#
# Mechanical properties :
#
#
# Convention : Reuss Voigt Hill
#
# Bulk Modulus (GPa) = 34.13109 34.44733 34.28921
# Shear Modulus (GPa) = 12.27348 15.39000 13.83174
#
# Velocity S-wave (km/s) = 2.67235 2.99246 2.83693
# Velocity P-wave (km/s) = 5.42047 5.65538 5.53917
#
# Compressibility (1/GPa) = 0.02929880
#
# Stress axis : x y z
#
# Youngs Moduli (GPa) = 42.06390 39.24859 65.47025
#
# Poissons Ratio (x) = 0.42783 0.27131
# Poissons Ratio (y) = 0.45852 0.16819
# Poissons Ratio (z) = 0.17431 0.10083
#
# Static dielectric constant tensor:
#      x y z
#    x 1.610560 0.000000 0.000000 
#    y 0.000000 1.595060 0.000000 
#    z 0.000000 0.000000 1.562290 
# 
# From -- ./inp_files/17875.got.cif
#   From: 2010.05.17/outbox.cif.g08.bks.cpg/sg47_9_cif.got.tgz:17875.got - 2010.06.03 20:15:42.
