data_PCOD9384662
_publ_section_title
;
Structure prediction by ZEFSAII (Michael W. Deem and Ramdas Pophale) SiO2 
 PCOD9384662
Probable space group: P M M M
;
_chemical_formula_sum "Si O2"
_cell_formula_units_Z 40
_cell_length_a 28.249444
_cell_length_b 7.810112
_cell_length_c 8.517441
_cell_angle_alpha 90.000000
_cell_angle_beta 90.000000
_cell_angle_gamma 90.000000
_cell_volume 1879.214264
_symmetry_space_group_name_H-M "P M M M"
_symmetry_group_IT_number 47
_symmetry_cell_setting 'orthorhombic'
loop_
_space_group_symop_operation_xyz
x,y,z
-x,-y,z
x,-y,-z
-x,y,-z
-x,-y,-z
x,y,-z
-x,y,z
x,-y,z
loop_
_atom_site_type_symbol
_atom_site_label
_atom_site_fract_x
_atom_site_fract_y
_atom_site_fract_z
Si Si1 0.597949 0.799511 0.813804
Si Si2 0.500000 0.799638 0.313362
Si Si3 0.103792 0.198082 0.180038
Si Si4 0.305078 0.803153 0.684558
Si Si5 0.055632 0.791508 0.500000
Si Si6 0.791932 0.698634 0.177718
O O1 0.549509 0.723514 0.745804
O O2 0.648417 0.723531 0.763913
O O3 0.599590 0.000000 0.758632
O O4 0.594493 0.798204 0.000000
O O5 0.500000 0.798772 0.500000
O O6 0.500000 0.000000 0.257661
O O7 0.078144 0.272387 0.334818
O O8 0.159977 0.203403 0.216218
O O9 0.088573 0.000000 0.169707
O O10 0.097564 0.269674 0.000000
O O11 0.313983 0.802580 0.500000
O O12 0.254368 0.722661 0.718926
O O13 0.300748 0.000000 0.740757
O O14 0.000000 0.755627 0.500000
O O15 0.062183 0.000000 0.500000
O O16 0.805475 0.500000 0.180179
O O17 0.778012 0.746778 0.000000
#
# Coordination Sequence:
#
# PCOD9384662 Si02
#       6
#     8   4   8   8   4   8
#     4   9  16  26  41  62  90 125 163 202 247 301
#     4   9  15  23  37  59  90 123 156 199 250 301
#     4   9  18  33  54  79 108 142 178 217 262 310
#     4  10  20  32  48  72 101 132 167 209 257 308
#     4   9  18  32  53  83 113 139 175 220 261 306
#     4  10  21  36  53  74 101 134 172 215 262 310
#
# _framework density 21.285492000000001
#
# number of rings (size 3 to 8) (size 9 to 14) (size 15 to 20)
#    0.000    2.600    0.000    2.100    1.400    6.400 
#    0.000    2.000    0.000    1.200    0.000    3.500 
#    0.000    5.600    0.000    0.000    0.000    0.000 
#
# Total GULP energy -222954.053592 kJ/mol
# GULP energy per Si atom -5573.851340 kJ/mol
# Density = 2.123705 g / cm^3
# Si number density = 21.285492 Si / 1000 Ang^3
#
#
#
# Elastic Constant Matrix: (Units=GPa)
#
#
# Indices 1 2 3 4 5 6 
#
# 1 109.4432 4.3030 78.5929 0.0000 0.0000 0.0000
# 2 4.3030 27.9136 9.3865 0.0000 0.0000 0.0000
# 3 78.5929 9.3865 101.1520 0.0000 0.0000 0.0000
# 4 0.0000 0.0000 0.0000 4.2535 0.0000 0.0000
# 5 0.0000 0.0000 0.0000 0.0000 49.7475 0.0000
# 6 0.0000 0.0000 0.0000 0.0000 0.0000 -75.4524
#
#
#
# Elastic Compliance Matrix: (Units=1/GPa)
#
#
# Indices 1 2 3 4 5 6 
#
# 1 0.020813 0.002301 -0.016385 0.000000 0.000000 0.000000
# 2 0.002301 0.037233 -0.005243 0.000000 0.000000 0.000000
# 3 -0.016385 -0.005243 0.023103 0.000000 0.000000 0.000000
# 4 0.000000 0.000000 0.000000 0.235100 0.000000 0.000000
# 5 0.000000 0.000000 0.000000 0.000000 0.020102 0.000000
# 6 0.000000 0.000000 0.000000 0.000000 0.000000 -0.013253
#
#
# Mechanical properties :
#
#
# Convention : Reuss Voigt Hill
#
# Bulk Modulus (GPa) = 23.53157 47.00817 35.26987
# Shear Modulus (GPa) = 13.30087 5.45816 9.37951
#
# Velocity S-wave (km/s) = 2.50247 1.60307 2.10145
# Velocity P-wave (km/s) = 4.40784 5.05559 4.74278
#
# Compressibility (1/GPa) = 0.04249611
#
# Stress axis : x y z
#
# Youngs Moduli (GPa) = 48.04764 26.85778 43.28428
#
# Poissons Ratio (x) = -0.06181 0.70919
# Poissons Ratio (y) = -0.11057 0.22694
# Poissons Ratio (z) = 0.78724 0.14082
#
# Static dielectric constant tensor:
#      x y z
#    x 1.764700 0.000000 0.000000 
#    y 0.000000 1.812920 0.000000 
#    z 0.000000 0.000000 1.759860 
# 
# From -- ./inp_files/1827.got.cif
#   From: 2010.05.17/outbox.cif.g08.bks.cpg/sg47_1_cif.got.tgz:1827.got - 2010.06.03 20:15:42.
