data_PCOD9384561
_publ_section_title
;
Structure prediction by ZEFSAII (Michael W. Deem and Ramdas Pophale) SiO2 
 PCOD9384561
Probable space group: P M M M
;
_chemical_formula_sum "Si O2"
_cell_formula_units_Z 64
_cell_length_a 29.108811
_cell_length_b 14.732052
_cell_length_c 8.944446
_cell_angle_alpha 90.000000
_cell_angle_beta 90.000000
_cell_angle_gamma 90.000000
_cell_volume 3835.669294
_symmetry_space_group_name_H-M "P M M M"
_symmetry_group_IT_number 47
_symmetry_cell_setting 'orthorhombic'
loop_
_space_group_symop_operation_xyz
x,y,z
-x,-y,z
x,-y,-z
-x,y,-z
-x,-y,-z
x,y,-z
-x,y,z
x,-y,z
loop_
_atom_site_type_symbol
_atom_site_label
_atom_site_fract_x
_atom_site_fract_y
_atom_site_fract_z
Si Si1 0.447803 0.603825 0.681936
Si Si2 0.817749 0.395909 0.679567
Si Si3 0.133289 0.217855 0.322191
Si Si4 0.678727 0.894978 0.820013
Si Si5 0.215410 0.108500 0.823946
Si Si6 0.053035 0.896026 0.819961
Si Si7 0.719356 0.391586 0.824683
Si Si8 0.637981 0.722943 0.679351
O O1 0.447712 0.604017 0.500000
O O2 0.500000 0.625007 0.729520
O O3 0.436968 0.500000 0.727985
O O4 0.408992 0.674101 0.730536
O O5 0.810769 0.391278 0.500000
O O6 0.829465 0.500000 0.717876
O O7 0.855928 0.321999 0.720128
O O8 0.769752 0.372244 0.758966
O O9 0.128660 0.212409 0.500000
O O10 0.177900 0.161416 0.270154
O O11 0.088871 0.173835 0.247545
O O12 0.731817 0.871690 0.780844
O O13 0.645477 0.823113 0.744103
O O14 0.670539 0.000000 0.778210
O O15 0.675541 0.888967 0.000000
O O16 0.209004 0.000000 0.809111
O O17 0.209817 0.130657 0.000000
O O18 0.000000 0.878745 0.777332
O O19 0.064572 0.000000 0.775065
O O20 0.055605 0.892834 0.000000
O O21 0.711894 0.500000 0.809065
O O22 0.680298 0.337451 0.738024
O O23 0.717913 0.368017 0.000000
O O24 0.638555 0.725371 0.500000
#
# Coordination Sequence:
#
# PCOD9384561 Si02
#       8
#     8   8   8   8   8   8   8   8
#     4   8  15  29  48  70  96 124 154 190 235 289
#     4   9  19  35  50  66  95 132 166 200 237 278
#     4  11  21  30  47  75  99 122 155 195 239 280
#     4   9  19  35  51  67  93 131 169 202 237 279
#     4   9  18  32  48  66  92 128 163 190 223 274
#     4   9  19  36  55  73  95 125 157 187 227 283
#     4  10  20  32  47  70 100 132 165 199 236 283
#     4  11  20  29  48  75  98 123 158 200 246 292
#
# _framework density 16.685485
#
# number of rings (size 3 to 8) (size 9 to 14) (size 15 to 20)
#    0.000    2.500    0.000    4.125    0.000    7.250 
#    0.000    1.875    0.000    2.250    0.000    9.625 
#    0.000    0.000    0.000    0.000    0.000    0.000 
#
# Total GULP energy -357088.124736 kJ/mol
# GULP energy per Si atom -5579.501949 kJ/mol
# Density = 1.664751 g / cm^3
# Si number density = 16.685485 Si / 1000 Ang^3
#
#
#
# Elastic Constant Matrix: (Units=GPa)
#
#
# Indices 1 2 3 4 5 6 
#
# 1 115.3457 94.1969 37.5256 0.0000 0.0000 0.0000
# 2 94.1969 102.7530 37.7443 0.0000 0.0000 0.0000
# 3 37.5256 37.7443 26.2847 0.0000 0.0000 0.0000
# 4 0.0000 0.0000 0.0000 24.8104 0.0000 0.0000
# 5 0.0000 0.0000 0.0000 0.0000 -15.9840 0.0000
# 6 0.0000 0.0000 0.0000 0.0000 0.0000 32.8695
#
#
#
# Elastic Compliance Matrix: (Units=1/GPa)
#
#
# Indices 1 2 3 4 5 6 
#
# 1 0.035331 -0.029333 -0.008318 0.000000 0.000000 0.000000
# 2 -0.029333 0.044950 -0.022669 0.000000 0.000000 0.000000
# 3 -0.008318 -0.022669 0.082474 0.000000 0.000000 0.000000
# 4 0.000000 0.000000 0.000000 0.040306 0.000000 0.000000
# 5 0.000000 0.000000 0.000000 0.000000 -0.062562 0.000000
# 6 0.000000 0.000000 0.000000 0.000000 0.000000 0.030423
#
#
# Mechanical properties :
#
#
# Convention : Reuss Voigt Hill
#
# Bulk Modulus (GPa) = 23.74599 64.81300 44.27949
# Shear Modulus (GPa) = 16.36125 13.33360 14.84742
#
# Velocity S-wave (km/s) = 3.13480 2.82993 2.98626
# Velocity P-wave (km/s) = 5.23116 7.04317 6.20368
#
# Compressibility (1/GPa) = 0.04211237
#
# Stress axis : x y z
#
# Youngs Moduli (GPa) = 28.30400 22.24703 12.12509
#
# Poissons Ratio (x) = 0.65258 0.10086
# Poissons Ratio (y) = 0.83025 0.27487
# Poissons Ratio (z) = 0.23544 0.50433
#
# Static dielectric constant tensor:
#      x y z
#    x 1.540900 0.000000 0.000000 
#    y 0.000000 1.576950 0.000000 
#    z 0.000000 0.000000 1.556650 
# 
# From -- ./inp_files/12716.got.cif
#   From: 2010.05.17/outbox.cif.g08.bks.cpg/sg47_7_cif.got.tgz:12716.got - 2010.06.03 20:15:42.
