data_PCOD9384188
_publ_section_title
;
Structure prediction by ZEFSAII (Michael W. Deem and Ramdas Pophale) SiO2 
 PCOD9384188
Probable space group: P M M M
;
_chemical_formula_sum "Si O2"
_cell_formula_units_Z 56
_cell_length_a 19.796277
_cell_length_b 18.934760
_cell_length_c 7.740015
_cell_angle_alpha 90.000000
_cell_angle_beta 90.000000
_cell_angle_gamma 90.000000
_cell_volume 2901.249838
_symmetry_space_group_name_H-M "P M M M"
_symmetry_group_IT_number 47
_symmetry_cell_setting 'orthorhombic'
loop_
_space_group_symop_operation_xyz
x,y,z
-x,-y,z
x,-y,-z
-x,y,-z
-x,-y,-z
x,y,-z
-x,y,z
x,-y,z
loop_
_atom_site_type_symbol
_atom_site_label
_atom_site_fract_x
_atom_site_fract_y
_atom_site_fract_z
Si Si1 0.574875 0.724395 0.203759
Si Si2 0.286442 0.790203 0.295987
Si Si3 0.205706 0.920818 0.705910
Si Si4 0.925491 0.332820 0.296197
Si Si5 0.924343 0.831127 0.207170
Si Si6 0.219739 0.354913 0.711851
Si Si7 0.358038 0.422498 0.709105
O O1 0.500000 0.736420 0.276344
O O2 0.634989 0.772592 0.275335
O O3 0.597082 0.643169 0.232058
O O4 0.573002 0.736962 0.000000
O O5 0.271913 0.791160 0.500000
O O6 0.259804 0.864076 0.223521
O O7 0.244948 0.722543 0.227530
O O8 0.216497 0.926521 0.500000
O O9 0.133211 0.884216 0.732934
O O10 0.208806 0.000000 0.778280
O O11 0.928503 0.349189 0.500000
O O12 0.915129 0.248214 0.278468
O O13 0.856655 0.367668 0.227192
O O14 0.000000 0.349144 0.221536
O O15 0.000000 0.854319 0.257327
O O16 0.921441 0.826126 0.000000
O O17 0.218274 0.354485 0.500000
O O18 0.280282 0.407114 0.761546
O O19 0.359569 0.421445 0.500000
O O20 0.379760 0.500000 0.768218
#
# Coordination Sequence:
#
# PCOD9384188 Si02
#       7
#     8   8   8   8   8   8   8
#     4  10  21  35  52  76 103 129 156 191 236 283
#     4   9  17  32  52  73  96 123 159 200 240 285
#     4  10  20  34  52  72  95 126 164 205 248 292
#     4   9  15  25  44  66  89 121 163 208 249 286
#     4  10  20  31  43  64  97 132 165 204 248 292
#     4   8  13  25  45  67  90 119 158 201 240 276
#     4   9  18  32  50  72 100 134 166 196 234 282
#
# _framework density 19.302026000000001
#
# number of rings (size 3 to 8) (size 9 to 14) (size 15 to 20)
#    0.000    2.714    1.429    1.714    0.000    3.714 
#    0.000    2.857    0.000    0.857    0.000    6.000 
#    0.000    0.000    0.000    7.286    0.000    8.571 
#
# Total GULP energy -312135.039778 kJ/mol
# GULP energy per Si atom -5573.839996 kJ/mol
# Density = 1.925809 g / cm^3
# Si number density = 19.302026 Si / 1000 Ang^3
#
#
#
# Elastic Constant Matrix: (Units=GPa)
#
#
# Indices 1 2 3 4 5 6 
#
# 1 110.7156 11.0805 -14.1859 0.0000 0.0000 0.0000
# 2 11.0805 26.1503 -4.3615 0.0000 0.0000 0.0000
# 3 -14.1859 -4.3615 26.1306 0.0000 0.0000 0.0000
# 4 0.0000 0.0000 0.0000 -12.1896 0.0000 0.0000
# 5 0.0000 0.0000 0.0000 0.0000 32.2061 0.0000
# 6 0.0000 0.0000 0.0000 0.0000 0.0000 18.3970
#
#
#
# Elastic Compliance Matrix: (Units=1/GPa)
#
#
# Indices 1 2 3 4 5 6 
#
# 1 0.009997 -0.003426 0.004855 0.000000 0.000000 0.000000
# 2 -0.003426 0.040510 0.004902 0.000000 0.000000 0.000000
# 3 0.004855 0.004902 0.041723 0.000000 0.000000 0.000000
# 4 0.000000 0.000000 0.000000 -0.082037 0.000000 0.000000
# 5 0.000000 0.000000 0.000000 0.000000 0.031050 0.000000
# 6 0.000000 0.000000 0.000000 0.000000 0.000000 0.054357
#
#
# Mechanical properties :
#
#
# Convention : Reuss Voigt Hill
#
# Bulk Modulus (GPa) = 9.53362 16.45139 12.99250
# Shear Modulus (GPa) = 42.40807 19.04694 30.72751
#
# Velocity S-wave (km/s) = 4.69239 3.14472 3.99423
# Velocity P-wave (km/s) = 5.85729 4.66126 5.29317
#
# Compressibility (1/GPa) = 0.10489196
#
# Stress axis : x y z
#
# Youngs Moduli (GPa) = 100.02821 24.68536 23.96735
#
# Poissons Ratio (x) = 0.08458 -0.11637
# Poissons Ratio (y) = 0.34272 -0.11748
# Poissons Ratio (z) = -0.48568 -0.12100
#
# Static dielectric constant tensor:
#      x y z
#    x 1.709750 0.000000 0.000000 
#    y 0.000000 1.666230 0.000000 
#    z 0.000000 0.000000 1.733250 
# 
# From -- ./inp_files/11524.got.cif
#   From: 2010.05.17/outbox.cif.g08.bks.cpg/sg47_6_cif.got.tgz:11524.got - 2010.06.03 20:15:42.
