data_PCOD9384283
_publ_section_title
;
Structure prediction by ZEFSAII (Michael W. Deem and Ramdas Pophale) SiO2 
 PCOD9384283
Probable space group: P M M M
;
_chemical_formula_sum "Si O2"
_cell_formula_units_Z 48
_cell_length_a 31.869765
_cell_length_b 9.469425
_cell_length_c 9.370883
_cell_angle_alpha 90.000000
_cell_angle_beta 90.000000
_cell_angle_gamma 90.000000
_cell_volume 2828.023313
_symmetry_space_group_name_H-M "P M M M"
_symmetry_group_IT_number 47
_symmetry_cell_setting 'orthorhombic'
loop_
_space_group_symop_operation_xyz
x,y,z
-x,-y,z
x,-y,-z
-x,y,-z
-x,-y,-z
x,y,-z
-x,y,z
x,-y,z
loop_
_atom_site_type_symbol
_atom_site_label
_atom_site_fract_x
_atom_site_fract_y
_atom_site_fract_z
Si Si1 0.297556 0.337940 0.173487
Si Si2 0.046794 0.171557 0.834490
Si Si3 0.620854 0.834526 0.828203
Si Si4 0.548264 0.333151 0.329605
Si Si5 0.796989 0.669518 0.168945
Si Si6 0.129766 0.830758 0.331357
O O1 0.304797 0.500000 0.219443
O O2 0.335620 0.238849 0.218567
O O3 0.250573 0.293457 0.216044
O O4 0.296996 0.338954 0.000000
O O5 0.085649 0.216726 0.738197
O O6 0.000000 0.218509 0.789942
O O7 0.046280 0.000000 0.830952
O O8 0.053239 0.212384 0.000000
O O9 0.581942 0.757461 0.754769
O O10 0.621231 0.000000 0.794662
O O11 0.617738 0.819010 0.000000
O O12 0.552965 0.313270 0.500000
O O13 0.500000 0.297383 0.292444
O O14 0.554286 0.500000 0.300288
O O15 0.801172 0.500000 0.184683
O O16 0.832064 0.751250 0.256051
O O17 0.801144 0.701438 0.000000
O O18 0.129596 0.805137 0.500000
O O19 0.133726 0.000000 0.308226
#
# Coordination Sequence:
#
# PCOD9384283 Si02
#       6
#     8   8   8   8   8   8
#     4   8  15  30  51  72  94 123 161 202 241 284
#     4   8  14  26  45  68  93 123 161 202 241 283
#     4  10  20  32  49  77 108 132 157 195 245 297
#     4   9  19  36  55  73  95 128 171 211 243 282
#     4   9  18  33  53  74  94 122 163 205 243 286
#     4  10  20  31  45  70 102 132 161 195 239 290
#
# _framework density 16.972985999999999
#
# number of rings (size 3 to 8) (size 9 to 14) (size 15 to 20)
#    0.000    3.000    0.000    3.000    0.000    4.333 
#    0.000    6.667    0.000    1.500    0.000    3.500 
#    0.000    0.000    0.000    0.000    0.000    0.000 
#
# Total GULP energy -267486.262305 kJ/mol
# GULP energy per Si atom -5572.630465 kJ/mol
# Density = 1.693436 g / cm^3
# Si number density = 16.972986 Si / 1000 Ang^3
#
#
#
# Elastic Constant Matrix: (Units=GPa)
#
#
# Indices 1 2 3 4 5 6 
#
# 1 208.1638 94.9813 82.7506 0.0000 0.0000 0.0000
# 2 94.9813 59.8263 49.2632 0.0000 0.0000 0.0000
# 3 82.7506 49.2632 51.2439 0.0000 0.0000 0.0000
# 4 0.0000 0.0000 0.0000 22.9629 0.0000 0.0000
# 5 0.0000 0.0000 0.0000 0.0000 -16.0628 0.0000
# 6 0.0000 0.0000 0.0000 0.0000 0.0000 31.4294
#
#
#
# Elastic Compliance Matrix: (Units=1/GPa)
#
#
# Indices 1 2 3 4 5 6 
#
# 1 0.018038 -0.022323 -0.007668 0.000000 0.000000 0.000000
# 2 -0.022323 0.107836 -0.067620 0.000000 0.000000 0.000000
# 3 -0.007668 -0.067620 0.096903 0.000000 0.000000 0.000000
# 4 0.000000 0.000000 0.000000 0.043549 0.000000 0.000000
# 5 0.000000 0.000000 0.000000 0.000000 -0.062256 0.000000
# 6 0.000000 0.000000 0.000000 0.000000 0.000000 0.031817
#
#
# Mechanical properties :
#
#
# Convention : Reuss Voigt Hill
#
# Bulk Modulus (GPa) = 36.29060 85.91380 61.10220
# Shear Modulus (GPa) = 11.35608 13.81516 12.58562
#
# Velocity S-wave (km/s) = 2.58944 2.85608 2.72602
# Velocity P-wave (km/s) = 5.51072 7.84883 6.78130
#
# Compressibility (1/GPa) = 0.02755535
#
# Stress axis : x y z
#
# Youngs Moduli (GPa) = 55.43986 9.27333 10.31962
#
# Poissons Ratio (x) = 0.20701 0.07913
# Poissons Ratio (y) = 1.23758 0.69781
# Poissons Ratio (z) = 0.42510 0.62706
#
# Static dielectric constant tensor:
#      x y z
#    x 1.572180 0.000000 0.000000 
#    y 0.000000 1.561680 0.000000 
#    z 0.000000 0.000000 1.557220 
# 
# From -- ./inp_files/2472.got.cif
#   From: 2010.05.17/outbox.cif.g08.bks.cpg/sg47_2_cif.got.tgz:2472.got - 2010.06.03 20:15:42.
