data_PCOD9384296
_publ_section_title
;
Structure prediction by ZEFSAII (Michael W. Deem and Ramdas Pophale) SiO2 
 PCOD9384296
Probable space group: P M M M
;
_chemical_formula_sum "Si O2"
_cell_formula_units_Z 44
_cell_length_a 31.674482
_cell_length_b 7.480974
_cell_length_c 8.516728
_cell_angle_alpha 90.000000
_cell_angle_beta 90.000000
_cell_angle_gamma 90.000000
_cell_volume 2018.089598
_symmetry_space_group_name_H-M "P M M M"
_symmetry_group_IT_number 47
_symmetry_cell_setting 'orthorhombic'
loop_
_space_group_symop_operation_xyz
x,y,z
-x,-y,z
x,-y,-z
-x,y,-z
-x,-y,-z
x,y,-z
-x,y,z
x,-y,z
loop_
_atom_site_type_symbol
_atom_site_label
_atom_site_fract_x
_atom_site_fract_y
_atom_site_fract_z
Si Si1 0.545750 0.217862 0.316522
Si Si2 0.192907 0.704747 0.187333
Si Si3 0.901645 0.718875 0.817162
Si Si4 0.278737 0.296774 0.314404
Si Si5 0.632663 0.788641 0.172882
Si Si6 0.951128 0.282280 0.500000
O O1 0.546914 0.264952 0.500000
O O2 0.500000 0.275420 0.251047
O O3 0.588803 0.285341 0.239703
O O4 0.545890 0.000000 0.309047
O O5 0.191848 0.500000 0.250950
O O6 0.146415 0.779952 0.218684
O O7 0.236161 0.790588 0.247575
O O8 0.196027 0.696841 0.000000
O O9 0.901574 0.500000 0.820792
O O10 0.929706 0.773227 0.666447
O O11 0.912488 0.771692 0.000000
O O12 0.274455 0.296587 0.500000
O O13 0.278786 0.500000 0.252616
O O14 0.324958 0.228419 0.272557
O O15 0.625407 0.000000 0.160860
O O16 0.641134 0.715888 0.000000
O O17 0.949133 0.500000 0.500000
O O18 0.000000 0.228958 0.500000
#
# Coordination Sequence:
#
# PCOD9384296 Si02
#       6
#     8   8   8   8   8   4
#     4   8  14  26  45  67  89 114 145 181 219 260
#     4   8  14  25  40  57  77 103 137 179 223 262
#     4   8  14  23  34  48  68  97 133 175 221 265
#     4  10  20  31  46  68  90 116 151 190 230 271
#     4  10  20  32  47  68  94 123 151 181 222 270
#     4   9  16  22  30  46  68  98 135 177 222 265
#
# _framework density 21.802800999999999
#
# number of rings (size 3 to 8) (size 9 to 14) (size 15 to 20)
#    0.000    3.182    0.000    2.727    1.273    2.909 
#    0.000    3.636    0.000    0.545    0.000    3.818 
#    0.000    0.000    0.000    0.000    0.000    1.818 
#
# Total GULP energy -245054.871492 kJ/mol
# GULP energy per Si atom -5569.428898 kJ/mol
# Density = 2.175318 g / cm^3
# Si number density = 21.802801 Si / 1000 Ang^3
#
#
#
# Elastic Constant Matrix: (Units=GPa)
#
#
# Indices 1 2 3 4 5 6 
#
# 1 212.7166 9.3008 95.5397 0.0000 0.0000 0.0000
# 2 9.3008 56.8652 6.5511 0.0000 0.0000 0.0000
# 3 95.5397 6.5511 82.8714 0.0000 0.0000 0.0000
# 4 0.0000 0.0000 0.0000 -1.7831 0.0000 0.0000
# 5 0.0000 0.0000 0.0000 0.0000 -70.5489 0.0000
# 6 0.0000 0.0000 0.0000 0.0000 0.0000 0.4639
#
#
#
# Elastic Compliance Matrix: (Units=1/GPa)
#
#
# Indices 1 2 3 4 5 6 
#
# 1 0.009754 -0.000303 -0.011222 0.000000 0.000000 0.000000
# 2 -0.000303 0.017756 -0.001055 0.000000 0.000000 0.000000
# 3 -0.011222 -0.001055 0.025087 0.000000 0.000000 0.000000
# 4 0.000000 0.000000 0.000000 -0.560807 0.000000 0.000000
# 5 0.000000 0.000000 0.000000 0.000000 -0.014175 0.000000
# 6 0.000000 0.000000 0.000000 0.000000 0.000000 2.155484
#
#
# Mechanical properties :
#
#
# Convention : Reuss Voigt Hill
#
# Bulk Modulus (GPa) = 36.44300 63.91515 50.17907
# Shear Modulus (GPa) = 2.99867 1.69715 2.34791
#
# Velocity S-wave (km/s) = 1.17403 0.88323 1.03886
# Velocity P-wave (km/s) = 4.31149 5.51533 4.95014
#
# Compressibility (1/GPa) = 0.02744012
#
# Stress axis : x y z
#
# Youngs Moduli (GPa) = 102.51780 56.31752 39.86085
#
# Poissons Ratio (x) = 0.01704 0.44730
# Poissons Ratio (y) = 0.03103 0.04204
# Poissons Ratio (z) = 1.15041 0.05940
#
# Static dielectric constant tensor:
#      x y z
#    x 1.820110 0.000000 0.000000 
#    y 0.000000 1.688890 0.000000 
#    z 0.000000 0.000000 1.767120 
# 
# From -- ./inp_files/13586.got.cif
#   From: 2010.05.17/outbox.cif.g08.bks.cpg/sg47_7_cif.got.tgz:13586.got - 2010.06.03 20:15:42.
