data_PCOD9384420
_publ_section_title
;
Structure prediction by ZEFSAII (Michael W. Deem and Ramdas Pophale) SiO2 
 PCOD9384420
Probable space group: P M M M
;
_chemical_formula_sum "Si O2"
_cell_formula_units_Z 44
_cell_length_a 9.429961
_cell_length_b 7.367598
_cell_length_c 30.107635
_cell_angle_alpha 90.000000
_cell_angle_beta 90.000000
_cell_angle_gamma 90.000000
_cell_volume 2091.762921
_symmetry_space_group_name_H-M "P M M M"
_symmetry_group_IT_number 47
_symmetry_cell_setting 'orthorhombic'
loop_
_space_group_symop_operation_xyz
x,y,z
-x,-y,z
x,-y,-z
-x,y,-z
-x,-y,-z
x,y,-z
-x,y,z
x,-y,z
loop_
_atom_site_type_symbol
_atom_site_label
_atom_site_fract_x
_atom_site_fract_y
_atom_site_fract_z
Si Si1 0.172449 0.211455 0.000000
Si Si2 0.330265 0.281464 0.452254
Si Si3 0.160202 0.283094 0.729713
Si Si4 0.164568 0.777723 0.903027
Si Si5 0.660114 0.783016 0.818144
Si Si6 0.665141 0.278150 0.644751
O O1 0.214886 0.285415 0.048137
O O2 0.000000 0.217402 0.000000
O O3 0.214751 0.000000 0.000000
O O4 0.274602 0.213859 0.500000
O O5 0.500000 0.247748 0.452028
O O6 0.312686 0.500000 0.452708
O O7 0.279792 0.218480 0.403909
O O8 0.151473 0.500000 0.724585
O O9 0.249370 0.250483 0.774086
O O10 0.242354 0.215094 0.686160
O O11 0.000000 0.212893 0.733529
O O12 0.259389 0.715855 0.862053
O O13 0.000000 0.725409 0.896653
O O14 0.165791 0.000000 0.904002
O O15 0.500000 0.712980 0.813919
O O16 0.651614 0.000000 0.823047
O O17 0.500000 0.225131 0.649838
O O18 0.665912 0.500000 0.644510
#
# Coordination Sequence:
#
# PCOD9384420 Si02
#       6
#     4   8   8   8   8   8
#     4   7  10  18  35  59  84 111 142 171 202 246
#     4   7   9  14  27  49  75 102 133 167 203 246
#     4  10  20  32  46  64  86 115 151 186 219 259
#     4   8  13  23  40  61  86 115 144 174 209 250
#     4  10  20  32  46  66  91 117 146 181 221 262
#     4   8  13  22  37  56  79 108 140 175 214 252
#
# _framework density 21.034886
#
# number of rings (size 3 to 8) (size 9 to 14) (size 15 to 20)
#    0.000    3.545    0.000    3.818    0.000    2.182 
#    0.000    0.455    0.000    3.273    0.000    4.455 
#    0.000    5.818    0.000    8.364    0.000    9.636 
#
# Total GULP energy -245224.917562 kJ/mol
# GULP energy per Si atom -5573.293581 kJ/mol
# Density = 2.098701 g / cm^3
# Si number density = 21.034886 Si / 1000 Ang^3
#
#
#
# Elastic Constant Matrix: (Units=GPa)
#
#
# Indices 1 2 3 4 5 6 
#
# 1 117.8887 4.9385 118.3595 0.0000 0.0000 0.0000
# 2 4.9385 74.0388 6.1892 0.0000 0.0000 0.0000
# 3 118.3595 6.1892 280.7643 0.0000 0.0000 0.0000
# 4 0.0000 0.0000 0.0000 8.1560 0.0000 0.0000
# 5 0.0000 0.0000 0.0000 0.0000 35.0349 0.0000
# 6 0.0000 0.0000 0.0000 0.0000 0.0000 -0.6262
#
#
#
# Elastic Compliance Matrix: (Units=1/GPa)
#
#
# Indices 1 2 3 4 5 6 
#
# 1 0.014723 -0.000464 -0.006197 0.000000 0.000000 0.000000
# 2 -0.000464 0.013546 -0.000103 0.000000 0.000000 0.000000
# 3 -0.006197 -0.000103 0.006176 0.000000 0.000000 0.000000
# 4 0.000000 0.000000 0.000000 0.122609 0.000000 0.000000
# 5 0.000000 0.000000 0.000000 0.000000 0.028543 0.000000
# 6 0.000000 0.000000 0.000000 0.000000 0.000000 -1.597046
#
#
# Mechanical properties :
#
#
# Convention : Reuss Voigt Hill
#
# Bulk Modulus (GPa) = 47.80501 81.29624 64.55063
# Shear Modulus (GPa) = -3.59467 31.39325 13.89929
#
# Velocity S-wave (km/s) = -1.30867 3.86740 2.57334
# Velocity P-wave (km/s) = 4.52685 7.65993 6.29154
#
# Compressibility (1/GPa) = 0.02091831
#
# Stress axis : x y z
#
# Youngs Moduli (GPa) = 67.91937 73.82257 161.91148
#
# Poissons Ratio (x) = 0.03426 1.00330
# Poissons Ratio (y) = 0.03152 0.01667
# Poissons Ratio (z) = 0.42087 0.00760
#
# Static dielectric constant tensor:
#      x y z
#    x 1.750550 0.000000 0.000000 
#    y 0.000000 1.904400 0.000000 
#    z 0.000000 0.000000 1.779540 
# 
# From -- ./inp_files/2148.got.cif
#   From: 2010.05.17/outbox.cif.g08.bks.cpg/sg47_2_cif.got.tgz:2148.got - 2010.06.03 20:15:42.
