data_PCOD9384423
_publ_section_title
;
Structure prediction by ZEFSAII (Michael W. Deem and Ramdas Pophale) SiO2 
 PCOD9384423
Probable space group: P M M M
;
_chemical_formula_sum "Si O2"
_cell_formula_units_Z 56
_cell_length_a 20.953901
_cell_length_b 8.355017
_cell_length_c 16.019946
_cell_angle_alpha 90.000000
_cell_angle_beta 90.000000
_cell_angle_gamma 90.000000
_cell_volume 2804.615135
_symmetry_space_group_name_H-M "P M M M"
_symmetry_group_IT_number 47
_symmetry_cell_setting 'orthorhombic'
loop_
_space_group_symop_operation_xyz
x,y,z
-x,-y,z
x,-y,-z
-x,y,-z
-x,-y,-z
x,y,-z
-x,y,z
x,-y,z
loop_
_atom_site_type_symbol
_atom_site_label
_atom_site_fract_x
_atom_site_fract_y
_atom_site_fract_z
Si Si1 0.680424 0.684911 0.593484
Si Si2 0.930398 0.686448 0.685380
Si Si3 0.784803 0.807410 0.908601
Si Si4 0.929833 0.806949 0.870416
Si Si5 0.573869 0.806992 0.904012
Si Si6 0.680892 0.689808 0.220898
Si Si7 0.185920 0.177326 0.593708
O O1 0.663677 0.753485 0.500000
O O2 0.659368 0.500000 0.591776
O O3 0.664438 0.754927 0.685482
O O4 0.757205 0.697198 0.598115
O O5 0.920951 0.500000 0.665308
O O6 0.931870 0.713666 0.783753
O O7 0.871840 0.787548 0.653209
O O8 0.000000 0.736467 0.652027
O O9 0.860323 0.765665 0.907074
O O10 0.744382 0.749117 0.828539
O O11 0.780422 0.000000 0.907073
O O12 0.759082 0.753198 0.000000
O O13 0.000000 0.775843 0.910297
O O14 0.927902 0.000000 0.857462
O O15 0.500000 0.766951 0.886083
O O16 0.622770 0.730187 0.840262
O O17 0.580171 0.000000 0.899483
O O18 0.587246 0.760538 0.000000
O O19 0.688427 0.500000 0.230604
O O20 0.160204 0.181330 0.500000
O O21 0.213461 0.000000 0.608921
#
# Coordination Sequence:
#
# PCOD9384423 Si02
#       7
#     8   8   8   8   8   8   8
#     4   9  19  36  55  75 103 139 176 214 259 312
#     4  10  20  32  46  64  87 118 157 201 254 320
#     4  10  21  35  51  74 106 143 179 217 267 326
#     4   9  18  33  52  71  92 124 170 222 268 309
#     4   9  19  37  60  85 115 152 188 218 256 312
#     4  11  22  34  54  84 113 142 179 224 269 312
#     4  10  20  32  47  68  92 119 157 208 263 315
#
# _framework density 19.967089999999999
#
# number of rings (size 3 to 8) (size 9 to 14) (size 15 to 20)
#    0.000    2.286    0.000    3.000    0.000    8.857 
#    0.000    3.571    0.000    0.429    0.000    6.000 
#    0.000    0.000    0.000    0.000    0.000    0.000 
#
# Total GULP energy -311831.015049 kJ/mol
# GULP energy per Si atom -5568.410983 kJ/mol
# Density = 1.992164 g / cm^3
# Si number density = 19.967090 Si / 1000 Ang^3
#
#
#
# Elastic Constant Matrix: (Units=GPa)
#
#
# Indices 1 2 3 4 5 6 
#
# 1 69.9094 10.5803 49.8603 0.0000 0.0000 0.0000
# 2 10.5803 11.2296 17.8504 0.0000 0.0000 0.0000
# 3 49.8603 17.8504 118.8863 0.0000 0.0000 0.0000
# 4 0.0000 0.0000 0.0000 10.5210 0.0000 0.0000
# 5 0.0000 0.0000 0.0000 0.0000 29.9580 0.0000
# 6 0.0000 0.0000 0.0000 0.0000 0.0000 10.6597
#
#
#
# Elastic Compliance Matrix: (Units=1/GPa)
#
#
# Indices 1 2 3 4 5 6 
#
# 1 0.020886 -0.007559 -0.007625 0.000000 0.000000 0.000000
# 2 -0.007559 0.119703 -0.014803 0.000000 0.000000 0.000000
# 3 -0.007625 -0.014803 0.013832 0.000000 0.000000 0.000000
# 4 0.000000 0.000000 0.000000 0.095048 0.000000 0.000000
# 5 0.000000 0.000000 0.000000 0.000000 0.033380 0.000000
# 6 0.000000 0.000000 0.000000 0.000000 0.000000 0.093811
#
#
# Mechanical properties :
#
#
# Convention : Reuss Voigt Hill
#
# Bulk Modulus (GPa) = 10.58777 39.62306 25.10541
# Shear Modulus (GPa) = 10.68112 18.34336 14.51224
#
# Velocity S-wave (km/s) = 2.31538 3.03426 2.69886
# Velocity P-wave (km/s) = 3.53017 5.67124 4.72361
#
# Compressibility (1/GPa) = 0.09444862
#
# Stress axis : x y z
#
# Youngs Moduli (GPa) = 47.87856 8.35399 72.29719
#
# Poissons Ratio (x) = 0.06314 0.55124
# Poissons Ratio (y) = 0.36189 1.07022
# Poissons Ratio (z) = 0.36506 0.12367
#
# Static dielectric constant tensor:
#      x y z
#    x 1.688160 0.000000 0.000000 
#    y 0.000000 1.714040 0.000000 
#    z 0.000000 0.000000 1.786410 
# 
# From -- ./inp_files/7315.got.cif
#   From: 2010.05.17/outbox.cif.g08.bks.cpg/sg47_4_cif.got.tgz:7315.got - 2010.06.03 20:15:42.
