data_PCOD9384585
_publ_section_title
;
Structure prediction by ZEFSAII (Michael W. Deem and Ramdas Pophale) SiO2 
 PCOD9384585
Probable space group: P M M M
;
_chemical_formula_sum "Si O2"
_cell_formula_units_Z 48
_cell_length_a 14.971048
_cell_length_b 9.873745
_cell_length_c 18.606821
_cell_angle_alpha 90.000000
_cell_angle_beta 90.000000
_cell_angle_gamma 90.000000
_cell_volume 2750.466055
_symmetry_space_group_name_H-M "P M M M"
_symmetry_group_IT_number 47
_symmetry_cell_setting 'orthorhombic'
loop_
_space_group_symop_operation_xyz
x,y,z
-x,-y,z
x,-y,-z
-x,y,-z
-x,-y,-z
x,y,-z
-x,y,z
x,-y,z
loop_
_atom_site_type_symbol
_atom_site_label
_atom_site_fract_x
_atom_site_fract_y
_atom_site_fract_z
Si Si1 0.856338 0.342161 0.582099
Si Si2 0.896377 0.840171 0.721979
Si Si3 0.738220 0.843709 0.825284
Si Si4 0.596086 0.854030 0.300313
Si Si5 0.640699 0.344079 0.422503
Si Si6 0.603369 0.341194 0.086481
O O1 0.885158 0.303425 0.500000
O O2 0.883327 0.500000 0.593327
O O3 0.884007 0.247194 0.648772
O O4 0.748429 0.339410 0.581326
O O5 0.831907 0.798903 0.788547
O O6 0.000000 0.829898 0.742813
O O7 0.876145 0.000000 0.707163
O O8 0.673490 0.845441 0.756586
O O9 0.683101 0.748316 0.879756
O O10 0.747053 0.000000 0.851840
O O11 0.500000 0.848777 0.263197
O O12 0.602670 0.738054 0.357550
O O13 0.603541 0.000000 0.337661
O O14 0.613400 0.288760 0.500000
O O15 0.614179 0.500000 0.418612
O O16 0.500000 0.302035 0.106030
O O17 0.614067 0.500000 0.106985
O O18 0.608261 0.332853 0.000000
#
# Coordination Sequence:
#
# PCOD9384585 Si02
#       6
#     8   8   8   8   8   8
#     4   9  18  33  52  73  98 130 172 224 277 324
#     4  10  21  36  54  77 104 136 177 223 269 316
#     4  10  20  35  54  77 107 140 172 211 257 306
#     4  10  20  32  47  70  98 129 168 210 253 305
#     4   9  18  32  48  66  91 126 169 214 258 307
#     4   9  19  36  58  86 117 144 171 205 246 296
#
# _framework density 17.451588000000001
#
# number of rings (size 3 to 8) (size 9 to 14) (size 15 to 20)
#    0.000    2.500    1.667    2.000    0.000    4.667 
#    0.000    5.833    0.000    0.500    0.000    3.500 
#    0.000    0.000    0.000    0.000    0.000    0.000 
#
# Total GULP energy -267247.630692 kJ/mol
# GULP energy per Si atom -5567.658973 kJ/mol
# Density = 1.741187 g / cm^3
# Si number density = 17.451588 Si / 1000 Ang^3
#
#
#
# Elastic Constant Matrix: (Units=GPa)
#
#
# Indices 1 2 3 4 5 6 
#
# 1 101.2169 33.2989 34.0672 0.0000 0.0000 0.0000
# 2 33.2989 64.3947 46.6420 0.0000 0.0000 0.0000
# 3 34.0672 46.6420 63.3501 0.0000 0.0000 0.0000
# 4 0.0000 0.0000 0.0000 35.4975 0.0000 0.0000
# 5 0.0000 0.0000 0.0000 0.0000 9.1078 0.0000
# 6 0.0000 0.0000 0.0000 0.0000 0.0000 19.6411
#
#
#
# Elastic Compliance Matrix: (Units=1/GPa)
#
#
# Indices 1 2 3 4 5 6 
#
# 1 0.012399 -0.003390 -0.004172 0.000000 0.000000 0.000000
# 2 -0.003390 0.034200 -0.023357 0.000000 0.000000 0.000000
# 3 -0.004172 -0.023357 0.035226 0.000000 0.000000 0.000000
# 4 0.000000 0.000000 0.000000 0.028171 0.000000 0.000000
# 5 0.000000 0.000000 0.000000 0.000000 0.109796 0.000000
# 6 0.000000 0.000000 0.000000 0.000000 0.000000 0.050914
#
#
# Mechanical properties :
#
#
# Convention : Reuss Voigt Hill
#
# Bulk Modulus (GPa) = 50.03256 50.77533 50.40394
# Shear Modulus (GPa) = 14.74033 20.51285 17.62659
#
# Velocity S-wave (km/s) = 2.90942 3.43215 3.18154
# Velocity P-wave (km/s) = 6.32597 6.69808 6.51469
#
# Compressibility (1/GPa) = 0.01998698
#
# Stress axis : x y z
#
# Youngs Moduli (GPa) = 80.65052 29.23971 28.38835
#
# Poissons Ratio (x) = 0.09912 0.11844
# Poissons Ratio (y) = 0.27339 0.66307
# Poissons Ratio (z) = 0.33647 0.68296
#
# Static dielectric constant tensor:
#      x y z
#    x 1.630470 0.000000 0.000000 
#    y 0.000000 1.613640 0.000000 
#    z 0.000000 0.000000 1.568680 
# 
# From -- ./inp_files/6377.got.cif
#   From: 2010.05.17/outbox.cif.g08.bks.cpg/sg47_4_cif.got.tgz:6377.got - 2010.06.03 20:15:42.
