data_PCOD9384412
_publ_section_title
;
Structure prediction by ZEFSAII (Michael W. Deem and Ramdas Pophale) SiO2 
 PCOD9384412
Probable space group: P M M M
;
_chemical_formula_sum "Si O2"
_cell_formula_units_Z 32
_cell_length_a 7.432320
_cell_length_b 21.512402
_cell_length_c 9.382227
_cell_angle_alpha 90.000000
_cell_angle_beta 90.000000
_cell_angle_gamma 90.000000
_cell_volume 1500.096650
_symmetry_space_group_name_H-M "P M M M"
_symmetry_group_IT_number 47
_symmetry_cell_setting 'orthorhombic'
loop_
_space_group_symop_operation_xyz
x,y,z
-x,-y,z
x,-y,-z
-x,y,-z
-x,-y,-z
x,y,-z
-x,y,z
x,-y,z
loop_
_atom_site_type_symbol
_atom_site_label
_atom_site_fract_x
_atom_site_fract_y
_atom_site_fract_z
Si Si1 0.780451 0.000000 0.335801
Si Si2 0.716609 0.634891 0.837327
Si Si3 0.220060 0.122530 0.164026
Si Si4 0.785796 0.758163 0.339157
Si Si5 0.707980 0.500000 0.826318
O O1 0.724254 0.061834 0.252180
O O2 0.722101 0.000000 0.500000
O O3 0.000000 0.000000 0.336882
O O4 0.500000 0.629539 0.844237
O O5 0.757996 0.692292 0.736647
O O6 0.785616 0.567218 0.786331
O O7 0.779724 0.646401 0.000000
O O8 0.282129 0.185193 0.242322
O O9 0.000000 0.122745 0.162774
O O10 0.277921 0.120167 0.000000
O O11 0.713616 0.759175 0.500000
O O12 0.000000 0.767405 0.348842
O O13 0.500000 0.500000 0.777983
O O14 0.708078 0.500000 0.000000
#
# Coordination Sequence:
#
# PCOD9384412 Si02
#       5
#     4   8   8   8   4
#     4   9  15  23  37  59  88 119 150 187 232 279
#     4   9  17  31  52  74  93 117 153 195 236 279
#     4   9  16  26  41  61  86 118 156 195 232 271
#     4  10  20  32  45  65  96 130 159 190 233 281
#     4   7  12  26  48  71  92 114 146 191 236 275
#
# _framework density 21.331961
#
# number of rings (size 3 to 8) (size 9 to 14) (size 15 to 20)
#    0.000    3.000    0.000    3.375    0.000    6.500 
#    0.000    1.250    0.000    6.000    0.000    0.875 
#    0.000    7.000    0.000    0.000    0.000    0.000 
#
# Total GULP energy -178597.613354 kJ/mol
# GULP energy per Si atom -5581.175417 kJ/mol
# Density = 2.128341 g / cm^3
# Si number density = 21.331961 Si / 1000 Ang^3
#
#
#
# Elastic Constant Matrix: (Units=GPa)
#
#
# Indices 1 2 3 4 5 6 
#
# 1 66.5766 1.3867 6.4236 0.0000 0.0000 0.0000
# 2 1.3867 245.5947 141.3384 0.0000 0.0000 0.0000
# 3 6.4236 141.3384 194.6893 0.0000 0.0000 0.0000
# 4 0.0000 0.0000 0.0000 -30.4482 0.0000 0.0000
# 5 0.0000 0.0000 0.0000 0.0000 20.2382 0.0000
# 6 0.0000 0.0000 0.0000 0.0000 0.0000 20.3651
#
#
#
# Elastic Compliance Matrix: (Units=1/GPa)
#
#
# Indices 1 2 3 4 5 6 
#
# 1 0.015085 0.000346 -0.000749 0.000000 0.000000 0.000000
# 2 0.000346 0.007002 -0.005094 0.000000 0.000000 0.000000
# 3 -0.000749 -0.005094 0.008859 0.000000 0.000000 0.000000
# 4 0.000000 0.000000 0.000000 -0.032843 0.000000 0.000000
# 5 0.000000 0.000000 0.000000 0.000000 0.049411 0.000000
# 6 0.000000 0.000000 0.000000 0.000000 0.000000 0.049104
#
#
# Mechanical properties :
#
#
# Convention : Reuss Voigt Hill
#
# Bulk Modulus (GPa) = 50.12114 89.46201 69.79157
# Shear Modulus (GPa) = 43.75839 25.87849 34.81844
#
# Velocity S-wave (km/s) = 4.53405 3.48678 4.04446
# Velocity P-wave (km/s) = 7.13841 7.63147 7.38905
#
# Compressibility (1/GPa) = 0.01995166
#
# Stress axis : x y z
#
# Youngs Moduli (GPa) = 66.28958 142.82559 112.87438
#
# Poissons Ratio (x) = -0.04937 0.08451
# Poissons Ratio (y) = -0.02292 0.57502
# Poissons Ratio (z) = 0.04963 0.72760
#
# Static dielectric constant tensor:
#      x y z
#    x 1.850430 0.000000 0.000000 
#    y 0.000000 1.757500 0.000000 
#    z 0.000000 0.000000 1.723470 
# 
# From -- ./inp_files/3627.got.cif
#   From: 2010.05.17/outbox.cif.g08.bks.cpg/sg47_2_cif.got.tgz:3627.got - 2010.06.03 20:15:42.
