data_PCOD9384605
_publ_section_title
;
Structure prediction by ZEFSAII (Michael W. Deem and Ramdas Pophale) SiO2 
 PCOD9384605
Probable space group: P M M M
;
_chemical_formula_sum "Si O2"
_cell_formula_units_Z 40
_cell_length_a 7.609355
_cell_length_b 26.794355
_cell_length_c 9.344450
_cell_angle_alpha 90.000000
_cell_angle_beta 90.000000
_cell_angle_gamma 90.000000
_cell_volume 1905.218971
_symmetry_space_group_name_H-M "P M M M"
_symmetry_group_IT_number 47
_symmetry_cell_setting 'orthorhombic'
loop_
_space_group_symop_operation_xyz
x,y,z
-x,-y,z
x,-y,-z
-x,y,-z
-x,-y,-z
x,y,-z
-x,y,z
x,-y,z
loop_
_atom_site_type_symbol
_atom_site_label
_atom_site_fract_x
_atom_site_fract_y
_atom_site_fract_z
Si Si1 0.211544 0.294368 0.662240
Si Si2 0.709950 0.099583 0.337939
Si Si3 0.289198 0.194710 0.837628
Si Si4 0.790632 0.000000 0.837580
Si Si5 0.784486 0.608848 0.833834
Si Si6 0.795581 0.500000 0.174170
O O1 0.277309 0.289184 0.500000
O O2 0.254024 0.246090 0.756031
O O3 0.274637 0.345005 0.738180
O O4 0.000000 0.297852 0.656345
O O5 0.779624 0.096035 0.500000
O O6 0.500000 0.106037 0.348996
O O7 0.779853 0.147596 0.252493
O O8 0.738957 0.049331 0.248973
O O9 0.500000 0.189179 0.846272
O O10 0.220703 0.195526 0.000000
O O11 0.000000 0.000000 0.846764
O O12 0.719200 0.000000 0.000000
O O13 0.721905 0.553989 0.783843
O O14 0.000000 0.607554 0.831942
O O15 0.734194 0.616227 0.000000
O O16 0.000000 0.500000 0.219056
O O17 0.793232 0.500000 0.000000
#
# Coordination Sequence:
#
# PCOD9384605 Si02
#       6
#     8   8   8   4   8   4
#     4  10  20  32  47  71 103 136 168 204 251 305
#     4  10  21  38  60  83 106 135 171 210 254 302
#     4  10  21  37  57  79 101 130 171 214 254 299
#     4  11  24  39  56  82 114 145 176 209 246 290
#     4   8  13  23  40  62  90 125 164 205 248 295
#     4   7  10  18  35  59  86 119 160 203 246 292
#
# _framework density 20.994962000000001
#
# number of rings (size 3 to 8) (size 9 to 14) (size 15 to 20)
#    0.000    2.600    0.000    3.600    0.000    6.400 
#    0.000    0.500    0.000    3.000    0.000    0.700 
#    0.000    5.600    0.000    0.000    0.000    0.000 
#
# Total GULP energy -223299.260096 kJ/mol
# GULP energy per Si atom -5582.481502 kJ/mol
# Density = 2.094718 g / cm^3
# Si number density = 20.994962 Si / 1000 Ang^3
#
#
#
# Elastic Constant Matrix: (Units=GPa)
#
#
# Indices 1 2 3 4 5 6 
#
# 1 44.2307 -0.4340 8.6634 0.0000 0.0000 0.0000
# 2 -0.4340 238.4388 135.3905 0.0000 0.0000 0.0000
# 3 8.6634 135.3905 200.2727 0.0000 0.0000 0.0000
# 4 0.0000 0.0000 0.0000 304.0823 0.0000 0.0000
# 5 0.0000 0.0000 0.0000 0.0000 12.9026 0.0000
# 6 0.0000 0.0000 0.0000 0.0000 0.0000 22.4464
#
#
#
# Elastic Compliance Matrix: (Units=1/GPa)
#
#
# Indices 1 2 3 4 5 6 
#
# 1 0.022943 0.000982 -0.001657 0.000000 0.000000 0.000000
# 2 0.000982 0.006849 -0.004673 0.000000 0.000000 0.000000
# 3 -0.001657 -0.004673 0.008224 0.000000 0.000000 0.000000
# 4 0.000000 0.000000 0.000000 0.003289 0.000000 0.000000
# 5 0.000000 0.000000 0.000000 0.000000 0.077504 0.000000
# 6 0.000000 0.000000 0.000000 0.000000 0.000000 0.044551
#
#
# Mechanical properties :
#
#
# Convention : Reuss Voigt Hill
#
# Bulk Modulus (GPa) = 36.60070 85.57578 61.08824
# Shear Modulus (GPa) = 27.29870 90.50777 58.90323
#
# Velocity S-wave (km/s) = 3.60981 6.57289 5.30253
# Velocity P-wave (km/s) = 5.90299 9.92232 8.16387
#
# Compressibility (1/GPa) = 0.02732188
#
# Stress axis : x y z
#
# Youngs Moduli (GPa) = 43.58660 146.00820 121.60024
#
# Poissons Ratio (x) = -0.14344 0.20144
# Poissons Ratio (y) = -0.04282 0.56819
# Poissons Ratio (z) = 0.07221 0.68224
#
# Static dielectric constant tensor:
#      x y z
#    x 1.813300 0.000000 0.000000 
#    y 0.000000 1.731450 0.000000 
#    z 0.000000 0.000000 1.736100 
# 
# From -- ./inp_files/1783.got.cif
#   From: 2010.05.17/outbox.cif.g08.bks.cpg/sg47_1_cif.got.tgz:1783.got - 2010.06.03 20:15:42.
