data_PCOD9384752
_publ_section_title
;
Structure prediction by ZEFSAII (Michael W. Deem and Ramdas Pophale) SiO2 
 PCOD9384752
Probable space group: P M M M
;
_chemical_formula_sum "Si O2"
_cell_formula_units_Z 46
_cell_length_a 18.409871
_cell_length_b 11.798938
_cell_length_c 12.815306
_cell_angle_alpha 90.000000
_cell_angle_beta 90.000000
_cell_angle_gamma 90.000000
_cell_volume 2783.701382
_symmetry_space_group_name_H-M "P M M M"
_symmetry_group_IT_number 47
_symmetry_cell_setting 'orthorhombic'
loop_
_space_group_symop_operation_xyz
x,y,z
-x,-y,z
x,-y,-z
-x,y,-z
-x,-y,-z
x,y,-z
-x,y,z
x,-y,z
loop_
_atom_site_type_symbol
_atom_site_label
_atom_site_fract_x
_atom_site_fract_y
_atom_site_fract_z
Si Si1 0.087580 0.000000 0.116185
Si Si2 0.719263 0.000000 0.000000
Si Si3 0.584343 0.628368 0.126066
Si Si4 0.083673 0.792622 0.267807
Si Si5 0.848747 0.366651 0.116894
Si Si6 0.781916 0.864545 0.615890
Si Si7 0.286883 0.793001 0.830627
O O1 0.105769 0.110303 0.182827
O O2 0.000000 0.000000 0.105216
O O3 0.122259 0.000000 0.000000
O O4 0.716141 0.899674 0.908212
O O5 0.500000 0.645797 0.155196
O O6 0.605705 0.500000 0.158632
O O7 0.637409 0.725831 0.165120
O O8 0.587933 0.630536 0.000000
O O9 0.096525 0.677178 0.205124
O O10 0.139744 0.808172 0.361074
O O11 0.000000 0.809872 0.295969
O O12 0.835423 0.500000 0.124546
O O13 0.774938 0.296566 0.133621
O O14 0.877039 0.341598 0.000000
O O15 0.755750 0.833830 0.500000
O O16 0.731926 0.828715 0.712457
O O17 0.791471 0.000000 0.619473
#
# Coordination Sequence:
#
# PCOD9384752 Si02
#       7
#     4   2   8   8   8   8   8
#     4   9  16  27  43  67  99 129 153 187 252 322
#     4  12  20  30  53  86 109 146 168 206 272 314
#     4   9  17  31  54  84 117 150 178 206 248 305
#     4  10  20  33  49  72  98 128 167 219 270 315
#     4  10  20  32  49  72 101 140 176 210 258 318
#     4  10  21  36  53  73 100 139 181 219 261 312
#     4  11  20  34  53  79 113 140 173 218 260 308
#
# _framework density 16.524761999999999
#
# number of rings (size 3 to 8) (size 9 to 14) (size 15 to 20)
#    0.000    2.000    3.478    1.565    0.000    3.130 
#    6.261    2.609    0.000   13.565    0.000    7.304 
#    0.000    0.000    0.000    0.000    0.000    0.000 
#
# Total GULP energy -256071.077950 kJ/mol
# GULP energy per Si atom -5566.762564 kJ/mol
# Density = 1.648715 g / cm^3
# Si number density = 16.524762 Si / 1000 Ang^3
#
#
#
# Elastic Constant Matrix: (Units=GPa)
#
#
# Indices 1 2 3 4 5 6 
#
# 1 64.0809 31.9802 30.6737 0.0000 0.0000 0.0000
# 2 31.9802 90.5693 41.1049 0.0000 0.0000 0.0000
# 3 30.6737 41.1049 114.7693 0.0000 0.0000 0.0000
# 4 0.0000 0.0000 0.0000 17.3753 0.0000 0.0000
# 5 0.0000 0.0000 0.0000 0.0000 8.6723 0.0000
# 6 0.0000 0.0000 0.0000 0.0000 0.0000 18.4023
#
#
#
# Elastic Compliance Matrix: (Units=1/GPa)
#
#
# Indices 1 2 3 4 5 6 
#
# 1 0.019971 -0.005528 -0.003358 0.000000 0.000000 0.000000
# 2 -0.005528 0.014714 -0.003793 0.000000 0.000000 0.000000
# 3 -0.003358 -0.003793 0.010969 0.000000 0.000000 0.000000
# 4 0.000000 0.000000 0.000000 0.057553 0.000000 0.000000
# 5 0.000000 0.000000 0.000000 0.000000 0.115310 0.000000
# 6 0.000000 0.000000 0.000000 0.000000 0.000000 0.054341
#
#
# Mechanical properties :
#
#
# Convention : Reuss Voigt Hill
#
# Bulk Modulus (GPa) = 49.26596 52.99302 51.12949
# Shear Modulus (GPa) = 16.39445 19.93402 18.16424
#
# Velocity S-wave (km/s) = 3.15320 3.47697 3.31904
# Velocity P-wave (km/s) = 6.56773 6.94677 6.75990
#
# Compressibility (1/GPa) = 0.02029799
#
# Stress axis : x y z
#
# Youngs Moduli (GPa) = 50.07176 67.96018 91.16718
#
# Poissons Ratio (x) = 0.37568 0.30612
# Poissons Ratio (y) = 0.27680 0.34576
# Poissons Ratio (z) = 0.16813 0.25775
#
# Static dielectric constant tensor:
#      x y z
#    x 1.581830 0.000000 0.000000 
#    y 0.000000 1.559290 0.000000 
#    z 0.000000 0.000000 1.554750 
# 
# From -- ./inp_files/18441.got.cif
#   From: 2010.05.17/outbox.cif.g08.bks.cpg/sg47_10_cif.got.tgz:18441.got - 2010.06.03 20:15:42.
