data_PCOD9384962
_publ_section_title
;
Structure prediction by ZEFSAII (Michael W. Deem and Ramdas Pophale) SiO2 
 PCOD9384962
Probable space group: P M M M
;
_chemical_formula_sum "Si O2"
_cell_formula_units_Z 52
_cell_length_a 29.067936
_cell_length_b 8.989827
_cell_length_c 12.079087
_cell_angle_alpha 90.000000
_cell_angle_beta 90.000000
_cell_angle_gamma 90.000000
_cell_volume 3156.455267
_symmetry_space_group_name_H-M "P M M M"
_symmetry_group_IT_number 47
_symmetry_cell_setting 'orthorhombic'
loop_
_space_group_symop_operation_xyz
x,y,z
-x,-y,z
x,-y,-z
-x,y,-z
-x,-y,-z
x,y,-z
-x,y,z
x,-y,z
loop_
_atom_site_type_symbol
_atom_site_label
_atom_site_fract_x
_atom_site_fract_y
_atom_site_fract_z
Si Si1 0.948083 0.178332 0.775474
Si Si2 0.860163 0.178517 0.629944
Si Si3 0.805254 0.680258 0.000000
Si Si4 0.087468 0.321336 0.000000
Si Si5 0.594043 0.670925 0.634527
Si Si6 0.500000 0.171994 0.364968
Si Si7 0.225121 0.321044 0.241772
Si Si8 0.310097 0.177626 0.368930
O O1 0.908819 0.216135 0.686670
O O2 0.936240 0.258035 0.890394
O O3 0.000000 0.215695 0.739879
O O4 0.946074 0.000000 0.792857
O O5 0.860111 0.213564 0.500000
O O6 0.819448 0.263075 0.692365
O O7 0.853045 0.000000 0.641384
O O8 0.858806 0.726399 0.000000
O O9 0.781139 0.726942 0.113807
O O10 0.805532 0.500000 0.000000
O O11 0.085615 0.500000 0.000000
O O12 0.592686 0.671023 0.500000
O O13 0.596815 0.500000 0.670889
O O14 0.546623 0.746758 0.671796
O O15 0.639916 0.760321 0.664808
O O16 0.500000 0.175333 0.500000
O O17 0.500000 0.000000 0.331787
O O18 0.226953 0.500000 0.246319
O O19 0.270037 0.252811 0.298492
O O20 0.303384 0.212122 0.500000
O O21 0.308760 0.000000 0.357246
#
# Coordination Sequence:
#
# PCOD9384962 Si02
#       8
#     8   8   4   4   8   4   8   8
#     4  10  21  36  54  77 103 130 162 200 241 289
#     4  10  21  36  53  74 100 130 163 198 239 289
#     4   9  20  36  54  75  98 123 155 200 247 292
#     4  11  20  36  57  78 102 128 159 199 247 294
#     4   9  16  26  41  63  92 130 175 215 250 293
#     4   9  15  23  37  59  91 132 173 214 259 299
#     4  11  21  36  55  74  97 126 162 202 247 297
#     4  10  20  33  48  70 102 135 167 205 249 297
#
# _framework density 16.474176
#
# number of rings (size 3 to 8) (size 9 to 14) (size 15 to 20)
#    0.000    2.077    1.538    2.538    0.000    7.385 
#    0.000    3.077    0.000    0.000    0.000    2.154 
#    0.000    0.615    0.000    6.615    0.000    5.077 
#
# Total GULP energy -290154.919525 kJ/mol
# GULP energy per Si atom -5579.902299 kJ/mol
# Density = 1.643668 g / cm^3
# Si number density = 16.474176 Si / 1000 Ang^3
#
#
#
# Elastic Constant Matrix: (Units=GPa)
#
#
# Indices 1 2 3 4 5 6 
#
# 1 175.7742 65.4040 70.2037 0.0000 0.0000 0.0000
# 2 65.4040 61.2208 45.1339 0.0000 0.0000 0.0000
# 3 70.2037 45.1339 95.3986 0.0000 0.0000 0.0000
# 4 0.0000 0.0000 0.0000 17.5490 0.0000 0.0000
# 5 0.0000 0.0000 0.0000 0.0000 -2.0870 0.0000
# 6 0.0000 0.0000 0.0000 0.0000 0.0000 27.8970
#
#
#
# Elastic Compliance Matrix: (Units=1/GPa)
#
#
# Indices 1 2 3 4 5 6 
#
# 1 0.010192 -0.008229 -0.003607 0.000000 0.000000 0.000000
# 2 -0.008229 0.031727 -0.008955 0.000000 0.000000 0.000000
# 3 -0.003607 -0.008955 0.017373 0.000000 0.000000 0.000000
# 4 0.000000 0.000000 0.000000 0.056983 0.000000 0.000000
# 5 0.000000 0.000000 0.000000 0.000000 -0.479154 0.000000
# 6 0.000000 0.000000 0.000000 0.000000 0.000000 0.035846
#
#
# Mechanical properties :
#
#
# Convention : Reuss Voigt Hill
#
# Bulk Modulus (GPa) = 56.46212 77.09743 66.77977
# Shear Modulus (GPa) = -17.88601 18.78193 0.44796
#
# Velocity S-wave (km/s) = -3.29857 3.38017 0.52202
# Velocity P-wave (km/s) = 4.45422 7.88255 6.40214
#
# Compressibility (1/GPa) = 0.01771099
#
# Stress axis : x y z
#
# Youngs Moduli (GPa) = 98.12033 31.51864 57.56010
#
# Poissons Ratio (x) = 0.25936 0.20761
# Poissons Ratio (y) = 0.80742 0.51544
# Poissons Ratio (z) = 0.35390 0.28224
#
# Static dielectric constant tensor:
#      x y z
#    x 1.545360 0.000000 0.000000 
#    y 0.000000 1.553030 0.000000 
#    z 0.000000 0.000000 1.526410 
# 
# From -- ./inp_files/4616.got.cif
#   From: 2010.05.17/outbox.cif.g08.bks.cpg/sg47_3_cif.got.tgz:4616.got - 2010.06.03 20:15:42.
