data_PCOD9384028
_publ_section_title
;
Structure prediction by ZEFSAII (Michael W. Deem and Ramdas Pophale) SiO2 
 PCOD9384028
Probable space group: P M M M
;
_chemical_formula_sum "Si O2"
_cell_formula_units_Z 36
_cell_length_a 8.048539
_cell_length_b 15.027668
_cell_length_c 14.045189
_cell_angle_alpha 90.000000
_cell_angle_beta 90.000000
_cell_angle_gamma 90.000000
_cell_volume 1698.776452
_symmetry_space_group_name_H-M "P M M M"
_symmetry_group_IT_number 47
_symmetry_cell_setting 'orthorhombic'
loop_
_space_group_symop_operation_xyz
x,y,z
-x,-y,z
x,-y,-z
-x,y,-z
-x,-y,-z
x,y,-z
-x,y,z
x,-y,z
loop_
_atom_site_type_symbol
_atom_site_label
_atom_site_fract_x
_atom_site_fract_y
_atom_site_fract_z
Si Si1 0.203055 0.666977 0.500000
Si Si2 0.800741 0.400981 0.710037
Si Si3 0.191278 0.097099 0.294944
Si Si4 0.305128 0.129612 0.500000
Si Si5 0.684887 0.763096 0.832630
Si Si6 0.295929 0.894633 0.000000
O O1 0.252895 0.622896 0.601274
O O2 0.278656 0.764749 0.500000
O O3 0.000000 0.672250 0.500000
O O4 0.738832 0.500000 0.734118
O O5 0.759224 0.327743 0.790547
O O6 0.000000 0.403285 0.705471
O O7 0.216103 0.094065 0.406805
O O8 0.311884 0.172422 0.258126
O O9 0.000000 0.120764 0.273548
O O10 0.228659 0.000000 0.253138
O O11 0.500000 0.107428 0.500000
O O12 0.500000 0.742020 0.866195
O O13 0.758802 0.831886 0.911057
O O14 0.500000 0.898800 0.000000
O O15 0.242241 0.000000 0.000000
#
# Coordination Sequence:
#
# PCOD9384028 Si02
#       6
#     4   8   8   4   8   4
#     4  10  19  35  59  83 117 161 201 241 287 346
#     4  10  21  38  61  88 120 161 203 242 292 353
#     4  11  23  38  56  80 115 158 197 238 293 356
#     4  12  23  34  53  83 117 154 197 243 291 343
#     4  11  22  38  62  89 117 150 194 250 304 354
#     4   9  20  40  64  89 118 154 195 241 300 365
#
# _framework density 21.191724000000001
#
# number of rings (size 3 to 8) (size 9 to 14) (size 15 to 20)
#    0.000    1.444    2.222    3.667    0.000    5.778 
#    0.000    2.778    0.000    9.333    0.000    0.000 
#    0.000    0.000    0.000    0.000    0.000    0.000 
#
# Total GULP energy -200676.454277 kJ/mol
# GULP energy per Si atom -5574.345952 kJ/mol
# Density = 2.114349 g / cm^3
# Si number density = 21.191724 Si / 1000 Ang^3
#
#
#
# Elastic Constant Matrix: (Units=GPa)
#
#
# Indices 1 2 3 4 5 6 
#
# 1 37.4572 28.4185 -5.3255 0.0000 0.0000 0.0000
# 2 28.4185 191.0780 67.6914 0.0000 0.0000 0.0000
# 3 -5.3255 67.6914 105.3521 0.0000 0.0000 0.0000
# 4 0.0000 0.0000 0.0000 17.6042 0.0000 0.0000
# 5 0.0000 0.0000 0.0000 0.0000 15.1837 0.0000
# 6 0.0000 0.0000 0.0000 0.0000 0.0000 37.4930
#
#
#
# Elastic Compliance Matrix: (Units=1/GPa)
#
#
# Indices 1 2 3 4 5 6 
#
# 1 0.032983 -0.007116 0.006239 0.000000 0.000000 0.000000
# 2 -0.007116 0.008311 -0.005700 0.000000 0.000000 0.000000
# 3 0.006239 -0.005700 0.013470 0.000000 0.000000 0.000000
# 4 0.000000 0.000000 0.000000 0.056805 0.000000 0.000000
# 5 0.000000 0.000000 0.000000 0.000000 0.065860 0.000000
# 6 0.000000 0.000000 0.000000 0.000000 0.000000 0.026672
#
#
# Mechanical properties :
#
#
# Convention : Reuss Voigt Hill
#
# Bulk Modulus (GPa) = 24.03205 57.27292 40.65249
# Shear Modulus (GPa) = 21.63355 30.26304 25.94829
#
# Velocity S-wave (km/s) = 3.19854 3.78307 3.50302
# Velocity P-wave (km/s) = 5.00058 6.79462 5.96543
#
# Compressibility (1/GPa) = 0.04161110
#
# Stress axis : x y z
#
# Youngs Moduli (GPa) = 30.31875 120.32309 74.24139
#
# Poissons Ratio (x) = 0.85620 -0.46322
# Poissons Ratio (y) = 0.21574 0.42315
# Poissons Ratio (z) = -0.18917 0.68581
#
# Static dielectric constant tensor:
#      x y z
#    x 1.779840 0.000000 0.000000 
#    y 0.000000 1.779230 0.000000 
#    z 0.000000 0.000000 1.844520 
# 
# From -- ./inp_files/20588.got.cif
#   From: 2010.05.17/outbox.cif.g08.bks.cpg/sg47_11_cif.got.tgz:20588.got - 2010.06.03 20:15:42.
