data_PCOD9384256
_publ_section_title
;
Structure prediction by ZEFSAII (Michael W. Deem and Ramdas Pophale) SiO2 
 PCOD9384256
Probable space group: P M M M
;
_chemical_formula_sum "Si O2"
_cell_formula_units_Z 64
_cell_length_a 15.154843
_cell_length_b 29.937940
_cell_length_c 7.760983
_cell_angle_alpha 90.000000
_cell_angle_beta 90.000000
_cell_angle_gamma 90.000000
_cell_volume 3521.195088
_symmetry_space_group_name_H-M "P M M M"
_symmetry_group_IT_number 47
_symmetry_cell_setting 'orthorhombic'
loop_
_space_group_symop_operation_xyz
x,y,z
-x,-y,z
x,-y,-z
-x,y,-z
-x,-y,-z
x,y,-z
-x,y,z
x,-y,z
loop_
_atom_site_type_symbol
_atom_site_label
_atom_site_fract_x
_atom_site_fract_y
_atom_site_fract_z
Si Si1 0.401069 0.588753 0.789404
Si Si2 0.100244 0.268098 0.707096
Si Si3 0.399311 0.854779 0.293310
Si Si4 0.399509 0.308908 0.209944
Si Si5 0.221909 0.451593 0.206951
Si Si6 0.899688 0.368055 0.706949
Si Si7 0.279656 0.228916 0.795935
Si Si8 0.606849 0.048028 0.296341
O O1 0.500000 0.576624 0.733669
O O2 0.382530 0.640078 0.736403
O O3 0.321223 0.558045 0.730450
O O4 0.401736 0.588159 0.000000
O O5 0.096558 0.269626 0.500000
O O6 0.126157 0.318277 0.769348
O O7 0.176775 0.233674 0.753275
O O8 0.000000 0.258767 0.767810
O O9 0.405728 0.859190 0.500000
O O10 0.500000 0.845256 0.230556
O O11 0.331358 0.815343 0.258211
O O12 0.367728 0.903364 0.225294
O O13 0.500000 0.297083 0.259208
O O14 0.331181 0.272370 0.276289
O O15 0.396888 0.309203 0.000000
O O16 0.189757 0.500000 0.270646
O O17 0.162538 0.408876 0.246705
O O18 0.225468 0.453778 0.000000
O O19 0.901332 0.365822 0.500000
O O20 0.000000 0.376234 0.766969
O O21 0.287504 0.231175 0.000000
O O22 0.629732 0.047316 0.500000
O O23 0.500000 0.048356 0.286918
O O24 0.636564 0.000000 0.222403
#
# Coordination Sequence:
#
# PCOD9384256 Si02
#       8
#     8   8   8   8   8   8   8   8
#     4   8  14  26  43  61  83 112 145 178 209 244
#     4   9  19  36  54  69  86 110 144 187 230 272
#     4   9  17  28  42  63  94 131 167 200 234 271
#     4   8  14  24  38  58  84 114 146 176 207 246
#     4  10  20  31  45  69  96 117 141 177 218 257
#     4   9  19  36  55  71  87 111 142 175 216 268
#     4  11  20  28  43  67  96 126 151 181 225 276
#     4   7  10  19  37  59  82 114 161 210 243 264
#
# _framework density 18.175647000000001
#
# number of rings (size 3 to 8) (size 9 to 14) (size 15 to 20)
#    0.000    3.125    0.000    4.125    0.000    3.500 
#    0.000    3.750    0.000    0.750    0.000    6.125 
#    0.000    0.500    0.000    5.750    0.000    1.875 
#
# Total GULP energy -356549.641037 kJ/mol
# GULP energy per Si atom -5571.088141 kJ/mol
# Density = 1.813428 g / cm^3
# Si number density = 18.175647 Si / 1000 Ang^3
#
#
#
# Elastic Constant Matrix: (Units=GPa)
#
#
# Indices 1 2 3 4 5 6 
#
# 1 86.1940 75.2101 4.7054 0.0000 0.0000 0.0000
# 2 75.2101 105.5991 8.3277 0.0000 0.0000 0.0000
# 3 4.7054 8.3277 26.2102 0.0000 0.0000 0.0000
# 4 0.0000 0.0000 0.0000 -13.2431 0.0000 0.0000
# 5 0.0000 0.0000 0.0000 0.0000 6.4463 0.0000
# 6 0.0000 0.0000 0.0000 0.0000 0.0000 17.1904
#
#
#
# Elastic Compliance Matrix: (Units=1/GPa)
#
#
# Indices 1 2 3 4 5 6 
#
# 1 0.030704 -0.021984 0.001473 0.000000 0.000000 0.000000
# 2 -0.021984 0.025454 -0.004141 0.000000 0.000000 0.000000
# 3 0.001473 -0.004141 0.039204 0.000000 0.000000 0.000000
# 4 0.000000 0.000000 0.000000 -0.075511 0.000000 0.000000
# 5 0.000000 0.000000 0.000000 0.000000 0.155127 0.000000
# 6 0.000000 0.000000 0.000000 0.000000 0.000000 0.058172
#
#
# Mechanical properties :
#
#
# Convention : Reuss Voigt Hill
#
# Bulk Modulus (GPa) = 21.71171 43.83219 32.77195
# Shear Modulus (GPa) = 16.78934 10.72940 13.75937
#
# Velocity S-wave (km/s) = 3.04258 2.43228 2.75439
# Velocity P-wave (km/s) = 4.93098 5.66182 5.30899
#
# Compressibility (1/GPa) = 0.04605809
#
# Stress axis : x y z
#
# Youngs Moduli (GPa) = 32.56877 39.28631 25.50744
#
# Poissons Ratio (x) = 0.86369 -0.03757
# Poissons Ratio (y) = 0.71601 0.10562
# Poissons Ratio (z) = -0.04797 0.16268
#
# Static dielectric constant tensor:
#      x y z
#    x 1.625860 0.000000 0.000000 
#    y 0.000000 1.669550 0.000000 
#    z 0.000000 0.000000 1.685580 
# 
# From -- ./inp_files/8296.got.cif
#   From: 2010.05.17/outbox.cif.g08.bks.cpg/sg47_5_cif.got.tgz:8296.got - 2010.06.03 20:15:42.
