data_PCOD9384431
_publ_section_title
;
Structure prediction by ZEFSAII (Michael W. Deem and Ramdas Pophale) SiO2 
 PCOD9384431
Probable space group: P M M M
;
_chemical_formula_sum "Si O2"
_cell_formula_units_Z 48
_cell_length_a 9.730159
_cell_length_b 7.339560
_cell_length_c 31.826137
_cell_angle_alpha 90.000000
_cell_angle_beta 90.000000
_cell_angle_gamma 90.000000
_cell_volume 2272.866304
_symmetry_space_group_name_H-M "P M M M"
_symmetry_group_IT_number 47
_symmetry_cell_setting 'orthorhombic'
loop_
_space_group_symop_operation_xyz
x,y,z
-x,-y,z
x,-y,-z
-x,y,-z
-x,-y,-z
x,y,-z
-x,y,z
x,-y,z
loop_
_atom_site_type_symbol
_atom_site_label
_atom_site_fract_x
_atom_site_fract_y
_atom_site_fract_z
Si Si1 0.655287 0.785352 0.702160
Si Si2 0.841978 0.222888 0.374728
Si Si3 0.843212 0.280947 0.218316
Si Si4 0.656902 0.221619 0.452224
Si Si5 0.158347 0.721805 0.875989
Si Si6 0.659183 0.721914 0.046526
O O1 0.500000 0.710961 0.703282
O O2 0.751894 0.713620 0.664892
O O3 0.735391 0.767802 0.745983
O O4 0.642627 0.000000 0.693656
O O5 0.765197 0.279998 0.417345
O O6 0.000000 0.281576 0.372341
O O7 0.843630 0.000000 0.374360
O O8 0.848795 0.500000 0.217192
O O9 0.803387 0.219819 0.171275
O O10 0.000000 0.217917 0.227463
O O11 0.687605 0.278983 0.500000
O O12 0.500000 0.276334 0.441875
O O13 0.657526 0.000000 0.452187
O O14 0.163622 0.500000 0.876071
O O15 0.252621 0.785460 0.914050
O O16 0.000000 0.773061 0.882828
O O17 0.500000 0.774912 0.050731
O O18 0.662490 0.500000 0.046891
O O19 0.708221 0.778070 0.000000
#
# Coordination Sequence:
#
# PCOD9384431 Si02
#       6
#     8   8   8   8   8   8
#     4  10  20  32  46  65  89 117 150 186 222 263
#     4   9  16  25  38  56  79 109 143 178 217 259
#     4   9  18  32  48  66  89 116 147 184 224 265
#     4   8  13  21  33  50  75 107 139 171 210 256
#     4   8  14  24  37  54  77 105 136 170 209 252
#     4   8  13  20  30  47  73 104 136 168 202 243
#
# _framework density 21.118707000000001
#
# number of rings (size 3 to 8) (size 9 to 14) (size 15 to 20)
#    0.000    3.333    0.000    3.000    0.000    4.667 
#    0.000    5.000    0.000    0.000    0.000    0.000 
#    0.000    1.333    0.000   14.333    0.000   21.667 
#
# Total GULP energy -267861.233049 kJ/mol
# GULP energy per Si atom -5580.442355 kJ/mol
# Density = 2.107064 g / cm^3
# Si number density = 21.118707 Si / 1000 Ang^3
#
#
#
# Elastic Constant Matrix: (Units=GPa)
#
#
# Indices 1 2 3 4 5 6 
#
# 1 184.5805 6.5971 159.1876 0.0000 0.0000 0.0000
# 2 6.5971 79.3195 1.8721 0.0000 0.0000 0.0000
# 3 159.1876 1.8721 209.4648 0.0000 0.0000 0.0000
# 4 0.0000 0.0000 0.0000 5.4366 0.0000 0.0000
# 5 0.0000 0.0000 0.0000 0.0000 45.5196 0.0000
# 6 0.0000 0.0000 0.0000 0.0000 0.0000 -2.0940
#
#
#
# Elastic Compliance Matrix: (Units=1/GPa)
#
#
# Indices 1 2 3 4 5 6 
#
# 1 0.015807 -0.001031 -0.012003 0.000000 0.000000 0.000000
# 2 -0.001031 0.012677 0.000670 0.000000 0.000000 0.000000
# 3 -0.012003 0.000670 0.013890 0.000000 0.000000 0.000000
# 4 0.000000 0.000000 0.000000 0.183939 0.000000 0.000000
# 5 0.000000 0.000000 0.000000 0.000000 0.021969 0.000000
# 6 0.000000 0.000000 0.000000 0.000000 0.000000 -0.477558
#
#
# Mechanical properties :
#
#
# Convention : Reuss Voigt Hill
#
# Bulk Modulus (GPa) = 56.67119 89.85317 73.26218
# Shear Modulus (GPa) = -25.16786 30.15297 2.49255
#
# Velocity S-wave (km/s) = -3.45589 3.78270 1.08758
# Velocity P-wave (km/s) = 3.31188 7.85605 6.02852
#
# Compressibility (1/GPa) = 0.01764565
#
# Stress axis : x y z
#
# Youngs Moduli (GPa) = 63.26467 78.88185 71.99258
#
# Poissons Ratio (x) = 0.08135 0.86415
# Poissons Ratio (y) = 0.06525 -0.04827
# Poissons Ratio (z) = 0.75939 -0.05289
#
# Static dielectric constant tensor:
#      x y z
#    x 1.714860 0.000000 0.000000 
#    y 0.000000 1.946720 0.000000 
#    z 0.000000 0.000000 1.733820 
# 
# From -- ./inp_files/14071.got.cif
#   From: 2010.05.17/outbox.cif.g08.bks.cpg/sg47_8_cif.got.tgz:14071.got - 2010.06.03 20:15:42.
