data_PCOD9384905
_publ_section_title
;
Structure prediction by ZEFSAII (Michael W. Deem and Ramdas Pophale) SiO2 
 PCOD9384905
Probable space group: P M M M
;
_chemical_formula_sum "Si O2"
_cell_formula_units_Z 52
_cell_length_a 9.023424
_cell_length_b 14.325561
_cell_length_c 26.864496
_cell_angle_alpha 90.000000
_cell_angle_beta 90.000000
_cell_angle_gamma 90.000000
_cell_volume 3472.655488
_symmetry_space_group_name_H-M "P M M M"
_symmetry_group_IT_number 47
_symmetry_cell_setting 'orthorhombic'
loop_
_space_group_symop_operation_xyz
x,y,z
-x,-y,z
x,-y,-z
-x,y,-z
-x,-y,-z
x,y,-z
-x,y,z
x,-y,z
loop_
_atom_site_type_symbol
_atom_site_label
_atom_site_fract_x
_atom_site_fract_y
_atom_site_fract_z
Si Si1 0.176397 0.110726 0.758240
Si Si2 0.826478 0.886603 0.555095
Si Si3 0.669462 0.886552 0.344601
Si Si4 0.176029 0.610597 0.896154
Si Si5 0.678298 0.776438 0.847683
Si Si6 0.668329 0.613159 0.000000
Si Si7 0.320146 0.891306 0.945057
O O1 0.233104 0.138287 0.703330
O O2 0.259259 0.170038 0.800034
O O3 0.000000 0.122755 0.761896
O O4 0.209349 0.000000 0.765050
O O5 0.775120 0.856090 0.500000
O O6 0.735791 0.853405 0.602855
O O7 0.000000 0.862645 0.560398
O O8 0.819099 0.000000 0.555160
O O9 0.500000 0.856403 0.338077
O O10 0.670114 0.000000 0.346531
O O11 0.202025 0.500000 0.888952
O O12 0.254167 0.673878 0.854905
O O13 0.247207 0.637662 0.949483
O O14 0.000000 0.626181 0.897094
O O15 0.500000 0.773403 0.846365
O O16 0.727432 0.833088 0.897319
O O17 0.660209 0.500000 0.000000
O O18 0.500000 0.650535 0.000000
O O19 0.500000 0.889083 0.945233
O O20 0.276878 0.000000 0.939949
O O21 0.271039 0.858055 0.000000
#
# Coordination Sequence:
#
# PCOD9384905 Si02
#       7
#     8   8   8   8   8   4   8
#     4  10  20  33  47  62  85 117 151 186 224 266
#     4   8  13  21  33  50  74 105 140 176 216 262
#     4   9  16  25  38  56  78 105 141 185 226 259
#     4  10  21  36  51  68  92 118 141 169 212 265
#     4  11  21  31  49  71  89 111 144 183 221 262
#     4   9  17  31  51  71  88 107 134 167 203 247
#     4   8  15  28  44  63  87 111 135 167 209 255
#
# _framework density 14.974131
#
# number of rings (size 3 to 8) (size 9 to 14) (size 15 to 20)
#    0.000    2.692    0.000    3.462    1.077    5.538 
#    0.000    1.538    0.000    0.000    0.000    3.231 
#    0.000    0.000    0.000    0.000    0.000    0.769 
#
# Total GULP energy -289835.831533 kJ/mol
# GULP energy per Si atom -5573.765991 kJ/mol
# Density = 1.494005 g / cm^3
# Si number density = 14.974131 Si / 1000 Ang^3
#
#
#
# Elastic Constant Matrix: (Units=GPa)
#
#
# Indices 1 2 3 4 5 6 
#
# 1 75.0833 35.0320 54.5938 0.0000 0.0000 0.0000
# 2 35.0320 41.6283 40.9862 0.0000 0.0000 0.0000
# 3 54.5938 40.9862 117.1811 0.0000 0.0000 0.0000
# 4 0.0000 0.0000 0.0000 5.8326 0.0000 0.0000
# 5 0.0000 0.0000 0.0000 0.0000 28.1884 0.0000
# 6 0.0000 0.0000 0.0000 0.0000 0.0000 14.6326
#
#
#
# Elastic Compliance Matrix: (Units=1/GPa)
#
#
# Indices 1 2 3 4 5 6 
#
# 1 0.024788 -0.014474 -0.006486 0.000000 0.000000 0.000000
# 2 -0.014474 0.045092 -0.009028 0.000000 0.000000 0.000000
# 3 -0.006486 -0.009028 0.014713 0.000000 0.000000 0.000000
# 4 0.000000 0.000000 0.000000 0.171450 0.000000 0.000000
# 5 0.000000 0.000000 0.000000 0.000000 0.035476 0.000000
# 6 0.000000 0.000000 0.000000 0.000000 0.000000 0.068341
#
#
# Mechanical properties :
#
#
# Convention : Reuss Voigt Hill
#
# Bulk Modulus (GPa) = 40.62352 55.01297 47.81824
# Shear Modulus (GPa) = 11.68113 16.61609 14.14861
#
# Velocity S-wave (km/s) = 2.79603 3.33476 3.07721
# Velocity P-wave (km/s) = 6.13284 7.18651 6.68048
#
# Compressibility (1/GPa) = 0.02461628
#
# Stress axis : x y z
#
# Youngs Moduli (GPa) = 40.34250 22.17704 67.96577
#
# Poissons Ratio (x) = 0.32099 0.44081
# Poissons Ratio (y) = 0.58392 0.61361
# Poissons Ratio (z) = 0.26165 0.20022
#
# Static dielectric constant tensor:
#      x y z
#    x 1.500400 0.000000 0.000000 
#    y 0.000000 1.495990 0.000000 
#    z 0.000000 0.000000 1.498570 
# 
# From -- ./inp_files/32006.got.cif
#   From: 2010.05.17/outbox.cif.g08.bks.cpg/sg47_17_cif.got.tgz:32006.got - 2010.06.03 20:15:42.
