data_PCOD9384594
_publ_section_title
;
Structure prediction by ZEFSAII (Michael W. Deem and Ramdas Pophale) SiO2 
 PCOD9384594
Probable space group: P M M M
;
_chemical_formula_sum "Si O2"
_cell_formula_units_Z 44
_cell_length_a 7.676275
_cell_length_b 9.518989
_cell_length_c 29.451563
_cell_angle_alpha 90.000000
_cell_angle_beta 90.000000
_cell_angle_gamma 90.000000
_cell_volume 2152.036820
_symmetry_space_group_name_H-M "P M M M"
_symmetry_group_IT_number 47
_symmetry_cell_setting 'orthorhombic'
loop_
_space_group_symop_operation_xyz
x,y,z
-x,-y,z
x,-y,-z
-x,y,-z
-x,-y,-z
x,y,-z
-x,y,z
x,-y,z
loop_
_atom_site_type_symbol
_atom_site_label
_atom_site_fract_x
_atom_site_fract_y
_atom_site_fract_z
Si Si1 0.791358 0.341652 0.862952
Si Si2 0.290796 0.839735 0.950493
Si Si3 0.287284 0.837558 0.500000
Si Si4 0.286649 0.662261 0.588635
Si Si5 0.789720 0.662269 0.762257
Si Si6 0.707178 0.840996 0.325480
O O1 0.724880 0.500000 0.870167
O O2 0.753157 0.247798 0.906222
O O3 0.730031 0.293906 0.812946
O O4 0.000000 0.348954 0.859579
O O5 0.500000 0.844308 0.952370
O O6 0.227402 0.000000 0.946048
O O7 0.230051 0.784687 0.000000
O O8 0.500000 0.840069 0.500000
O O9 0.233419 0.752127 0.544742
O O10 0.229880 0.000000 0.500000
O O11 0.500000 0.659823 0.588869
O O12 0.229990 0.500000 0.586887
O O13 0.225851 0.742026 0.633993
O O14 0.732995 0.500000 0.754599
O O15 0.733096 0.765000 0.722510
O O16 0.000000 0.661400 0.761936
O O17 0.500000 0.851546 0.332902
O O18 0.777994 0.000000 0.326256
#
# Coordination Sequence:
#
# PCOD9384594 Si02
#       6
#     8   8   4   8   8   8
#     4   9  19  35  53  74  99 126 160 203 246 288
#     4   9  19  35  52  72 101 134 165 198 238 286
#     4   9  15  23  37  59  90 125 158 197 246 293
#     4   9  16  26  41  62  90 125 163 200 240 289
#     4   9  19  36  54  71  95 128 164 201 243 292
#     4  10  20  32  47  71 101 129 160 201 247 292
#
# _framework density 20.445744999999999
#
# number of rings (size 3 to 8) (size 9 to 14) (size 15 to 20)
#    0.000    2.818    0.000    3.000    0.000    7.636 
#    0.000    8.182    0.000    0.000    0.000    0.636 
#    0.000    5.091    0.000    0.000    0.000    0.000 
#
# Total GULP energy -245461.377517 kJ/mol
# GULP energy per Si atom -5578.667671 kJ/mol
# Density = 2.039921 g / cm^3
# Si number density = 20.445745 Si / 1000 Ang^3
#
#
#
# Elastic Constant Matrix: (Units=GPa)
#
#
# Indices 1 2 3 4 5 6 
#
# 1 31.2267 6.4825 2.2836 0.0000 0.0000 0.0000
# 2 6.4825 172.0457 140.2759 0.0000 0.0000 0.0000
# 3 2.2836 140.2759 228.1063 0.0000 0.0000 0.0000
# 4 0.0000 0.0000 0.0000 62.8455 0.0000 0.0000
# 5 0.0000 0.0000 0.0000 0.0000 34.8246 0.0000
# 6 0.0000 0.0000 0.0000 0.0000 0.0000 15.8097
#
#
#
# Elastic Compliance Matrix: (Units=1/GPa)
#
#
# Indices 1 2 3 4 5 6 
#
# 1 0.032359 -0.001916 0.000854 0.000000 0.000000 0.000000
# 2 -0.001916 0.011771 -0.007219 0.000000 0.000000 0.000000
# 3 0.000854 -0.007219 0.008815 0.000000 0.000000 0.000000
# 4 0.000000 0.000000 0.000000 0.015912 0.000000 0.000000
# 5 0.000000 0.000000 0.000000 0.000000 0.028715 0.000000
# 6 0.000000 0.000000 0.000000 0.000000 0.000000 0.063252
#
#
# Mechanical properties :
#
#
# Convention : Reuss Voigt Hill
#
# Bulk Modulus (GPa) = 27.48536 81.05144 54.26840
# Shear Modulus (GPa) = 26.38321 41.51840 33.95081
#
# Velocity S-wave (km/s) = 3.59611 4.51118 4.07938
# Velocity P-wave (km/s) = 5.54211 8.17695 6.98489
#
# Compressibility (1/GPa) = 0.03638301
#
# Stress axis : x y z
#
# Youngs Moduli (GPa) = 30.90326 84.95540 113.44273
#
# Poissons Ratio (x) = 0.16274 -0.09689
# Poissons Ratio (y) = 0.05920 0.81899
# Poissons Ratio (z) = -0.02639 0.61333
#
# Static dielectric constant tensor:
#      x y z
#    x 1.771740 0.000000 0.000000 
#    y 0.000000 1.704150 0.000000 
#    z 0.000000 0.000000 1.721470 
# 
# From -- ./inp_files/2091.got.cif
#   From: 2010.05.17/outbox.cif.g08.bks.cpg/sg47_2_cif.got.tgz:2091.got - 2010.06.03 20:15:42.
