data_PCOD9384421
_publ_section_title
;
Structure prediction by ZEFSAII (Michael W. Deem and Ramdas Pophale) SiO2 
 PCOD9384421
Probable space group: P M M M
;
_chemical_formula_sum "Si O2"
_cell_formula_units_Z 44
_cell_length_a 30.029682
_cell_length_b 7.356640
_cell_length_c 9.475130
_cell_angle_alpha 90.000000
_cell_angle_beta 90.000000
_cell_angle_gamma 90.000000
_cell_volume 2093.222598
_symmetry_space_group_name_H-M "P M M M"
_symmetry_group_IT_number 47
_symmetry_cell_setting 'orthorhombic'
loop_
_space_group_symop_operation_xyz
x,y,z
-x,-y,z
x,-y,-z
-x,y,-z
-x,-y,-z
x,y,-z
-x,y,z
x,-y,z
loop_
_atom_site_type_symbol
_atom_site_label
_atom_site_fract_x
_atom_site_fract_y
_atom_site_fract_z
Si Si1 0.633911 0.217363 0.840804
Si Si2 0.000000 0.279345 0.831902
Si Si3 0.449959 0.221490 0.662791
Si Si4 0.722106 0.717142 0.659514
Si Si5 0.193165 0.722185 0.164335
Si Si6 0.904151 0.281411 0.831015
O O1 0.589627 0.285800 0.762553
O O2 0.677552 0.250612 0.748087
O O3 0.629062 0.000000 0.849688
O O4 0.638881 0.287333 0.000000
O O5 0.952051 0.214997 0.775047
O O6 0.000000 0.500000 0.821039
O O7 0.000000 0.238864 0.000000
O O8 0.442322 0.275511 0.500000
O O9 0.500000 0.277336 0.704186
O O10 0.449608 0.000000 0.664267
O O11 0.718478 0.787492 0.500000
O O12 0.727343 0.500000 0.650664
O O13 0.765535 0.785243 0.742575
O O14 0.192926 0.500000 0.164934
O O15 0.144337 0.782045 0.218692
O O16 0.198438 0.775342 0.000000
O O17 0.904508 0.500000 0.813129
O O18 0.904050 0.247872 0.000000
#
# Coordination Sequence:
#
# PCOD9384421 Si02
#       6
#     8   4   8   8   8   8
#     4  10  20  32  48  71  95 118 145 179 220 261
#     4   7   8  10  18  36  63  91 120 157 200 245
#     4   8  14  26  45  68  93 120 147 174 207 250
#     4  10  20  32  46  64  86 116 153 187 220 260
#     4   8  13  22  36  53  74 102 137 176 215 253
#     4   7   9  13  23  41  65  93 125 162 204 247
#
# _framework density 21.020219000000001
#
# number of rings (size 3 to 8) (size 9 to 14) (size 15 to 20)
#    0.000    3.545    0.000    3.818    0.000    2.545 
#    0.000    1.818    0.000    0.545    0.000    4.455 
#    0.000    5.091    0.000    0.818    0.000   19.636 
#
# Total GULP energy -245232.067410 kJ/mol
# GULP energy per Si atom -5573.456077 kJ/mol
# Density = 2.097238 g / cm^3
# Si number density = 21.020219 Si / 1000 Ang^3
#
#
#
# Elastic Constant Matrix: (Units=GPa)
#
#
# Indices 1 2 3 4 5 6 
#
# 1 267.1876 4.7604 124.4886 0.0000 0.0000 0.0000
# 2 4.7604 75.6289 4.9825 0.0000 0.0000 0.0000
# 3 124.4886 4.9825 118.1844 0.0000 0.0000 0.0000
# 4 0.0000 0.0000 0.0000 -22.2692 0.0000 0.0000
# 5 0.0000 0.0000 0.0000 0.0000 46.6725 0.0000
# 6 0.0000 0.0000 0.0000 0.0000 0.0000 10.9137
#
#
#
# Elastic Compliance Matrix: (Units=1/GPa)
#
#
# Indices 1 2 3 4 5 6 
#
# 1 0.007350 0.000048 -0.007744 0.000000 0.000000 0.000000
# 2 0.000048 0.013260 -0.000609 0.000000 0.000000 0.000000
# 3 -0.007744 -0.000609 0.016644 0.000000 0.000000 0.000000
# 4 0.000000 0.000000 0.000000 -0.044905 0.000000 0.000000
# 5 0.000000 0.000000 0.000000 0.000000 0.021426 0.000000
# 6 0.000000 0.000000 0.000000 0.000000 0.000000 0.091628
#
#
# Mechanical properties :
#
#
# Convention : Reuss Voigt Hill
#
# Bulk Modulus (GPa) = 48.44361 81.05156 64.74758
# Shear Modulus (GPa) = 38.79133 28.84802 33.81967
#
# Velocity S-wave (km/s) = 4.30051 3.70860 4.01548
# Velocity P-wave (km/s) = 6.91053 7.54857 7.23658
#
# Compressibility (1/GPa) = 0.02064256
#
# Stress axis : x y z
#
# Youngs Moduli (GPa) = 136.05535 75.41706 60.08126
#
# Poissons Ratio (x) = -0.00359 0.46527
# Poissons Ratio (y) = -0.00647 0.03659
# Poissons Ratio (z) = 1.05361 0.04594
#
# Static dielectric constant tensor:
#      x y z
#    x 1.777680 0.000000 0.000000 
#    y 0.000000 1.889290 0.000000 
#    z 0.000000 0.000000 1.793790 
# 
# From -- ./inp_files/13633.got.cif
#   From: 2010.05.17/outbox.cif.g08.bks.cpg/sg47_7_cif.got.tgz:13633.got - 2010.06.03 20:15:42.
