data_PCOD9384748
_publ_section_title
;
Structure prediction by ZEFSAII (Michael W. Deem and Ramdas Pophale) SiO2 
 PCOD9384748
Probable space group: P M M M
;
_chemical_formula_sum "Si O2"
_cell_formula_units_Z 52
_cell_length_a 14.143091
_cell_length_b 7.980909
_cell_length_c 24.581167
_cell_angle_alpha 90.000000
_cell_angle_beta 90.000000
_cell_angle_gamma 90.000000
_cell_volume 2774.592398
_symmetry_space_group_name_H-M "P M M M"
_symmetry_group_IT_number 47
_symmetry_cell_setting 'orthorhombic'
loop_
_space_group_symop_operation_xyz
x,y,z
-x,-y,z
x,-y,-z
-x,y,-z
-x,-y,-z
x,y,-z
-x,y,z
x,-y,z
loop_
_atom_site_type_symbol
_atom_site_label
_atom_site_fract_x
_atom_site_fract_y
_atom_site_fract_z
Si Si1 0.396244 0.199269 0.271119
Si Si2 0.292714 0.301138 0.831766
Si Si3 0.208509 0.198575 0.938067
Si Si4 0.890794 0.204342 0.438803
Si Si5 0.793671 0.796573 0.669959
Si Si6 0.000000 0.301823 0.064373
Si Si7 0.896817 0.299344 0.224828
O O1 0.500000 0.268847 0.284207
O O2 0.372291 0.227658 0.207500
O O3 0.307350 0.264571 0.306417
O O4 0.398758 0.000000 0.280312
O O5 0.295566 0.500000 0.824020
O O6 0.285374 0.265003 0.895557
O O7 0.193637 0.231789 0.807352
O O8 0.102117 0.238660 0.916865
O O9 0.217281 0.000000 0.940604
O O10 0.216679 0.266506 0.000000
O O11 0.865177 0.258726 0.500000
O O12 0.822367 0.259491 0.390329
O O13 0.000000 0.253753 0.428353
O O14 0.889699 0.000000 0.438799
O O15 0.873186 0.737488 0.712461
O O16 0.792669 0.000000 0.670880
O O17 0.000000 0.500000 0.072589
O O18 0.000000 0.260887 0.000000
O O19 0.898581 0.500000 0.216440
O O20 0.000000 0.232837 0.209447
#
# Coordination Sequence:
#
# PCOD9384748 Si02
#       7
#     8   8   8   8   8   4   8
#     4   9  18  33  51  69  91 118 149 193 249 298
#     4  10  20  32  49  71  93 120 155 193 234 285
#     4  10  20  33  48  68  96 128 161 195 232 278
#     4   8  13  21  36  62  95 127 158 194 232 267
#     4   9  16  27  45  67  88 116 159 198 228 274
#     4   9  17  29  45  65  91 127 167 199 226 261
#     4   9  18  30  42  61  92 124 149 182 231 278
#
# _framework density 18.741491
#
# number of rings (size 3 to 8) (size 9 to 14) (size 15 to 20)
#    0.000    2.846    0.000    2.077    1.077    3.692 
#    0.000    0.000    0.000    1.385    0.000    8.615 
#    0.000    0.000    0.000    7.692    0.000    8.308 
#
# Total GULP energy -289773.575305 kJ/mol
# GULP energy per Si atom -5572.568756 kJ/mol
# Density = 1.869883 g / cm^3
# Si number density = 18.741491 Si / 1000 Ang^3
#
#
#
# Elastic Constant Matrix: (Units=GPa)
#
#
# Indices 1 2 3 4 5 6 
#
# 1 76.0457 1.6017 28.2077 0.0000 0.0000 0.0000
# 2 1.6017 18.1872 -7.9619 0.0000 0.0000 0.0000
# 3 28.2077 -7.9619 96.9403 0.0000 0.0000 0.0000
# 4 0.0000 0.0000 0.0000 5.5684 0.0000 0.0000
# 5 0.0000 0.0000 0.0000 0.0000 18.0634 0.0000
# 6 0.0000 0.0000 0.0000 0.0000 0.0000 7.8529
#
#
#
# Elastic Compliance Matrix: (Units=1/GPa)
#
#
# Indices 1 2 3 4 5 6 
#
# 1 0.014934 -0.003338 -0.004620 0.000000 0.000000 0.000000
# 2 -0.003338 0.057780 0.005717 0.000000 0.000000 0.000000
# 3 -0.004620 0.005717 0.012129 0.000000 0.000000 0.000000
# 4 0.000000 0.000000 0.000000 0.179585 0.000000 0.000000
# 5 0.000000 0.000000 0.000000 0.000000 0.055361 0.000000
# 6 0.000000 0.000000 0.000000 0.000000 0.000000 0.127341
#
#
# Mechanical properties :
#
#
# Convention : Reuss Voigt Hill
#
# Bulk Modulus (GPa) = 12.44356 26.09648 19.27002
# Shear Modulus (GPa) = 10.45155 17.58533 14.01844
#
# Velocity S-wave (km/s) = 2.36406 3.06651 2.73791
# Velocity P-wave (km/s) = 3.75576 5.14710 4.50546
#
# Compressibility (1/GPa) = 0.08036287
#
# Stress axis : x y z
#
# Youngs Moduli (GPa) = 66.96214 17.30692 82.44464
#
# Poissons Ratio (x) = 0.05776 0.38086
# Poissons Ratio (y) = 0.22349 -0.47132
# Poissons Ratio (z) = 0.30934 -0.09894
#
# Static dielectric constant tensor:
#      x y z
#    x 1.662260 0.000000 0.000000 
#    y 0.000000 1.658410 0.000000 
#    z 0.000000 0.000000 1.688630 
# 
# From -- ./inp_files/21464.got.cif
#   From: 2010.05.17/outbox.cif.g08.bks.cpg/sg47_11_cif.got.tgz:21464.got - 2010.06.03 20:15:42.
