data_PCOD9384739
_publ_section_title
;
Structure prediction by ZEFSAII (Michael W. Deem and Ramdas Pophale) SiO2 
 PCOD9384739
Probable space group: P M M M
;
_chemical_formula_sum "Si O2"
_cell_formula_units_Z 64
_cell_length_a 25.414379
_cell_length_b 15.686047
_cell_length_c 8.901040
_cell_angle_alpha 90.000000
_cell_angle_beta 90.000000
_cell_angle_gamma 90.000000
_cell_volume 3548.409774
_symmetry_space_group_name_H-M "P M M M"
_symmetry_group_IT_number 47
_symmetry_cell_setting 'orthorhombic'
loop_
_space_group_symop_operation_xyz
x,y,z
-x,-y,z
x,-y,-z
-x,y,-z
-x,-y,-z
x,y,-z
-x,y,z
x,-y,z
loop_
_atom_site_type_symbol
_atom_site_label
_atom_site_fract_x
_atom_site_fract_y
_atom_site_fract_z
Si Si1 0.643752 0.227145 0.180436
Si Si2 0.672295 0.405203 0.679338
Si Si3 0.142161 0.903968 0.678628
Si Si4 0.901727 0.591957 0.817130
Si Si5 0.217112 0.370179 0.174564
Si Si6 0.437962 0.902582 0.319569
Si Si7 0.940955 0.775010 0.181501
Si Si8 0.240579 0.171355 0.173754
O O1 0.644882 0.323254 0.245291
O O2 0.596898 0.168632 0.240013
O O3 0.699176 0.182172 0.224848
O O4 0.643604 0.232584 0.000000
O O5 0.668616 0.397110 0.500000
O O6 0.652433 0.500000 0.722493
O O7 0.733410 0.400404 0.729540
O O8 0.138592 0.896052 0.500000
O O9 0.103253 0.836594 0.754060
O O10 0.201808 0.885559 0.729649
O O11 0.127499 0.000000 0.723098
O O12 0.922762 0.500000 0.767229
O O13 0.840056 0.598863 0.775990
O O14 0.930591 0.677615 0.767871
O O15 0.903362 0.592741 0.000000
O O16 0.217670 0.267535 0.177997
O O17 0.225325 0.395364 0.000000
O O18 0.431629 0.895863 0.500000
O O19 0.500000 0.891931 0.286676
O O20 0.423234 0.000000 0.276171
O O21 0.000000 0.801240 0.224349
O O22 0.937320 0.776243 0.000000
O O23 0.240114 0.142866 0.000000
#
# Coordination Sequence:
#
# PCOD9384739 Si02
#       8
#     8   8   8   8   8   8   8   8
#     4  10  21  35  55  84 116 151 189 231 277 324
#     4  10  20  32  48  75 112 151 190 230 272 323
#     4  11  24  39  56  78 103 134 172 217 271 326
#     4   9  16  28  50  79 107 133 164 206 257 313
#     4   9  16  29  50  74 104 140 174 213 262 316
#     4   9  19  37  60  85 115 152 191 231 277 329
#     4  10  21  38  58  78 102 133 172 217 263 317
#     4   9  18  34  54  78 109 141 175 214 260 316
#
# _framework density 18.036249000000002
#
# number of rings (size 3 to 8) (size 9 to 14) (size 15 to 20)
#    0.000    2.375    1.250    2.625    0.000    6.750 
#    0.000    5.625    0.000    0.750    0.000    3.500 
#    0.000    0.000    0.000    0.000    0.000    0.000 
#
# Total GULP energy -356991.282869 kJ/mol
# GULP energy per Si atom -5577.988795 kJ/mol
# Density = 1.799520 g / cm^3
# Si number density = 18.036249 Si / 1000 Ang^3
#
#
#
# Elastic Constant Matrix: (Units=GPa)
#
#
# Indices 1 2 3 4 5 6 
#
# 1 75.2063 60.1711 31.5413 0.0000 0.0000 0.0000
# 2 60.1711 119.8618 40.2488 0.0000 0.0000 0.0000
# 3 31.5413 40.2488 30.6117 0.0000 0.0000 0.0000
# 4 0.0000 0.0000 0.0000 19.5475 0.0000 0.0000
# 5 0.0000 0.0000 0.0000 0.0000 10.0321 0.0000
# 6 0.0000 0.0000 0.0000 0.0000 0.0000 -0.1887
#
#
#
# Elastic Compliance Matrix: (Units=1/GPa)
#
#
# Indices 1 2 3 4 5 6 
#
# 1 0.026678 -0.007453 -0.017690 0.000000 0.000000 0.000000
# 2 -0.007453 0.017020 -0.014699 0.000000 0.000000 0.000000
# 3 -0.017690 -0.014699 0.070221 0.000000 0.000000 0.000000
# 4 0.000000 0.000000 0.000000 0.051157 0.000000 0.000000
# 5 0.000000 0.000000 0.000000 0.000000 0.099680 0.000000
# 6 0.000000 0.000000 0.000000 0.000000 0.000000 -5.299705
#
#
# Mechanical properties :
#
#
# Convention : Reuss Voigt Hill
#
# Bulk Modulus (GPa) = 29.20885 54.40024 41.80454
# Shear Modulus (GPa) = -1.01136 12.12610 5.55737
#
# Velocity S-wave (km/s) = -0.74964 2.59572 1.75725
# Velocity P-wave (km/s) = 3.93452 6.26185 5.22930
#
# Compressibility (1/GPa) = 0.03423620
#
# Stress axis : x y z
#
# Youngs Moduli (GPa) = 37.48340 58.75383 14.24069
#
# Poissons Ratio (x) = 0.43787 0.25191
# Poissons Ratio (y) = 0.27935 0.20933
# Poissons Ratio (z) = 0.66307 0.86365
#
# Static dielectric constant tensor:
#      x y z
#    x 1.597270 0.000000 0.000000 
#    y 0.000000 1.636940 0.000000 
#    z 0.000000 0.000000 1.603990 
# 
# From -- ./inp_files/12759.got.cif
#   From: 2010.05.17/outbox.cif.g08.bks.cpg/sg47_7_cif.got.tgz:12759.got - 2010.06.03 20:15:42.
