data_PCOD9384239
_publ_section_title
;
Structure prediction by ZEFSAII (Michael W. Deem and Ramdas Pophale) SiO2 
 PCOD9384239
Probable space group: P M M M
;
_chemical_formula_sum "Si O2"
_cell_formula_units_Z 44
_cell_length_a 9.624254
_cell_length_b 14.278316
_cell_length_c 21.473029
_cell_angle_alpha 90.000000
_cell_angle_beta 90.000000
_cell_angle_gamma 90.000000
_cell_volume 2950.783703
_symmetry_space_group_name_H-M "P M M M"
_symmetry_group_IT_number 47
_symmetry_cell_setting 'orthorhombic'
loop_
_space_group_symop_operation_xyz
x,y,z
-x,-y,z
x,-y,-z
-x,y,-z
-x,-y,-z
x,y,-z
-x,y,z
x,-y,z
loop_
_atom_site_type_symbol
_atom_site_label
_atom_site_fract_x
_atom_site_fract_y
_atom_site_fract_z
Si Si1 0.334693 0.111566 0.311019
Si Si2 0.838372 0.113729 0.430675
Si Si3 0.336902 0.608233 0.120163
Si Si4 0.842181 0.613685 0.000000
Si Si5 0.664951 0.795298 0.818254
Si Si6 0.836851 0.887084 0.929516
O O1 0.500000 0.124578 0.319275
O O2 0.254179 0.144207 0.372616
O O3 0.290198 0.164351 0.248267
O O4 0.310236 0.000000 0.302690
O O5 0.793067 0.144577 0.500000
O O6 0.000000 0.139527 0.422410
O O7 0.832858 0.000000 0.431056
O O8 0.500000 0.612323 0.101837
O O9 0.306185 0.500000 0.136258
O O10 0.315770 0.683747 0.174281
O O11 0.242285 0.638057 0.061944
O O12 0.847533 0.500000 0.000000
O O13 0.000000 0.649116 0.000000
O O14 0.500000 0.815109 0.824623
O O15 0.745820 0.843166 0.875075
O O16 0.000000 0.864186 0.921157
O O17 0.824885 0.000000 0.926960
O O18 0.796197 0.857799 0.000000
#
# Coordination Sequence:
#
# PCOD9384239 Si02
#       6
#     8   8   8   4   8   8
#     4   9  17  28  41  60  87 114 140 172 207 244
#     4   8  14  25  41  61  85 113 143 170 196 235
#     4   9  18  32  47  62  83 110 139 174 218 267
#     4   9  17  29  45  63  80  99 128 171 221 266
#     4  10  20  31  45  64  85 111 145 180 215 257
#     4   9  19  34  47  60  81 109 142 180 219 257
#
# _framework density 14.911293000000001
#
# number of rings (size 3 to 8) (size 9 to 14) (size 15 to 20)
#    0.000    3.000    0.000    1.909    1.273    4.364 
#    0.000    4.545    0.000    0.000    0.000    0.000 
#    0.000    0.727    0.000    9.091    0.000    1.818 
#
# Total GULP energy -245103.686677 kJ/mol
# GULP energy per Si atom -5570.538334 kJ/mol
# Density = 1.487735 g / cm^3
# Si number density = 14.911293 Si / 1000 Ang^3
#
#
#
# Elastic Constant Matrix: (Units=GPa)
#
#
# Indices 1 2 3 4 5 6 
#
# 1 44.2977 31.2309 64.5367 0.0000 0.0000 0.0000
# 2 31.2309 46.8175 51.3727 0.0000 0.0000 0.0000
# 3 64.5367 51.3727 154.7895 0.0000 0.0000 0.0000
# 4 0.0000 0.0000 0.0000 11.4503 0.0000 0.0000
# 5 0.0000 0.0000 0.0000 0.0000 24.0668 0.0000
# 6 0.0000 0.0000 0.0000 0.0000 0.0000 12.4500
#
#
#
# Elastic Compliance Matrix: (Units=1/GPa)
#
#
# Indices 1 2 3 4 5 6 
#
# 1 0.070641 -0.023285 -0.021725 0.000000 0.000000 0.000000
# 2 -0.023285 0.041269 -0.003988 0.000000 0.000000 0.000000
# 3 -0.021725 -0.003988 0.016842 0.000000 0.000000 0.000000
# 4 0.000000 0.000000 0.000000 0.087334 0.000000 0.000000
# 5 0.000000 0.000000 0.000000 0.000000 0.041551 0.000000
# 6 0.000000 0.000000 0.000000 0.000000 0.000000 0.080321
#
#
# Mechanical properties :
#
#
# Convention : Reuss Voigt Hill
#
# Bulk Modulus (GPa) = 32.51389 60.02058 46.26723
# Shear Modulus (GPa) = 11.20561 16.17772 13.69166
#
# Velocity S-wave (km/s) = 2.74430 3.29740 3.03348
# Velocity P-wave (km/s) = 5.64746 7.40515 6.58521
#
# Compressibility (1/GPa) = 0.03075608
#
# Stress axis : x y z
#
# Youngs Moduli (GPa) = 14.15607 24.23145 59.37614
#
# Poissons Ratio (x) = 0.56422 1.28992
# Poissons Ratio (y) = 0.32962 0.23682
# Poissons Ratio (z) = 0.30754 0.09665
#
# Static dielectric constant tensor:
#      x y z
#    x 1.497860 0.000000 0.000000 
#    y 0.000000 1.508740 0.000000 
#    z 0.000000 0.000000 1.478470 
# 
# From -- ./inp_files/6817.got.cif
#   From: 2010.05.17/outbox.cif.g08.bks.cpg/sg47_4_cif.got.tgz:6817.got - 2010.06.03 20:15:42.
