data_PCOD9384667
_publ_section_title
;
Structure prediction by ZEFSAII (Michael W. Deem and Ramdas Pophale) SiO2 
 PCOD9384667
Probable space group: P M M M
;
_chemical_formula_sum "Si O2"
_cell_formula_units_Z 44
_cell_length_a 9.468397
_cell_length_b 29.396138
_cell_length_c 8.958190
_cell_angle_alpha 90.000000
_cell_angle_beta 90.000000
_cell_angle_gamma 90.000000
_cell_volume 2493.371586
_symmetry_space_group_name_H-M "P M M M"
_symmetry_group_IT_number 47
_symmetry_cell_setting 'orthorhombic'
loop_
_space_group_symop_operation_xyz
x,y,z
-x,-y,z
x,-y,-z
-x,y,-z
-x,-y,-z
x,y,-z
-x,y,z
x,-y,z
loop_
_atom_site_type_symbol
_atom_site_label
_atom_site_fract_x
_atom_site_fract_y
_atom_site_fract_z
Si Si1 0.663442 0.050948 0.181636
Si Si2 0.163989 0.139032 0.819490
Si Si3 0.333903 0.416724 0.180538
Si Si4 0.165752 0.500000 0.678648
Si Si5 0.333573 0.778150 0.322411
Si Si6 0.671533 0.315249 0.828091
O O1 0.500000 0.058430 0.225302
O O2 0.761267 0.092266 0.231295
O O3 0.705989 0.000000 0.229958
O O4 0.666334 0.050768 0.000000
O O5 0.245838 0.182071 0.754311
O O6 0.000000 0.139627 0.776942
O O7 0.172327 0.140640 0.000000
O O8 0.500000 0.422401 0.219336
O O9 0.241992 0.455770 0.254200
O O10 0.285995 0.365647 0.224195
O O11 0.324971 0.419288 0.000000
O O12 0.179708 0.500000 0.500000
O O13 0.000000 0.500000 0.716947
O O14 0.321201 0.781077 0.500000
O O15 0.500000 0.783037 0.282669
O O16 0.285674 0.728304 0.267151
O O17 0.500000 0.316471 0.828123
O O18 0.716646 0.309061 0.000000
#
# Coordination Sequence:
#
# PCOD9384667 Si02
#       6
#     8   8   8   4   8   8
#     4   8  14  26  46  72  99 126 159 202 251 298
#     4  10  20  32  48  72 101 134 170 205 244 293
#     4   9  18  34  57  82 103 126 163 209 254 301
#     4  11  24  37  48  70 106 143 176 207 242 290
#     4  10  20  33  51  75 101 131 167 205 247 296
#     4   8  15  30  53  79 103 126 158 205 255 299
#
# _framework density 17.646789999999999
#
# number of rings (size 3 to 8) (size 9 to 14) (size 15 to 20)
#    0.000    2.818    0.000    3.273    0.000    5.455 
#    0.000    4.545    0.000    1.636    0.000    3.818 
#    0.000    0.000    0.000    0.000    0.000    0.000 
#
# Total GULP energy -245295.461362 kJ/mol
# GULP energy per Si atom -5574.896849 kJ/mol
# Density = 1.760662 g / cm^3
# Si number density = 17.646790 Si / 1000 Ang^3
#
#
#
# Elastic Constant Matrix: (Units=GPa)
#
#
# Indices 1 2 3 4 5 6 
#
# 1 92.0739 101.5154 38.8646 0.0000 0.0000 0.0000
# 2 101.5154 204.2536 48.4820 0.0000 0.0000 0.0000
# 3 38.8646 48.4820 19.2729 0.0000 0.0000 0.0000
# 4 0.0000 0.0000 0.0000 -12.5624 0.0000 0.0000
# 5 0.0000 0.0000 0.0000 0.0000 19.3881 0.0000
# 6 0.0000 0.0000 0.0000 0.0000 0.0000 -6.9982
#
#
#
# Elastic Compliance Matrix: (Units=1/GPa)
#
#
# Indices 1 2 3 4 5 6 
#
# 1 0.073904 -0.003367 -0.140559 0.000000 0.000000 0.000000
# 2 -0.003367 0.012305 -0.024163 0.000000 0.000000 0.000000
# 3 -0.140559 -0.024163 0.396112 0.000000 0.000000 0.000000
# 4 0.000000 0.000000 0.000000 -0.079603 0.000000 0.000000
# 5 0.000000 0.000000 0.000000 0.000000 0.051578 0.000000
# 6 0.000000 0.000000 0.000000 0.000000 0.000000 -0.142894
#
#
# Mechanical properties :
#
#
# Convention : Reuss Voigt Hill
#
# Bulk Modulus (GPa) = 6.84267 77.03604 41.93935
# Shear Modulus (GPa) = 7.18086 8.41473 7.79780
#
# Velocity S-wave (km/s) = 2.01942 2.18604 2.10438
# Velocity P-wave (km/s) = 3.05342 7.07961 5.45180
#
# Compressibility (1/GPa) = 0.14614178
#
# Stress axis : x y z
#
# Youngs Moduli (GPa) = 13.53107 81.26886 2.52454
#
# Poissons Ratio (x) = 0.27366 0.35485
# Poissons Ratio (y) = 0.04556 0.06100
# Poissons Ratio (z) = 1.90192 1.96369
#
# Static dielectric constant tensor:
#      x y z
#    x 1.581900 0.000000 0.000000 
#    y 0.000000 1.601890 0.000000 
#    z 0.000000 0.000000 1.586980 
# 
# From -- ./inp_files/2019.got.cif
#   From: 2010.05.17/outbox.cif.g08.bks.cpg/sg47_2_cif.got.tgz:2019.got - 2010.06.03 20:15:42.
