data_PCOD9384290
_publ_section_title
;
Structure prediction by ZEFSAII (Michael W. Deem and Ramdas Pophale) SiO2 
 PCOD9384290
Probable space group: P M M M
;
_chemical_formula_sum "Si O2"
_cell_formula_units_Z 64
_cell_length_a 26.609986
_cell_length_b 15.790630
_cell_length_c 8.965889
_cell_angle_alpha 90.000000
_cell_angle_beta 90.000000
_cell_angle_gamma 90.000000
_cell_volume 3767.362941
_symmetry_space_group_name_H-M "P M M M"
_symmetry_group_IT_number 47
_symmetry_cell_setting 'orthorhombic'
loop_
_space_group_symop_operation_xyz
x,y,z
-x,-y,z
x,-y,-z
-x,y,-z
-x,-y,-z
x,y,-z
-x,y,z
x,-y,z
loop_
_atom_site_type_symbol
_atom_site_label
_atom_site_fract_x
_atom_site_fract_y
_atom_site_fract_z
Si Si1 0.944114 0.121377 0.175795
Si Si2 0.945176 0.703865 0.668787
Si Si3 0.163585 0.093567 0.321479
Si Si4 0.254502 0.787215 0.320707
Si Si5 0.340880 0.099108 0.178046
Si Si6 0.444523 0.897403 0.674154
Si Si7 0.759866 0.594329 0.321727
Si Si8 0.867047 0.596637 0.832554
O O1 0.945000 0.220461 0.214080
O O2 0.892199 0.093608 0.252060
O O3 0.000000 0.091224 0.227549
O O4 0.941088 0.104742 0.000000
O O5 0.939220 0.737570 0.500000
O O6 0.900372 0.644160 0.712898
O O7 0.000000 0.661531 0.676095
O O8 0.158122 0.100322 0.500000
O O9 0.200619 0.170420 0.273341
O O10 0.186339 0.000000 0.288309
O O11 0.256143 0.795748 0.500000
O O12 0.297806 0.843968 0.249498
O O13 0.262895 0.687290 0.286654
O O14 0.395873 0.128682 0.233502
O O15 0.334748 0.000000 0.222669
O O16 0.338420 0.103265 0.000000
O O17 0.438523 0.874346 0.500000
O O18 0.500000 0.868063 0.724934
O O19 0.445592 0.000000 0.680634
O O20 0.770688 0.596496 0.500000
O O21 0.735858 0.500000 0.294592
O O22 0.810467 0.595443 0.225685
O O23 0.884589 0.500000 0.839597
O O24 0.870468 0.633027 0.000000
#
# Coordination Sequence:
#
# PCOD9384290 Si02
#       8
#     8   8   8   8   8   8   8   8
#     4  10  21  36  53  71  90 114 147 190 240 291
#     4  10  20  33  49  67  87 113 145 180 220 271
#     4  10  21  35  51  72  96 125 163 201 237 285
#     4  10  20  34  52  72  97 130 165 202 245 294
#     4  10  20  31  45  70 104 140 176 213 251 289
#     4   8  14  26  45  68  96 135 180 218 250 286
#     4   9  18  33  53  75  96 120 155 199 244 290
#     4  10  20  32  47  68  92 116 142 177 226 283
#
# _framework density 16.988009000000002
#
# number of rings (size 3 to 8) (size 9 to 14) (size 15 to 20)
#    0.000    2.375    0.000    3.000    0.000    6.500 
#    0.000    3.750    0.000    0.000    0.000    0.000 
#    0.000    0.500    0.000    5.750    0.000    1.875 
#
# Total GULP energy -356284.732956 kJ/mol
# GULP energy per Si atom -5566.948952 kJ/mol
# Density = 1.694934 g / cm^3
# Si number density = 16.988009 Si / 1000 Ang^3
#
#
#
# Elastic Constant Matrix: (Units=GPa)
#
#
# Indices 1 2 3 4 5 6 
#
# 1 96.7705 49.1654 25.8094 0.0000 0.0000 0.0000
# 2 49.1654 87.7509 26.2511 0.0000 0.0000 0.0000
# 3 25.8094 26.2511 22.2926 0.0000 0.0000 0.0000
# 4 0.0000 0.0000 0.0000 14.5688 0.0000 0.0000
# 5 0.0000 0.0000 0.0000 0.0000 8.7896 0.0000
# 6 0.0000 0.0000 0.0000 0.0000 0.0000 2.3510
#
#
#
# Elastic Compliance Matrix: (Units=1/GPa)
#
#
# Indices 1 2 3 4 5 6 
#
# 1 0.016477 -0.005442 -0.012668 0.000000 0.000000 0.000000
# 2 -0.005442 0.019391 -0.016534 0.000000 0.000000 0.000000
# 3 -0.012668 -0.016534 0.078994 0.000000 0.000000 0.000000
# 4 0.000000 0.000000 0.000000 0.068640 0.000000 0.000000
# 5 0.000000 0.000000 0.000000 0.000000 0.113771 0.000000
# 6 0.000000 0.000000 0.000000 0.000000 0.000000 0.425345
#
#
# Mechanical properties :
#
#
# Convention : Reuss Voigt Hill
#
# Bulk Modulus (GPa) = 21.94212 45.47399 33.70805
# Shear Modulus (GPa) = 6.19503 12.18109 9.18806
#
# Velocity S-wave (km/s) = 1.91171 2.68067 2.32815
# Velocity P-wave (km/s) = 4.22103 6.03388 5.20696
#
# Compressibility (1/GPa) = 0.04557445
#
# Stress axis : x y z
#
# Youngs Moduli (GPa) = 60.68909 51.56952 12.65918
#
# Poissons Ratio (x) = 0.28066 0.16037
# Poissons Ratio (y) = 0.33029 0.20930
# Poissons Ratio (z) = 0.76881 0.85264
#
# Static dielectric constant tensor:
#      x y z
#    x 1.575200 0.000000 0.000000 
#    y 0.000000 1.621330 0.000000 
#    z 0.000000 0.000000 1.573130 
# 
# From -- ./inp_files/12777.got.cif
#   From: 2010.05.17/outbox.cif.g08.bks.cpg/sg47_7_cif.got.tgz:12777.got - 2010.06.03 20:15:42.
