data_PCOD9384061
_publ_section_title
;
Structure prediction by ZEFSAII (Michael W. Deem and Ramdas Pophale) SiO2 
 PCOD9384061
Probable space group: P M M M
;
_chemical_formula_sum "Si O2"
_cell_formula_units_Z 40
_cell_length_a 20.660109
_cell_length_b 12.041609
_cell_length_c 8.881654
_cell_angle_alpha 90.000000
_cell_angle_beta 90.000000
_cell_angle_gamma 90.000000
_cell_volume 2209.586359
_symmetry_space_group_name_H-M "P M M M"
_symmetry_group_IT_number 47
_symmetry_cell_setting 'orthorhombic'
loop_
_space_group_symop_operation_xyz
x,y,z
-x,-y,z
x,-y,-z
-x,y,-z
-x,-y,-z
x,y,-z
-x,y,z
x,-y,z
loop_
_atom_site_type_symbol
_atom_site_label
_atom_site_fract_x
_atom_site_fract_y
_atom_site_fract_z
Si Si1 0.425666 0.759457 0.319404
Si Si2 0.924274 0.630322 0.820718
Si Si3 0.692944 0.369002 0.179428
Si Si4 0.632533 0.000000 0.320728
Si Si5 0.189126 0.231147 0.321192
Si Si6 0.225631 0.000000 0.820773
O O1 0.419528 0.743478 0.500000
O O2 0.500000 0.738522 0.277015
O O3 0.374654 0.681558 0.235993
O O4 0.406901 0.887792 0.288590
O O5 0.911957 0.500000 0.788958
O O6 0.875915 0.706479 0.728607
O O7 0.000000 0.652174 0.790028
O O8 0.913575 0.646452 0.000000
O O9 0.696888 0.500000 0.212266
O O10 0.750428 0.302997 0.260648
O O11 0.699253 0.353603 0.000000
O O12 0.699381 0.000000 0.230694
O O13 0.647627 0.000000 0.500000
O O14 0.193579 0.221013 0.500000
O O15 0.193870 0.110511 0.246302
O O16 0.221537 0.000000 0.000000
#
# Coordination Sequence:
#
# PCOD9384061 Si02
#       6
#     8   8   8   4   8   4
#     4  10  21  37  59  86 117 152 191 241 301 361
#     4   9  19  38  64  93 126 163 200 239 286 342
#     4  11  24  40  58  82 115 156 200 246 296 351
#     4  10  19  36  60  87 116 148 188 239 295 354
#     4  12  24  39  61  90 122 155 195 246 297 346
#     4  12  24  39  62  88 117 154 196 242 294 352
#
# _framework density 18.102936
#
# number of rings (size 3 to 8) (size 9 to 14) (size 15 to 20)
#    0.000    1.400    2.000    4.800    0.000    6.800 
#    0.000    3.500    0.000    4.800    0.000    0.000 
#    0.000    0.000    0.000    0.000    0.000    0.000 
#
# Total GULP energy -223643.756739 kJ/mol
# GULP energy per Si atom -5591.093918 kJ/mol
# Density = 1.806173 g / cm^3
# Si number density = 18.102936 Si / 1000 Ang^3
#
#
#
# Elastic Constant Matrix: (Units=GPa)
#
#
# Indices 1 2 3 4 5 6 
#
# 1 104.6030 77.5733 71.7885 0.0000 0.0000 0.0000
# 2 77.5733 138.9298 89.8936 0.0000 0.0000 0.0000
# 3 71.7885 89.8936 104.3106 0.0000 0.0000 0.0000
# 4 0.0000 0.0000 0.0000 40.1958 0.0000 0.0000
# 5 0.0000 0.0000 0.0000 0.0000 36.1111 0.0000
# 6 0.0000 0.0000 0.0000 0.0000 0.0000 40.3315
#
#
#
# Elastic Compliance Matrix: (Units=1/GPa)
#
#
# Indices 1 2 3 4 5 6 
#
# 1 0.019538 -0.004993 -0.009143 0.000000 0.000000 0.000000
# 2 -0.004993 0.017547 -0.011685 0.000000 0.000000 0.000000
# 3 -0.009143 -0.011685 0.025949 0.000000 0.000000 0.000000
# 4 0.000000 0.000000 0.000000 0.024878 0.000000 0.000000
# 5 0.000000 0.000000 0.000000 0.000000 0.027692 0.000000
# 6 0.000000 0.000000 0.000000 0.000000 0.000000 0.024794
#
#
# Mechanical properties :
#
#
# Convention : Reuss Voigt Hill
#
# Bulk Modulus (GPa) = 87.78985 91.81715 89.80350
# Shear Modulus (GPa) = 25.53118 30.56689 28.04903
#
# Velocity S-wave (km/s) = 3.75951 4.11360 3.94054
# Velocity P-wave (km/s) = 8.21251 8.56690 8.39158
#
# Compressibility (1/GPa) = 0.01139084
#
# Stress axis : x y z
#
# Youngs Moduli (GPa) = 51.18276 56.99102 38.53642
#
# Poissons Ratio (x) = 0.28456 0.35235
# Poissons Ratio (y) = 0.25556 0.45030
# Poissons Ratio (z) = 0.46798 0.66595
#
# Static dielectric constant tensor:
#      x y z
#    x 1.595640 0.000000 0.000000 
#    y 0.000000 1.601550 0.000000 
#    z 0.000000 0.000000 1.605230 
# 
# From -- ./inp_files/10718.got.cif
#   From: 2010.05.17/outbox.cif.g08.bks.cpg/sg47_6_cif.got.tgz:10718.got - 2010.06.03 20:15:42.
