data_PCOD9384020
_publ_section_title
;
Structure prediction by ZEFSAII (Michael W. Deem and Ramdas Pophale) SiO2 
 PCOD9384020
Probable space group: P M M M
;
_chemical_formula_sum "Si O2"
_cell_formula_units_Z 52
_cell_length_a 7.766634
_cell_length_b 18.647644
_cell_length_c 19.052418
_cell_angle_alpha 90.000000
_cell_angle_beta 90.000000
_cell_angle_gamma 90.000000
_cell_volume 2759.350761
_symmetry_space_group_name_H-M "P M M M"
_symmetry_group_IT_number 47
_symmetry_cell_setting 'orthorhombic'
loop_
_space_group_symop_operation_xyz
x,y,z
-x,-y,z
x,-y,-z
-x,y,-z
-x,-y,-z
x,y,-z
-x,y,z
x,-y,z
loop_
_atom_site_type_symbol
_atom_site_label
_atom_site_fract_x
_atom_site_fract_y
_atom_site_fract_z
Si Si1 0.292534 0.659579 0.420771
Si Si2 0.198785 0.076992 0.084733
Si Si3 0.700245 0.185414 0.353609
Si Si4 0.303415 0.233226 0.079631
Si Si5 0.000000 0.086394 0.585018
Si Si6 0.800875 0.725382 0.227690
Si Si7 0.201835 0.421308 0.287659
O O1 0.233256 0.651297 0.500000
O O2 0.500000 0.653081 0.418394
O O3 0.253504 0.739979 0.393532
O O4 0.216776 0.600625 0.368873
O O5 0.299720 0.148875 0.098919
O O6 0.000000 0.085610 0.107942
O O7 0.264241 0.000000 0.110794
O O8 0.195563 0.072792 0.000000
O O9 0.500000 0.167587 0.368429
O O10 0.716669 0.209847 0.271864
O O11 0.833319 0.125019 0.379604
O O12 0.500000 0.258083 0.078866
O O13 0.208265 0.268791 0.144235
O O14 0.233094 0.240987 0.000000
O O15 0.000000 0.098329 0.500000
O O16 0.000000 0.000000 0.596403
O O17 0.722029 0.648679 0.249546
O O18 0.000000 0.726897 0.250096
O O19 0.276761 0.500000 0.274198
O O20 0.000000 0.424308 0.268311
#
# Coordination Sequence:
#
# PCOD9384020 Si02
#       7
#     8   8   8   8   4   8   8
#     4   9  18  31  50  78 108 142 181 219 267 327
#     4   8  14  26  44  66  94 127 161 200 250 309
#     4  10  20  38  60  83 114 151 194 242 289 339
#     4  10  20  32  49  77 109 139 178 230 282 336
#     4  11  24  40  60  88 118 152 198 245 292 342
#     4  10  19  35  59  81 105 144 189 232 281 340
#     4   9  19  34  51  75 105 137 175 220 274 334
#
# _framework density 18.845013000000002
#
# number of rings (size 3 to 8) (size 9 to 14) (size 15 to 20)
#    0.000    2.538    0.769    1.846    1.077    4.000 
#    0.000    4.615    0.000    2.308    0.000    3.231 
#    0.000    0.000    0.000    0.000    0.000    0.000 
#
# Total GULP energy -289626.145752 kJ/mol
# GULP energy per Si atom -5569.733572 kJ/mol
# Density = 1.880212 g / cm^3
# Si number density = 18.845013 Si / 1000 Ang^3
#
#
#
# Elastic Constant Matrix: (Units=GPa)
#
#
# Indices 1 2 3 4 5 6 
#
# 1 67.5109 31.5804 12.6885 0.0000 0.0000 0.0000
# 2 31.5804 99.6607 39.6279 0.0000 0.0000 0.0000
# 3 12.6885 39.6279 97.3452 0.0000 0.0000 0.0000
# 4 0.0000 0.0000 0.0000 10.9879 0.0000 0.0000
# 5 0.0000 0.0000 0.0000 0.0000 49.8962 0.0000
# 6 0.0000 0.0000 0.0000 0.0000 0.0000 12.5384
#
#
#
# Elastic Compliance Matrix: (Units=1/GPa)
#
#
# Indices 1 2 3 4 5 6 
#
# 1 0.017390 -0.005499 -0.000028 0.000000 0.000000 0.000000
# 2 -0.005499 0.013711 -0.004865 0.000000 0.000000 0.000000
# 3 -0.000028 -0.004865 0.012257 0.000000 0.000000 0.000000
# 4 0.000000 0.000000 0.000000 0.091009 0.000000 0.000000
# 5 0.000000 0.000000 0.000000 0.000000 0.020042 0.000000
# 6 0.000000 0.000000 0.000000 0.000000 0.000000 0.079755
#
#
# Mechanical properties :
#
#
# Convention : Reuss Voigt Hill
#
# Bulk Modulus (GPa) = 44.29947 48.03448 46.16697
# Shear Modulus (GPa) = 19.04957 26.72583 22.88770
#
# Velocity S-wave (km/s) = 3.18284 3.76997 3.48878
# Velocity P-wave (km/s) = 6.08815 6.67044 6.38594
#
# Compressibility (1/GPa) = 0.02257364
#
# Stress axis : x y z
#
# Youngs Moduli (GPa) = 57.50353 72.93372 81.58775
#
# Poissons Ratio (x) = 0.40110 0.00228
# Poissons Ratio (y) = 0.31624 0.39690
# Poissons Ratio (z) = 0.00161 0.35480
#
# Static dielectric constant tensor:
#      x y z
#    x 1.705580 0.000000 0.000000 
#    y 0.000000 1.676410 0.000000 
#    z 0.000000 0.000000 1.664690 
# 
# From -- ./inp_files/26741.got.cif
#   From: 2010.05.17/outbox.cif.g08.bks.cpg/sg47_14_cif.got.tgz:26741.got - 2010.06.03 20:15:42.
