data_PCOD9384139
_publ_section_title
;
Structure prediction by ZEFSAII (Michael W. Deem and Ramdas Pophale) SiO2 
 PCOD9384139
Probable space group: P M M M
;
_chemical_formula_sum "Si O2"
_cell_formula_units_Z 36
_cell_length_a 7.421850
_cell_length_b 24.747052
_cell_length_c 9.547864
_cell_angle_alpha 90.000000
_cell_angle_beta 90.000000
_cell_angle_gamma 90.000000
_cell_volume 1753.645754
_symmetry_space_group_name_H-M "P M M M"
_symmetry_group_IT_number 47
_symmetry_cell_setting 'orthorhombic'
loop_
_space_group_symop_operation_xyz
x,y,z
-x,-y,z
x,-y,-z
-x,y,-z
-x,-y,-z
x,y,-z
-x,y,z
x,-y,z
loop_
_atom_site_type_symbol
_atom_site_label
_atom_site_fract_x
_atom_site_fract_y
_atom_site_fract_z
Si Si1 0.716744 0.382769 0.159563
Si Si2 0.214775 0.277531 0.342231
Si Si3 0.779557 0.176094 0.837130
Si Si4 0.708161 0.500000 0.170646
Si Si5 0.216860 0.058079 0.832213
O O1 0.500000 0.387674 0.152242
O O2 0.756863 0.332990 0.259114
O O3 0.786069 0.441570 0.209822
O O4 0.780492 0.372620 0.000000
O O5 0.286300 0.280011 0.500000
O O6 0.283902 0.226327 0.254451
O O7 0.000000 0.270002 0.351224
O O8 0.720210 0.116898 0.782620
O O9 0.000000 0.175773 0.836665
O O10 0.726474 0.182308 0.000000
O O11 0.500000 0.500000 0.218398
O O12 0.708164 0.500000 0.000000
O O13 0.000000 0.057482 0.813951
O O14 0.284804 0.000000 0.777682
O O15 0.249138 0.058397 0.000000
#
# Coordination Sequence:
#
# PCOD9384139 Si02
#       5
#     8   8   8   4   8
#     4   9  17  31  52  73  89 108 139 179 220 261
#     4  10  20  31  42  60  90 125 154 179 211 252
#     4   8  13  22  37  55  76 107 145 180 214 253
#     4   7  12  26  48  71  90 106 130 171 220 263
#     4   7   9  14  27  49  74  98 129 172 217 255
#
# _framework density 20.528661
#
# number of rings (size 3 to 8) (size 9 to 14) (size 15 to 20)
#    0.000    3.667    0.000    4.000    0.000    1.778 
#    0.000    1.111    0.000    6.000    0.000    4.667 
#    0.000    0.889    0.000   10.222    0.000   11.778 
#
# Total GULP energy -200468.370533 kJ/mol
# GULP energy per Si atom -5568.565848 kJ/mol
# Density = 2.048194 g / cm^3
# Si number density = 20.528661 Si / 1000 Ang^3
#
#
#
# Elastic Constant Matrix: (Units=GPa)
#
#
# Indices 1 2 3 4 5 6 
#
# 1 63.5284 4.9544 4.1901 0.0000 0.0000 0.0000
# 2 4.9544 275.5993 104.6319 0.0000 0.0000 0.0000
# 3 4.1901 104.6319 87.7096 0.0000 0.0000 0.0000
# 4 0.0000 0.0000 0.0000 -6.6352 0.0000 0.0000
# 5 0.0000 0.0000 0.0000 0.0000 10.9908 0.0000
# 6 0.0000 0.0000 0.0000 0.0000 0.0000 19.6513
#
#
#
# Elastic Compliance Matrix: (Units=1/GPa)
#
#
# Indices 1 2 3 4 5 6 
#
# 1 0.015791 0.000005 -0.000760 0.000000 0.000000 0.000000
# 2 0.000005 0.006632 -0.007912 0.000000 0.000000 0.000000
# 3 -0.000760 -0.007912 0.020876 0.000000 0.000000 0.000000
# 4 0.000000 0.000000 0.000000 -0.150711 0.000000 0.000000
# 5 0.000000 0.000000 0.000000 0.000000 0.090985 0.000000
# 6 0.000000 0.000000 0.000000 0.000000 0.000000 0.050887
#
#
# Mechanical properties :
#
#
# Convention : Reuss Voigt Hill
#
# Bulk Modulus (GPa) = 38.51409 72.71000 55.61205
# Shear Modulus (GPa) = 82.71367 25.67210 54.19288
#
# Velocity S-wave (km/s) = 6.35447 3.54015 5.14354
# Velocity P-wave (km/s) = 8.52296 7.22536 7.90085
#
# Compressibility (1/GPa) = 0.02596452
#
# Stress axis : x y z
#
# Youngs Moduli (GPa) = 63.32821 150.78013 47.90180
#
# Poissons Ratio (x) = -0.00070 0.03640
# Poissons Ratio (y) = -0.00029 0.37900
# Poissons Ratio (z) = 0.04812 1.19297
#
# Static dielectric constant tensor:
#      x y z
#    x 1.829330 0.000000 0.000000 
#    y 0.000000 1.783940 0.000000 
#    z 0.000000 0.000000 1.677770 
# 
# From -- ./inp_files/1370.got.cif
#   From: 2010.05.17/outbox.cif.g08.bks.cpg/sg47_1_cif.got.tgz:1370.got - 2010.06.03 20:15:42.
