data_PCOD9384017
_publ_section_title
;
Structure prediction by ZEFSAII (Michael W. Deem and Ramdas Pophale) SiO2 
 PCOD9384017
Probable space group: P M M M
;
_chemical_formula_sum "Si O2"
_cell_formula_units_Z 37
_cell_length_a 22.255968
_cell_length_b 10.276958
_cell_length_c 7.450105
_cell_angle_alpha 90.000000
_cell_angle_beta 90.000000
_cell_angle_gamma 90.000000
_cell_volume 1704.015196
_symmetry_space_group_name_H-M "P M M M"
_symmetry_group_IT_number 47
_symmetry_cell_setting 'orthorhombic'
loop_
_space_group_symop_operation_xyz
x,y,z
-x,-y,z
x,-y,-z
-x,y,-z
-x,-y,-z
x,y,-z
-x,y,z
x,-y,z
loop_
_atom_site_type_symbol
_atom_site_label
_atom_site_fract_x
_atom_site_fract_y
_atom_site_fract_z
Si Si1 0.000000 0.727708 0.800007
Si Si2 0.873990 0.146442 0.717197
Si Si3 0.430378 0.000000 0.720513
Si Si4 0.227700 0.650785 0.719956
Si Si5 0.644670 0.246219 0.707907
Si Si6 0.431044 0.500000 0.215982
Si Si7 0.000000 0.500000 0.500000
O O1 0.059451 0.814404 0.775206
O O2 0.000000 0.614066 0.654893
O O3 0.000000 0.673101 0.000000
O O4 0.872905 0.147092 0.500000
O O5 0.826986 0.256978 0.776020
O O6 0.858207 0.000000 0.775901
O O7 0.393366 0.126221 0.782380
O O8 0.500000 0.000000 0.778025
O O9 0.432172 0.000000 0.500000
O O10 0.228529 0.648217 0.500000
O O11 0.222326 0.500000 0.776377
O O12 0.290508 0.713551 0.782873
O O13 0.656094 0.212440 0.500000
O O14 0.603334 0.373116 0.717890
O O15 0.500000 0.500000 0.274595
O O16 0.429464 0.500000 0.000000
#
# Coordination Sequence:
#
# PCOD9384017 Si02
#       7
#     4   8   4   8   8   4   1
#     4  12  26  44  72 103 138 181 225 276 331 385
#     4  10  21  38  64  95 133 179 221 266 328 389
#     4   9  18  30  51  85 121 150 191 258 320 370
#     4   9  18  32  56  88 121 163 212 260 311 378
#     4  10  19  35  58  85 117 154 201 254 312 375
#     4  11  23  37  54  79 111 152 202 251 307 378
#     4  12  26  48  70 102 144 176 220 276 322 402
#
# _framework density 21.713422999999999
#
# number of rings (size 3 to 8) (size 9 to 14) (size 15 to 20)
#    0.000    1.946    2.162    1.459    3.027    3.459 
#    0.000    1.622    0.000    1.946    0.000    0.000 
#    0.000    0.000    0.000    0.000    0.000    0.000 
#
# Total GULP energy -206543.334385 kJ/mol
# GULP energy per Si atom -5582.252281 kJ/mol
# Density = 2.166400 g / cm^3
# Si number density = 21.713423 Si / 1000 Ang^3
#
#
#
# Elastic Constant Matrix: (Units=GPa)
#
#
# Indices 1 2 3 4 5 6 
#
# 1 218.2443 119.3928 -0.1001 0.0000 0.0000 0.0000
# 2 119.3928 217.0225 12.9676 0.0000 0.0000 0.0000
# 3 -0.1001 12.9676 90.6079 0.0000 0.0000 0.0000
# 4 0.0000 0.0000 0.0000 -27.7088 0.0000 0.0000
# 5 0.0000 0.0000 0.0000 0.0000 6.5037 0.0000
# 6 0.0000 0.0000 0.0000 0.0000 0.0000 -569.7073
#
#
#
# Elastic Compliance Matrix: (Units=1/GPa)
#
#
# Indices 1 2 3 4 5 6 
#
# 1 0.006580 -0.003652 0.000530 0.000000 0.000000 0.000000
# 2 -0.003652 0.006674 -0.000959 0.000000 0.000000 0.000000
# 3 0.000530 -0.000959 0.011174 0.000000 0.000000 0.000000
# 4 0.000000 0.000000 0.000000 -0.036090 0.000000 0.000000
# 5 0.000000 0.000000 0.000000 0.000000 0.153758 0.000000
# 6 0.000000 0.000000 0.000000 0.000000 0.000000 -0.001755
#
#
# Mechanical properties :
#
#
# Convention : Reuss Voigt Hill
#
# Bulk Modulus (GPa) = 61.47573 87.82169 74.64871
# Shear Modulus (GPa) = 32.48332 -91.94151 -29.72910
#
# Velocity S-wave (km/s) = 3.87201 -6.51422 -3.70423
# Velocity P-wave (km/s) = 6.95441 4.00581 4.01978
#
# Compressibility (1/GPa) = 0.01626658
#
# Stress axis : x y z
#
# Youngs Moduli (GPa) = 151.97899 149.83587 89.49005
#
# Poissons Ratio (x) = 0.54713 -0.04742
# Poissons Ratio (y) = 0.55495 0.08584
# Poissons Ratio (z) = -0.08053 0.14372
#
# Static dielectric constant tensor:
#      x y z
#    x 1.750170 0.000000 0.000000 
#    y 0.000000 1.741260 0.000000 
#    z 0.000000 0.000000 1.803380 
# 
# From -- ./inp_files/12169.got.cif
#   From: 2010.05.17/outbox.cif.g08.bks.cpg/sg47_7_cif.got.tgz:12169.got - 2010.06.03 20:15:42.
