data_PCOD9384855
_publ_section_title
;
Structure prediction by ZEFSAII (Michael W. Deem and Ramdas Pophale) SiO2 
 PCOD9384855
Probable space group: P M M M
;
_chemical_formula_sum "Si O2"
_cell_formula_units_Z 64
_cell_length_a 15.264781
_cell_length_b 7.996433
_cell_length_c 24.676322
_cell_angle_alpha 90.000000
_cell_angle_beta 90.000000
_cell_angle_gamma 90.000000
_cell_volume 3012.085597
_symmetry_space_group_name_H-M "P M M M"
_symmetry_group_IT_number 47
_symmetry_cell_setting 'orthorhombic'
loop_
_space_group_symop_operation_xyz
x,y,z
-x,-y,z
x,-y,-z
-x,y,-z
-x,-y,-z
x,y,-z
-x,y,z
x,-y,z
loop_
_atom_site_type_symbol
_atom_site_label
_atom_site_fract_x
_atom_site_fract_y
_atom_site_fract_z
Si Si1 0.775504 0.798480 0.173807
Si Si2 0.785830 0.192559 0.939711
Si Si3 0.594401 0.692550 0.065098
Si Si4 0.280313 0.197598 0.440707
Si Si5 0.099711 0.297480 0.394959
Si Si6 0.599765 0.303311 0.658168
Si Si7 0.597930 0.197085 0.221760
Si Si8 0.900645 0.701694 0.270804
O O1 0.817522 0.732238 0.117412
O O2 0.677718 0.731305 0.186762
O O3 0.834219 0.762558 0.225814
O O4 0.770164 0.000000 0.168369
O O5 0.681069 0.198995 0.928422
O O6 0.814727 0.000000 0.943095
O O7 0.801075 0.268048 0.000000
O O8 0.500000 0.755481 0.086141
O O9 0.607104 0.500000 0.083157
O O10 0.586799 0.684526 0.000000
O O11 0.306203 0.264802 0.500000
O O12 0.177461 0.230084 0.431456
O O13 0.334603 0.271184 0.390823
O O14 0.295872 0.000000 0.440213
O O15 0.101988 0.500000 0.396890
O O16 0.118377 0.245380 0.332605
O O17 0.000000 0.246444 0.408638
O O18 0.500000 0.253497 0.643306
O O19 0.600409 0.500000 0.670178
O O20 0.622025 0.214888 0.714760
O O21 0.500000 0.269920 0.214935
O O22 0.592837 0.000000 0.209580
O O23 0.898642 0.500000 0.271072
O O24 0.000000 0.755184 0.258172
#
# Coordination Sequence:
#
# PCOD9384855 Si02
#       8
#     8   8   8   8   8   8   8   8
#     4  10  20  32  50  77 104 133 171 212 254 304
#     4   9  18  31  45  64  94 131 168 205 247 298
#     4   8  14  25  40  58  82 114 155 201 242 281
#     4  11  24  38  53  78 112 148 184 220 258 304
#     4   9  19  37  60  84 110 140 172 209 258 314
#     4  10  21  37  57  79 103 135 179 229 274 315
#     4   9  18  33  52  75 106 140 171 209 261 317
#     4   9  19  36  57  81 106 130 161 207 263 316
#
# _framework density 21.247737999999998
#
# number of rings (size 3 to 8) (size 9 to 14) (size 15 to 20)
#    0.000    2.625    0.000    2.625    0.000    7.000 
#    0.000    6.250    0.000    1.875    0.000    2.625 
#    0.000    0.000    0.000    0.000    0.000    0.000 
#
# Total GULP energy -356878.515430 kJ/mol
# GULP energy per Si atom -5576.226804 kJ/mol
# Density = 2.119938 g / cm^3
# Si number density = 21.247738 Si / 1000 Ang^3
#
#
#
# Elastic Constant Matrix: (Units=GPa)
#
#
# Indices 1 2 3 4 5 6 
#
# 1 40.0338 -0.5055 33.7616 0.0000 0.0000 0.0000
# 2 -0.5055 22.4931 -0.9549 0.0000 0.0000 0.0000
# 3 33.7616 -0.9549 98.6043 0.0000 0.0000 0.0000
# 4 0.0000 0.0000 0.0000 4.8943 0.0000 0.0000
# 5 0.0000 0.0000 0.0000 0.0000 -2.0870 0.0000
# 6 0.0000 0.0000 0.0000 0.0000 0.0000 8.9699
#
#
#
# Elastic Compliance Matrix: (Units=1/GPa)
#
#
# Indices 1 2 3 4 5 6 
#
# 1 0.035122 0.000279 -0.012023 0.000000 0.000000 0.000000
# 2 0.000279 0.044479 0.000335 0.000000 0.000000 0.000000
# 3 -0.012023 0.000335 0.014261 0.000000 0.000000 0.000000
# 4 0.000000 0.000000 0.000000 0.204318 0.000000 0.000000
# 5 0.000000 0.000000 0.000000 0.000000 -0.479166 0.000000
# 6 0.000000 0.000000 0.000000 0.000000 0.000000 0.111484
#
#
# Mechanical properties :
#
#
# Convention : Reuss Voigt Hill
#
# Bulk Modulus (GPa) = 14.07570 25.08148 19.57859
# Shear Modulus (GPa) = -217.35894 10.94412 -103.20741
#
# Velocity S-wave (km/s) = -10.12519 2.27198 -6.97702
# Velocity P-wave (km/s) = 11.40411 4.32579 7.46128
#
# Compressibility (1/GPa) = 0.07104445
#
# Stress axis : x y z
#
# Youngs Moduli (GPa) = 28.47256 22.48270 70.11979
#
# Poissons Ratio (x) = -0.00627 0.84303
# Poissons Ratio (y) = -0.00794 -0.02351
# Poissons Ratio (z) = 0.34232 -0.00754
#
# Static dielectric constant tensor:
#      x y z
#    x 1.787590 0.000000 0.000000 
#    y 0.000000 1.765060 0.000000 
#    z 0.000000 0.000000 1.816550 
# 
# From -- ./inp_files/21896.got.cif
#   From: 2010.05.17/outbox.cif.g08.bks.cpg/sg47_11_cif.got.tgz:21896.got - 2010.06.03 20:15:42.
