data_PCOD9384408
_publ_section_title
;
Structure prediction by ZEFSAII (Michael W. Deem and Ramdas Pophale) SiO2 
 PCOD9384408
Probable space group: P M M M
;
_chemical_formula_sum "Si O2"
_cell_formula_units_Z 52
_cell_length_a 9.513411
_cell_length_b 18.371722
_cell_length_c 16.682339
_cell_angle_alpha 90.000000
_cell_angle_beta 90.000000
_cell_angle_gamma 90.000000
_cell_volume 2915.701544
_symmetry_space_group_name_H-M "P M M M"
_symmetry_group_IT_number 47
_symmetry_cell_setting 'orthorhombic'
loop_
_space_group_symop_operation_xyz
x,y,z
-x,-y,z
x,-y,-z
-x,y,-z
-x,-y,-z
x,y,-z
-x,y,z
x,-y,z
loop_
_atom_site_type_symbol
_atom_site_label
_atom_site_fract_x
_atom_site_fract_y
_atom_site_fract_z
Si Si1 0.161952 0.158673 0.903270
Si Si2 0.338573 0.282201 0.179048
Si Si3 0.833032 0.357202 0.587308
Si Si4 0.171093 0.000000 0.907071
Si Si5 0.339289 0.220483 0.640501
Si Si6 0.162345 0.916983 0.403050
Si Si7 0.167919 0.416789 0.761302
O O1 0.258215 0.224631 0.876065
O O2 0.211526 0.078748 0.872340
O O3 0.000000 0.170083 0.876719
O O4 0.160210 0.154416 0.000000
O O5 0.500000 0.293729 0.154465
O O6 0.338658 0.246397 0.267512
O O7 0.254372 0.357586 0.188777
O O8 0.803683 0.391248 0.500000
O O9 0.749159 0.281887 0.594352
O O10 0.799863 0.403695 0.666588
O O11 0.000000 0.342049 0.590719
O O12 0.000000 0.000000 0.907797
O O13 0.218171 0.000000 0.000000
O O14 0.500000 0.217581 0.612166
O O15 0.264278 0.143311 0.631795
O O16 0.169325 0.913375 0.500000
O O17 0.000000 0.902367 0.380163
O O18 0.196234 0.000000 0.379470
O O19 0.200497 0.500000 0.782325
O O20 0.000000 0.405248 0.771269
#
# Coordination Sequence:
#
# PCOD9384408 Si02
#       7
#     8   8   8   4   8   8   8
#     4   9  17  32  56  82 106 133 167 206 245 290
#     4  10  21  35  50  72 103 137 168 200 243 297
#     4   9  17  29  47  71  97 125 158 201 252 301
#     4   7  12  26  49  77 105 129 156 193 236 281
#     4  10  20  32  45  64  93 128 165 202 241 290
#     4   9  18  32  48  65  86 116 159 210 258 299
#     4   9  18  33  53  75  99 130 168 209 252 300
#
# _framework density 17.834472999999999
#
# number of rings (size 3 to 8) (size 9 to 14) (size 15 to 20)
#    0.000    2.846    0.000    2.769    0.000    5.538 
#    1.385    2.692    0.000    1.846    0.000    7.538 
#    0.000    0.000    0.000    0.000    0.000    0.000 
#
# Total GULP energy -289796.126996 kJ/mol
# GULP energy per Si atom -5573.002442 kJ/mol
# Density = 1.779388 g / cm^3
# Si number density = 17.834473 Si / 1000 Ang^3
#
#
#
# Elastic Constant Matrix: (Units=GPa)
#
#
# Indices 1 2 3 4 5 6 
#
# 1 65.4837 74.6724 15.9116 0.0000 0.0000 0.0000
# 2 74.6724 151.9179 20.7014 0.0000 0.0000 0.0000
# 3 15.9116 20.7014 15.0590 0.0000 0.0000 0.0000
# 4 0.0000 0.0000 0.0000 11.5067 0.0000 0.0000
# 5 0.0000 0.0000 0.0000 0.0000 18.6157 0.0000
# 6 0.0000 0.0000 0.0000 0.0000 0.0000 4.0499
#
#
#
# Elastic Compliance Matrix: (Units=1/GPa)
#
#
# Indices 1 2 3 4 5 6 
#
# 1 0.038327 -0.016391 -0.017965 0.000000 0.000000 0.000000
# 2 -0.016391 0.015110 -0.003452 0.000000 0.000000 0.000000
# 3 -0.017965 -0.003452 0.090132 0.000000 0.000000 0.000000
# 4 0.000000 0.000000 0.000000 0.086906 0.000000 0.000000
# 5 0.000000 0.000000 0.000000 0.000000 0.053718 0.000000
# 6 0.000000 0.000000 0.000000 0.000000 0.000000 0.246922
#
#
# Mechanical properties :
#
#
# Convention : Reuss Voigt Hill
#
# Bulk Modulus (GPa) = 14.71581 50.55904 32.63743
# Shear Modulus (GPa) = 7.94431 14.91280 11.42856
#
# Velocity S-wave (km/s) = 2.11285 2.89481 2.53417
# Velocity P-wave (km/s) = 3.77113 6.29157 5.18678
#
# Compressibility (1/GPa) = 0.06795412
#
# Stress axis : x y z
#
# Youngs Moduli (GPa) = 26.09128 66.18335 11.09479
#
# Poissons Ratio (x) = 1.08481 0.19931
# Poissons Ratio (y) = 0.42766 0.03830
# Poissons Ratio (z) = 0.46872 0.22846
#
# Static dielectric constant tensor:
#      x y z
#    x 1.595800 0.000000 0.000000 
#    y 0.000000 1.603020 0.000000 
#    z 0.000000 0.000000 1.631080 
# 
# From -- ./inp_files/9509.got.cif
#   From: 2010.05.17/outbox.cif.g08.bks.cpg/sg47_5_cif.got.tgz:9509.got - 2010.06.03 20:15:42.
