data_PCOD9384230
_publ_section_title
;
Structure prediction by ZEFSAII (Michael W. Deem and Ramdas Pophale) SiO2 
 PCOD9384230
Probable space group: P M M M
;
_chemical_formula_sum "Si O2"
_cell_formula_units_Z 44
_cell_length_a 7.392185
_cell_length_b 29.671303
_cell_length_c 9.695792
_cell_angle_alpha 90.000000
_cell_angle_beta 90.000000
_cell_angle_gamma 90.000000
_cell_volume 2126.633916
_symmetry_space_group_name_H-M "P M M M"
_symmetry_group_IT_number 47
_symmetry_cell_setting 'orthorhombic'
loop_
_space_group_symop_operation_xyz
x,y,z
-x,-y,z
x,-y,-z
-x,y,-z
-x,-y,-z
x,y,-z
-x,y,z
x,-y,z
loop_
_atom_site_type_symbol
_atom_site_label
_atom_site_fract_x
_atom_site_fract_y
_atom_site_fract_z
Si Si1 0.778146 0.717949 0.659568
Si Si2 0.717513 0.449212 0.344032
Si Si3 0.220900 0.000000 0.158739
Si Si4 0.778600 0.915041 0.340199
Si Si5 0.786089 0.364312 0.845250
Si Si6 0.209657 0.816439 0.667678
O O1 0.725059 0.711043 0.500000
O O2 0.714640 0.677141 0.754393
O O3 0.715629 0.767619 0.707933
O O4 0.000000 0.718934 0.659717
O O5 0.780161 0.438256 0.500000
O O6 0.500000 0.450561 0.348321
O O7 0.779693 0.500000 0.309619
O O8 0.766279 0.410968 0.236270
O O9 0.278040 0.955512 0.241906
O O10 0.000000 0.000000 0.159240
O O11 0.278719 0.000000 0.000000
O O12 0.725749 0.922591 0.500000
O O13 0.714822 0.865311 0.293540
O O14 0.000000 0.913857 0.340152
O O15 0.000000 0.356097 0.856284
O O16 0.711864 0.366592 0.000000
O O17 0.211920 0.816229 0.500000
O O18 0.000000 0.816580 0.712024
#
# Coordination Sequence:
#
# PCOD9384230 Si02
#       6
#     8   8   4   8   8   8
#     4   8  13  23  39  56  75 101 132 166 204 244
#     4   9  19  36  55  72  89 112 146 185 220 255
#     4   9  15  19  21  29  47  69  97 137 184 231
#     4   8  12  18  27  36  47  68 101 141 185 231
#     4  10  20  31  44  67  97 123 146 174 211 257
#     4   7  10  17  30  46  60  78 111 153 193 234
#
# _framework density 20.689976000000001
#
# number of rings (size 3 to 8) (size 9 to 14) (size 15 to 20)
#    0.000    3.545    0.000    3.545    0.000    3.273 
#    0.000    3.636    0.000    5.455    0.000    0.000 
#    0.000    0.000    0.000    0.000    0.000    0.000 
#
# Total GULP energy -245260.644815 kJ/mol
# GULP energy per Si atom -5574.105564 kJ/mol
# Density = 2.064288 g / cm^3
# Si number density = 20.689976 Si / 1000 Ang^3
#
#
#
# Elastic Constant Matrix: (Units=GPa)
#
#
# Indices 1 2 3 4 5 6 
#
# 1 69.0657 4.5721 5.1928 0.0000 0.0000 0.0000
# 2 4.5721 231.1583 136.0063 0.0000 0.0000 0.0000
# 3 5.1928 136.0063 135.8511 0.0000 0.0000 0.0000
# 4 0.0000 0.0000 0.0000 -7.5035 0.0000 0.0000
# 5 0.0000 0.0000 0.0000 0.0000 -18.8720 0.0000
# 6 0.0000 0.0000 0.0000 0.0000 0.0000 157.1411
#
#
#
# Elastic Compliance Matrix: (Units=1/GPa)
#
#
# Indices 1 2 3 4 5 6 
#
# 1 0.014522 0.000096 -0.000651 0.000000 0.000000 0.000000
# 2 0.000096 0.010527 -0.010543 0.000000 0.000000 0.000000
# 3 -0.000651 -0.010543 0.017941 0.000000 0.000000 0.000000
# 4 0.000000 0.000000 0.000000 -0.133272 0.000000 0.000000
# 5 0.000000 0.000000 0.000000 0.000000 -0.052989 0.000000
# 6 0.000000 0.000000 0.000000 0.000000 0.000000 0.006364
#
#
# Mechanical properties :
#
#
# Convention : Reuss Voigt Hill
#
# Bulk Modulus (GPa) = 48.09205 80.84636 64.46921
# Shear Modulus (GPa) = -46.39113 45.50672 -0.44220
#
# Velocity S-wave (km/s) = -4.74033 4.69493 -0.46281
# Velocity P-wave (km/s) = 2.58193 8.27948 5.56253
#
# Compressibility (1/GPa) = 0.02079346
#
# Stress axis : x y z
#
# Youngs Moduli (GPa) = 68.86305 94.99090 55.73843
#
# Poissons Ratio (x) = -0.00910 0.03628
# Poissons Ratio (y) = -0.00660 0.58765
# Poissons Ratio (z) = 0.04483 1.00149
#
# Static dielectric constant tensor:
#      x y z
#    x 1.839200 0.000000 0.000000 
#    y 0.000000 1.750890 0.000000 
#    z 0.000000 0.000000 1.690760 
# 
# From -- ./inp_files/2328.got.cif
#   From: 2010.05.17/outbox.cif.g08.bks.cpg/sg47_2_cif.got.tgz:2328.got - 2010.06.03 20:15:42.
