data_PCOD9384386
_publ_section_title
;
Structure prediction by ZEFSAII (Michael W. Deem and Ramdas Pophale) SiO2 
 PCOD9384386
Probable space group: P M M M
;
_chemical_formula_sum "Si O2"
_cell_formula_units_Z 52
_cell_length_a 9.266401
_cell_length_b 12.557326
_cell_length_c 31.516623
_cell_angle_alpha 90.000000
_cell_angle_beta 90.000000
_cell_angle_gamma 90.000000
_cell_volume 3667.312646
_symmetry_space_group_name_H-M "P M M M"
_symmetry_group_IT_number 47
_symmetry_cell_setting 'orthorhombic'
loop_
_space_group_symop_operation_xyz
x,y,z
-x,-y,z
x,-y,-z
-x,y,-z
-x,-y,-z
x,y,-z
-x,y,z
x,-y,z
loop_
_atom_site_type_symbol
_atom_site_label
_atom_site_fract_x
_atom_site_fract_y
_atom_site_fract_z
Si Si1 0.333448 0.370165 0.215819
Si Si2 0.166209 0.370494 0.699596
Si Si3 0.670370 0.627664 0.613265
Si Si4 0.333758 0.000000 0.551497
Si Si5 0.166168 0.370117 0.131098
Si Si6 0.668177 0.629418 0.952718
Si Si7 0.170937 0.216688 0.449187
O O1 0.500000 0.336648 0.217846
O O2 0.332869 0.500000 0.215985
O O3 0.244206 0.335588 0.257162
O O4 0.257547 0.336580 0.172125
O O5 0.164401 0.500000 0.700538
O O6 0.256667 0.340714 0.657963
O O7 0.000000 0.334993 0.697266
O O8 0.500000 0.652072 0.613198
O O9 0.686079 0.500000 0.608691
O O10 0.752343 0.688708 0.575980
O O11 0.248071 0.893652 0.563819
O O12 0.500000 0.000000 0.566196
O O13 0.336846 0.000000 0.500000
O O14 0.168438 0.500000 0.130796
O O15 0.237158 0.334147 0.086913
O O16 0.000000 0.337416 0.134631
O O17 0.500000 0.658274 0.946945
O O18 0.673211 0.500000 0.952670
O O19 0.714937 0.663746 0.000000
O O20 0.188798 0.229269 0.500000
O O21 0.000000 0.213078 0.440369
#
# Coordination Sequence:
#
# PCOD9384386 Si02
#       7
#     8   8   8   4   8   8   8
#     4   9  15  22  32  44  58  77 102 132 166 205
#     4   9  16  26  39  53  70  92 118 148 182 220
#     4  10  20  32  45  62  85 112 140 167 197 237
#     4   9  17  31  51  71  89 109 135 167 201 235
#     4   9  15  20  26  37  51  66  88 120 157 197
#     4   8  13  20  27  33  43  61  84 111 148 196
#     4  10  20  33  49  68  89 112 138 168 201 236
#
# _framework density 14.179320000000001
#
# number of rings (size 3 to 8) (size 9 to 14) (size 15 to 20)
#    0.000    2.846    0.000    3.000    0.000    8.923 
#    0.000    3.077    0.000    0.000    0.000    0.000 
#    0.000    0.000    0.000    0.000    0.000    0.000 
#
# Total GULP energy -289536.340101 kJ/mol
# GULP energy per Si atom -5568.006540 kJ/mol
# Density = 1.414705 g / cm^3
# Si number density = 14.179320 Si / 1000 Ang^3
#
#
#
# Elastic Constant Matrix: (Units=GPa)
#
#
# Indices 1 2 3 4 5 6 
#
# 1 143.6072 30.2845 81.4525 0.0000 0.0000 0.0000
# 2 30.2845 18.1781 26.1684 0.0000 0.0000 0.0000
# 3 81.4525 26.1684 98.9599 0.0000 0.0000 0.0000
# 4 0.0000 0.0000 0.0000 -0.7731 0.0000 0.0000
# 5 0.0000 0.0000 0.0000 0.0000 28.1722 0.0000
# 6 0.0000 0.0000 0.0000 0.0000 0.0000 12.5468
#
#
#
# Elastic Compliance Matrix: (Units=1/GPa)
#
#
# Indices 1 2 3 4 5 6 
#
# 1 0.014333 -0.011134 -0.008853 0.000000 0.000000 0.000000
# 2 -0.011134 0.097472 -0.016611 0.000000 0.000000 0.000000
# 3 -0.008853 -0.016611 0.021784 0.000000 0.000000 0.000000
# 4 0.000000 0.000000 0.000000 -1.293508 0.000000 0.000000
# 5 0.000000 0.000000 0.000000 0.000000 0.035496 0.000000
# 6 0.000000 0.000000 0.000000 0.000000 0.000000 0.079702
#
#
# Mechanical properties :
#
#
# Convention : Reuss Voigt Hill
#
# Bulk Modulus (GPa) = 16.55790 59.61733 38.08762
# Shear Modulus (GPa) = -5.25544 16.17852 5.46154
#
# Velocity S-wave (km/s) = -1.92729 3.38152 1.96472
# Velocity P-wave (km/s) = 2.59812 7.57515 5.66273
#
# Compressibility (1/GPa) = 0.06039414
#
# Stress axis : x y z
#
# Youngs Moduli (GPa) = 69.77099 10.25930 45.90489
#
# Poissons Ratio (x) = 0.11423 0.40639
# Poissons Ratio (y) = 0.77682 0.76252
# Poissons Ratio (z) = 0.61767 0.17042
#
# Static dielectric constant tensor:
#      x y z
#    x 1.475050 0.000000 0.000000 
#    y 0.000000 1.429470 0.000000 
#    z 0.000000 0.000000 1.473490 
# 
# From -- ./inp_files/4765.got.cif
#   From: 2010.05.17/outbox.cif.g08.bks.cpg/sg47_3_cif.got.tgz:4765.got - 2010.06.03 20:15:42.
