data_PCOD9384640
_publ_section_title
;
Structure prediction by ZEFSAII (Michael W. Deem and Ramdas Pophale) SiO2 
 PCOD9384640
Probable space group: P M M M
;
_chemical_formula_sum "Si O2"
_cell_formula_units_Z 32
_cell_length_a 8.126889
_cell_length_b 9.591567
_cell_length_c 21.655496
_cell_angle_alpha 90.000000
_cell_angle_beta 90.000000
_cell_angle_gamma 90.000000
_cell_volume 1688.037258
_symmetry_space_group_name_H-M "P M M M"
_symmetry_group_IT_number 47
_symmetry_cell_setting 'orthorhombic'
loop_
_space_group_symop_operation_xyz
x,y,z
-x,-y,z
x,-y,-z
-x,y,-z
-x,-y,-z
x,y,-z
-x,y,z
x,-y,z
loop_
_atom_site_type_symbol
_atom_site_label
_atom_site_fract_x
_atom_site_fract_y
_atom_site_fract_z
Si Si1 0.302187 0.842073 0.684538
Si Si2 0.700858 0.660638 0.430378
Si Si3 0.195407 0.339823 0.199838
Si Si4 0.302175 0.665028 0.066732
O O1 0.500000 0.848649 0.679119
O O2 0.240074 0.760978 0.623836
O O3 0.263470 0.754127 0.745484
O O4 0.238905 0.000000 0.688328
O O5 0.751939 0.699777 0.500000
O O6 0.500000 0.662536 0.429896
O O7 0.749900 0.500000 0.418960
O O8 0.260472 0.500000 0.204025
O O9 0.236053 0.281016 0.131685
O O10 0.000000 0.346019 0.205908
O O11 0.500000 0.675093 0.068181
O O12 0.259431 0.500000 0.066306
O O13 0.245858 0.722813 0.000000
#
# Coordination Sequence:
#
# PCOD9384640 Si02
#       4
#     8   8   8   8
#     4  10  20  32  48  71  98 130 166 202 242 288
#     4   8  14  26  46  72  99 125 155 195 243 291
#     4  10  20  32  48  71  98 130 166 202 242 288
#     4   8  14  26  46  72  99 125 155 195 243 291
#
# _framework density 18.956928000000001
#
# number of rings (size 3 to 8) (size 9 to 14) (size 15 to 20)
#    0.000    3.000    0.000    3.000    0.000    4.000 
#    0.000    5.000    0.000    1.500    0.000   10.500 
#    0.000    0.000    0.000    0.000    0.000    0.000 
#
# Total GULP energy -178292.079212 kJ/mol
# GULP energy per Si atom -5571.627475 kJ/mol
# Density = 1.891378 g / cm^3
# Si number density = 18.956928 Si / 1000 Ang^3
#
#
#
# Elastic Constant Matrix: (Units=GPa)
#
#
# Indices 1 2 3 4 5 6 
#
# 1 6.6176 8.9841 11.4546 0.0000 0.0000 0.0000
# 2 8.9841 89.5426 101.0763 0.0000 0.0000 0.0000
# 3 11.4546 101.0763 203.2098 0.0000 0.0000 0.0000
# 4 0.0000 0.0000 0.0000 -5.1097 0.0000 0.0000
# 5 0.0000 0.0000 0.0000 0.0000 -29.5493 0.0000
# 6 0.0000 0.0000 0.0000 0.0000 0.0000 9.5907
#
#
#
# Elastic Compliance Matrix: (Units=1/GPa)
#
#
# Indices 1 2 3 4 5 6 
#
# 1 0.175536 -0.014692 -0.002587 0.000000 0.000000 0.000000
# 2 -0.014692 0.026696 -0.012450 0.000000 0.000000 0.000000
# 3 -0.002587 -0.012450 0.011260 0.000000 0.000000 0.000000
# 4 0.000000 0.000000 0.000000 -0.195708 0.000000 0.000000
# 5 0.000000 0.000000 0.000000 0.000000 -0.033842 0.000000
# 6 0.000000 0.000000 0.000000 0.000000 0.000000 0.104267
#
#
# Mechanical properties :
#
#
# Convention : Reuss Voigt Hill
#
# Bulk Modulus (GPa) = 6.49212 60.26667 33.37940
# Shear Modulus (GPa) = 25.12404 6.84336 15.98370
#
# Velocity S-wave (km/s) = 3.64445 1.90205 2.90687
# Velocity P-wave (km/s) = 4.59798 6.05674 5.37706
#
# Compressibility (1/GPa) = 0.15403286
#
# Stress axis : x y z
#
# Youngs Moduli (GPa) = 5.69684 37.45865 88.81261
#
# Poissons Ratio (x) = 0.55035 0.22974
# Poissons Ratio (y) = 0.08370 1.10576
# Poissons Ratio (z) = 0.01474 0.46638
#
# Static dielectric constant tensor:
#      x y z
#    x 1.664650 0.000000 0.000000 
#    y 0.000000 1.643370 0.000000 
#    z 0.000000 0.000000 1.674080 
# 
# From -- ./inp_files/956.got.cif
#   From: 2010.05.17/outbox.cif.g08.bks.cpg/sg47_1_cif.got.tgz:956.got - 2010.06.03 20:15:42.
