data_PCOD9384806
_publ_section_title
;
Structure prediction by ZEFSAII (Michael W. Deem and Ramdas Pophale) SiO2 
 PCOD9384806
Probable space group: P M M M
;
_chemical_formula_sum "Si O2"
_cell_formula_units_Z 48
_cell_length_a 7.511741
_cell_length_b 9.457792
_cell_length_c 32.320289
_cell_angle_alpha 90.000000
_cell_angle_beta 90.000000
_cell_angle_gamma 90.000000
_cell_volume 2296.178253
_symmetry_space_group_name_H-M "P M M M"
_symmetry_group_IT_number 47
_symmetry_cell_setting 'orthorhombic'
loop_
_space_group_symop_operation_xyz
x,y,z
-x,-y,z
x,-y,-z
-x,y,-z
-x,-y,-z
x,y,-z
-x,y,z
x,-y,z
loop_
_atom_site_type_symbol
_atom_site_label
_atom_site_fract_x
_atom_site_fract_y
_atom_site_fract_z
Si Si1 0.714000 0.160044 0.875145
Si Si2 0.714640 0.662375 0.634443
Si Si3 0.212255 0.840277 0.715918
Si Si4 0.712214 0.329082 0.544495
Si Si5 0.786851 0.339890 0.793349
Si Si6 0.282851 0.336941 0.953449
O O1 0.500000 0.152940 0.878482
O O2 0.753618 0.254464 0.835261
O O3 0.779754 0.235929 0.916865
O O4 0.781100 0.000000 0.870484
O O5 0.500000 0.656371 0.631747
O O6 0.776523 0.500000 0.641090
O O7 0.759820 0.760933 0.672701
O O8 0.780557 0.716648 0.589492
O O9 0.283531 0.746752 0.753888
O O10 0.000000 0.850326 0.721956
O O11 0.283694 0.000000 0.715673
O O12 0.784778 0.278689 0.500000
O O13 0.500000 0.300055 0.543794
O O14 0.731317 0.500000 0.544962
O O15 0.716963 0.500000 0.795313
O O16 0.000000 0.349665 0.788538
O O17 0.500000 0.335146 0.953183
O O18 0.230015 0.500000 0.946014
O O19 0.227464 0.296654 0.000000
#
# Coordination Sequence:
#
# PCOD9384806 Si02
#       6
#     8   8   8   8   8   8
#     4  10  20  32  49  76 106 133 161 195 238 286
#     4   9  17  29  48  75 101 124 155 196 240 283
#     4  10  21  36  52  69  92 125 162 197 237 287
#     4   7  10  19  38  65  95 123 151 187 231 276
#     4  10  21  37  56  74  92 121 162 203 244 290
#     4   8  14  26  45  69  98 132 167 201 237 277
#
# _framework density 20.904299999999999
#
# number of rings (size 3 to 8) (size 9 to 14) (size 15 to 20)
#    0.000    3.000    0.000    3.500    0.000    4.333 
#    0.000    1.667    0.000    1.500    0.000    9.333 
#    0.000    0.000    0.000    0.000    0.000    0.000 
#
# Total GULP energy -267733.449139 kJ/mol
# GULP energy per Si atom -5577.780190 kJ/mol
# Density = 2.085672 g / cm^3
# Si number density = 20.904300 Si / 1000 Ang^3
#
#
#
# Elastic Constant Matrix: (Units=GPa)
#
#
# Indices 1 2 3 4 5 6 
#
# 1 54.6101 7.7208 1.4134 0.0000 0.0000 0.0000
# 2 7.7208 163.4095 134.9504 0.0000 0.0000 0.0000
# 3 1.4134 134.9504 236.0659 0.0000 0.0000 0.0000
# 4 0.0000 0.0000 0.0000 -112.5562 0.0000 0.0000
# 5 0.0000 0.0000 0.0000 0.0000 35.6067 0.0000
# 6 0.0000 0.0000 0.0000 0.0000 0.0000 12.6042
#
#
#
# Elastic Compliance Matrix: (Units=1/GPa)
#
#
# Indices 1 2 3 4 5 6 
#
# 1 0.018502 -0.001483 0.000737 0.000000 0.000000 0.000000
# 2 -0.001483 0.011711 -0.006686 0.000000 0.000000 0.000000
# 3 0.000737 -0.006686 0.008054 0.000000 0.000000 0.000000
# 4 0.000000 0.000000 0.000000 -0.008884 0.000000 0.000000
# 5 0.000000 0.000000 0.000000 0.000000 0.028085 0.000000
# 6 0.000000 0.000000 0.000000 0.000000 0.000000 0.079339
#
#
# Mechanical properties :
#
#
# Convention : Reuss Voigt Hill
#
# Bulk Modulus (GPa) = 42.72867 82.47273 62.60070
# Shear Modulus (GPa) = 31.35365 7.79767 19.57566
#
# Velocity S-wave (km/s) = 3.87701 1.93346 3.06345
# Velocity P-wave (km/s) = 6.36601 6.67252 6.52107
#
# Compressibility (1/GPa) = 0.02340349
#
# Stress axis : x y z
#
# Youngs Moduli (GPa) = 54.04768 85.38799 124.16417
#
# Poissons Ratio (x) = 0.12661 -0.09149
# Poissons Ratio (y) = 0.08014 0.83016
# Poissons Ratio (z) = -0.03982 0.57091
#
# Static dielectric constant tensor:
#      x y z
#    x 1.811570 0.000000 0.000000 
#    y 0.000000 1.718910 0.000000 
#    z 0.000000 0.000000 1.751400 
# 
# From -- ./inp_files/2471.got.cif
#   From: 2010.05.17/outbox.cif.g08.bks.cpg/sg47_2_cif.got.tgz:2471.got - 2010.06.03 20:15:42.
