data_PCOD9384910
_publ_section_title
;
Structure prediction by ZEFSAII (Michael W. Deem and Ramdas Pophale) SiO2 
 PCOD9384910
Probable space group: P M M M
;
_chemical_formula_sum "Si O2"
_cell_formula_units_Z 52
_cell_length_a 11.724046
_cell_length_b 9.184563
_cell_length_c 32.131751
_cell_angle_alpha 90.000000
_cell_angle_beta 90.000000
_cell_angle_gamma 90.000000
_cell_volume 3459.954630
_symmetry_space_group_name_H-M "P M M M"
_symmetry_group_IT_number 47
_symmetry_cell_setting 'orthorhombic'
loop_
_space_group_symop_operation_xyz
x,y,z
-x,-y,z
x,-y,-z
-x,y,-z
-x,-y,-z
x,y,-z
-x,y,z
x,-y,z
loop_
_atom_site_type_symbol
_atom_site_label
_atom_site_fract_x
_atom_site_fract_y
_atom_site_fract_z
Si Si1 0.139159 0.331902 0.500000
Si Si2 0.861614 0.170372 0.582996
Si Si3 0.138711 0.333100 0.757863
Si Si4 0.500000 0.676142 0.952061
Si Si5 0.863414 0.170525 0.000000
Si Si6 0.138743 0.829795 0.324872
Si Si7 0.748551 0.675803 0.078753
Si Si8 0.136935 0.172498 0.157158
O O1 0.170440 0.500000 0.500000
O O2 0.179018 0.255795 0.457512
O O3 0.000000 0.322903 0.500000
O O4 0.824192 0.220841 0.629028
O O5 0.000000 0.179741 0.582961
O O6 0.833206 0.000000 0.579085
O O7 0.176047 0.500000 0.762601
O O8 0.178408 0.263648 0.714354
O O9 0.169631 0.236610 0.797784
O O10 0.000000 0.333555 0.756558
O O11 0.500000 0.500000 0.954423
O O12 0.383833 0.716341 0.928809
O O13 0.500000 0.729770 0.000000
O O14 0.816451 0.253073 0.959592
O O15 0.000000 0.174944 0.000000
O O16 0.828614 0.000000 0.000000
O O17 0.000000 0.824861 0.324781
O O18 0.169392 0.000000 0.319944
O O19 0.759196 0.500000 0.078083
O O20 0.798358 0.741362 0.121059
O O21 0.000000 0.193093 0.152012
O O22 0.159249 0.000000 0.154855
#
# Coordination Sequence:
#
# PCOD9384910 Si02
#       8
#     4   8   8   4   4   8   8   8
#     4   9  15  19  23  33  49  69  97 139 189 232
#     4   8  13  20  28  36  49  73 105 139 180 234
#     4   9  16  25  38  56  76  99 128 159 193 239
#     4   9  18  36  56  74  94 116 142 176 214 243
#     4  11  23  36  49  70 100 125 144 171 208 245
#     4   8  13  21  32  45  61  84 114 148 189 236
#     4  11  21  35  55  73  91 116 147 177 206 245
#     4  10  20  33  47  65  92 119 140 169 210 251
#
# _framework density 15.029099
#
# number of rings (size 3 to 8) (size 9 to 14) (size 15 to 20)
#    0.000    2.692    0.769    3.231    0.000    6.769 
#    0.000    5.000    0.000    0.000    0.000    0.000 
#    0.000    0.000    0.000    0.000    0.000    0.000 
#
# Total GULP energy -289579.682997 kJ/mol
# GULP energy per Si atom -5568.840058 kJ/mol
# Density = 1.499489 g / cm^3
# Si number density = 15.029099 Si / 1000 Ang^3
#
#
#
# Elastic Constant Matrix: (Units=GPa)
#
#
# Indices 1 2 3 4 5 6 
#
# 1 34.0663 29.7362 33.3048 0.0000 0.0000 0.0000
# 2 29.7362 92.7387 80.5771 0.0000 0.0000 0.0000
# 3 33.3048 80.5771 165.2690 0.0000 0.0000 0.0000
# 4 0.0000 0.0000 0.0000 17.0123 0.0000 0.0000
# 5 0.0000 0.0000 0.0000 0.0000 -1.4895 0.0000
# 6 0.0000 0.0000 0.0000 0.0000 0.0000 6.0180
#
#
#
# Elastic Compliance Matrix: (Units=1/GPa)
#
#
# Indices 1 2 3 4 5 6 
#
# 1 0.041760 -0.010546 -0.003274 0.000000 0.000000 0.000000
# 2 -0.010546 0.021371 -0.008294 0.000000 0.000000 0.000000
# 3 -0.003274 -0.008294 0.010754 0.000000 0.000000 0.000000
# 4 0.000000 0.000000 0.000000 0.058781 0.000000 0.000000
# 5 0.000000 0.000000 0.000000 0.000000 -0.671370 0.000000
# 6 0.000000 0.000000 0.000000 0.000000 0.000000 0.166169
#
#
# Mechanical properties :
#
#
# Convention : Reuss Voigt Hill
#
# Bulk Modulus (GPa) = 33.71768 64.36780 49.04274
# Shear Modulus (GPa) = -15.70253 14.20521 -0.74866
#
# Velocity S-wave (km/s) = -3.23586 3.07771 -0.70655
# Velocity P-wave (km/s) = 2.91935 7.45329 5.66013
#
# Compressibility (1/GPa) = 0.02965803
#
# Stress axis : x y z
#
# Youngs Moduli (GPa) = 23.94609 46.79242 92.98508
#
# Poissons Ratio (x) = 0.49345 0.30443
# Poissons Ratio (y) = 0.25253 0.77125
# Poissons Ratio (z) = 0.07840 0.38811
#
# Static dielectric constant tensor:
#      x y z
#    x 1.465330 0.000000 0.000000 
#    y 0.000000 1.502340 0.000000 
#    z 0.000000 0.000000 1.512580 
# 
# From -- ./inp_files/34550.got.cif
#   From: 2010.05.17/outbox.cif.g08.bks.cpg/sg47_18_cif.got.tgz:34550.got - 2010.06.03 20:15:42.
