data_PCOD9384846
_publ_section_title
;
Structure prediction by ZEFSAII (Michael W. Deem and Ramdas Pophale) SiO2 
 PCOD9384846
Probable space group: P M M M
;
_chemical_formula_sum "Si O2"
_cell_formula_units_Z 56
_cell_length_a 15.806909
_cell_length_b 7.827545
_cell_length_c 21.255079
_cell_angle_alpha 90.000000
_cell_angle_beta 90.000000
_cell_angle_gamma 90.000000
_cell_volume 2629.875866
_symmetry_space_group_name_H-M "P M M M"
_symmetry_group_IT_number 47
_symmetry_cell_setting 'orthorhombic'
loop_
_space_group_symop_operation_xyz
x,y,z
-x,-y,z
x,-y,-z
-x,y,-z
-x,-y,-z
x,y,-z
-x,y,z
x,-y,z
loop_
_atom_site_type_symbol
_atom_site_label
_atom_site_fract_x
_atom_site_fract_y
_atom_site_fract_z
Si Si1 0.399540 0.193812 0.500000
Si Si2 0.217393 0.796975 0.205845
Si Si3 0.589135 0.695739 0.075277
Si Si4 0.154573 0.704508 0.338572
Si Si5 0.406866 0.197756 0.240284
Si Si6 0.658899 0.301282 0.633571
Si Si7 0.774342 0.706292 0.070991
Si Si8 0.000000 0.709817 0.426134
O O1 0.500000 0.188187 0.500000
O O2 0.370906 0.284486 0.436967
O O3 0.366484 0.000000 0.500000
O O4 0.157726 0.741642 0.263841
O O5 0.315149 0.728509 0.216990
O O6 0.181539 0.748156 0.136983
O O7 0.223812 0.000000 0.209225
O O8 0.500000 0.778138 0.094214
O O9 0.590727 0.500000 0.099824
O O10 0.679805 0.779402 0.084401
O O11 0.586123 0.681148 0.000000
O O12 0.152992 0.500000 0.344845
O O13 0.245884 0.767330 0.361543
O O14 0.080595 0.767279 0.384408
O O15 0.500000 0.274590 0.225101
O O16 0.397657 0.205505 0.315590
O O17 0.408570 0.000000 0.219918
O O18 0.658034 0.500000 0.652446
O O19 0.768177 0.500000 0.067519
O O20 0.801407 0.761665 0.000000
O O21 0.000000 0.500000 0.427310
O O22 0.000000 0.762679 0.500000
#
# Coordination Sequence:
#
# PCOD9384846 Si02
#       8
#     4   8   8   8   8   8   8   4
#     4  11  23  35  47  66  97 140 182 215 255 307
#     4  10  20  33  50  72 103 142 181 221 265 315
#     4   7  10  18  33  54  82 117 158 208 266 318
#     4   9  19  36  58  83 110 139 170 207 253 311
#     4   9  18  33  49  64  90 133 181 223 265 314
#     4  10  20  32  50  75 101 128 166 218 266 303
#     4   9  17  29  46  69  97 130 173 224 272 318
#     4   9  18  34  63  95 118 139 168 203 247 310
#
# _framework density 21.293780000000002
#
# number of rings (size 3 to 8) (size 9 to 14) (size 15 to 20)
#    0.000    2.857    0.000    2.786    1.000    4.571 
#    0.000    0.357    0.000    0.429    0.000    4.500 
#    0.000    4.000    0.000    0.000    0.000    0.000 
#
# Total GULP energy -311770.964043 kJ/mol
# GULP energy per Si atom -5567.338644 kJ/mol
# Density = 2.124531 g / cm^3
# Si number density = 21.293780 Si / 1000 Ang^3
#
#
#
# Elastic Constant Matrix: (Units=GPa)
#
#
# Indices 1 2 3 4 5 6 
#
# 1 69.8463 9.0770 52.3308 0.0000 0.0000 0.0000
# 2 9.0770 33.3291 -1.2670 0.0000 0.0000 0.0000
# 3 52.3308 -1.2670 195.7109 0.0000 0.0000 0.0000
# 4 0.0000 0.0000 0.0000 31.7224 0.0000 0.0000
# 5 0.0000 0.0000 0.0000 0.0000 -7.8180 0.0000
# 6 0.0000 0.0000 0.0000 0.0000 0.0000 9.0872
#
#
#
# Elastic Compliance Matrix: (Units=1/GPa)
#
#
# Indices 1 2 3 4 5 6 
#
# 1 0.018799 -0.005312 -0.005061 0.000000 0.000000 0.000000
# 2 -0.005312 0.031512 0.001624 0.000000 0.000000 0.000000
# 3 -0.005061 0.001624 0.006473 0.000000 0.000000 0.000000
# 4 0.000000 0.000000 0.000000 0.031523 0.000000 0.000000
# 5 0.000000 0.000000 0.000000 0.000000 -0.127911 0.000000
# 6 0.000000 0.000000 0.000000 0.000000 0.000000 0.110045
#
#
# Mechanical properties :
#
#
# Convention : Reuss Voigt Hill
#
# Bulk Modulus (GPa) = 25.45362 46.57422 36.01392
# Shear Modulus (GPa) = 49.48714 22.51471 36.00092
#
# Velocity S-wave (km/s) = 4.82604 3.25520 4.11625
# Velocity P-wave (km/s) = 6.56001 6.00401 6.28816
#
# Compressibility (1/GPa) = 0.03928715
#
# Stress axis : x y z
#
# Youngs Moduli (GPa) = 53.19299 31.73360 154.47870
#
# Poissons Ratio (x) = 0.16858 0.78184
# Poissons Ratio (y) = 0.28258 -0.25094
# Poissons Ratio (z) = 0.26922 -0.05155
#
# Static dielectric constant tensor:
#      x y z
#    x 1.849440 0.000000 0.000000 
#    y 0.000000 1.797460 0.000000 
#    z 0.000000 0.000000 1.814300 
# 
# From -- ./inp_files/31053.got.cif
#   From: 2010.05.17/outbox.cif.g08.bks.cpg/sg47_16_cif.got.tgz:31053.got - 2010.06.03 20:15:42.
