data_PCOD9384086
_publ_section_title
;
Structure prediction by ZEFSAII (Michael W. Deem and Ramdas Pophale) SiO2 
 PCOD9384086
Probable space group: P M M M
;
_chemical_formula_sum "Si O2"
_cell_formula_units_Z 44
_cell_length_a 7.548698
_cell_length_b 9.469217
_cell_length_c 32.075166
_cell_angle_alpha 90.000000
_cell_angle_beta 90.000000
_cell_angle_gamma 90.000000
_cell_volume 2292.741187
_symmetry_space_group_name_H-M "P M M M"
_symmetry_group_IT_number 47
_symmetry_cell_setting 'orthorhombic'
loop_
_space_group_symop_operation_xyz
x,y,z
-x,-y,z
x,-y,-z
-x,y,-z
-x,-y,-z
x,y,-z
-x,y,z
x,-y,z
loop_
_atom_site_type_symbol
_atom_site_label
_atom_site_fract_x
_atom_site_fract_y
_atom_site_fract_z
Si Si1 0.212922 0.669703 0.044811
Si Si2 0.216941 0.664222 0.864270
Si Si3 0.000000 0.327570 0.547733
Si Si4 0.287159 0.339673 0.703668
Si Si5 0.702981 0.672156 0.388047
Si Si6 0.788110 0.159017 0.785146
O O1 0.241109 0.500000 0.045164
O O2 0.276282 0.719353 0.090139
O O3 0.000000 0.690755 0.044292
O O4 0.281615 0.723320 0.000000
O O5 0.268746 0.500000 0.859643
O O6 0.279345 0.754579 0.825114
O O7 0.000000 0.665450 0.864661
O O8 0.829253 0.283352 0.574506
O O9 0.000000 0.500000 0.547007
O O10 0.000000 0.279511 0.500000
O O11 0.500000 0.347319 0.700422
O O12 0.221287 0.500000 0.710746
O O13 0.228009 0.287190 0.658020
O O14 0.243897 0.241756 0.742389
O O15 0.500000 0.718690 0.393572
O O16 0.701787 0.500000 0.387198
O O17 0.000000 0.151145 0.790269
O O18 0.718006 0.000000 0.783461
#
# Coordination Sequence:
#
# PCOD9384086 Si02
#       6
#     8   8   4   8   8   8
#     4   7   9  14  27  48  72  99 135 179 221 260
#     4   8  13  22  36  54  78 110 147 183 222 269
#     4   9  16  24  38  64  95 129 163 189 228 285
#     4   9  18  32  49  67  86 114 155 196 232 273
#     4   8  15  27  41  61  90 121 156 198 237 277
#     4  10  20  30  41  62  91 120 149 184 229 279
#
# _framework density 19.191001
#
# number of rings (size 3 to 8) (size 9 to 14) (size 15 to 20)
#    0.000    3.545    0.000    3.273    1.273    1.818 
#    0.000    1.818    0.000    0.545    0.000    3.818 
#    0.000    2.182    0.000   12.364    0.000   13.636 
#
# Total GULP energy -245021.070229 kJ/mol
# GULP energy per Si atom -5568.660687 kJ/mol
# Density = 1.914732 g / cm^3
# Si number density = 19.191001 Si / 1000 Ang^3
#
#
#
# Elastic Constant Matrix: (Units=GPa)
#
#
# Indices 1 2 3 4 5 6 
#
# 1 57.2720 12.6334 42.9616 0.0000 0.0000 0.0000
# 2 12.6334 51.7606 70.2398 0.0000 0.0000 0.0000
# 3 42.9616 70.2398 246.3023 0.0000 0.0000 0.0000
# 4 0.0000 0.0000 0.0000 -4.7701 0.0000 0.0000
# 5 0.0000 0.0000 0.0000 0.0000 249.1621 0.0000
# 6 0.0000 0.0000 0.0000 0.0000 0.0000 2.0982
#
#
#
# Elastic Compliance Matrix: (Units=1/GPa)
#
#
# Indices 1 2 3 4 5 6 
#
# 1 0.020091 -0.000242 -0.003435 0.000000 0.000000 0.000000
# 2 -0.000242 0.031519 -0.008946 0.000000 0.000000 0.000000
# 3 -0.003435 -0.008946 0.007211 0.000000 0.000000 0.000000
# 4 0.000000 0.000000 0.000000 -0.209638 0.000000 0.000000
# 5 0.000000 0.000000 0.000000 0.000000 0.004013 0.000000
# 6 0.000000 0.000000 0.000000 0.000000 0.000000 0.476609
#
#
# Mechanical properties :
#
#
# Convention : Reuss Voigt Hill
#
# Bulk Modulus (GPa) = 29.78547 67.44495 48.61521
# Shear Modulus (GPa) = 13.65216 64.59804 39.12510
#
# Velocity S-wave (km/s) = 2.67007 5.80807 4.52012
# Velocity P-wave (km/s) = 5.00599 8.95536 7.25460
#
# Compressibility (1/GPa) = 0.03357341
#
# Stress axis : x y z
#
# Youngs Moduli (GPa) = 49.77378 31.72696 138.68540
#
# Poissons Ratio (x) = 0.00767 0.47645
# Poissons Ratio (y) = 0.01203 1.24072
# Poissons Ratio (z) = 0.17099 0.28384
#
# Static dielectric constant tensor:
#      x y z
#    x 1.779820 0.000000 0.000000 
#    y 0.000000 1.627430 0.000000 
#    z 0.000000 0.000000 1.698900 
# 
# From -- ./inp_files/33874.got.cif
#   From: 2010.05.17/outbox.cif.g08.bks.cpg/sg47_17_cif.got.tgz:33874.got - 2010.06.03 20:15:42.
