data_PCOD9384044
_publ_section_title
;
Structure prediction by ZEFSAII (Michael W. Deem and Ramdas Pophale) SiO2 
 PCOD9384044
Probable space group: P M M M
;
_chemical_formula_sum "Si O2"
_cell_formula_units_Z 48
_cell_length_a 19.407120
_cell_length_b 8.780895
_cell_length_c 15.413653
_cell_angle_alpha 90.000000
_cell_angle_beta 90.000000
_cell_angle_gamma 90.000000
_cell_volume 2626.669631
_symmetry_space_group_name_H-M "P M M M"
_symmetry_group_IT_number 47
_symmetry_cell_setting 'orthorhombic'
loop_
_space_group_symop_operation_xyz
x,y,z
-x,-y,z
x,-y,-z
-x,y,-z
-x,-y,-z
x,y,-z
-x,y,z
x,-y,z
loop_
_atom_site_type_symbol
_atom_site_label
_atom_site_fract_x
_atom_site_fract_y
_atom_site_fract_z
Si Si1 0.081014 0.682237 0.000000
Si Si2 0.330089 0.683254 0.399671
Si Si3 0.825832 0.316318 0.339494
Si Si4 0.322074 0.318363 0.100714
Si Si5 0.419665 0.182283 0.246538
Si Si6 0.826317 0.181544 0.150745
Si Si7 0.921078 0.314426 0.500000
O O1 0.118659 0.750295 0.083949
O O2 0.089815 0.500000 0.000000
O O3 0.000000 0.717236 0.000000
O O4 0.340027 0.727263 0.500000
O O5 0.337582 0.500000 0.393712
O O6 0.251920 0.719259 0.370472
O O7 0.382631 0.760942 0.333920
O O8 0.829910 0.500000 0.329380
O O9 0.839992 0.238264 0.248080
O O10 0.878992 0.268865 0.414378
O O11 0.315427 0.500000 0.112381
O O12 0.379200 0.255260 0.165905
O O13 0.248981 0.242919 0.123616
O O14 0.338618 0.287733 0.000000
O O15 0.500000 0.224994 0.246026
O O16 0.414270 0.000000 0.241105
O O17 0.826770 0.000000 0.146250
O O18 0.921319 0.500000 0.500000
O O19 0.000000 0.262512 0.500000
#
# Coordination Sequence:
#
# PCOD9384044 Si02
#       7
#     4   8   8   8   8   8   4
#     4  11  25  45  67  91 122 163 210 257 305 359
#     4  10  20  36  61  89 117 158 209 258 301 357
#     4  10  19  35  60  89 121 159 207 254 296 356
#     4  11  23  40  65  92 120 157 205 255 299 360
#     4  11  25  42  60  88 126 162 199 251 313 371
#     4  12  24  38  62  94 126 162 202 249 307 368
#     4   9  18  34  59  91 124 159 202 252 302 350
#
# _framework density 18.274090000000001
#
# number of rings (size 3 to 8) (size 9 to 14) (size 15 to 20)
#    0.000    1.333    3.333    2.750    0.000    4.667 
#    0.000    5.417    0.000    0.500    0.000    0.000 
#    0.000    0.000    0.000    0.000    0.000    0.000 
#
# Total GULP energy -268345.896709 kJ/mol
# GULP energy per Si atom -5590.539515 kJ/mol
# Density = 1.823250 g / cm^3
# Si number density = 18.274090 Si / 1000 Ang^3
#
#
#
# Elastic Constant Matrix: (Units=GPa)
#
#
# Indices 1 2 3 4 5 6 
#
# 1 180.6215 77.4210 119.9011 0.0000 0.0000 0.0000
# 2 77.4210 65.7227 81.2000 0.0000 0.0000 0.0000
# 3 119.9011 81.2000 209.3705 0.0000 0.0000 0.0000
# 4 0.0000 0.0000 0.0000 -37.5825 0.0000 0.0000
# 5 0.0000 0.0000 0.0000 0.0000 34.1386 0.0000
# 6 0.0000 0.0000 0.0000 0.0000 0.0000 189.4932
#
#
#
# Elastic Compliance Matrix: (Units=1/GPa)
#
#
# Indices 1 2 3 4 5 6 
#
# 1 0.011901 -0.010750 -0.002646 0.000000 0.000000 0.000000
# 2 -0.010750 0.038923 -0.008940 0.000000 0.000000 0.000000
# 3 -0.002646 -0.008940 0.009759 0.000000 0.000000 0.000000
# 4 0.000000 0.000000 0.000000 -0.026608 0.000000 0.000000
# 5 0.000000 0.000000 0.000000 0.000000 0.029292 0.000000
# 6 0.000000 0.000000 0.000000 0.000000 0.000000 0.005277
#
#
# Mechanical properties :
#
#
# Convention : Reuss Voigt Hill
#
# Bulk Modulus (GPa) = 62.84625 112.52877 87.68751
# Shear Modulus (GPa) = 42.18735 49.02269 45.60502
#
# Velocity S-wave (km/s) = 4.80999 5.18503 5.00103
# Velocity P-wave (km/s) = 8.08168 9.87715 9.02418
#
# Compressibility (1/GPa) = 0.01591185
#
# Stress axis : x y z
#
# Youngs Moduli (GPa) = 84.02806 25.69160 102.47314
#
# Poissons Ratio (x) = 0.27618 0.27117
# Poissons Ratio (y) = 0.90327 0.91606
# Poissons Ratio (z) = 0.22236 0.22967
#
# Static dielectric constant tensor:
#      x y z
#    x 1.597870 0.000000 0.000000 
#    y 0.000000 1.611290 0.000000 
#    z 0.000000 0.000000 1.606530 
# 
# From -- ./inp_files/24442.got.cif
#   From: 2010.05.17/outbox.cif.g08.bks.cpg/sg47_13_cif.got.tgz:24442.got - 2010.06.03 20:15:42.
