data_PCOD9384055
_publ_section_title
;
Structure prediction by ZEFSAII (Michael W. Deem and Ramdas Pophale) SiO2 
 PCOD9384055
Probable space group: P M M M
;
_chemical_formula_sum "Si O2"
_cell_formula_units_Z 33
_cell_length_a 20.337335
_cell_length_b 10.385217
_cell_length_c 7.413918
_cell_angle_alpha 90.000000
_cell_angle_beta 90.000000
_cell_angle_gamma 90.000000
_cell_volume 1565.876103
_symmetry_space_group_name_H-M "P M M M"
_symmetry_group_IT_number 47
_symmetry_cell_setting 'orthorhombic'
loop_
_space_group_symop_operation_xyz
x,y,z
-x,-y,z
x,-y,-z
-x,y,-z
-x,-y,-z
x,y,-z
-x,y,z
x,-y,z
loop_
_atom_site_type_symbol
_atom_site_label
_atom_site_fract_x
_atom_site_fract_y
_atom_site_fract_z
Si Si1 0.827165 0.727610 0.718354
Si Si2 0.000000 0.000000 0.500000
Si Si3 0.575026 0.146516 0.719849
Si Si4 0.886165 0.000000 0.801463
Si Si5 0.681256 0.354570 0.720274
Si Si6 0.924223 0.500000 0.279764
O O1 0.827717 0.726750 0.500000
O O2 0.843377 0.871118 0.778722
O O3 0.755175 0.681463 0.776497
O O4 0.883309 0.626221 0.776039
O O5 0.942643 0.000000 0.345455
O O6 0.575626 0.147597 0.500000
O O7 0.500000 0.175590 0.774696
O O8 0.627997 0.250376 0.780955
O O9 0.590788 0.000000 0.774864
O O10 0.915256 0.000000 0.000000
O O11 0.681221 0.352891 0.500000
O O12 0.665451 0.500000 0.775960
O O13 0.925252 0.500000 0.500000
O O14 0.000000 0.500000 0.220432
#
# Coordination Sequence:
#
# PCOD9384055 Si02
#       6
#     8   1   8   4   8   4
#     4  10  19  36  57  85 119 156 199 252 309 371
#     4  12  26  52  68  92 128 168 196 262 324 354
#     4   8  14  23  35  58  99 151 204 255 306 363
#     4  12  27  43  67  96 124 160 209 254 307 379
#     4   9  16  26  44  72 106 148 201 251 306 374
#     4   9  18  30  55  81 110 152 197 238 302 372
#
# _framework density 21.074463999999999
#
# number of rings (size 3 to 8) (size 9 to 14) (size 15 to 20)
#    0.000    2.545    2.424    0.909    3.394    0.485 
#    0.000    3.030    0.000    0.727    0.000    0.000 
#    0.000    1.939    0.000    2.182    0.000    2.424 
#
# Total GULP energy -184118.006917 kJ/mol
# GULP energy per Si atom -5579.333543 kJ/mol
# Density = 2.102650 g / cm^3
# Si number density = 21.074464 Si / 1000 Ang^3
#
#
#
# Elastic Constant Matrix: (Units=GPa)
#
#
# Indices 1 2 3 4 5 6 
#
# 1 197.7040 143.6711 18.0247 0.0000 0.0000 0.0000
# 2 143.6711 217.0476 10.9647 0.0000 0.0000 0.0000
# 3 18.0247 10.9647 92.3067 0.0000 0.0000 0.0000
# 4 0.0000 0.0000 0.0000 7.1606 0.0000 0.0000
# 5 0.0000 0.0000 0.0000 0.0000 0.5236 0.0000
# 6 0.0000 0.0000 0.0000 0.0000 0.0000 1316.0404
#
#
#
# Elastic Compliance Matrix: (Units=1/GPa)
#
#
# Indices 1 2 3 4 5 6 
#
# 1 0.009868 -0.006473 -0.001158 0.000000 0.000000 0.000000
# 2 -0.006473 0.008882 0.000209 0.000000 0.000000 0.000000
# 3 -0.001158 0.000209 0.011035 0.000000 0.000000 0.000000
# 4 0.000000 0.000000 0.000000 0.139652 0.000000 0.000000
# 5 0.000000 0.000000 0.000000 0.000000 1.909702 0.000000
# 6 0.000000 0.000000 0.000000 0.000000 0.000000 0.000760
#
#
# Mechanical properties :
#
#
# Convention : Reuss Voigt Hill
#
# Bulk Modulus (GPa) = 66.93581 94.70882 80.82232
# Shear Modulus (GPa) = 2.38127 287.03812 144.70969
#
# Velocity S-wave (km/s) = 1.06413 11.68322 8.29548
# Velocity P-wave (km/s) = 5.77411 15.06766 11.40997
#
# Compressibility (1/GPa) = 0.01493969
#
# Stress axis : x y z
#
# Youngs Moduli (GPa) = 101.33985 112.59194 90.62295
#
# Poissons Ratio (x) = 0.72884 0.10494
# Poissons Ratio (y) = 0.65601 -0.01894
# Poissons Ratio (z) = 0.11735 -0.02354
#
# Static dielectric constant tensor:
#      x y z
#    x 1.699070 0.000000 0.000000 
#    y 0.000000 1.716740 0.000000 
#    z 0.000000 0.000000 1.766170 
# 
# From -- ./inp_files/10418.got.cif
#   From: 2010.05.17/outbox.cif.g08.bks.cpg/sg47_6_cif.got.tgz:10418.got - 2010.06.03 20:15:42.
