data_PCOD9384542
_publ_section_title
;
Structure prediction by ZEFSAII (Michael W. Deem and Ramdas Pophale) SiO2 
 PCOD9384542
Probable space group: P M M M
;
_chemical_formula_sum "Si O2"
_cell_formula_units_Z 56
_cell_length_a 20.592791
_cell_length_b 7.959241
_cell_length_c 16.189709
_cell_angle_alpha 90.000000
_cell_angle_beta 90.000000
_cell_angle_gamma 90.000000
_cell_volume 2653.541655
_symmetry_space_group_name_H-M "P M M M"
_symmetry_group_IT_number 47
_symmetry_cell_setting 'orthorhombic'
loop_
_space_group_symop_operation_xyz
x,y,z
-x,-y,z
x,-y,-z
-x,y,-z
-x,-y,-z
x,y,-z
-x,y,z
x,-y,z
loop_
_atom_site_type_symbol
_atom_site_label
_atom_site_fract_x
_atom_site_fract_y
_atom_site_fract_z
Si Si1 0.315247 0.807299 0.907391
Si Si2 0.430289 0.693970 0.794911
Si Si3 0.428557 0.192455 0.614550
Si Si4 0.924388 0.203027 0.593784
Si Si5 0.171756 0.306789 0.907851
Si Si6 0.181290 0.302245 0.275067
Si Si7 0.282140 0.699557 0.409756
O O1 0.369131 0.735557 0.848794
O O2 0.249871 0.701198 0.907330
O O3 0.298472 0.000000 0.885780
O O4 0.341616 0.806919 0.000000
O O5 0.500000 0.719171 0.837979
O O6 0.427095 0.500000 0.767957
O O7 0.429172 0.802907 0.713286
O O8 0.500000 0.263762 0.590150
O O9 0.359961 0.275736 0.592593
O O10 0.426136 0.000000 0.587379
O O11 0.907529 0.254951 0.500000
O O12 0.877529 0.281476 0.661173
O O13 0.000000 0.245136 0.607684
O O14 0.918662 0.000000 0.597863
O O15 0.148452 0.500000 0.908283
O O16 0.159965 0.231732 0.815486
O O17 0.153078 0.234483 0.000000
O O18 0.194502 0.500000 0.259524
O O19 0.243708 0.234027 0.328202
O O20 0.259738 0.767696 0.500000
O O21 0.269535 0.500000 0.409971
#
# Coordination Sequence:
#
# PCOD9384542 Si02
#       7
#     8   8   8   8   8   8   8
#     4  10  20  32  47  69  96 125 161 209 264 319
#     4  10  20  33  49  67  88 119 161 207 258 321
#     4  10  21  36  53  72  95 127 171 222 271 319
#     4   9  19  36  57  83 116 151 184 218 261 317
#     4   9  18  33  53  77 106 140 177 218 264 313
#     4  10  20  34  55  83 112 142 180 225 268 313
#     4  10  21  35  51  75 107 140 176 220 269 323
#
# _framework density 21.103869
#
# number of rings (size 3 to 8) (size 9 to 14) (size 15 to 20)
#    0.000    2.286    0.000    3.000    0.000    6.857 
#    0.000    3.571    0.000    0.429    0.000    3.000 
#    0.000    0.000    0.000    0.000    0.000    0.000 
#
# Total GULP energy -311965.804096 kJ/mol
# GULP energy per Si atom -5570.817930 kJ/mol
# Density = 2.105584 g / cm^3
# Si number density = 21.103869 Si / 1000 Ang^3
#
#
#
# Elastic Constant Matrix: (Units=GPa)
#
#
# Indices 1 2 3 4 5 6 
#
# 1 63.3554 -4.1564 47.7898 0.0000 0.0000 0.0000
# 2 -4.1564 33.1611 10.7337 0.0000 0.0000 0.0000
# 3 47.7898 10.7337 144.1098 0.0000 0.0000 0.0000
# 4 0.0000 0.0000 0.0000 10.2679 0.0000 0.0000
# 5 0.0000 0.0000 0.0000 0.0000 49.4691 0.0000
# 6 0.0000 0.0000 0.0000 0.0000 0.0000 28.0290
#
#
#
# Elastic Compliance Matrix: (Units=1/GPa)
#
#
# Indices 1 2 3 4 5 6 
#
# 1 0.021897 0.005221 -0.007650 0.000000 0.000000 0.000000
# 2 0.005221 0.032146 -0.004126 0.000000 0.000000 0.000000
# 3 -0.007650 -0.004126 0.009784 0.000000 0.000000 0.000000
# 4 0.000000 0.000000 0.000000 0.097391 0.000000 0.000000
# 5 0.000000 0.000000 0.000000 0.000000 0.020215 0.000000
# 6 0.000000 0.000000 0.000000 0.000000 0.000000 0.035677
#
#
# Mechanical properties :
#
#
# Convention : Reuss Voigt Hill
#
# Bulk Modulus (GPa) = 19.71762 38.81784 29.26773
# Shear Modulus (GPa) = 20.23267 29.97048 25.10158
#
# Velocity S-wave (km/s) = 3.09968 3.77256 3.45255
# Velocity P-wave (km/s) = 4.70894 6.11637 5.45821
#
# Compressibility (1/GPa) = 0.05071605
#
# Stress axis : x y z
#
# Youngs Moduli (GPa) = 45.66758 31.10843 102.21283
#
# Poissons Ratio (x) = -0.16242 0.78198
# Poissons Ratio (y) = -0.23843 0.42170
# Poissons Ratio (z) = 0.34938 0.12834
#
# Static dielectric constant tensor:
#      x y z
#    x 1.735810 0.000000 0.000000 
#    y 0.000000 1.780320 0.000000 
#    z 0.000000 0.000000 1.831470 
# 
# From -- ./inp_files/7233.got.cif
#   From: 2010.05.17/outbox.cif.g08.bks.cpg/sg47_4_cif.got.tgz:7233.got - 2010.06.03 20:15:42.
