data_PCOD9384802
_publ_section_title
;
Structure prediction by ZEFSAII (Michael W. Deem and Ramdas Pophale) SiO2 
 PCOD9384802
Probable space group: P M M M
;
_chemical_formula_sum "Si O2"
_cell_formula_units_Z 44
_cell_length_a 7.941155
_cell_length_b 9.568798
_cell_length_c 29.158450
_cell_angle_alpha 90.000000
_cell_angle_beta 90.000000
_cell_angle_gamma 90.000000
_cell_volume 2215.672123
_symmetry_space_group_name_H-M "P M M M"
_symmetry_group_IT_number 47
_symmetry_cell_setting 'orthorhombic'
loop_
_space_group_symop_operation_xyz
x,y,z
-x,-y,z
x,-y,-z
-x,y,-z
-x,-y,-z
x,y,-z
-x,y,z
x,-y,z
loop_
_atom_site_type_symbol
_atom_site_label
_atom_site_fract_x
_atom_site_fract_y
_atom_site_fract_z
Si Si1 0.702972 0.840629 0.588474
Si Si2 0.297848 0.842323 0.136916
Si Si3 0.201232 0.659988 0.500000
Si Si4 0.702721 0.659981 0.673970
Si Si5 0.200985 0.340872 0.223546
Si Si6 0.705627 0.661237 0.051484
O O1 0.500000 0.847985 0.591477
O O2 0.744235 0.745747 0.544765
O O3 0.765528 0.762857 0.634357
O O4 0.765832 0.000000 0.583982
O O5 0.500000 0.849428 0.132171
O O6 0.261919 0.758093 0.183166
O O7 0.233323 0.758662 0.092484
O O8 0.231773 0.000000 0.139020
O O9 0.266897 0.500000 0.500000
O O10 0.000000 0.653219 0.500000
O O11 0.500000 0.655721 0.670752
O O12 0.764941 0.500000 0.667573
O O13 0.747479 0.705216 0.725430
O O14 0.266334 0.500000 0.217165
O O15 0.000000 0.345376 0.221820
O O16 0.500000 0.663040 0.051917
O O17 0.756024 0.500000 0.058958
O O18 0.757574 0.703420 0.000000
#
# Coordination Sequence:
#
# PCOD9384802 Si02
#       6
#     8   8   4   8   8   8
#     4  10  21  37  58  84 112 141 174 214 261 313
#     4  10  20  32  49  75 105 137 172 211 257 309
#     4  11  24  39  56  80 110 145 184 223 260 302
#     4   9  18  34  56  80 106 138 176 217 260 307
#     4  10  21  36  54  76 103 137 176 217 260 307
#     4   8  14  26  46  72 100 130 166 209 256 305
#
# _framework density 19.858533000000001
#
# number of rings (size 3 to 8) (size 9 to 14) (size 15 to 20)
#    0.000    2.455    0.000    2.727    0.000    6.909 
#    0.000    5.455    0.000    0.545    0.000    3.818 
#    0.000    0.000    0.000    0.000    0.000    0.000 
#
# Total GULP energy -245624.104395 kJ/mol
# GULP energy per Si atom -5582.366009 kJ/mol
# Density = 1.981333 g / cm^3
# Si number density = 19.858533 Si / 1000 Ang^3
#
#
#
# Elastic Constant Matrix: (Units=GPa)
#
#
# Indices 1 2 3 4 5 6 
#
# 1 17.1089 9.7492 3.1694 0.0000 0.0000 0.0000
# 2 9.7492 164.1373 145.5807 0.0000 0.0000 0.0000
# 3 3.1694 145.5807 212.2597 0.0000 0.0000 0.0000
# 4 0.0000 0.0000 0.0000 -105.2409 0.0000 0.0000
# 5 0.0000 0.0000 0.0000 0.0000 -83.4533 0.0000
# 6 0.0000 0.0000 0.0000 0.0000 0.0000 12.2215
#
#
#
# Elastic Compliance Matrix: (Units=1/GPa)
#
#
# Indices 1 2 3 4 5 6 
#
# 1 0.061847 -0.007288 0.004075 0.000000 0.000000 0.000000
# 2 -0.007288 0.016413 -0.011149 0.000000 0.000000 0.000000
# 3 0.004075 -0.011149 0.012297 0.000000 0.000000 0.000000
# 4 0.000000 0.000000 0.000000 -0.009502 0.000000 0.000000
# 5 0.000000 0.000000 0.000000 0.000000 -0.011983 0.000000
# 6 0.000000 0.000000 0.000000 0.000000 0.000000 0.081823
#
#
# Mechanical properties :
#
#
# Convention : Reuss Voigt Hill
#
# Bulk Modulus (GPa) = 16.17225 78.94496 47.55860
# Shear Modulus (GPa) = 24.97137 -19.62743 2.67197
#
# Velocity S-wave (km/s) = 3.54992 -3.14723 1.16122
# Velocity P-wave (km/s) = 4.99640 5.16074 5.07923
#
# Compressibility (1/GPa) = 0.06183431
#
# Stress axis : x y z
#
# Youngs Moduli (GPa) = 16.16898 60.92562 81.32250
#
# Poissons Ratio (x) = 0.44400 -0.33138
# Poissons Ratio (y) = 0.11783 0.90663
# Poissons Ratio (z) = -0.06589 0.67923
#
# Static dielectric constant tensor:
#      x y z
#    x 1.713940 0.000000 0.000000 
#    y 0.000000 1.700940 0.000000 
#    z 0.000000 0.000000 1.667190 
# 
# From -- ./inp_files/33934.got.cif
#   From: 2010.05.17/outbox.cif.g08.bks.cpg/sg47_17_cif.got.tgz:33934.got - 2010.06.03 20:15:42.
