data_PCOD9384536
_publ_section_title
;
Structure prediction by ZEFSAII (Michael W. Deem and Ramdas Pophale) SiO2 
 PCOD9384536
Probable space group: P M M M
;
_chemical_formula_sum "Si O2"
_cell_formula_units_Z 48
_cell_length_a 31.768144
_cell_length_b 9.738642
_cell_length_c 7.339584
_cell_angle_alpha 90.000000
_cell_angle_beta 90.000000
_cell_angle_gamma 90.000000
_cell_volume 2270.710086
_symmetry_space_group_name_H-M "P M M M"
_symmetry_group_IT_number 47
_symmetry_cell_setting 'orthorhombic'
loop_
_space_group_symop_operation_xyz
x,y,z
-x,-y,z
x,-y,-z
-x,y,-z
-x,-y,-z
x,y,-z
-x,y,z
x,-y,z
loop_
_atom_site_type_symbol
_atom_site_label
_atom_site_fract_x
_atom_site_fract_y
_atom_site_fract_z
Si Si1 0.297231 0.658023 0.277122
Si Si2 0.953344 0.658997 0.278085
Si Si3 0.875769 0.158154 0.278165
Si Si4 0.373960 0.154829 0.285762
Si Si5 0.781179 0.841615 0.278312
Si Si6 0.547856 0.345484 0.780868
O O1 0.297543 0.656046 0.500000
O O2 0.298686 0.500000 0.218248
O O3 0.337452 0.745620 0.213559
O O4 0.255091 0.738026 0.220106
O O5 0.952965 0.662149 0.500000
O O6 0.948969 0.500000 0.224937
O O7 0.913997 0.747934 0.214850
O O8 0.000000 0.707526 0.221986
O O9 0.875881 0.162229 0.500000
O O10 0.828490 0.198358 0.221513
O O11 0.882250 0.000000 0.225532
O O12 0.364969 0.142160 0.500000
O O13 0.418444 0.231514 0.269853
O O14 0.374281 0.000000 0.210541
O O15 0.780865 0.842154 0.500000
O O16 0.773185 0.000000 0.222885
O O17 0.500000 0.317961 0.719043
O O18 0.559924 0.500000 0.719051
O O19 0.546904 0.349057 0.000000
#
# Coordination Sequence:
#
# PCOD9384536 Si02
#       6
#     8   8   8   8   8   8
#     4   9  16  25  38  56  77 102 132 164 200 244
#     4   8  13  19  24  30  42  61  87 124 171 219
#     4   8  13  19  26  36  49  68  96 130 171 222
#     4  10  20  32  47  69  96 123 150 182 220 261
#     4   8  13  21  31  43  62  86 111 143 186 235
#     4   9  19  36  55  73  94 121 152 185 221 260
#
# _framework density 21.138762
#
# number of rings (size 3 to 8) (size 9 to 14) (size 15 to 20)
#    0.000    3.333    0.000    3.000    0.000    5.000 
#    0.000    7.500    0.000    0.000    0.000    0.000 
#    0.000    0.000    0.000    0.000    0.000    0.000 
#
# Total GULP energy -267865.199340 kJ/mol
# GULP energy per Si atom -5580.524986 kJ/mol
# Density = 2.109065 g / cm^3
# Si number density = 21.138762 Si / 1000 Ang^3
#
#
#
# Elastic Constant Matrix: (Units=GPa)
#
#
# Indices 1 2 3 4 5 6 
#
# 1 194.5786 149.3260 1.1015 0.0000 0.0000 0.0000
# 2 149.3260 181.3413 6.1476 0.0000 0.0000 0.0000
# 3 1.1015 6.1476 79.2316 0.0000 0.0000 0.0000
# 4 0.0000 0.0000 0.0000 -17.5506 0.0000 0.0000
# 5 0.0000 0.0000 0.0000 0.0000 117.6870 0.0000
# 6 0.0000 0.0000 0.0000 0.0000 0.0000 43.6677
#
#
#
# Elastic Compliance Matrix: (Units=1/GPa)
#
#
# Indices 1 2 3 4 5 6 
#
# 1 0.014002 -0.011554 0.000702 0.000000 0.000000 0.000000
# 2 -0.011554 0.015063 -0.001008 0.000000 0.000000 0.000000
# 3 0.000702 -0.001008 0.012690 0.000000 0.000000 0.000000
# 4 0.000000 0.000000 0.000000 -0.056978 0.000000 0.000000
# 5 0.000000 0.000000 0.000000 0.000000 0.008497 0.000000
# 6 0.000000 0.000000 0.000000 0.000000 0.000000 0.022900
#
#
# Mechanical properties :
#
#
# Convention : Reuss Voigt Hill
#
# Bulk Modulus (GPa) = 55.45019 85.36684 70.40852
# Shear Modulus (GPa) = 108.91886 48.66591 78.79238
#
# Velocity S-wave (km/s) = 7.18592 4.80334 6.11186
# Velocity P-wave (km/s) = 9.75390 8.44005 9.12066
#
# Compressibility (1/GPa) = 0.01803420
#
# Stress axis : x y z
#
# Youngs Moduli (GPa) = 71.41720 66.38877 78.80410
#
# Poissons Ratio (x) = 0.76705 -0.05531
# Poissons Ratio (y) = 0.82515 0.07944
# Poissons Ratio (z) = -0.05012 0.06693
#
# Static dielectric constant tensor:
#      x y z
#    x 1.734100 0.000000 0.000000 
#    y 0.000000 1.715180 0.000000 
#    z 0.000000 0.000000 1.914210 
# 
# From -- ./inp_files/15609.got.cif
#   From: 2010.05.17/outbox.cif.g08.bks.cpg/sg47_8_cif.got.tgz:15609.got - 2010.06.03 20:15:42.
