data_PCOD9384943
_publ_section_title
;
Structure prediction by ZEFSAII (Michael W. Deem and Ramdas Pophale) SiO2 
 PCOD9384943
Probable space group: P M M M
;
_chemical_formula_sum "Si O2"
_cell_formula_units_Z 48
_cell_length_a 33.241200
_cell_length_b 7.345204
_cell_length_c 8.967782
_cell_angle_alpha 90.000000
_cell_angle_beta 90.000000
_cell_angle_gamma 90.000000
_cell_volume 2189.604101
_symmetry_space_group_name_H-M "P M M M"
_symmetry_group_IT_number 47
_symmetry_cell_setting 'orthorhombic'
loop_
_space_group_symop_operation_xyz
x,y,z
-x,-y,z
x,-y,-z
-x,y,-z
-x,-y,-z
x,y,-z
-x,y,z
x,-y,z
loop_
_atom_site_type_symbol
_atom_site_label
_atom_site_fract_x
_atom_site_fract_y
_atom_site_fract_z
Si Si1 0.452872 0.719957 0.500000
Si Si2 0.163356 0.717660 0.165812
Si Si3 0.415047 0.278506 0.824831
Si Si4 0.000000 0.777350 0.170225
Si Si5 0.756952 0.722417 0.669232
Si Si6 0.080348 0.782614 0.333494
Si Si7 0.322363 0.279310 0.831463
O O1 0.447586 0.500000 0.500000
O O2 0.500000 0.763370 0.500000
O O3 0.435945 0.778263 0.334023
O O4 0.167771 0.500000 0.158298
O O5 0.204916 0.785404 0.236068
O O6 0.123117 0.750840 0.257794
O O7 0.157842 0.789269 0.000000
O O8 0.417791 0.500000 0.827660
O O9 0.368311 0.222589 0.806178
O O10 0.426970 0.224659 0.000000
O O11 0.041104 0.715001 0.247207
O O12 0.000000 0.000000 0.173557
O O13 0.000000 0.721112 0.000000
O O14 0.763310 0.775987 0.500000
O O15 0.756314 0.500000 0.675444
O O16 0.713334 0.783564 0.725855
O O17 0.080945 0.709480 0.500000
O O18 0.075595 0.000000 0.340875
O O19 0.323531 0.500000 0.822893
O O20 0.311196 0.230295 0.000000
#
# Coordination Sequence:
#
# PCOD9384943 Si02
#       7
#     4   8   8   4   8   8   8
#     4   9  16  22  28  38  52  74 106 146 195 250
#     4  10  20  33  48  67  94 125 153 184 224 271
#     4   8  14  22  30  40  55  76 105 146 194 243
#     4   9  17  31  52  75  96 119 150 186 222 263
#     4   9  16  24  37  57  79 105 134 165 206 257
#     4  10  20  34  53  75  97 121 151 188 227 266
#     4   8  13  21  32  46  64  87 117 154 196 244
#
# _framework density 21.921771
#
# number of rings (size 3 to 8) (size 9 to 14) (size 15 to 20)
#    0.000    3.000    0.000    2.750    1.167    5.333 
#    0.000    2.083    0.000    2.500    0.000    0.000 
#    0.000    0.000    0.000    0.000    0.000    0.000 
#
# Total GULP energy -267620.377909 kJ/mol
# GULP energy per Si atom -5575.424540 kJ/mol
# Density = 2.187188 g / cm^3
# Si number density = 21.921771 Si / 1000 Ang^3
#
#
#
# Elastic Constant Matrix: (Units=GPa)
#
#
# Indices 1 2 3 4 5 6 
#
# 1 139.5507 0.9887 115.6143 0.0000 0.0000 0.0000
# 2 0.9887 82.1827 6.6262 0.0000 0.0000 0.0000
# 3 115.6143 6.6262 218.5405 0.0000 0.0000 0.0000
# 4 0.0000 0.0000 0.0000 -5.6722 0.0000 0.0000
# 5 0.0000 0.0000 0.0000 0.0000 53.8869 0.0000
# 6 0.0000 0.0000 0.0000 0.0000 0.0000 -2.2008
#
#
#
# Elastic Compliance Matrix: (Units=1/GPa)
#
#
# Indices 1 2 3 4 5 6 
#
# 1 0.012770 0.000392 -0.006767 0.000000 0.000000 0.000000
# 2 0.000392 0.012210 -0.000578 0.000000 0.000000 0.000000
# 3 -0.006767 -0.000578 0.008173 0.000000 0.000000 0.000000
# 4 0.000000 0.000000 0.000000 -0.176300 0.000000 0.000000
# 5 0.000000 0.000000 0.000000 0.000000 0.018557 0.000000
# 6 0.000000 0.000000 0.000000 0.000000 0.000000 -0.454390
#
#
# Mechanical properties :
#
#
# Convention : Reuss Voigt Hill
#
# Bulk Modulus (GPa) = 51.95601 76.30360 64.12981
# Shear Modulus (GPa) = -8.95002 30.33912 10.69455
#
# Velocity S-wave (km/s) = -2.02276 3.72421 2.21113
# Velocity P-wave (km/s) = 4.27746 7.30588 5.98634
#
# Compressibility (1/GPa) = 0.01924705
#
# Stress axis : x y z
#
# Youngs Moduli (GPa) = 78.31019 81.90094 122.34668
#
# Poissons Ratio (x) = -0.03211 0.82797
# Poissons Ratio (y) = -0.03070 0.07067
# Poissons Ratio (z) = 0.52996 0.04731
#
# Static dielectric constant tensor:
#      x y z
#    x 1.747700 0.000000 0.000000 
#    y 0.000000 4.091530 0.000000 
#    z 0.000000 0.000000 1.762110 
# 
# From -- ./inp_files/13981.got.cif
#   From: 2010.05.17/outbox.cif.g08.bks.cpg/sg47_7_cif.got.tgz:13981.got - 2010.06.03 20:15:42.
