data_PCOD9384255
_publ_section_title
;
Structure prediction by ZEFSAII (Michael W. Deem and Ramdas Pophale) SiO2 
 PCOD9384255
Probable space group: P M M M
;
_chemical_formula_sum "Si O2"
_cell_formula_units_Z 64
_cell_length_a 14.958796
_cell_length_b 30.255619
_cell_length_c 7.585579
_cell_angle_alpha 90.000000
_cell_angle_beta 90.000000
_cell_angle_gamma 90.000000
_cell_volume 3433.139241
_symmetry_space_group_name_H-M "P M M M"
_symmetry_group_IT_number 47
_symmetry_cell_setting 'orthorhombic'
loop_
_space_group_symop_operation_xyz
x,y,z
-x,-y,z
x,-y,-z
-x,y,-z
-x,-y,-z
x,y,-z
-x,y,z
x,-y,z
loop_
_atom_site_type_symbol
_atom_site_label
_atom_site_fract_x
_atom_site_fract_y
_atom_site_fract_z
Si Si1 0.726446 0.223833 0.202442
Si Si2 0.102563 0.729508 0.216041
Si Si3 0.399079 0.857009 0.708982
Si Si4 0.601508 0.593821 0.286958
Si Si5 0.391672 0.952419 0.708453
Si Si6 0.896397 0.629769 0.785486
Si Si7 0.780239 0.451496 0.792264
Si Si8 0.396408 0.694099 0.713122
O O1 0.822906 0.236363 0.281069
O O2 0.667748 0.183595 0.272007
O O3 0.667910 0.268465 0.215032
O O4 0.742239 0.212842 0.000000
O O5 0.127574 0.679452 0.272215
O O6 0.000000 0.738075 0.268243
O O7 0.104042 0.729532 0.000000
O O8 0.408510 0.863837 0.500000
O O9 0.500000 0.847228 0.777316
O O10 0.364851 0.904369 0.781358
O O11 0.601282 0.593767 0.500000
O O12 0.500000 0.584522 0.229117
O O13 0.675982 0.560026 0.225388
O O14 0.625585 0.643992 0.230349
O O15 0.368893 0.953550 0.500000
O O16 0.500000 0.951767 0.719986
O O17 0.361888 0.000000 0.783763
O O18 0.834863 0.590165 0.718092
O O19 0.000000 0.622080 0.739677
O O20 0.891042 0.630327 0.000000
O O21 0.799898 0.500000 0.717139
O O22 0.801789 0.453252 0.000000
O O23 0.391666 0.695645 0.500000
O O24 0.500000 0.702544 0.761663
#
# Coordination Sequence:
#
# PCOD9384255 Si02
#       8
#     8   8   8   8   8   8   8   8
#     4  11  20  27  41  65  90 115 142 174 212 253
#     4   8  15  28  44  61  81 107 140 175 210 249
#     4   9  17  28  41  59  88 124 153 178 213 253
#     4   9  19  35  51  64  80 109 148 180 204 238
#     4   7  10  19  37  58  77 104 149 194 218 238
#     4   8  14  27  47  67  86 108 134 166 205 250
#     4  10  20  31  45  69  95 112 130 163 207 250
#     4   9  18  32  47  62  83 112 143 173 207 247
#
# _framework density 18.641831
#
# number of rings (size 3 to 8) (size 9 to 14) (size 15 to 20)
#    0.000    3.125    0.000    4.125    0.000    4.500 
#    0.000    3.750    0.000    2.250    0.000    7.875 
#    0.000    0.500    0.000    6.250    0.000    0.250 
#
# Total GULP energy -356670.726746 kJ/mol
# GULP energy per Si atom -5572.980105 kJ/mol
# Density = 1.859940 g / cm^3
# Si number density = 18.641831 Si / 1000 Ang^3
#
#
#
# Elastic Constant Matrix: (Units=GPa)
#
#
# Indices 1 2 3 4 5 6 
#
# 1 78.4540 77.1181 1.3296 0.0000 0.0000 0.0000
# 2 77.1181 125.1890 7.2322 0.0000 0.0000 0.0000
# 3 1.3296 7.2322 38.1971 0.0000 0.0000 0.0000
# 4 0.0000 0.0000 0.0000 20.2491 0.0000 0.0000
# 5 0.0000 0.0000 0.0000 0.0000 13.1923 0.0000
# 6 0.0000 0.0000 0.0000 0.0000 0.0000 16.0708
#
#
#
# Elastic Compliance Matrix: (Units=1/GPa)
#
#
# Indices 1 2 3 4 5 6 
#
# 1 0.032584 -0.020228 0.002696 0.000000 0.000000 0.000000
# 2 -0.020228 0.020634 -0.003203 0.000000 0.000000 0.000000
# 3 0.002696 -0.003203 0.026693 0.000000 0.000000 0.000000
# 4 0.000000 0.000000 0.000000 0.049385 0.000000 0.000000
# 5 0.000000 0.000000 0.000000 0.000000 0.075802 0.000000
# 6 0.000000 0.000000 0.000000 0.000000 0.000000 0.062225
#
#
# Mechanical properties :
#
#
# Convention : Reuss Voigt Hill
#
# Bulk Modulus (GPa) = 26.01417 45.91109 35.96263
# Shear Modulus (GPa) = 15.54699 20.31311 17.93005
#
# Velocity S-wave (km/s) = 2.89101 3.30457 3.10468
# Velocity P-wave (km/s) = 5.01288 6.26432 5.67321
#
# Compressibility (1/GPa) = 0.03844059
#
# Stress axis : x y z
#
# Youngs Moduli (GPa) = 30.68966 48.46441 37.46360
#
# Poissons Ratio (x) = 0.98034 -0.10099
# Poissons Ratio (y) = 0.62079 0.11998
# Poissons Ratio (z) = -0.08273 0.15521
#
# Static dielectric constant tensor:
#      x y z
#    x 1.639670 0.000000 0.000000 
#    y 0.000000 1.678670 0.000000 
#    z 0.000000 0.000000 1.738000 
# 
# From -- ./inp_files/8339.got.cif
#   From: 2010.05.17/outbox.cif.g08.bks.cpg/sg47_5_cif.got.tgz:8339.got - 2010.06.03 20:15:42.
