data_PCOD9384404
_publ_section_title
;
Structure prediction by ZEFSAII (Michael W. Deem and Ramdas Pophale) SiO2 
 PCOD9384404
Probable space group: P M M M
;
_chemical_formula_sum "Si O2"
_cell_formula_units_Z 52
_cell_length_a 19.418310
_cell_length_b 19.131753
_cell_length_c 8.857636
_cell_angle_alpha 90.000000
_cell_angle_beta 90.000000
_cell_angle_gamma 90.000000
_cell_volume 3290.667671
_symmetry_space_group_name_H-M "P M M M"
_symmetry_group_IT_number 47
_symmetry_cell_setting 'orthorhombic'
loop_
_space_group_symop_operation_xyz
x,y,z
-x,-y,z
x,-y,-z
-x,y,-z
-x,-y,-z
x,y,-z
-x,y,z
x,-y,z
loop_
_atom_site_type_symbol
_atom_site_label
_atom_site_fract_x
_atom_site_fract_y
_atom_site_fract_z
Si Si1 0.658617 0.792135 0.319384
Si Si2 0.916538 0.500000 0.828498
Si Si3 0.421642 0.338254 0.180489
Si Si4 0.288295 0.420667 0.180519
Si Si5 0.209314 0.709731 0.679909
Si Si6 0.420690 0.080830 0.818197
Si Si7 0.079507 0.654408 0.817297
O O1 0.655764 0.793431 0.500000
O O2 0.609207 0.730296 0.259394
O O3 0.736339 0.769871 0.274136
O O4 0.631378 0.864535 0.253634
O O5 0.900149 0.424238 0.761288
O O6 0.000000 0.500000 0.839076
O O7 0.888415 0.500000 0.000000
O O8 0.500000 0.352066 0.227031
O O9 0.368339 0.401251 0.208245
O O10 0.421092 0.325560 0.000000
O O11 0.272301 0.500000 0.224098
O O12 0.245214 0.362172 0.266290
O O13 0.275974 0.413549 0.000000
O O14 0.202767 0.710618 0.500000
O O15 0.134451 0.708879 0.755034
O O16 0.500000 0.097581 0.774593
O O17 0.407489 0.000000 0.776743
O O18 0.417219 0.085743 0.000000
O O19 0.000000 0.667546 0.774836
O O20 0.082257 0.652244 0.000000
#
# Coordination Sequence:
#
# PCOD9384404 Si02
#       7
#     8   4   8   8   8   8   8
#     4  10  20  32  45  64  92 124 155 183 214 260
#     4   7  12  24  41  61  83 105 132 173 224 271
#     4   9  17  29  45  63  82 108 145 189 234 273
#     4   9  18  31  45  60  79 108 147 189 233 277
#     4  10  21  33  44  62  90 121 150 184 225 267
#     4   9  18  32  50  73  99 124 150 184 226 266
#     4   9  17  30  48  68  88 112 146 187 230 277
#
# _framework density 15.802263999999999
#
# number of rings (size 3 to 8) (size 9 to 14) (size 15 to 20)
#    0.000    2.846    0.000    2.769    1.077    5.538 
#    0.000    2.308    0.000    1.385    0.000    4.308 
#    0.000    0.615    0.000    6.769    0.000    4.923 
#
# Total GULP energy -289780.976207 kJ/mol
# GULP energy per Si atom -5572.711081 kJ/mol
# Density = 1.576630 g / cm^3
# Si number density = 15.802264 Si / 1000 Ang^3
#
#
#
# Elastic Constant Matrix: (Units=GPa)
#
#
# Indices 1 2 3 4 5 6 
#
# 1 113.8793 44.5298 27.8215 0.0000 0.0000 0.0000
# 2 44.5298 77.8089 22.3953 0.0000 0.0000 0.0000
# 3 27.8215 22.3953 15.5526 0.0000 0.0000 0.0000
# 4 0.0000 0.0000 0.0000 2.7941 0.0000 0.0000
# 5 0.0000 0.0000 0.0000 0.0000 14.3444 0.0000
# 6 0.0000 0.0000 0.0000 0.0000 0.0000 23.8400
#
#
#
# Elastic Compliance Matrix: (Units=1/GPa)
#
#
# Indices 1 2 3 4 5 6 
#
# 1 0.015705 -0.001540 -0.025877 0.000000 0.000000 0.000000
# 2 -0.001540 0.022100 -0.029068 0.000000 0.000000 0.000000
# 3 -0.025877 -0.029068 0.152446 0.000000 0.000000 0.000000
# 4 0.000000 0.000000 0.000000 0.357897 0.000000 0.000000
# 5 0.000000 0.000000 0.000000 0.000000 0.069714 0.000000
# 6 0.000000 0.000000 0.000000 0.000000 0.000000 0.041946
#
#
# Mechanical properties :
#
#
# Convention : Reuss Voigt Hill
#
# Bulk Modulus (GPa) = 12.93989 44.08156 28.51072
# Shear Modulus (GPa) = 6.26143 15.69531 10.97837
#
# Velocity S-wave (km/s) = 1.99273 3.15498 2.63864
# Velocity P-wave (km/s) = 3.67437 6.42091 5.23112
#
# Compressibility (1/GPa) = 0.07728042
#
# Stress axis : x y z
#
# Youngs Moduli (GPa) = 63.67234 45.24890 6.55969
#
# Poissons Ratio (x) = 0.06969 0.16975
# Poissons Ratio (y) = 0.09806 0.19068
# Poissons Ratio (z) = 1.64766 1.31531
#
# Static dielectric constant tensor:
#      x y z
#    x 1.559870 0.000000 0.000000 
#    y 0.000000 1.511880 0.000000 
#    z 0.000000 0.000000 1.532720 
# 
# From -- ./inp_files/9584.got.cif
#   From: 2010.05.17/outbox.cif.g08.bks.cpg/sg47_5_cif.got.tgz:9584.got - 2010.06.03 20:15:42.
