data_PCOD9384898
_publ_section_title
;
Structure prediction by ZEFSAII (Michael W. Deem and Ramdas Pophale) SiO2 
 PCOD9384898
Probable space group: P M M M
;
_chemical_formula_sum "Si O2"
_cell_formula_units_Z 44
_cell_length_a 33.512703
_cell_length_b 7.644676
_cell_length_c 8.024624
_cell_angle_alpha 90.000000
_cell_angle_beta 90.000000
_cell_angle_gamma 90.000000
_cell_volume 2055.858566
_symmetry_space_group_name_H-M "P M M M"
_symmetry_group_IT_number 47
_symmetry_cell_setting 'orthorhombic'
loop_
_space_group_symop_operation_xyz
x,y,z
-x,-y,z
x,-y,-z
-x,y,-z
-x,-y,-z
x,y,-z
-x,y,z
x,-y,z
loop_
_atom_site_type_symbol
_atom_site_label
_atom_site_fract_x
_atom_site_fract_y
_atom_site_fract_z
Si Si1 0.129587 0.692888 0.198667
Si Si2 0.730418 0.709777 0.500000
Si Si3 0.784227 0.715233 0.806934
Si Si4 0.413387 0.785952 0.815440
Si Si5 0.500000 0.213212 0.693456
Si Si6 0.362756 0.209798 0.500000
Si Si7 0.042596 0.791229 0.309933
O O1 0.129749 0.500000 0.275146
O O2 0.171476 0.778795 0.249330
O O3 0.085228 0.759368 0.229000
O O4 0.134010 0.682249 0.000000
O O5 0.734576 0.500000 0.500000
O O6 0.752303 0.771577 0.669107
O O7 0.683877 0.751773 0.500000
O O8 0.785641 0.500000 0.808465
O O9 0.776297 0.767382 0.000000
O O10 0.458949 0.731322 0.779197
O O11 0.385044 0.725258 0.666082
O O12 0.413160 0.000000 0.813638
O O13 0.400883 0.730184 0.000000
O O14 0.500000 0.266062 0.500000
O O15 0.500000 0.000000 0.696141
O O16 0.367638 0.000000 0.500000
O O17 0.044449 0.725431 0.500000
O O18 0.000000 0.727461 0.235706
O O19 0.039717 0.000000 0.315891
#
# Coordination Sequence:
#
# PCOD9384898 Si02
#       7
#     8   4   8   8   4   4   8
#     4   9  18  32  51  75  98 119 151 199 247 287
#     4  10  20  34  55  75  92 127 168 197 242 299
#     4   8  16  32  52  75  99 120 153 203 248 289
#     4   9  16  26  42  65  96 133 165 197 243 290
#     4   9  13  21  39  64  95 128 164 204 240 280
#     4  10  20  33  46  68 102 129 157 200 244 288
#     4   9  19  34  48  66  97 134 166 193 226 277
#
# _framework density 21.402249000000001
#
# number of rings (size 3 to 8) (size 9 to 14) (size 15 to 20)
#    0.000    3.000    0.909    1.909    1.273    3.273 
#    0.000    3.636    0.000    1.091    0.000    1.273 
#    0.000    1.455    0.000    0.000    0.000    0.000 
#
# Total GULP energy -245151.347031 kJ/mol
# GULP energy per Si atom -5571.621523 kJ/mol
# Density = 2.135354 g / cm^3
# Si number density = 21.402249 Si / 1000 Ang^3
#
#
#
# Elastic Constant Matrix: (Units=GPa)
#
#
# Indices 1 2 3 4 5 6 
#
# 1 215.8974 5.3540 106.1744 0.0000 0.0000 0.0000
# 2 5.3540 31.6099 6.6459 0.0000 0.0000 0.0000
# 3 106.1744 6.6459 142.7528 0.0000 0.0000 0.0000
# 4 0.0000 0.0000 0.0000 2.9438 0.0000 0.0000
# 5 0.0000 0.0000 0.0000 0.0000 17.6465 0.0000
# 6 0.0000 0.0000 0.0000 0.0000 0.0000 15.8051
#
#
#
# Elastic Compliance Matrix: (Units=1/GPa)
#
#
# Indices 1 2 3 4 5 6 
#
# 1 0.007303 -0.000096 -0.005428 0.000000 0.000000 0.000000
# 2 -0.000096 0.031950 -0.001416 0.000000 0.000000 0.000000
# 3 -0.005428 -0.001416 0.011108 0.000000 0.000000 0.000000
# 4 0.000000 0.000000 0.000000 0.339692 0.000000 0.000000
# 5 0.000000 0.000000 0.000000 0.000000 0.056669 0.000000
# 6 0.000000 0.000000 0.000000 0.000000 0.000000 0.063271
#
#
# Mechanical properties :
#
#
# Convention : Reuss Voigt Hill
#
# Bulk Modulus (GPa) = 27.41093 69.62318 48.51706
# Shear Modulus (GPa) = 9.32781 25.41813 17.37297
#
# Velocity S-wave (km/s) = 2.08993 3.44995 2.85219
# Velocity P-wave (km/s) = 4.31961 6.96211 5.79353
#
# Compressibility (1/GPa) = 0.03648179
#
# Stress axis : x y z
#
# Youngs Moduli (GPa) = 136.92327 31.29929 90.02656
#
# Poissons Ratio (x) = 0.00300 0.48862
# Poissons Ratio (y) = 0.01313 0.12749
# Poissons Ratio (z) = 0.74315 0.04432
#
# Static dielectric constant tensor:
#      x y z
#    x 1.791180 0.000000 0.000000 
#    y 0.000000 1.831540 0.000000 
#    z 0.000000 0.000000 1.767980 
# 
# From -- ./inp_files/13754.got.cif
#   From: 2010.05.17/outbox.cif.g08.bks.cpg/sg47_7_cif.got.tgz:13754.got - 2010.06.03 20:15:42.
