data_PCOD9384844
_publ_section_title
;
Structure prediction by ZEFSAII (Michael W. Deem and Ramdas Pophale) SiO2 
 PCOD9384844
Probable space group: P M M M
;
_chemical_formula_sum "Si O2"
_cell_formula_units_Z 48
_cell_length_a 9.271819
_cell_length_b 33.668934
_cell_length_c 8.233718
_cell_angle_alpha 90.000000
_cell_angle_beta 90.000000
_cell_angle_gamma 90.000000
_cell_volume 2570.338372
_symmetry_space_group_name_H-M "P M M M"
_symmetry_group_IT_number 47
_symmetry_cell_setting 'orthorhombic'
loop_
_space_group_symop_operation_xyz
x,y,z
-x,-y,z
x,-y,-z
-x,y,-z
-x,-y,-z
x,y,-z
-x,y,z
x,-y,z
loop_
_atom_site_type_symbol
_atom_site_label
_atom_site_fract_x
_atom_site_fract_y
_atom_site_fract_z
Si Si1 0.334589 0.577093 0.306564
Si Si2 0.670142 0.952367 0.500000
Si Si3 0.825062 0.912034 0.808014
Si Si4 0.163476 0.179549 0.194446
Si Si5 0.333519 0.338690 0.193118
Si Si6 0.663354 0.255409 0.692770
Si Si7 0.163006 0.500000 0.806252
O O1 0.340739 0.575863 0.500000
O O2 0.500000 0.574724 0.242567
O O3 0.271005 0.619854 0.255813
O O4 0.245784 0.539511 0.247417
O O5 0.500000 0.941087 0.500000
O O6 0.747212 0.936537 0.665235
O O7 0.679312 0.000000 0.500000
O O8 0.787902 0.865659 0.775498
O O9 0.000000 0.915999 0.795488
O O10 0.789170 0.920979 0.000000
O O11 0.256941 0.215074 0.263143
O O12 0.000000 0.183050 0.256665
O O13 0.160523 0.183770 0.000000
O O14 0.500000 0.337895 0.256813
O O15 0.267822 0.296476 0.243611
O O16 0.337066 0.340385 0.000000
O O17 0.656733 0.258732 0.500000
O O18 0.500000 0.253128 0.760187
O O19 0.000000 0.500000 0.741035
O O20 0.157601 0.500000 0.000000
#
# Coordination Sequence:
#
# PCOD9384844 Si02
#       7
#     8   4   8   8   8   8   4
#     4  10  20  35  57  82 105 132 171 218 265 315
#     4  11  25  41  59  89 127 161 195 243 307 370
#     4   9  20  40  64  88 116 156 206 254 298 350
#     4   9  19  36  56  79 108 143 185 233 281 327
#     4   9  17  31  52  76 104 140 178 217 262 312
#     4  10  20  32  49  78 113 145 179 220 267 322
#     4  11  24  39  54  76 106 137 170 211 262 318
#
# _framework density 18.674585
#
# number of rings (size 3 to 8) (size 9 to 14) (size 15 to 20)
#    0.000    2.333    0.000    3.250    1.167    8.000 
#    0.000    4.167    0.000    5.000    0.000    0.000 
#    0.000    0.000    0.000    0.000    0.000    0.000 
#
# Total GULP energy -267599.189387 kJ/mol
# GULP energy per Si atom -5574.983112 kJ/mol
# Density = 1.863208 g / cm^3
# Si number density = 18.674585 Si / 1000 Ang^3
#
#
#
# Elastic Constant Matrix: (Units=GPa)
#
#
# Indices 1 2 3 4 5 6 
#
# 1 54.9839 60.3391 36.0828 0.0000 0.0000 0.0000
# 2 60.3391 142.3852 69.0739 0.0000 0.0000 0.0000
# 3 36.0828 69.0739 80.8160 0.0000 0.0000 0.0000
# 4 0.0000 0.0000 0.0000 43.1923 0.0000 0.0000
# 5 0.0000 0.0000 0.0000 0.0000 22.4118 0.0000
# 6 0.0000 0.0000 0.0000 0.0000 0.0000 -594.7037
#
#
#
# Elastic Compliance Matrix: (Units=1/GPa)
#
#
# Indices 1 2 3 4 5 6 
#
# 1 0.035170 -0.012448 -0.005064 0.000000 0.000000 0.000000
# 2 -0.012448 0.016404 -0.008463 0.000000 0.000000 0.000000
# 3 -0.005064 -0.008463 0.021868 0.000000 0.000000 0.000000
# 4 0.000000 0.000000 0.000000 0.023152 0.000000 0.000000
# 5 0.000000 0.000000 0.000000 0.000000 0.044619 0.000000
# 6 0.000000 0.000000 0.000000 0.000000 0.000000 -0.001682
#
#
# Mechanical properties :
#
#
# Convention : Reuss Voigt Hill
#
# Bulk Modulus (GPa) = 46.52573 67.68631 57.10602
# Shear Modulus (GPa) = 25.17064 -98.30730 -36.56833
#
# Velocity S-wave (km/s) = 3.67530 -7.26337 -4.42994
# Velocity P-wave (km/s) = 6.55579 5.83252 2.11662
#
# Compressibility (1/GPa) = 0.02149348
#
# Stress axis : x y z
#
# Youngs Moduli (GPa) = 28.43308 60.96230 45.72966
#
# Poissons Ratio (x) = 0.75884 0.23156
# Poissons Ratio (y) = 0.35393 0.38699
# Poissons Ratio (z) = 0.14398 0.51590
#
# Static dielectric constant tensor:
#      x y z
#    x 1.677400 0.000000 0.000000 
#    y 0.000000 1.651720 0.000000 
#    z 0.000000 0.000000 1.635800 
# 
# From -- ./inp_files/2591.got.cif
#   From: 2010.05.17/outbox.cif.g08.bks.cpg/sg47_2_cif.got.tgz:2591.got - 2010.06.03 20:15:42.
