data_PCOD9384976
_publ_section_title
;
Structure prediction by ZEFSAII (Michael W. Deem and Ramdas Pophale) SiO2 
 PCOD9384976
Probable space group: P M M M
;
_chemical_formula_sum "Si O2"
_cell_formula_units_Z 48
_cell_length_a 7.418673
_cell_length_b 21.143424
_cell_length_c 15.119440
_cell_angle_alpha 90.000000
_cell_angle_beta 90.000000
_cell_angle_gamma 90.000000
_cell_volume 2371.577130
_symmetry_space_group_name_H-M "P M M M"
_symmetry_group_IT_number 47
_symmetry_cell_setting 'orthorhombic'
loop_
_space_group_symop_operation_xyz
x,y,z
-x,-y,z
x,-y,-z
-x,y,-z
-x,-y,-z
x,y,-z
-x,y,z
x,-y,z
loop_
_atom_site_type_symbol
_atom_site_label
_atom_site_fract_x
_atom_site_fract_y
_atom_site_fract_z
Si Si1 0.217414 0.930807 0.287216
Si Si2 0.211684 0.110652 0.097206
Si Si3 0.717867 0.740069 0.097366
Si Si4 0.286631 0.806667 0.400412
Si Si5 0.719548 0.571943 0.399016
Si Si6 0.279188 0.689051 0.282469
O O1 0.285590 0.919154 0.187067
O O2 0.265115 0.872882 0.350218
O O3 0.000000 0.930931 0.282950
O O4 0.276558 0.000000 0.318702
O O5 0.227640 0.186527 0.107365
O O6 0.000000 0.094314 0.094302
O O7 0.287533 0.094050 0.000000
O O8 0.500000 0.739451 0.097689
O O9 0.779315 0.700292 0.181677
O O10 0.778550 0.718673 0.000000
O O11 0.212771 0.807942 0.500000
O O12 0.500000 0.795369 0.407545
O O13 0.217618 0.749107 0.340491
O O14 0.773339 0.587625 0.500000
O O15 0.500000 0.572149 0.398458
O O16 0.776315 0.500000 0.379601
O O17 0.779172 0.624711 0.329870
O O18 0.500000 0.688944 0.281945
#
# Coordination Sequence:
#
# PCOD9384976 Si02
#       6
#     8   8   8   8   8   8
#     4  10  21  35  49  66  90 119 148 182 228 277
#     4   9  17  30  48  68  89 113 144 183 224 267
#     4   9  16  26  43  66  90 116 145 178 221 270
#     4  10  20  33  49  68  88 114 152 193 228 264
#     4   8  13  21  35  58  88 120 151 181 216 260
#     4   9  15  25  42  63  88 117 147 183 223 260
#
# _framework density 20.239697
#
# number of rings (size 3 to 8) (size 9 to 14) (size 15 to 20)
#    0.000    2.833    1.667    1.000    0.000    3.333 
#    0.000    3.333    0.000    0.500    0.000    7.000 
#    0.000    2.667    0.000   13.333    0.000   12.667 
#
# Total GULP energy -267838.848111 kJ/mol
# GULP energy per Si atom -5579.976002 kJ/mol
# Density = 2.019363 g / cm^3
# Si number density = 20.239697 Si / 1000 Ang^3
#
#
#
# Elastic Constant Matrix: (Units=GPa)
#
#
# Indices 1 2 3 4 5 6 
#
# 1 65.8361 -4.9401 4.8927 0.0000 0.0000 0.0000
# 2 -4.9401 114.5819 82.6516 0.0000 0.0000 0.0000
# 3 4.8927 82.6516 163.6147 0.0000 0.0000 0.0000
# 4 0.0000 0.0000 0.0000 2.0414 0.0000 0.0000
# 5 0.0000 0.0000 0.0000 0.0000 4.7513 0.0000
# 6 0.0000 0.0000 0.0000 0.0000 0.0000 19.9866
#
#
#
# Elastic Compliance Matrix: (Units=1/GPa)
#
#
# Indices 1 2 3 4 5 6 
#
# 1 0.015400 0.001567 -0.001252 0.000000 0.000000 0.000000
# 2 0.001567 0.013890 -0.007064 0.000000 0.000000 0.000000
# 3 -0.001252 -0.007064 0.009718 0.000000 0.000000 0.000000
# 4 0.000000 0.000000 0.000000 0.489861 0.000000 0.000000
# 5 0.000000 0.000000 0.000000 0.000000 0.210467 0.000000
# 6 0.000000 0.000000 0.000000 0.000000 0.000000 0.050034
#
#
# Mechanical properties :
#
#
# Convention : Reuss Voigt Hill
#
# Bulk Modulus (GPa) = 39.19960 56.58233 47.89097
# Shear Modulus (GPa) = 6.16241 22.78443 14.47342
#
# Velocity S-wave (km/s) = 1.74680 3.35883 2.67704
# Velocity P-wave (km/s) = 4.84543 6.56194 5.76790
#
# Compressibility (1/GPa) = 0.02551046
#
# Stress axis : x y z
#
# Youngs Moduli (GPa) = 64.93547 71.99335 102.90580
#
# Poissons Ratio (x) = -0.11283 0.12886
# Poissons Ratio (y) = -0.10177 0.72689
# Poissons Ratio (z) = 0.08131 0.50853
#
# Static dielectric constant tensor:
#      x y z
#    x 1.789580 0.000000 0.000000 
#    y 0.000000 1.675070 0.000000 
#    z 0.000000 0.000000 1.724640 
# 
# From -- ./inp_files/6738.got.cif
#   From: 2010.05.17/outbox.cif.g08.bks.cpg/sg47_4_cif.got.tgz:6738.got - 2010.06.03 20:15:42.
