data_PCOD9384396
_publ_section_title
;
Structure prediction by ZEFSAII (Michael W. Deem and Ramdas Pophale) SiO2 
 PCOD9384396
Probable space group: P M M M
;
_chemical_formula_sum "Si O2"
_cell_formula_units_Z 44
_cell_length_a 9.451653
_cell_length_b 7.371527
_cell_length_c 30.078104
_cell_angle_alpha 90.000000
_cell_angle_beta 90.000000
_cell_angle_gamma 90.000000
_cell_volume 2095.635208
_symmetry_space_group_name_H-M "P M M M"
_symmetry_group_IT_number 47
_symmetry_cell_setting 'orthorhombic'
loop_
_space_group_symop_operation_xyz
x,y,z
-x,-y,z
x,-y,-z
-x,y,-z
-x,-y,-z
x,y,-z
-x,y,z
x,-y,z
loop_
_atom_site_type_symbol
_atom_site_label
_atom_site_fract_x
_atom_site_fract_y
_atom_site_fract_z
Si Si1 0.335337 0.278585 0.355147
Si Si2 0.162579 0.721886 0.268696
Si Si3 0.172400 0.790440 0.000000
Si Si4 0.340564 0.715599 0.815884
Si Si5 0.669517 0.718287 0.547799
Si Si6 0.838690 0.781862 0.096483
O O1 0.500000 0.225117 0.349837
O O2 0.334844 0.500000 0.355626
O O3 0.242088 0.220666 0.313563
O O4 0.280655 0.217999 0.403807
O O5 0.162749 0.500000 0.268581
O O6 0.247198 0.784535 0.225164
O O7 0.000000 0.779436 0.267538
O O8 0.212055 0.712410 0.951904
O O9 0.000000 0.789991 0.000000
O O10 0.220443 0.000000 0.000000
O O11 0.500000 0.788589 0.816338
O O12 0.350838 0.500000 0.809035
O O13 0.261773 0.741663 0.862502
O O14 0.724661 0.786291 0.500000
O O15 0.500000 0.750708 0.548026
O O16 0.688071 0.500000 0.547349
O O17 0.000000 0.717978 0.104824
O O18 0.846044 0.000000 0.092494
#
# Coordination Sequence:
#
# PCOD9384396 Si02
#       6
#     8   8   4   8   8   8
#     4   8  12  18  29  44  62  86 119 160 203 246
#     4   9  16  25  37  52  71  98 133 172 212 254
#     4   7  12  26  48  71  92 114 142 175 208 247
#     4  10  20  32  45  63  89 119 149 182 220 259
#     4   7   9  13  22  37  56  79 111 152 195 238
#     4   9  17  31  52  74  93 115 145 179 214 254
#
# _framework density 20.996020000000001
#
# number of rings (size 3 to 8) (size 9 to 14) (size 15 to 20)
#    0.000    3.545    0.000    3.818    0.000    3.636 
#    0.000    0.909    0.000    4.909    0.000    3.818 
#    0.000    0.000    0.000    0.000    0.000    0.909 
#
# Total GULP energy -245218.342289 kJ/mol
# GULP energy per Si atom -5573.144143 kJ/mol
# Density = 2.094823 g / cm^3
# Si number density = 20.996020 Si / 1000 Ang^3
#
#
#
# Elastic Constant Matrix: (Units=GPa)
#
#
# Indices 1 2 3 4 5 6 
#
# 1 121.9761 5.4047 121.5008 0.0000 0.0000 0.0000
# 2 5.4047 72.7581 5.1396 0.0000 0.0000 0.0000
# 3 121.5008 5.1396 274.9291 0.0000 0.0000 0.0000
# 4 0.0000 0.0000 0.0000 15.2152 0.0000 0.0000
# 5 0.0000 0.0000 0.0000 0.0000 31.2536 0.0000
# 6 0.0000 0.0000 0.0000 0.0000 0.0000 2.9435
#
#
#
# Elastic Compliance Matrix: (Units=1/GPa)
#
#
# Indices 1 2 3 4 5 6 
#
# 1 0.014674 -0.000633 -0.006473 0.000000 0.000000 0.000000
# 2 -0.000633 0.013790 0.000022 0.000000 0.000000 0.000000
# 3 -0.006473 0.000022 0.006498 0.000000 0.000000 0.000000
# 4 0.000000 0.000000 0.000000 0.065724 0.000000 0.000000
# 5 0.000000 0.000000 0.000000 0.000000 0.031996 0.000000
# 6 0.000000 0.000000 0.000000 0.000000 0.000000 0.339736
#
#
# Mechanical properties :
#
#
# Convention : Reuss Voigt Hill
#
# Bulk Modulus (GPa) = 48.09248 81.52815 64.81032
# Shear Modulus (GPa) = 10.13135 32.39033 21.26084
#
# Velocity S-wave (km/s) = 2.19905 3.93197 3.18561
# Velocity P-wave (km/s) = 5.42246 7.71547 6.66826
#
# Compressibility (1/GPa) = 0.02079327
#
# Stress axis : x y z
#
# Youngs Moduli (GPa) = 68.14558 72.51820 153.90101
#
# Poissons Ratio (x) = 0.04589 0.99625
# Poissons Ratio (y) = 0.04312 -0.00337
# Poissons Ratio (z) = 0.44113 -0.00159
#
# Static dielectric constant tensor:
#      x y z
#    x 1.703850 0.000000 0.000000 
#    y 0.000000 1.864870 0.000000 
#    z 0.000000 0.000000 1.783260 
# 
# From -- ./inp_files/33906.got.cif
#   From: 2010.05.17/outbox.cif.g08.bks.cpg/sg47_17_cif.got.tgz:33906.got - 2010.06.03 20:15:42.
