data_PCOD9384935
_publ_section_title
;
Structure prediction by ZEFSAII (Michael W. Deem and Ramdas Pophale) SiO2 
 PCOD9384935
Probable space group: P M M M
;
_chemical_formula_sum "Si O2"
_cell_formula_units_Z 64
_cell_length_a 31.871637
_cell_length_b 9.060375
_cell_length_c 14.401863
_cell_angle_alpha 90.000000
_cell_angle_beta 90.000000
_cell_angle_gamma 90.000000
_cell_volume 4158.811333
_symmetry_space_group_name_H-M "P M M M"
_symmetry_group_IT_number 47
_symmetry_cell_setting 'orthorhombic'
loop_
_space_group_symop_operation_xyz
x,y,z
-x,-y,z
x,-y,-z
-x,y,-z
-x,-y,-z
x,y,-z
-x,y,z
x,-y,z
loop_
_atom_site_type_symbol
_atom_site_label
_atom_site_fract_x
_atom_site_fract_y
_atom_site_fract_z
Si Si1 0.283052 0.326087 0.611414
Si Si2 0.047294 0.823250 0.299978
Si Si3 0.369146 0.830921 0.612958
Si Si4 0.205776 0.176058 0.714117
Si Si5 0.546504 0.327325 0.612803
Si Si6 0.127562 0.673963 0.610629
Si Si7 0.824424 0.325054 0.892991
Si Si8 0.914835 0.825049 0.895958
O O1 0.278695 0.306018 0.500000
O O2 0.279273 0.500000 0.630771
O O3 0.328913 0.266225 0.638994
O O4 0.246711 0.237114 0.662589
O O5 0.083318 0.738543 0.355109
O O6 0.054827 0.795194 0.190153
O O7 0.000000 0.781282 0.326322
O O8 0.051975 0.000000 0.314309
O O9 0.370381 0.829615 0.500000
O O10 0.413444 0.764359 0.645496
O O11 0.363888 0.000000 0.642471
O O12 0.164898 0.240089 0.661665
O O13 0.202974 0.238650 0.818329
O O14 0.204693 0.000000 0.713421
O O15 0.546549 0.320421 0.500000
O O16 0.500000 0.276894 0.643092
O O17 0.551241 0.500000 0.636896
O O18 0.131615 0.691319 0.500000
O O19 0.130468 0.500000 0.632836
O O20 0.823148 0.500000 0.875122
O O21 0.872174 0.266634 0.883412
O O22 0.812054 0.298637 0.000000
O O23 0.904269 0.000000 0.891815
O O24 0.931570 0.795681 0.000000
#
# Coordination Sequence:
#
# PCOD9384935 Si02
#       8
#     8   8   8   8   8   8   8   8
#     4  10  20  33  48  66  91 124 160 197 238 283
#     4  10  21  36  54  77 102 128 156 186 225 271
#     4   9  16  25  37  55  81 112 149 195 243 286
#     4  12  23  35  54  77  99 122 151 189 233 278
#     4   8  13  21  33  49  71 104 148 195 241 287
#     4  11  24  40  56  73  94 123 159 195 232 273
#     4  10  20  34  54  78 102 126 151 181 218 264
#     4   9  17  31  52  77 103 128 152 179 216 264
#
# _framework density 15.389013
#
# number of rings (size 3 to 8) (size 9 to 14) (size 15 to 20)
#    0.000    2.125    1.250    3.375    0.000    6.500 
#    0.000    3.750    0.000    0.000    0.000    2.625 
#    0.000    0.000    0.000    0.000    0.000    0.625 
#
# Total GULP energy -357005.085832 kJ/mol
# GULP energy per Si atom -5578.204466 kJ/mol
# Density = 1.535399 g / cm^3
# Si number density = 15.389013 Si / 1000 Ang^3
#
#
#
# Elastic Constant Matrix: (Units=GPa)
#
#
# Indices 1 2 3 4 5 6 
#
# 1 111.1287 64.3757 37.4019 0.0000 0.0000 0.0000
# 2 64.3757 99.0304 46.1717 0.0000 0.0000 0.0000
# 3 37.4019 46.1717 49.2704 0.0000 0.0000 0.0000
# 4 0.0000 0.0000 0.0000 19.9127 0.0000 0.0000
# 5 0.0000 0.0000 0.0000 0.0000 1.0312 0.0000
# 6 0.0000 0.0000 0.0000 0.0000 0.0000 27.9538
#
#
#
# Elastic Compliance Matrix: (Units=1/GPa)
#
#
# Indices 1 2 3 4 5 6 
#
# 1 0.014856 -0.007813 -0.003956 0.000000 0.000000 0.000000
# 2 -0.007813 0.022042 -0.014725 0.000000 0.000000 0.000000
# 3 -0.003956 -0.014725 0.037098 0.000000 0.000000 0.000000
# 4 0.000000 0.000000 0.000000 0.050219 0.000000 0.000000
# 5 0.000000 0.000000 0.000000 0.000000 0.969726 0.000000
# 6 0.000000 0.000000 0.000000 0.000000 0.000000 0.035773
#
#
# Mechanical properties :
#
#
# Convention : Reuss Voigt Hill
#
# Bulk Modulus (GPa) = 47.59943 61.70310 54.65127
# Shear Modulus (GPa) = 4.20272 17.21154 10.70713
#
# Velocity S-wave (km/s) = 1.65436 3.34792 2.64060
# Velocity P-wave (km/s) = 5.88618 7.42478 6.69980
#
# Compressibility (1/GPa) = 0.02100865
#
# Stress axis : x y z
#
# Youngs Moduli (GPa) = 67.31347 45.36782 26.95569
#
# Poissons Ratio (x) = 0.35445 0.10663
# Poissons Ratio (y) = 0.52591 0.39692
# Poissons Ratio (z) = 0.26628 0.66804
#
# Static dielectric constant tensor:
#      x y z
#    x 1.502020 0.000000 0.000000 
#    y 0.000000 1.513890 0.000000 
#    z 0.000000 0.000000 1.509160 
# 
# From -- ./inp_files/25850.got.cif
#   From: 2010.05.17/outbox.cif.g08.bks.cpg/sg47_13_cif.got.tgz:25850.got - 2010.06.03 20:15:42.
