data_PCOD9384125
_publ_section_title
;
Structure prediction by ZEFSAII (Michael W. Deem and Ramdas Pophale) SiO2 
 PCOD9384125
Probable space group: P M M M
;
_chemical_formula_sum "Si O2"
_cell_formula_units_Z 64
_cell_length_a 15.074169
_cell_length_b 7.782194
_cell_length_c 32.686585
_cell_angle_alpha 90.000000
_cell_angle_beta 90.000000
_cell_angle_gamma 90.000000
_cell_volume 3834.466802
_symmetry_space_group_name_H-M "P M M M"
_symmetry_group_IT_number 47
_symmetry_cell_setting 'orthorhombic'
loop_
_space_group_symop_operation_xyz
x,y,z
-x,-y,z
x,-y,-z
-x,y,-z
-x,-y,-z
x,y,-z
-x,y,z
x,-y,z
loop_
_atom_site_type_symbol
_atom_site_label
_atom_site_fract_x
_atom_site_fract_y
_atom_site_fract_z
Si Si1 0.097686 0.206202 0.674794
Si Si2 0.603166 0.207304 0.132111
Si Si3 0.601716 0.703279 0.221555
Si Si4 0.284340 0.710639 0.545361
Si Si5 0.902389 0.707506 0.578915
Si Si6 0.599697 0.295601 0.621404
Si Si7 0.393494 0.792516 0.955946
Si Si8 0.713808 0.797721 0.699995
O O1 0.109034 0.243741 0.626520
O O2 0.185656 0.272914 0.697399
O O3 0.000000 0.274289 0.686832
O O4 0.094501 0.000000 0.680027
O O5 0.500000 0.264145 0.132855
O O6 0.639126 0.261816 0.176068
O O7 0.641191 0.268645 0.088313
O O8 0.603923 0.000000 0.131206
O O9 0.500000 0.773827 0.224202
O O10 0.595594 0.500000 0.226891
O O11 0.664137 0.770125 0.257350
O O12 0.312950 0.762830 0.500000
O O13 0.284333 0.500000 0.546287
O O14 0.183324 0.766747 0.554193
O O15 0.346475 0.772236 0.582258
O O16 0.903314 0.500000 0.576623
O O17 0.000000 0.769244 0.565550
O O18 0.500000 0.225093 0.624966
O O19 0.592562 0.500000 0.615222
O O20 0.654784 0.271921 0.662841
O O21 0.500000 0.762535 0.955465
O O22 0.382505 0.000000 0.956493
O O23 0.359909 0.726442 0.000000
O O24 0.720251 0.000000 0.692736
#
# Coordination Sequence:
#
# PCOD9384125 Si02
#       8
#     8   8   8   8   8   8   8   8
#     4   9  18  32  49  68  88 107 127 156 198 245
#     4   8  13  22  36  53  75 104 140 181 218 252
#     4  10  20  31  42  58  83 114 144 176 214 250
#     4   9  17  29  45  66  90 112 135 164 197 236
#     4   9  16  27  46  69  89 109 132 160 195 235
#     4  10  20  33  48  65  86 111 139 172 205 235
#     4   7   9  14  27  48  71  96 131 176 220 254
#     4  11  21  32  49  68  84 105 134 168 204 246
#
# _framework density 16.690716999999999
#
# number of rings (size 3 to 8) (size 9 to 14) (size 15 to 20)
#    0.000    2.875    1.250    2.250    0.000    3.500 
#    0.000    2.500    0.000    1.875    0.000    5.250 
#    0.000    0.000    0.000    0.000    0.000    0.625 
#
# Total GULP energy -356363.032369 kJ/mol
# GULP energy per Si atom -5568.172381 kJ/mol
# Density = 1.665273 g / cm^3
# Si number density = 16.690717 Si / 1000 Ang^3
#
#
#
# Elastic Constant Matrix: (Units=GPa)
#
#
# Indices 1 2 3 4 5 6 
#
# 1 94.5533 7.6494 62.4864 0.0000 0.0000 0.0000
# 2 7.6494 17.8881 -8.2119 0.0000 0.0000 0.0000
# 3 62.4864 -8.2119 114.4561 0.0000 0.0000 0.0000
# 4 0.0000 0.0000 0.0000 11.0225 0.0000 0.0000
# 5 0.0000 0.0000 0.0000 0.0000 9.2730 0.0000
# 6 0.0000 0.0000 0.0000 0.0000 0.0000 8.3254
#
#
#
# Elastic Compliance Matrix: (Units=1/GPa)
#
#
# Indices 1 2 3 4 5 6 
#
# 1 0.019257 -0.013506 -0.011482 0.000000 0.000000 0.000000
# 2 -0.013506 0.067279 0.012200 0.000000 0.000000 0.000000
# 3 -0.011482 0.012200 0.015881 0.000000 0.000000 0.000000
# 4 0.000000 0.000000 0.000000 0.090723 0.000000 0.000000
# 5 0.000000 0.000000 0.000000 0.000000 0.107840 0.000000
# 6 0.000000 0.000000 0.000000 0.000000 0.000000 0.120114
#
#
# Mechanical properties :
#
#
# Convention : Reuss Voigt Hill
#
# Bulk Modulus (GPa) = 13.01369 38.97171 25.99270
# Shear Modulus (GPa) = 10.58689 16.72244 13.65467
#
# Velocity S-wave (km/s) = 2.52126 3.16872 2.86335
# Velocity P-wave (km/s) = 4.03603 6.06529 5.15157
#
# Compressibility (1/GPa) = 0.07684214
#
# Stress axis : x y z
#
# Youngs Moduli (GPa) = 51.93018 14.86344 62.96907
#
# Poissons Ratio (x) = 0.20074 0.72301
# Poissons Ratio (y) = 0.70135 -0.76825
# Poissons Ratio (z) = 0.59626 -0.18134
#
# Static dielectric constant tensor:
#      x y z
#    x 1.585660 0.000000 0.000000 
#    y 0.000000 1.624920 0.000000 
#    z 0.000000 0.000000 1.585740 
# 
# From -- ./inp_files/25866.got.cif
#   From: 2010.05.17/outbox.cif.g08.bks.cpg/sg47_13_cif.got.tgz:25866.got - 2010.06.03 20:15:42.
