data_PCOD9384725
_publ_section_title
;
Structure prediction by ZEFSAII (Michael W. Deem and Ramdas Pophale) SiO2 
 PCOD9384725
Probable space group: P M M M
;
_chemical_formula_sum "Si O2"
_cell_formula_units_Z 58
_cell_length_a 26.114114
_cell_length_b 15.262736
_cell_length_c 7.339905
_cell_angle_alpha 90.000000
_cell_angle_beta 90.000000
_cell_angle_gamma 90.000000
_cell_volume 2925.486692
_symmetry_space_group_name_H-M "P M M M"
_symmetry_group_IT_number 47
_symmetry_cell_setting 'orthorhombic'
loop_
_space_group_symop_operation_xyz
x,y,z
-x,-y,z
x,-y,-z
-x,y,-z
-x,-y,-z
x,y,-z
-x,y,z
x,-y,z
loop_
_atom_site_type_symbol
_atom_site_label
_atom_site_fract_x
_atom_site_fract_y
_atom_site_fract_z
Si Si1 0.405055 0.100354 0.218831
Si Si2 0.776312 0.900532 0.719841
Si Si3 0.315575 0.771112 0.789396
Si Si4 0.893771 0.098187 0.278213
Si Si5 0.147802 0.599544 0.718883
Si Si6 0.734830 0.400592 0.216345
Si Si7 0.943192 0.275413 0.722568
Si Si8 0.500000 0.116154 0.500000
O O1 0.362138 0.170010 0.280770
O O2 0.455246 0.111962 0.340522
O O3 0.386356 0.000000 0.244323
O O4 0.414641 0.110507 0.000000
O O5 0.775692 0.898816 0.500000
O O6 0.735315 0.830446 0.783011
O O7 0.834930 0.882813 0.775935
O O8 0.763370 0.000000 0.777177
O O9 0.301342 0.676236 0.708917
O O10 0.328475 0.755435 0.000000
O O11 0.894068 0.097260 0.500000
O O12 0.930339 0.176372 0.220770
O O13 0.907297 0.000000 0.218764
O O14 0.144188 0.597876 0.500000
O O15 0.141567 0.500000 0.785492
O O16 0.205865 0.627073 0.760387
O O17 0.102921 0.662487 0.784618
O O18 0.729086 0.500000 0.289068
O O19 0.726066 0.405688 0.000000
O O20 0.942686 0.276841 0.500000
O O21 0.000000 0.302452 0.779825
#
# Coordination Sequence:
#
# PCOD9384725 Si02
#       8
#     8   8   8   8   8   8   8   2
#     4  10  21  36  54  80 113 146 185 228 262 303
#     4   9  17  28  44  66  94 128 161 194 240 304
#     4  10  20  32  48  74 105 132 161 206 258 299
#     4   8  14  24  36  53  79 112 150 190 233 284
#     4   9  17  29  45  65  89 117 150 191 242 299
#     4   9  18  33  52  73  98 129 164 200 246 309
#     4   9  16  24  36  56  81 111 149 193 240 289
#     4  12  23  38  60  82 111 156 195 220 260 306
#
# _framework density 19.825761
#
# number of rings (size 3 to 8) (size 9 to 14) (size 15 to 20)
#    0.000    2.759    0.000    2.897    0.966    3.586 
#    0.000    2.759    0.000    0.414    0.000    2.897 
#    0.000    3.310    0.000   11.862    0.000    9.655 
#
# Total GULP energy -323105.191152 kJ/mol
# GULP energy per Si atom -5570.779158 kJ/mol
# Density = 1.978064 g / cm^3
# Si number density = 19.825761 Si / 1000 Ang^3
#
#
#
# Elastic Constant Matrix: (Units=GPa)
#
#
# Indices 1 2 3 4 5 6 
#
# 1 108.8614 94.5821 19.5649 0.0000 0.0000 0.0000
# 2 94.5821 120.9776 19.5819 0.0000 0.0000 0.0000
# 3 19.5649 19.5819 85.4813 0.0000 0.0000 0.0000
# 4 0.0000 0.0000 0.0000 1.5845 0.0000 0.0000
# 5 0.0000 0.0000 0.0000 0.0000 18.6243 0.0000
# 6 0.0000 0.0000 0.0000 0.0000 0.0000 792.5931
#
#
#
# Elastic Compliance Matrix: (Units=1/GPa)
#
#
# Indices 1 2 3 4 5 6 
#
# 1 0.028822 -0.022292 -0.001490 0.000000 0.000000 0.000000
# 2 -0.022292 0.025826 -0.000814 0.000000 0.000000 0.000000
# 3 -0.001490 -0.000814 0.012226 0.000000 0.000000 0.000000
# 4 0.000000 0.000000 0.000000 0.631126 0.000000 0.000000
# 5 0.000000 0.000000 0.000000 0.000000 0.053693 0.000000
# 6 0.000000 0.000000 0.000000 0.000000 0.000000 0.001262
#
#
# Mechanical properties :
#
#
# Convention : Reuss Voigt Hill
#
# Bulk Modulus (GPa) = 56.55632 64.75312 60.65472
# Shear Modulus (GPa) = 6.18780 174.66646 90.42713
#
# Velocity S-wave (km/s) = 1.76858 9.39638 6.76091
# Velocity P-wave (km/s) = 5.72356 12.26600 9.57115
#
# Compressibility (1/GPa) = 0.01768149
#
# Stress axis : x y z
#
# Youngs Moduli (GPa) = 34.69565 38.72029 81.79301
#
# Poissons Ratio (x) = 0.86317 0.12188
# Poissons Ratio (y) = 0.77345 0.06658
# Poissons Ratio (z) = 0.05170 0.03152
#
# Static dielectric constant tensor:
#      x y z
#    x 1.654440 0.000000 0.000000 
#    y 0.000000 1.720070 0.000000 
#    z 0.000000 0.000000 1.799480 
# 
# From -- ./inp_files/13455.got.cif
#   From: 2010.05.17/outbox.cif.g08.bks.cpg/sg47_7_cif.got.tgz:13455.got - 2010.06.03 20:15:42.
