data_PCOD9384636
_publ_section_title
;
Structure prediction by ZEFSAII (Michael W. Deem and Ramdas Pophale) SiO2 
 PCOD9384636
Probable space group: P M M M
;
_chemical_formula_sum "Si O2"
_cell_formula_units_Z 48
_cell_length_a 31.324527
_cell_length_b 9.875611
_cell_length_c 7.514777
_cell_angle_alpha 90.000000
_cell_angle_beta 90.000000
_cell_angle_gamma 90.000000
_cell_volume 2324.687573
_symmetry_space_group_name_H-M "P M M M"
_symmetry_group_IT_number 47
_symmetry_cell_setting 'orthorhombic'
loop_
_space_group_symop_operation_xyz
x,y,z
-x,-y,z
x,-y,-z
-x,y,-z
-x,-y,-z
x,y,-z
-x,y,z
x,-y,z
loop_
_atom_site_type_symbol
_atom_site_label
_atom_site_fract_x
_atom_site_fract_y
_atom_site_fract_z
Si Si1 0.500000 0.155374 0.718220
Si Si2 0.174335 0.345659 0.282596
Si Si3 0.423955 0.653024 0.287097
Si Si4 0.000000 0.155650 0.717883
Si Si5 0.248694 0.151937 0.709997
Si Si6 0.077094 0.345443 0.716838
Si Si7 0.674199 0.652592 0.211082
O O1 0.500000 0.153617 0.500000
O O2 0.458290 0.238683 0.777362
O O3 0.500000 0.000000 0.776498
O O4 0.174818 0.345107 0.500000
O O5 0.184510 0.500000 0.228476
O O6 0.209478 0.240481 0.216718
O O7 0.125698 0.314470 0.228535
O O8 0.429055 0.646700 0.500000
O O9 0.431358 0.500000 0.217903
O O10 0.374812 0.688978 0.251388
O O11 0.041858 0.238490 0.775520
O O12 0.000000 0.155522 0.500000
O O13 0.000000 0.000000 0.775215
O O14 0.240304 0.139371 0.500000
O O15 0.291884 0.237981 0.726244
O O16 0.252158 0.000000 0.783623
O O17 0.076721 0.344983 0.500000
O O18 0.066895 0.500000 0.771013
O O19 0.682028 0.500000 0.283692
O O20 0.678578 0.645469 0.000000
#
# Coordination Sequence:
#
# PCOD9384636 Si02
#       7
#     4   8   8   4   8   8   8
#     4   9  17  29  48  75 102 126 156 195 234 273
#     4   8  14  25  41  59  79 107 146 191 234 275
#     4   9  17  31  52  75  98 126 160 197 236 277
#     4   9  15  19  25  41  67 101 138 175 218 269
#     4  10  20  32  48  71  96 123 156 195 241 291
#     4   8  13  21  32  46  67  99 139 180 221 267
#     4  10  21  36  53  73  97 127 163 201 241 284
#
# _framework density 20.647933999999999
#
# number of rings (size 3 to 8) (size 9 to 14) (size 15 to 20)
#    0.000    3.000    0.000    2.500    0.000    5.333 
#    0.000    5.417    0.000    2.500    0.000    0.000 
#    0.000    0.000    0.000    0.750    0.000   15.333 
#
# Total GULP energy -267881.482150 kJ/mol
# GULP energy per Si atom -5580.864211 kJ/mol
# Density = 2.060094 g / cm^3
# Si number density = 20.647934 Si / 1000 Ang^3
#
#
#
# Elastic Constant Matrix: (Units=GPa)
#
#
# Indices 1 2 3 4 5 6 
#
# 1 175.5119 165.5296 -1.4645 0.0000 0.0000 0.0000
# 2 165.5296 206.4362 6.7702 0.0000 0.0000 0.0000
# 3 -1.4645 6.7702 53.3076 0.0000 0.0000 0.0000
# 4 0.0000 0.0000 0.0000 -2.8830 0.0000 0.0000
# 5 0.0000 0.0000 0.0000 0.0000 -52.0847 0.0000
# 6 0.0000 0.0000 0.0000 0.0000 0.0000 6.4831
#
#
#
# Elastic Compliance Matrix: (Units=1/GPa)
#
#
# Indices 1 2 3 4 5 6 
#
# 1 0.023873 -0.019244 0.003100 0.000000 0.000000 0.000000
# 2 -0.019244 0.020377 -0.003117 0.000000 0.000000 0.000000
# 3 0.003100 -0.003117 0.019240 0.000000 0.000000 0.000000
# 4 0.000000 0.000000 0.000000 -0.346867 0.000000 0.000000
# 5 0.000000 0.000000 0.000000 0.000000 -0.019199 0.000000
# 6 0.000000 0.000000 0.000000 0.000000 0.000000 0.154247
#
#
# Mechanical properties :
#
#
# Convention : Reuss Voigt Hill
#
# Bulk Modulus (GPa) = 40.05049 86.32515 63.18782
# Shear Modulus (GPa) = -49.26853 7.93113 -20.66870
#
# Velocity S-wave (km/s) = -4.89010 1.96201 -3.16730
# Velocity P-wave (km/s) = 3.52776 6.85795 4.15851
#
# Compressibility (1/GPa) = 0.02496849
#
# Stress axis : x y z
#
# Youngs Moduli (GPa) = 41.88806 49.07456 51.97502
#
# Poissons Ratio (x) = 0.94440 -0.16112
# Poissons Ratio (y) = 0.80610 0.16199
# Poissons Ratio (z) = -0.12985 0.15295
#
# Static dielectric constant tensor:
#      x y z
#    x 1.707800 0.000000 0.000000 
#    y 0.000000 1.717430 0.000000 
#    z 0.000000 0.000000 1.776960 
# 
# From -- ./inp_files/13850.got.cif
#   From: 2010.05.17/outbox.cif.g08.bks.cpg/sg47_7_cif.got.tgz:13850.got - 2010.06.03 20:15:42.
