data_PCOD9384201
_publ_section_title
;
Structure prediction by ZEFSAII (Michael W. Deem and Ramdas Pophale) SiO2 
 PCOD9384201
Probable space group: P M M M
;
_chemical_formula_sum "Si O2"
_cell_formula_units_Z 44
_cell_length_a 31.471290
_cell_length_b 9.509609
_cell_length_c 7.529833
_cell_angle_alpha 90.000000
_cell_angle_beta 90.000000
_cell_angle_gamma 90.000000
_cell_volume 2253.525880
_symmetry_space_group_name_H-M "P M M M"
_symmetry_group_IT_number 47
_symmetry_cell_setting 'orthorhombic'
loop_
_space_group_symop_operation_xyz
x,y,z
-x,-y,z
x,-y,-z
-x,y,-z
-x,-y,-z
x,y,-z
-x,y,z
x,-y,z
loop_
_atom_site_type_symbol
_atom_site_label
_atom_site_fract_x
_atom_site_fract_y
_atom_site_fract_z
Si Si1 0.614257 0.828683 0.796804
Si Si2 0.451346 0.171728 0.500000
Si Si3 0.707997 0.840045 0.786483
Si Si4 0.952253 0.662093 0.716445
Si Si5 0.128883 0.161437 0.282413
Si Si6 0.209313 0.658764 0.711912
O O1 0.576012 0.784056 0.670868
O O2 0.661268 0.789780 0.727229
O O3 0.614816 0.000000 0.798675
O O4 0.608881 0.781488 0.000000
O O5 0.500000 0.219473 0.500000
O O6 0.452072 0.000000 0.500000
O O7 0.746619 0.739024 0.741953
O O8 0.715781 0.000000 0.721530
O O9 0.704960 0.847446 0.000000
O O10 0.952172 0.663653 0.500000
O O11 0.944512 0.500000 0.769181
O O12 0.914524 0.763015 0.775027
O O13 0.000000 0.702100 0.772770
O O14 0.129011 0.161732 0.500000
O O15 0.169723 0.249559 0.221113
O O16 0.131213 0.000000 0.225800
O O17 0.203523 0.649275 0.500000
O O18 0.209803 0.500000 0.782926
#
# Coordination Sequence:
#
# PCOD9384201 Si02
#       6
#     8   4   8   8   8   8
#     4   8  15  27  41  61  91 125 162 205 249 294
#     4   9  16  24  38  64  95 131 171 203 242 297
#     4   9  18  32  49  68  90 120 159 198 238 287
#     4   8  13  21  33  49  73 109 149 188 234 286
#     4   9  16  25  37  55  81 113 150 191 235 284
#     4  10  20  31  44  65  92 121 153 191 238 291
#
# _framework density 19.52496
#
# number of rings (size 3 to 8) (size 9 to 14) (size 15 to 20)
#    0.000    3.182    0.000    2.727    1.273    4.364 
#    0.000    3.636    0.000    0.000    0.000    0.000 
#    0.000    2.182    0.000   11.636    0.000   14.545 
#
# Total GULP energy -245396.667886 kJ/mol
# GULP energy per Si atom -5577.196997 kJ/mol
# Density = 1.948052 g / cm^3
# Si number density = 19.524960 Si / 1000 Ang^3
#
#
#
# Elastic Constant Matrix: (Units=GPa)
#
#
# Indices 1 2 3 4 5 6 
#
# 1 222.6899 106.8257 38.2172 0.0000 0.0000 0.0000
# 2 106.8257 106.3194 20.3505 0.0000 0.0000 0.0000
# 3 38.2172 20.3505 59.7808 0.0000 0.0000 0.0000
# 4 0.0000 0.0000 0.0000 1.4459 0.0000 0.0000
# 5 0.0000 0.0000 0.0000 0.0000 194.2364 0.0000
# 6 0.0000 0.0000 0.0000 0.0000 0.0000 -16.2290
#
#
#
# Elastic Compliance Matrix: (Units=1/GPa)
#
#
# Indices 1 2 3 4 5 6 
#
# 1 0.009115 -0.008604 -0.002898 0.000000 0.000000 0.000000
# 2 -0.008604 0.018182 -0.000689 0.000000 0.000000 0.000000
# 3 -0.002898 -0.000689 0.018815 0.000000 0.000000 0.000000
# 4 0.000000 0.000000 0.000000 0.691588 0.000000 0.000000
# 5 0.000000 0.000000 0.000000 0.000000 0.005148 0.000000
# 6 0.000000 0.000000 0.000000 0.000000 0.000000 -0.061618
#
#
# Mechanical properties :
#
#
# Convention : Reuss Voigt Hill
#
# Bulk Modulus (GPa) = 46.01937 79.95298 62.98618
# Shear Modulus (GPa) = 7.01402 50.78377 28.89889
#
# Velocity S-wave (km/s) = 1.89740 5.10550 3.85138
# Velocity P-wave (km/s) = 5.33112 8.70591 7.21851
#
# Compressibility (1/GPa) = 0.02172998
#
# Stress axis : x y z
#
# Youngs Moduli (GPa) = 109.70515 54.99795 53.14816
#
# Poissons Ratio (x) = 0.47320 0.15404
# Poissons Ratio (y) = 0.94390 0.03663
# Poissons Ratio (z) = 0.31797 0.03791
#
# Static dielectric constant tensor:
#      x y z
#    x 1.671150 0.000000 0.000000 
#    y 0.000000 1.653730 0.000000 
#    z 0.000000 0.000000 1.800590 
# 
# From -- ./inp_files/13643.got.cif
#   From: 2010.05.17/outbox.cif.g08.bks.cpg/sg47_7_cif.got.tgz:13643.got - 2010.06.03 20:15:42.
