data_PCOD9384138
_publ_section_title
;
Structure prediction by ZEFSAII (Michael W. Deem and Ramdas Pophale) SiO2 
 PCOD9384138
Probable space group: P M M M
;
_chemical_formula_sum "Si O2"
_cell_formula_units_Z 45
_cell_length_a 18.956417
_cell_length_b 16.789315
_cell_length_c 7.470956
_cell_angle_alpha 90.000000
_cell_angle_beta 90.000000
_cell_angle_gamma 90.000000
_cell_volume 2377.745726
_symmetry_space_group_name_H-M "P M M M"
_symmetry_group_IT_number 47
_symmetry_cell_setting 'orthorhombic'
loop_
_space_group_symop_operation_xyz
x,y,z
-x,-y,z
x,-y,-z
-x,y,-z
-x,-y,-z
x,y,-z
-x,y,z
x,-y,z
loop_
_atom_site_type_symbol
_atom_site_label
_atom_site_fract_x
_atom_site_fract_y
_atom_site_fract_z
Si Si1 0.693133 0.410505 0.289581
Si Si2 0.626860 0.000000 0.701939
Si Si3 0.420789 0.708295 0.215670
Si Si4 0.500000 0.000000 0.000000
Si Si5 0.917623 0.588723 0.781613
Si Si6 0.696732 0.834229 0.782664
Si Si7 0.809008 0.284647 0.202364
O O1 0.710281 0.409255 0.500000
O O2 0.699296 0.500000 0.222389
O O3 0.615235 0.374847 0.265975
O O4 0.746126 0.349783 0.196126
O O5 0.676014 0.922434 0.727854
O O6 0.598864 0.000000 0.500000
O O7 0.563010 0.000000 0.844173
O O8 0.500000 0.717747 0.282237
O O9 0.367682 0.777253 0.277573
O O10 0.422728 0.712956 0.000000
O O11 0.892338 0.500000 0.724630
O O12 0.872335 0.663670 0.714954
O O13 0.000000 0.595203 0.734941
O O14 0.913023 0.589143 0.000000
O O15 0.769670 0.792853 0.718899
O O16 0.698845 0.831390 0.000000
O O17 0.830899 0.263493 0.000000
#
# Coordination Sequence:
#
# PCOD9384138 Si02
#       7
#     8   4   8   1   8   8   8
#     4  10  20  31  42  60  89 124 162 207 251 289
#     4  12  25  39  61  86 106 144 179 212 281 339
#     4   9  19  33  51  68  87 119 155 198 254 301
#     4  12  26  44  60  82 124 136 162 240 264 334
#     4   8  13  22  41  75 113 141 173 219 261 305
#     4   9  18  34  53  71 103 132 164 219 266 312
#     4   9  17  30  51  72  95 134 171 206 259 308
#
# _framework density 18.92549
#
# number of rings (size 3 to 8) (size 9 to 14) (size 15 to 20)
#    0.000    2.667    0.889    2.800    1.244    5.689 
#    0.000    1.778    0.000    0.533    0.000    3.111 
#    0.000    4.978    0.000    0.000    0.000    0.000 
#
# Total GULP energy -250596.047736 kJ/mol
# GULP energy per Si atom -5568.801061 kJ/mol
# Density = 1.888241 g / cm^3
# Si number density = 18.925490 Si / 1000 Ang^3
#
#
#
# Elastic Constant Matrix: (Units=GPa)
#
#
# Indices 1 2 3 4 5 6 
#
# 1 89.1517 44.2066 9.5803 0.0000 0.0000 0.0000
# 2 44.2066 119.0028 9.5055 0.0000 0.0000 0.0000
# 3 9.5803 9.5055 81.2760 0.0000 0.0000 0.0000
# 4 0.0000 0.0000 0.0000 15.8390 0.0000 0.0000
# 5 0.0000 0.0000 0.0000 0.0000 -12.3929 0.0000
# 6 0.0000 0.0000 0.0000 0.0000 0.0000 11.0571
#
#
#
# Elastic Compliance Matrix: (Units=1/GPa)
#
#
# Indices 1 2 3 4 5 6 
#
# 1 0.013836 -0.005057 -0.001039 0.000000 0.000000 0.000000
# 2 -0.005057 0.010330 -0.000612 0.000000 0.000000 0.000000
# 3 -0.001039 -0.000612 0.012498 0.000000 0.000000 0.000000
# 4 0.000000 0.000000 0.000000 0.063135 0.000000 0.000000
# 5 0.000000 0.000000 0.000000 0.000000 -0.080692 0.000000
# 6 0.000000 0.000000 0.000000 0.000000 0.000000 0.090439
#
#
# Mechanical properties :
#
#
# Convention : Reuss Voigt Hill
#
# Bulk Modulus (GPa) = 43.01505 46.22393 44.61949
# Shear Modulus (GPa) = 38.25167 17.97653 28.11410
#
# Velocity S-wave (km/s) = 4.50062 3.08532 3.85842
# Velocity P-wave (km/s) = 7.05588 6.09668 6.59374
#
# Compressibility (1/GPa) = 0.02324767
#
# Stress axis : x y z
#
# Youngs Moduli (GPa) = 72.27553 96.80078 80.01364
#
# Poissons Ratio (x) = 0.48949 0.08317
# Poissons Ratio (y) = 0.36547 0.04898
# Poissons Ratio (z) = 0.07513 0.05926
#
# Static dielectric constant tensor:
#      x y z
#    x 1.666240 0.000000 0.000000 
#    y 0.000000 1.669960 0.000000 
#    z 0.000000 0.000000 1.733930 
# 
# From -- ./inp_files/9463.got.cif
#   From: 2010.05.17/outbox.cif.g08.bks.cpg/sg47_5_cif.got.tgz:9463.got - 2010.06.03 20:15:42.
