data_PCOD9384210
_publ_section_title
;
Structure prediction by ZEFSAII (Michael W. Deem and Ramdas Pophale) SiO2 
 PCOD9384210
Probable space group: P M M M
;
_chemical_formula_sum "Si O2"
_cell_formula_units_Z 64
_cell_length_a 31.995788
_cell_length_b 8.865045
_cell_length_c 14.583182
_cell_angle_alpha 90.000000
_cell_angle_beta 90.000000
_cell_angle_gamma 90.000000
_cell_volume 4136.433540
_symmetry_space_group_name_H-M "P M M M"
_symmetry_group_IT_number 47
_symmetry_cell_setting 'orthorhombic'
loop_
_space_group_symop_operation_xyz
x,y,z
-x,-y,z
x,-y,-z
-x,y,-z
-x,-y,-z
x,y,-z
-x,y,z
x,-y,z
loop_
_atom_site_type_symbol
_atom_site_label
_atom_site_fract_x
_atom_site_fract_y
_atom_site_fract_z
Si Si1 0.255743 0.819761 0.895098
Si Si2 0.953021 0.183549 0.394370
Si Si3 0.632820 0.820405 0.391792
Si Si4 0.205341 0.318581 0.607716
Si Si5 0.163429 0.679748 0.105202
Si Si6 0.127717 0.818699 0.282179
Si Si7 0.709851 0.319441 0.716439
Si Si8 0.453949 0.323172 0.388916
O O1 0.209654 0.749079 0.882251
O O2 0.284855 0.750892 0.817047
O O3 0.253042 0.000000 0.884910
O O4 0.268745 0.786090 0.000000
O O5 0.945380 0.229588 0.500000
O O6 0.915510 0.232340 0.329166
O O7 0.000000 0.231989 0.368249
O O8 0.952988 0.000000 0.393810
O O9 0.636961 0.780184 0.500000
O O10 0.669229 0.741174 0.335148
O O11 0.586868 0.767602 0.359656
O O12 0.636399 0.000000 0.383996
O O13 0.207133 0.280583 0.500000
O O14 0.200358 0.500000 0.615845
O O15 0.166534 0.239272 0.657007
O O16 0.248594 0.277582 0.658189
O O17 0.165968 0.500000 0.118563
O O18 0.133924 0.752425 0.181032
O O19 0.150696 0.709658 0.000000
O O20 0.128591 0.000000 0.279112
O O21 0.708500 0.500000 0.722337
O O22 0.454719 0.314258 0.500000
O O23 0.500000 0.271186 0.356949
O O24 0.449393 0.500000 0.365489
#
# Coordination Sequence:
#
# PCOD9384210 Si02
#       8
#     8   8   8   8   8   8   8   8
#     4  10  20  34  52  73  95 119 153 199 244 282
#     4   8  15  29  48  71  99 127 154 187 231 282
#     4  10  20  31  44  65  95 131 168 206 246 286
#     4  10  21  34  46  64  94 131 164 193 228 274
#     4  10  20  34  51  70  94 125 158 190 231 284
#     4  11  20  30  50  76  97 120 155 198 241 280
#     4  11  21  33  49  67  93 131 167 195 232 284
#     4   8  14  26  44  64  87 119 161 206 248 291
#
# _framework density 15.472265999999999
#
# number of rings (size 3 to 8) (size 9 to 14) (size 15 to 20)
#    0.000    2.250    1.250    3.375    0.000    4.250 
#    0.000    1.250    0.000    1.875    0.000    7.000 
#    0.000    0.500    0.000    5.250    0.000    2.500 
#
# Total GULP energy -356950.399757 kJ/mol
# GULP energy per Si atom -5577.349996 kJ/mol
# Density = 1.543705 g / cm^3
# Si number density = 15.472266 Si / 1000 Ang^3
#
#
#
# Elastic Constant Matrix: (Units=GPa)
#
#
# Indices 1 2 3 4 5 6 
#
# 1 130.5240 47.2750 72.2494 0.0000 0.0000 0.0000
# 2 47.2750 43.4678 45.4170 0.0000 0.0000 0.0000
# 3 72.2494 45.4170 103.2124 0.0000 0.0000 0.0000
# 4 0.0000 0.0000 0.0000 24.5420 0.0000 0.0000
# 5 0.0000 0.0000 0.0000 0.0000 7.7772 0.0000
# 6 0.0000 0.0000 0.0000 0.0000 0.0000 35.6336
#
#
#
# Elastic Compliance Matrix: (Units=1/GPa)
#
#
# Indices 1 2 3 4 5 6 
#
# 1 0.014339 -0.009454 -0.005877 0.000000 0.000000 0.000000
# 2 -0.009454 0.048818 -0.014864 0.000000 0.000000 0.000000
# 3 -0.005877 -0.014864 0.020343 0.000000 0.000000 0.000000
# 4 0.000000 0.000000 0.000000 0.040747 0.000000 0.000000
# 5 0.000000 0.000000 0.000000 0.000000 0.128580 0.000000
# 6 0.000000 0.000000 0.000000 0.000000 0.000000 0.028063
#
#
# Mechanical properties :
#
#
# Convention : Reuss Voigt Hill
#
# Bulk Modulus (GPa) = 43.27078 67.45410 55.36244
# Shear Modulus (GPa) = 14.32734 21.07474 17.70104
#
# Velocity S-wave (km/s) = 3.04633 3.69466 3.38605
# Velocity P-wave (km/s) = 6.35617 7.86716 7.15168
#
# Compressibility (1/GPa) = 0.02311028
#
# Stress axis : x y z
#
# Youngs Moduli (GPa) = 69.74077 20.48438 49.15604
#
# Poissons Ratio (x) = 0.19366 0.28890
# Poissons Ratio (y) = 0.65932 0.73064
# Poissons Ratio (z) = 0.40988 0.30447
#
# Static dielectric constant tensor:
#      x y z
#    x 1.505030 0.000000 0.000000 
#    y 0.000000 1.518500 0.000000 
#    z 0.000000 0.000000 1.509750 
# 
# From -- ./inp_files/14283.got.cif
#   From: 2010.05.17/outbox.cif.g08.bks.cpg/sg47_8_cif.got.tgz:14283.got - 2010.06.03 20:15:42.
