data_PCOD9384698
_publ_section_title
;
Structure prediction by ZEFSAII (Michael W. Deem and Ramdas Pophale) SiO2 
 PCOD9384698
Probable space group: P M M M
;
_chemical_formula_sum "Si O2"
_cell_formula_units_Z 44
_cell_length_a 29.464185
_cell_length_b 9.332961
_cell_length_c 9.386772
_cell_angle_alpha 90.000000
_cell_angle_beta 90.000000
_cell_angle_gamma 90.000000
_cell_volume 2581.250499
_symmetry_space_group_name_H-M "P M M M"
_symmetry_group_IT_number 47
_symmetry_cell_setting 'orthorhombic'
loop_
_space_group_symop_operation_xyz
x,y,z
-x,-y,z
x,-y,-z
-x,y,-z
-x,-y,-z
x,y,-z
-x,y,z
x,-y,z
loop_
_atom_site_type_symbol
_atom_site_label
_atom_site_fract_x
_atom_site_fract_y
_atom_site_fract_z
Si Si1 0.189320 0.825173 0.835110
Si Si2 0.552226 0.671431 0.332149
Si Si3 0.000000 0.335519 0.826006
Si Si4 0.722187 0.174664 0.663614
Si Si5 0.089026 0.165413 0.826325
Si Si6 0.631829 0.172393 0.832996
O O1 0.231395 0.777991 0.739530
O O2 0.139108 0.780675 0.784050
O O3 0.188462 0.000000 0.834668
O O4 0.195819 0.781838 0.000000
O O5 0.559293 0.703018 0.500000
O O6 0.500000 0.709152 0.296962
O O7 0.556913 0.500000 0.314249
O O8 0.588624 0.753721 0.238369
O O9 0.045893 0.256362 0.779210
O O10 0.000000 0.500000 0.782201
O O11 0.000000 0.331187 0.000000
O O12 0.719559 0.221449 0.500000
O O13 0.677727 0.217745 0.751716
O O14 0.722895 0.000000 0.664381
O O15 0.083637 0.000000 0.782025
O O16 0.089633 0.165803 0.000000
O O17 0.627919 0.000000 0.819172
O O18 0.635044 0.206410 0.000000
#
# Coordination Sequence:
#
# PCOD9384698 Si02
#       6
#     8   8   4   8   8   8
#     4   8  13  22  37  57  81 110 144 180 218 262
#     4   9  19  36  55  73  95 126 163 200 238 281
#     4   9  15  21  31  51  80 109 134 166 212 259
#     4   9  16  26  42  65  92 120 150 186 229 274
#     4   8  13  21  34  52  75 105 139 172 207 252
#     4  10  20  32  48  73 103 131 159 194 235 279
#
# _framework density 17.046002000000001
#
# number of rings (size 3 to 8) (size 9 to 14) (size 15 to 20)
#    0.000    3.182    0.000    3.000    0.000    5.455 
#    0.000    2.727    0.000    1.091    0.000    3.182 
#    0.000    5.091    0.000    0.000    0.000    0.000 
#
# Total GULP energy -245079.213939 kJ/mol
# GULP energy per Si atom -5569.982135 kJ/mol
# Density = 1.700720 g / cm^3
# Si number density = 17.046002 Si / 1000 Ang^3
#
#
#
# Elastic Constant Matrix: (Units=GPa)
#
#
# Indices 1 2 3 4 5 6 
#
# 1 206.7683 55.5276 101.0420 0.0000 0.0000 0.0000
# 2 55.5276 27.1707 32.7675 0.0000 0.0000 0.0000
# 3 101.0420 32.7675 88.8915 0.0000 0.0000 0.0000
# 4 0.0000 0.0000 0.0000 13.8936 0.0000 0.0000
# 5 0.0000 0.0000 0.0000 0.0000 -12.0603 0.0000
# 6 0.0000 0.0000 0.0000 0.0000 0.0000 -8.7464
#
#
#
# Elastic Compliance Matrix: (Units=1/GPa)
#
#
# Indices 1 2 3 4 5 6 
#
# 1 0.014333 -0.017362 -0.009892 0.000000 0.000000 0.000000
# 2 -0.017362 0.087292 -0.012443 0.000000 0.000000 0.000000
# 3 -0.009892 -0.012443 0.027081 0.000000 0.000000 0.000000
# 4 0.000000 0.000000 0.000000 0.071976 0.000000 0.000000
# 5 0.000000 0.000000 0.000000 0.000000 -0.082916 0.000000
# 6 0.000000 0.000000 0.000000 0.000000 0.000000 -0.114332
#
#
# Mechanical properties :
#
#
# Convention : Reuss Voigt Hill
#
# Bulk Modulus (GPa) = 20.27912 77.94496 49.11204
# Shear Modulus (GPa) = 50.37140 7.51692 28.94416
#
# Velocity S-wave (km/s) = 5.44191 2.10223 4.12515
# Velocity P-wave (km/s) = 7.16997 7.19152 7.18075
#
# Compressibility (1/GPa) = 0.04931181
#
# Stress axis : x y z
#
# Youngs Moduli (GPa) = 69.77055 11.45582 36.92680
#
# Poissons Ratio (x) = 0.19889 0.36528
# Poissons Ratio (y) = 1.21133 0.45949
# Poissons Ratio (z) = 0.69017 0.14255
#
# Static dielectric constant tensor:
#      x y z
#    x 1.580660 0.000000 0.000000 
#    y 0.000000 1.558990 0.000000 
#    z 0.000000 0.000000 1.564300 
# 
# From -- ./inp_files/2015.got.cif
#   From: 2010.05.17/outbox.cif.g08.bks.cpg/sg47_2_cif.got.tgz:2015.got - 2010.06.03 20:15:42.
