data_PCOD9384470
_publ_section_title
;
Structure prediction by ZEFSAII (Michael W. Deem and Ramdas Pophale) SiO2 
 PCOD9384470
Probable space group: P M M M
;
_chemical_formula_sum "Si O2"
_cell_formula_units_Z 52
_cell_length_a 7.326768
_cell_length_b 34.515195
_cell_length_c 9.551218
_cell_angle_alpha 90.000000
_cell_angle_beta 90.000000
_cell_angle_gamma 90.000000
_cell_volume 2415.358104
_symmetry_space_group_name_H-M "P M M M"
_symmetry_group_IT_number 47
_symmetry_cell_setting 'orthorhombic'
loop_
_space_group_symop_operation_xyz
x,y,z
-x,-y,z
x,-y,-z
-x,y,-z
-x,-y,-z
x,y,-z
-x,y,z
x,-y,z
loop_
_atom_site_type_symbol
_atom_site_label
_atom_site_fract_x
_atom_site_fract_y
_atom_site_fract_z
Si Si1 0.777029 0.924719 0.161506
Si Si2 0.785107 0.147754 0.657961
Si Si3 0.722129 0.456700 0.161702
Si Si4 0.722084 0.309564 0.161093
Si Si5 0.276922 0.382975 0.339458
Si Si6 0.777740 0.000000 0.338126
Si Si7 0.719357 0.222470 0.159315
O O1 0.713696 0.885864 0.240111
O O2 0.000000 0.924618 0.158332
O O3 0.721845 0.961867 0.252737
O O4 0.717835 0.926571 0.000000
O O5 0.710001 0.147365 0.500000
O O6 0.767963 0.189154 0.732507
O O7 0.000000 0.139723 0.645687
O O8 0.500000 0.456514 0.163441
O O9 0.778979 0.500000 0.205613
O O10 0.782738 0.421457 0.257863
O O11 0.776185 0.450858 0.000000
O O12 0.500000 0.309610 0.164238
O O13 0.782959 0.344053 0.260621
O O14 0.780779 0.265905 0.198410
O O15 0.774750 0.316890 0.000000
O O16 0.220126 0.383383 0.500000
O O17 0.500000 0.382974 0.337068
O O18 0.718158 0.000000 0.500000
O O19 0.000000 0.000000 0.340710
O O20 0.500000 0.223637 0.154160
O O21 0.782479 0.213886 0.000000
#
# Coordination Sequence:
#
# PCOD9384470 Si02
#       7
#     8   8   8   8   8   4   8
#     4   9  16  26  41  61  86 117 151 184 218 258
#     4  10  20  32  46  67  95 124 152 183 223 269
#     4   8  13  20  28  37  52  79 115 152 191 237
#     4   8  14  25  39  53  71  96 127 165 207 250
#     4   9  15  20  28  44  64  86 115 154 199 243
#     4   9  15  23  37  59  88 117 144 179 222 263
#     4   9  18  32  49  68  88 113 149 190 228 266
#
# _framework density 21.528897000000001
#
# number of rings (size 3 to 8) (size 9 to 14) (size 15 to 20)
#    0.000    3.154    0.000    3.000    0.000    6.769 
#    0.000    3.077    0.000    0.000    0.000    0.538 
#    0.000    4.308    0.000    0.000    0.000    0.769 
#
# Total GULP energy -290368.557057 kJ/mol
# GULP energy per Si atom -5584.010713 kJ/mol
# Density = 2.147990 g / cm^3
# Si number density = 21.528897 Si / 1000 Ang^3
#
#
#
# Elastic Constant Matrix: (Units=GPa)
#
#
# Indices 1 2 3 4 5 6 
#
# 1 83.1626 0.8615 5.8739 0.0000 0.0000 0.0000
# 2 0.8615 217.6533 163.6264 0.0000 0.0000 0.0000
# 3 5.8739 163.6264 210.9930 0.0000 0.0000 0.0000
# 4 0.0000 0.0000 0.0000 -15.8902 0.0000 0.0000
# 5 0.0000 0.0000 0.0000 0.0000 -4.5627 0.0000
# 6 0.0000 0.0000 0.0000 0.0000 0.0000 2.3664
#
#
#
# Elastic Compliance Matrix: (Units=1/GPa)
#
#
# Indices 1 2 3 4 5 6 
#
# 1 0.012070 0.000491 -0.000717 0.000000 0.000000 0.000000
# 2 0.000491 0.011038 -0.008574 0.000000 0.000000 0.000000
# 3 -0.000717 -0.008574 0.011408 0.000000 0.000000 0.000000
# 4 0.000000 0.000000 0.000000 -0.062932 0.000000 0.000000
# 5 0.000000 0.000000 0.000000 0.000000 -0.219168 0.000000
# 6 0.000000 0.000000 0.000000 0.000000 0.000000 0.422576
#
#
# Mechanical properties :
#
#
# Convention : Reuss Voigt Hill
#
# Bulk Modulus (GPa) = 59.10969 94.72582 76.91776
# Shear Modulus (GPa) = 25.22307 19.14584 22.18446
#
# Velocity S-wave (km/s) = 3.42657 2.98536 3.21355
# Velocity P-wave (km/s) = 6.57044 7.48185 7.04091
#
# Compressibility (1/GPa) = 0.01691770
#
# Stress axis : x y z
#
# Youngs Moduli (GPa) = 82.84871 90.59557 87.65421
#
# Poissons Ratio (x) = -0.04450 0.06285
# Poissons Ratio (y) = -0.04070 0.75153
# Poissons Ratio (z) = 0.05940 0.77675
#
# Static dielectric constant tensor:
#      x y z
#    x 1.966680 0.000000 0.000000 
#    y 0.000000 1.741040 0.000000 
#    z 0.000000 0.000000 1.725880 
# 
# From -- ./inp_files/4822.got.cif
#   From: 2010.05.17/outbox.cif.g08.bks.cpg/sg47_3_cif.got.tgz:4822.got - 2010.06.03 20:15:42.
