data_PCOD9384727
_publ_section_title
;
Structure prediction by ZEFSAII (Michael W. Deem and Ramdas Pophale) SiO2 
 PCOD9384727
Probable space group: P M M M
;
_chemical_formula_sum "Si O2"
_cell_formula_units_Z 44
_cell_length_a 29.376210
_cell_length_b 7.580460
_cell_length_c 9.465920
_cell_angle_alpha 90.000000
_cell_angle_beta 90.000000
_cell_angle_gamma 90.000000
_cell_volume 2107.920145
_symmetry_space_group_name_H-M "P M M M"
_symmetry_group_IT_number 47
_symmetry_cell_setting 'orthorhombic'
loop_
_space_group_symop_operation_xyz
x,y,z
-x,-y,z
x,-y,-z
-x,y,-z
-x,-y,-z
x,y,-z
-x,y,z
x,-y,z
loop_
_atom_site_type_symbol
_atom_site_label
_atom_site_fract_x
_atom_site_fract_y
_atom_site_fract_z
Si Si1 0.400738 0.209711 0.338493
Si Si2 0.051214 0.712618 0.339225
Si Si3 0.500000 0.709575 0.339065
Si Si4 0.314216 0.215958 0.162463
Si Si5 0.774810 0.215907 0.337607
Si Si6 0.139091 0.209635 0.840978
O O1 0.399369 0.281183 0.500000
O O2 0.451343 0.237776 0.276957
O O3 0.359901 0.276987 0.241782
O O4 0.394243 0.000000 0.349294
O O5 0.061186 0.772756 0.500000
O O6 0.050331 0.500000 0.342010
O O7 0.090536 0.765325 0.232716
O O8 0.000000 0.772463 0.301811
O O9 0.500000 0.500000 0.346667
O O10 0.500000 0.783874 0.500000
O O11 0.269813 0.269422 0.250623
O O12 0.314580 0.000000 0.161157
O O13 0.312220 0.273200 0.000000
O O14 0.773392 0.273800 0.500000
O O15 0.820286 0.277755 0.257943
O O16 0.775155 0.000000 0.339623
O O17 0.146647 0.000000 0.851310
O O18 0.140199 0.282128 0.000000
#
# Coordination Sequence:
#
# PCOD9384727 Si02
#       6
#     8   8   4   8   8   8
#     4   9  16  27  45  68  91 116 150 190 228 268
#     4   9  19  36  55  73  95 127 168 210 249 291
#     4   9  17  29  46  67  90 118 152 189 228 270
#     4   9  16  26  42  66  95 123 151 188 234 279
#     4   9  16  27  45  69  97 128 160 194 235 283
#     4  10  20  32  48  74 106 135 163 199 244 293
#
# _framework density 20.873657000000001
#
# number of rings (size 3 to 8) (size 9 to 14) (size 15 to 20)
#    0.000    2.818    0.000    2.455    0.000    7.636 
#    0.000    3.182    0.000    4.364    0.000    2.545 
#    0.000    0.000    0.000    0.000    0.000    0.000 
#
# Total GULP energy -245558.153384 kJ/mol
# GULP energy per Si atom -5580.867122 kJ/mol
# Density = 2.082615 g / cm^3
# Si number density = 20.873657 Si / 1000 Ang^3
#
#
#
# Elastic Constant Matrix: (Units=GPa)
#
#
# Indices 1 2 3 4 5 6 
#
# 1 205.6708 -1.6080 135.6032 0.0000 0.0000 0.0000
# 2 -1.6080 44.9141 6.5088 0.0000 0.0000 0.0000
# 3 135.6032 6.5088 181.3980 0.0000 0.0000 0.0000
# 4 0.0000 0.0000 0.0000 1.7132 0.0000 0.0000
# 5 0.0000 0.0000 0.0000 0.0000 37.5964 0.0000
# 6 0.0000 0.0000 0.0000 0.0000 0.0000 127.5884
#
#
#
# Elastic Compliance Matrix: (Units=1/GPa)
#
#
# Indices 1 2 3 4 5 6 
#
# 1 0.009675 0.001402 -0.007283 0.000000 0.000000 0.000000
# 2 0.001402 0.022584 -0.001858 0.000000 0.000000 0.000000
# 3 -0.007283 -0.001858 0.011023 0.000000 0.000000 0.000000
# 4 0.000000 0.000000 0.000000 0.583696 0.000000 0.000000
# 5 0.000000 0.000000 0.000000 0.000000 0.026598 0.000000
# 6 0.000000 0.000000 0.000000 0.000000 0.000000 0.007838
#
#
# Mechanical properties :
#
#
# Convention : Reuss Voigt Hill
#
# Bulk Modulus (GPa) = 35.96570 79.22121 57.59346
# Shear Modulus (GPa) = 7.28693 52.81152 30.04922
#
# Velocity S-wave (km/s) = 1.87044 5.03542 3.79829
# Velocity P-wave (km/s) = 4.68320 8.47599 6.84744
#
# Compressibility (1/GPa) = 0.02780427
#
# Stress axis : x y z
#
# Youngs Moduli (GPa) = 103.36330 44.27873 90.71594
#
# Poissons Ratio (x) = -0.06207 0.66064
# Poissons Ratio (y) = -0.14489 0.16857
# Poissons Ratio (z) = 0.75274 0.08228
#
# Static dielectric constant tensor:
#      x y z
#    x 1.729960 0.000000 0.000000 
#    y 0.000000 1.781290 0.000000 
#    z 0.000000 0.000000 1.720200 
# 
# From -- ./inp_files/13604.got.cif
#   From: 2010.05.17/outbox.cif.g08.bks.cpg/sg47_7_cif.got.tgz:13604.got - 2010.06.03 20:15:42.
