data_PCOD9384186
_publ_section_title
;
Structure prediction by ZEFSAII (Michael W. Deem and Ramdas Pophale) SiO2 
 PCOD9384186
Probable space group: P M M M
;
_chemical_formula_sum "Si O2"
_cell_formula_units_Z 40
_cell_length_a 26.605664
_cell_length_b 7.393888
_cell_length_c 9.787563
_cell_angle_alpha 90.000000
_cell_angle_beta 90.000000
_cell_angle_gamma 90.000000
_cell_volume 1925.402540
_symmetry_space_group_name_H-M "P M M M"
_symmetry_group_IT_number 47
_symmetry_cell_setting 'orthorhombic'
loop_
_space_group_symop_operation_xyz
x,y,z
-x,-y,z
x,-y,-z
-x,y,-z
-x,-y,-z
x,y,-z
-x,y,z
x,-y,z
loop_
_atom_site_type_symbol
_atom_site_label
_atom_site_fract_x
_atom_site_fract_y
_atom_site_fract_z
Si Si1 0.299257 0.286076 0.846226
Si Si2 0.091956 0.220296 0.343737
Si Si3 0.000000 0.778777 0.843175
Si Si4 0.389968 0.278167 0.341925
Si Si5 0.500000 0.709218 0.333946
Si Si6 0.794260 0.782604 0.654273
O O1 0.308327 0.500000 0.857311
O O2 0.345234 0.214868 0.754901
O O3 0.247562 0.265633 0.763729
O O4 0.296692 0.212463 0.000000
O O5 0.080265 0.273402 0.500000
O O6 0.049587 0.280015 0.238639
O O7 0.149008 0.278503 0.312334
O O8 0.091804 0.000000 0.341792
O O9 0.000000 0.000000 0.842503
O O10 0.000000 0.721126 0.000000
O O11 0.381681 0.225045 0.500000
O O12 0.391010 0.500000 0.342078
O O13 0.445507 0.215586 0.295296
O O14 0.500000 0.500000 0.289164
O O15 0.500000 0.710646 0.500000
O O16 0.781480 0.719423 0.500000
O O17 0.795885 0.000000 0.649173
#
# Coordination Sequence:
#
# PCOD9384186 Si02
#       6
#     8   8   4   8   4   8
#     4  10  20  31  43  64  94 124 152 181 217 265
#     4   8  14  25  40  58  82 110 139 175 218 259
#     4   9  15  21  33  57  86 113 140 169 206 256
#     4   8  13  23  40  60  83 112 145 181 219 258
#     4   7  10  18  35  59  82 105 138 179 220 258
#     4   9  18  32  49  68  88 114 152 192 226 262
#
# _framework density 20.774875000000002
#
# number of rings (size 3 to 8) (size 9 to 14) (size 15 to 20)
#    0.000    3.400    0.000    3.300    0.000    3.600 
#    0.000    2.500    0.000    3.000    0.000    1.400 
#    0.000   11.200    0.000    0.000    0.000    0.000 
#
# Total GULP energy -223088.141127 kJ/mol
# GULP energy per Si atom -5577.203528 kJ/mol
# Density = 2.072759 g / cm^3
# Si number density = 20.774875 Si / 1000 Ang^3
#
#
#
# Elastic Constant Matrix: (Units=GPa)
#
#
# Indices 1 2 3 4 5 6 
#
# 1 205.8053 2.9025 152.9615 0.0000 0.0000 0.0000
# 2 2.9025 69.2045 5.8040 0.0000 0.0000 0.0000
# 3 152.9615 5.8040 171.7082 0.0000 0.0000 0.0000
# 4 0.0000 0.0000 0.0000 3.4394 0.0000 0.0000
# 5 0.0000 0.0000 0.0000 0.0000 -7.4050 0.0000
# 6 0.0000 0.0000 0.0000 0.0000 0.0000 9.4911
#
#
#
# Elastic Compliance Matrix: (Units=1/GPa)
#
#
# Indices 1 2 3 4 5 6 
#
# 1 0.014395 0.000473 -0.012839 0.000000 0.000000 0.000000
# 2 0.000473 0.014507 -0.000912 0.000000 0.000000 0.000000
# 3 -0.012839 -0.000912 0.017292 0.000000 0.000000 0.000000
# 4 0.000000 0.000000 0.000000 0.290753 0.000000 0.000000
# 5 0.000000 0.000000 0.000000 0.000000 -0.135045 0.000000
# 6 0.000000 0.000000 0.000000 0.000000 0.000000 0.105362
#
#
# Mechanical properties :
#
#
# Convention : Reuss Voigt Hill
#
# Bulk Modulus (GPa) = 50.92255 85.56156 68.24206
# Shear Modulus (GPa) = 14.69010 20.10843 17.39926
#
# Velocity S-wave (km/s) = 2.66204 3.11452 2.89712
# Velocity P-wave (km/s) = 5.83210 7.36262 6.64159
#
# Compressibility (1/GPa) = 0.01963766
#
# Stress axis : x y z
#
# Youngs Moduli (GPa) = 69.46928 68.93432 57.82974
#
# Poissons Ratio (x) = -0.03261 0.74249
# Poissons Ratio (y) = -0.03286 0.05273
# Poissons Ratio (z) = 0.89193 0.06285
#
# Static dielectric constant tensor:
#      x y z
#    x 1.736370 0.000000 0.000000 
#    y 0.000000 1.863370 0.000000 
#    z 0.000000 0.000000 1.703620 
# 
# From -- ./inp_files/13043.got.cif
#   From: 2010.05.17/outbox.cif.g08.bks.cpg/sg47_7_cif.got.tgz:13043.got - 2010.06.03 20:15:42.
