data_PCOD9384463
_publ_section_title
;
Structure prediction by ZEFSAII (Michael W. Deem and Ramdas Pophale) SiO2 
 PCOD9384463
Probable space group: P M M M
;
_chemical_formula_sum "Si O2"
_cell_formula_units_Z 52
_cell_length_a 10.664979
_cell_length_b 30.914550
_cell_length_c 9.360244
_cell_angle_alpha 90.000000
_cell_angle_beta 90.000000
_cell_angle_gamma 90.000000
_cell_volume 3086.100776
_symmetry_space_group_name_H-M "P M M M"
_symmetry_group_IT_number 47
_symmetry_cell_setting 'orthorhombic'
loop_
_space_group_symop_operation_xyz
x,y,z
-x,-y,z
x,-y,-z
-x,y,-z
-x,-y,-z
x,y,-z
-x,y,z
x,-y,z
loop_
_atom_site_type_symbol
_atom_site_label
_atom_site_fract_x
_atom_site_fract_y
_atom_site_fract_z
Si Si1 0.146941 0.107541 0.327448
Si Si2 0.846486 0.290188 0.163917
Si Si3 0.853486 0.627607 0.340085
Si Si4 0.643400 0.051576 0.829432
Si Si5 0.753505 0.550815 0.829474
Si Si6 0.500000 0.447915 0.662681
Si Si7 0.151909 0.793560 0.663004
O O1 0.153129 0.103703 0.500000
O O2 0.247180 0.076497 0.253274
O O3 0.180685 0.157449 0.291434
O O4 0.000000 0.099760 0.287376
O O5 0.800408 0.331209 0.255314
O O6 0.806027 0.245132 0.235409
O O7 0.000000 0.290502 0.164145
O O8 0.806825 0.293685 0.000000
O O9 0.800455 0.621888 0.500000
O O10 0.844388 0.584314 0.246865
O O11 0.000000 0.637267 0.355953
O O12 0.500000 0.064140 0.788154
O O13 0.654655 0.000000 0.805279
O O14 0.655468 0.058860 0.000000
O O15 0.780901 0.500000 0.801377
O O16 0.621742 0.562495 0.755230
O O17 0.750008 0.556376 0.000000
O O18 0.500000 0.500000 0.651066
O O19 0.500000 0.430873 0.500000
O O20 0.195656 0.786723 0.500000
O O21 0.000000 0.791790 0.658949
#
# Coordination Sequence:
#
# PCOD9384463 Si02
#       7
#     8   8   8   8   8   4   8
#     4   9  18  31  48  74 104 130 161 205 254 301
#     4   9  16  26  42  65  92 121 155 193 231 276
#     4  10  20  32  46  66  94 128 162 193 230 281
#     4   9  19  35  51  68  95 133 175 214 251 296
#     4  10  20  33  49  69  93 120 152 193 238 280
#     4   9  17  31  51  71  89 111 145 187 227 271
#     4   8  14  26  43  64  93 124 151 185 233 285
#
# _framework density 16.849740000000001
#
# number of rings (size 3 to 8) (size 9 to 14) (size 15 to 20)
#    0.000    2.846    0.000    3.000    0.000    6.769 
#    0.000    5.385    0.000    0.000    2.000    0.000 
#    0.000    0.000    0.000    0.000    0.000    0.000 
#
# Total GULP energy -289470.171299 kJ/mol
# GULP energy per Si atom -5566.734063 kJ/mol
# Density = 1.681139 g / cm^3
# Si number density = 16.849740 Si / 1000 Ang^3
#
#
#
# Elastic Constant Matrix: (Units=GPa)
#
#
# Indices 1 2 3 4 5 6 
#
# 1 48.7295 43.1789 37.0293 0.0000 0.0000 0.0000
# 2 43.1789 102.6425 73.2054 0.0000 0.0000 0.0000
# 3 37.0293 73.2054 105.8805 0.0000 0.0000 0.0000
# 4 0.0000 0.0000 0.0000 27.8362 0.0000 0.0000
# 5 0.0000 0.0000 0.0000 0.0000 20.4467 0.0000
# 6 0.0000 0.0000 0.0000 0.0000 0.0000 -5.0326
#
#
#
# Elastic Compliance Matrix: (Units=1/GPa)
#
#
# Indices 1 2 3 4 5 6 
#
# 1 0.033511 -0.011321 -0.003892 0.000000 0.000000 0.000000
# 2 -0.011321 0.023045 -0.011974 0.000000 0.000000 0.000000
# 3 -0.003892 -0.011974 0.019085 0.000000 0.000000 0.000000
# 4 0.000000 0.000000 0.000000 0.035924 0.000000 0.000000
# 5 0.000000 0.000000 0.000000 0.000000 0.048908 0.000000
# 6 0.000000 0.000000 0.000000 0.000000 0.000000 -0.198703
#
#
# Mechanical properties :
#
#
# Convention : Reuss Voigt Hill
#
# Bulk Modulus (GPa) = 47.02401 62.67553 54.84977
# Shear Modulus (GPa) = 215.21876 15.57263 115.39570
#
# Velocity S-wave (km/s) = 11.31395 3.04337 8.28455
# Velocity P-wave (km/s) = 14.09406 7.04464 11.14158
#
# Compressibility (1/GPa) = 0.02126573
#
# Stress axis : x y z
#
# Youngs Moduli (GPa) = 29.84119 43.39364 52.39841
#
# Poissons Ratio (x) = 0.49126 0.20395
# Poissons Ratio (y) = 0.33783 0.62741
# Poissons Ratio (z) = 0.11615 0.51959
#
# Static dielectric constant tensor:
#      x y z
#    x 1.613100 0.000000 0.000000 
#    y 0.000000 1.567280 0.000000 
#    z 0.000000 0.000000 1.578760 
# 
# From -- ./inp_files/4572.got.cif
#   From: 2010.05.17/outbox.cif.g08.bks.cpg/sg47_3_cif.got.tgz:4572.got - 2010.06.03 20:15:42.
