data_PCOD9384228
_publ_section_title
;
Structure prediction by ZEFSAII (Michael W. Deem and Ramdas Pophale) SiO2 
 PCOD9384228
Probable space group: P M M M
;
_chemical_formula_sum "Si O2"
_cell_formula_units_Z 64
_cell_length_a 7.731018
_cell_length_b 21.713531
_cell_length_c 18.240632
_cell_angle_alpha 90.000000
_cell_angle_beta 90.000000
_cell_angle_gamma 90.000000
_cell_volume 3062.012922
_symmetry_space_group_name_H-M "P M M M"
_symmetry_group_IT_number 47
_symmetry_cell_setting 'orthorhombic'
loop_
_space_group_symop_operation_xyz
x,y,z
-x,-y,z
x,-y,-z
-x,y,-z
-x,-y,-z
x,y,-z
-x,y,z
x,-y,z
loop_
_atom_site_type_symbol
_atom_site_label
_atom_site_fract_x
_atom_site_fract_y
_atom_site_fract_z
Si Si1 0.209511 0.723232 0.879096
Si Si2 0.706283 0.066716 0.214740
Si Si3 0.792701 0.791012 0.420021
Si Si4 0.203996 0.433376 0.752657
Si Si5 0.789116 0.702258 0.712102
Si Si6 0.290993 0.069743 0.619081
Si Si7 0.792405 0.854979 0.923491
Si Si8 0.700016 0.589168 0.919627
O O1 0.254612 0.727614 0.792916
O O2 0.265184 0.784777 0.918561
O O3 0.287767 0.662775 0.914174
O O4 0.000000 0.717184 0.883665
O O5 0.500000 0.064450 0.222729
O O6 0.771702 0.077043 0.296764
O O7 0.745091 0.113981 0.152023
O O8 0.770428 0.000000 0.189951
O O9 0.728300 0.769827 0.500000
O O10 0.727811 0.748130 0.352591
O O11 0.758306 0.864614 0.415230
O O12 0.000000 0.784502 0.418854
O O13 0.278053 0.500000 0.729692
O O14 0.271491 0.369609 0.716593
O O15 0.219707 0.430209 0.841619
O O16 0.000000 0.433947 0.736228
O O17 0.000000 0.700697 0.708091
O O18 0.500000 0.067609 0.615780
O O19 0.234479 0.000000 0.594245
O O20 0.000000 0.854963 0.925303
O O21 0.729107 0.883727 0.000000
O O22 0.500000 0.570362 0.917765
O O23 0.772000 0.570800 0.000000
#
# Coordination Sequence:
#
# PCOD9384228 Si02
#       8
#     8   8   8   8   8   8   8   8
#     4   9  17  31  50  67  87 122 165 202 237 284
#     4   9  19  35  51  66  87 120 163 206 248 297
#     4  10  20  33  52  79 108 135 161 193 239 296
#     4   9  18  33  53  73  93 127 174 213 244 286
#     4   8  15  30  51  73  97 125 159 200 241 281
#     4   9  19  36  55  74  99 132 168 205 244 288
#     4  10  20  31  45  68  95 123 159 206 257 302
#     4  10  20  31  44  67 100 132 159 196 249 298
#
# _framework density 20.901284
#
# number of rings (size 3 to 8) (size 9 to 14) (size 15 to 20)
#    0.000    2.750    0.000    3.000    0.000    5.500 
#    0.000    8.750    0.000    0.375    0.000    2.625 
#    0.000    0.000    0.000    5.625    0.000    6.250 
#
# Total GULP energy -356555.323884 kJ/mol
# GULP energy per Si atom -5571.176936 kJ/mol
# Density = 2.085371 g / cm^3
# Si number density = 20.901284 Si / 1000 Ang^3
#
#
#
# Elastic Constant Matrix: (Units=GPa)
#
#
# Indices 1 2 3 4 5 6 
#
# 1 27.4198 0.7635 6.9073 0.0000 0.0000 0.0000
# 2 0.7635 119.0499 72.5290 0.0000 0.0000 0.0000
# 3 6.9073 72.5290 118.0550 0.0000 0.0000 0.0000
# 4 0.0000 0.0000 0.0000 -39.1374 0.0000 0.0000
# 5 0.0000 0.0000 0.0000 0.0000 6.9067 0.0000
# 6 0.0000 0.0000 0.0000 0.0000 0.0000 8.6760
#
#
#
# Elastic Compliance Matrix: (Units=1/GPa)
#
#
# Indices 1 2 3 4 5 6 
#
# 1 0.037240 0.001740 -0.003248 0.000000 0.000000 0.000000
# 2 0.001740 0.013506 -0.008399 0.000000 0.000000 0.000000
# 3 -0.003248 -0.008399 0.013821 0.000000 0.000000 0.000000
# 4 0.000000 0.000000 0.000000 -0.025551 0.000000 0.000000
# 5 0.000000 0.000000 0.000000 0.000000 0.144787 0.000000
# 6 0.000000 0.000000 0.000000 0.000000 0.000000 0.115261
#
#
# Mechanical properties :
#
#
# Convention : Reuss Voigt Hill
#
# Bulk Modulus (GPa) = 22.34540 47.21381 34.77961
# Shear Modulus (GPa) = 14.97925 7.57738 11.27831
#
# Velocity S-wave (km/s) = 2.67997 1.90609 2.32545
# Velocity P-wave (km/s) = 4.50449 5.24235 4.88736
#
# Compressibility (1/GPa) = 0.04475193
#
# Stress axis : x y z
#
# Youngs Moduli (GPa) = 26.85304 74.04224 72.35417
#
# Poissons Ratio (x) = -0.12882 0.23499
# Poissons Ratio (y) = -0.04672 0.60772
# Poissons Ratio (z) = 0.08721 0.62190
#
# Static dielectric constant tensor:
#      x y z
#    x 1.797700 0.000000 0.000000 
#    y 0.000000 1.786200 0.000000 
#    z 0.000000 0.000000 1.859380 
# 
# From -- ./inp_files/26996.got.cif
#   From: 2010.05.17/outbox.cif.g08.bks.cpg/sg47_14_cif.got.tgz:26996.got - 2010.06.03 20:15:42.
