data_PCOD9384075
_publ_section_title
;
Structure prediction by ZEFSAII (Michael W. Deem and Ramdas Pophale) SiO2 
 PCOD9384075
Probable space group: P M M M
;
_chemical_formula_sum "Si O2"
_cell_formula_units_Z 52
_cell_length_a 21.763204
_cell_length_b 14.419628
_cell_length_c 9.714907
_cell_angle_alpha 90.000000
_cell_angle_beta 90.000000
_cell_angle_gamma 90.000000
_cell_volume 3048.705941
_symmetry_space_group_name_H-M "P M M M"
_symmetry_group_IT_number 47
_symmetry_cell_setting 'orthorhombic'
loop_
_space_group_symop_operation_xyz
x,y,z
-x,-y,z
x,-y,-z
-x,y,-z
-x,-y,-z
x,y,-z
-x,y,z
x,-y,z
loop_
_atom_site_type_symbol
_atom_site_label
_atom_site_fract_x
_atom_site_fract_y
_atom_site_fract_z
Si Si1 0.400823 0.892149 0.158852
Si Si2 0.665339 0.610721 0.842799
Si Si3 0.164785 0.773011 0.655365
Si Si4 0.072940 0.890365 0.500000
Si Si5 0.810653 0.608157 0.162728
Si Si6 0.746623 0.890591 0.844001
Si Si7 0.568773 0.278919 0.662501
O O1 0.326795 0.880970 0.168952
O O2 0.429363 0.821388 0.265564
O O3 0.415324 0.000000 0.185061
O O4 0.418115 0.871736 0.000000
O O5 0.656108 0.500000 0.837768
O O6 0.737610 0.626640 0.815402
O O7 0.620499 0.661087 0.738190
O O8 0.652902 0.642304 0.000000
O O9 0.185558 0.748182 0.500000
O O10 0.105752 0.838569 0.628260
O O11 0.153617 0.681011 0.743635
O O12 0.216173 0.832079 0.734083
O O13 0.000000 0.878784 0.500000
O O14 0.087195 0.000000 0.500000
O O15 0.822024 0.500000 0.195581
O O16 0.822414 0.620855 0.000000
O O17 0.760331 0.000000 0.829827
O O18 0.763249 0.861451 0.000000
O O19 0.580497 0.272089 0.500000
O O20 0.500000 0.318405 0.682209
#
# Coordination Sequence:
#
# PCOD9384075 Si02
#       7
#     8   8   8   4   8   8   8
#     4   9  19  35  53  72  95 127 166 210 264 322
#     4   9  19  36  57  78 100 130 167 208 258 316
#     4  10  20  29  51  81 106 139 182 218 251 301
#     4   9  20  38  55  75 111 155 189 218 252 288
#     4   9  18  34  55  81 113 140 165 210 273 329
#     4   9  17  30  49  75 106 132 160 210 273 329
#     4  11  24  37  48  67  97 132 171 214 262 313
#
# _framework density 17.056417
#
# number of rings (size 3 to 8) (size 9 to 14) (size 15 to 20)
#    0.462    2.077    0.000    4.154    0.000    7.692 
#    0.000    6.154    0.000    2.769    0.000    6.462 
#    0.000    0.000    0.000    0.000    0.000    0.000 
#
# Total GULP energy -289956.032414 kJ/mol
# GULP energy per Si atom -5576.077546 kJ/mol
# Density = 1.701760 g / cm^3
# Si number density = 17.056417 Si / 1000 Ang^3
#
#
#
# Elastic Constant Matrix: (Units=GPa)
#
#
# Indices 1 2 3 4 5 6 
#
# 1 46.2256 47.5744 40.5538 0.0000 0.0000 0.0000
# 2 47.5744 95.7232 60.0756 0.0000 0.0000 0.0000
# 3 40.5538 60.0756 85.6657 0.0000 0.0000 0.0000
# 4 0.0000 0.0000 0.0000 20.9757 0.0000 0.0000
# 5 0.0000 0.0000 0.0000 0.0000 24.3978 0.0000
# 6 0.0000 0.0000 0.0000 0.0000 0.0000 11.5925
#
#
#
# Elastic Compliance Matrix: (Units=1/GPa)
#
#
# Indices 1 2 3 4 5 6 
#
# 1 0.049515 -0.017679 -0.011043 0.000000 0.000000 0.000000
# 2 -0.017679 0.024971 -0.009143 0.000000 0.000000 0.000000
# 3 -0.011043 -0.009143 0.023312 0.000000 0.000000 0.000000
# 4 0.000000 0.000000 0.000000 0.047674 0.000000 0.000000
# 5 0.000000 0.000000 0.000000 0.000000 0.040987 0.000000
# 6 0.000000 0.000000 0.000000 0.000000 0.000000 0.086262
#
#
# Mechanical properties :
#
#
# Convention : Reuss Voigt Hill
#
# Bulk Modulus (GPa) = 45.30885 58.22465 51.76675
# Shear Modulus (GPa) = 14.05254 16.68726 15.36990
#
# Velocity S-wave (km/s) = 2.87345 3.13126 3.00512
# Velocity P-wave (km/s) = 6.13439 6.87631 6.51592
#
# Compressibility (1/GPa) = 0.02207074
#
# Stress axis : x y z
#
# Youngs Moduli (GPa) = 20.19572 40.04643 42.89583
#
# Poissons Ratio (x) = 0.70798 0.47368
# Poissons Ratio (y) = 0.35704 0.39218
# Poissons Ratio (z) = 0.22301 0.36613
#
# Static dielectric constant tensor:
#      x y z
#    x 1.559950 0.000000 0.000000 
#    y 0.000000 1.601060 0.000000 
#    z 0.000000 0.000000 1.562100 
# 
# From -- ./inp_files/12469.got.cif
#   From: 2010.05.17/outbox.cif.g08.bks.cpg/sg47_7_cif.got.tgz:12469.got - 2010.06.03 20:15:42.
