data_PCOD9384016
_publ_section_title
;
Structure prediction by ZEFSAII (Michael W. Deem and Ramdas Pophale) SiO2 
 PCOD9384016
Probable space group: P M M M
;
_chemical_formula_sum "Si O2"
_cell_formula_units_Z 40
_cell_length_a 8.424786
_cell_length_b 12.259037
_cell_length_c 21.040602
_cell_angle_alpha 90.000000
_cell_angle_beta 90.000000
_cell_angle_gamma 90.000000
_cell_volume 2173.068394
_symmetry_space_group_name_H-M "P M M M"
_symmetry_group_IT_number 47
_symmetry_cell_setting 'orthorhombic'
loop_
_space_group_symop_operation_xyz
x,y,z
-x,-y,z
x,-y,-z
-x,y,-z
-x,-y,-z
x,y,-z
-x,y,z
x,-y,z
loop_
_atom_site_type_symbol
_atom_site_label
_atom_site_fract_x
_atom_site_fract_y
_atom_site_fract_z
Si Si1 0.309866 0.768060 0.071424
Si Si2 0.808316 0.236178 0.689245
Si Si3 0.691496 0.624658 0.427450
Si Si4 0.193437 0.000000 0.268069
Si Si5 0.809227 0.000000 0.880486
Si Si6 0.191766 0.374902 0.811765
O O1 0.500000 0.765411 0.073398
O O2 0.244623 0.687619 0.125100
O O3 0.253640 0.890447 0.087208
O O4 0.257382 0.738527 0.000000
O O5 0.754153 0.292118 0.624511
O O6 0.753924 0.308184 0.749606
O O7 0.000000 0.235393 0.690407
O O8 0.753036 0.111862 0.699164
O O9 0.741470 0.649118 0.500000
O O10 0.500000 0.626012 0.426305
O O11 0.742373 0.500000 0.412521
O O12 0.239014 0.000000 0.193832
O O13 0.000000 0.000000 0.269055
O O14 0.000000 0.000000 0.883059
O O15 0.247199 0.500000 0.810265
O O16 0.000000 0.375325 0.810511
#
# Coordination Sequence:
#
# PCOD9384016 Si02
#       6
#     8   8   8   4   4   8
#     4  11  24  39  55  80 114 147 183 230 282 337
#     4  10  19  35  58  84 111 140 180 228 274 322
#     4   9  19  36  56  80 113 150 185 222 266 318
#     4   9  18  34  57  82 110 140 173 221 276 323
#     4  11  20  38  63  83 107 143 185 231 280 330
#     4  10  21  37  58  83 109 142 188 236 280 332
#
# _framework density 18.407152
#
# number of rings (size 3 to 8) (size 9 to 14) (size 15 to 20)
#    0.000    2.000    2.000    2.400    0.000    6.000 
#    0.000    4.000    0.000    3.000    0.000    0.000 
#    0.000    0.000    0.000    0.000    0.000    0.000 
#
# Total GULP energy -223363.518610 kJ/mol
# GULP energy per Si atom -5584.087965 kJ/mol
# Density = 1.836526 g / cm^3
# Si number density = 18.407152 Si / 1000 Ang^3
#
#
#
# Elastic Constant Matrix: (Units=GPa)
#
#
# Indices 1 2 3 4 5 6 
#
# 1 7.0413 19.8604 15.5421 0.0000 0.0000 0.0000
# 2 19.8604 170.1634 99.3610 0.0000 0.0000 0.0000
# 3 15.5421 99.3610 153.6320 0.0000 0.0000 0.0000
# 4 0.0000 0.0000 0.0000 46.1600 0.0000 0.0000
# 5 0.0000 0.0000 0.0000 0.0000 34.5606 0.0000
# 6 0.0000 0.0000 0.0000 0.0000 0.0000 22.5485
#
#
#
# Elastic Compliance Matrix: (Units=1/GPa)
#
#
# Indices 1 2 3 4 5 6 
#
# 1 0.219270 -0.020309 -0.009048 0.000000 0.000000 0.000000
# 2 -0.020309 0.011324 -0.005269 0.000000 0.000000 0.000000
# 3 -0.009048 -0.005269 0.010832 0.000000 0.000000 0.000000
# 4 0.000000 0.000000 0.000000 0.021664 0.000000 0.000000
# 5 0.000000 0.000000 0.000000 0.000000 0.028935 0.000000
# 6 0.000000 0.000000 0.000000 0.000000 0.000000 0.044349
#
#
# Mechanical properties :
#
#
# Convention : Reuss Voigt Hill
#
# Bulk Modulus (GPa) = 5.80804 66.70706 36.25755
# Shear Modulus (GPa) = 10.79877 33.72539 22.26208
#
# Velocity S-wave (km/s) = 2.42474 4.28505 3.48145
# Velocity P-wave (km/s) = 3.31682 7.79748 5.99174
#
# Compressibility (1/GPa) = 0.17217505
#
# Stress axis : x y z
#
# Youngs Moduli (GPa) = 4.56058 88.31064 92.31819
#
# Poissons Ratio (x) = 1.79347 0.83527
# Poissons Ratio (y) = 0.09262 0.48643
# Poissons Ratio (z) = 0.04126 0.46531
#
# Static dielectric constant tensor:
#      x y z
#    x 1.635830 0.000000 0.000000 
#    y 0.000000 1.618570 0.000000 
#    z 0.000000 0.000000 1.611870 
# 
# From -- ./inp_files/4132.got.cif
#   From: 2010.05.17/outbox.cif.g08.bks.cpg/sg47_3_cif.got.tgz:4132.got - 2010.06.03 20:15:42.
