data_PCOD9384950
_publ_section_title
;
Structure prediction by ZEFSAII (Michael W. Deem and Ramdas Pophale) SiO2 
 PCOD9384950
Probable space group: P M M M
;
_chemical_formula_sum "Si O2"
_cell_formula_units_Z 40
_cell_length_a 9.282700
_cell_length_b 7.570510
_cell_length_c 29.365973
_cell_angle_alpha 90.000000
_cell_angle_beta 90.000000
_cell_angle_gamma 90.000000
_cell_volume 2063.687092
_symmetry_space_group_name_H-M "P M M M"
_symmetry_group_IT_number 47
_symmetry_cell_setting 'orthorhombic'
loop_
_space_group_symop_operation_xyz
x,y,z
-x,-y,z
x,-y,-z
-x,y,-z
-x,-y,-z
x,y,-z
-x,y,z
x,-y,z
loop_
_atom_site_type_symbol
_atom_site_label
_atom_site_fract_x
_atom_site_fract_y
_atom_site_fract_z
Si Si1 0.675847 0.000000 0.552091
Si Si2 0.676067 0.295793 0.622476
Si Si3 0.665282 0.783369 0.000000
Si Si4 0.334284 0.287214 0.179643
Si Si5 0.670115 0.713978 0.278312
Si Si6 0.162046 0.789265 0.911583
O O1 0.720522 0.170616 0.581318
O O2 0.500000 0.000000 0.551155
O O3 0.725415 0.000000 0.500000
O O4 0.500000 0.293687 0.624167
O O5 0.718846 0.500000 0.616296
O O6 0.726105 0.227760 0.672352
O O7 0.746399 0.722815 0.954469
O O8 0.500000 0.726890 0.000000
O O9 0.665172 0.000000 0.000000
O O10 0.500000 0.224978 0.174049
O O11 0.340047 0.500000 0.182001
O O12 0.273965 0.226300 0.228972
O O13 0.240764 0.240332 0.136181
O O14 0.500000 0.757235 0.276816
O O15 0.680378 0.500000 0.279988
O O16 0.000000 0.717613 0.911224
O O17 0.152646 0.000000 0.917746
#
# Coordination Sequence:
#
# PCOD9384950 Si02
#       6
#     4   8   4   8   8   8
#     4   9  16  22  28  44  70 100 141 188 227 270
#     4   8  13  22  34  46  66  99 137 179 228 276
#     4   9  17  31  52  71  88 117 158 200 236 271
#     4   9  17  30  48  69  92 116 147 192 239 279
#     4   7  11  22  39  56  75 101 133 173 223 272
#     4  10  20  33  48  68  95 124 153 186 229 283
#
# _framework density 19.382781999999999
#
# number of rings (size 3 to 8) (size 9 to 14) (size 15 to 20)
#    0.000    3.400    0.000    3.300    0.000    3.200 
#    1.800    2.500    0.000    3.000    0.000    0.000 
#    0.000    0.000    0.000    0.000    0.000    2.000 
#
# Total GULP energy -222764.694144 kJ/mol
# GULP energy per Si atom -5569.117354 kJ/mol
# Density = 1.933867 g / cm^3
# Si number density = 19.382782 Si / 1000 Ang^3
#
#
#
# Elastic Constant Matrix: (Units=GPa)
#
#
# Indices 1 2 3 4 5 6 
#
# 1 61.4981 14.9291 67.1048 0.0000 0.0000 0.0000
# 2 14.9291 59.8207 45.4795 0.0000 0.0000 0.0000
# 3 67.1048 45.4795 247.2354 0.0000 0.0000 0.0000
# 4 0.0000 0.0000 0.0000 28.2028 0.0000 0.0000
# 5 0.0000 0.0000 0.0000 0.0000 -6.2643 0.0000
# 6 0.0000 0.0000 0.0000 0.0000 0.0000 2.7371
#
#
#
# Elastic Compliance Matrix: (Units=1/GPa)
#
#
# Indices 1 2 3 4 5 6 
#
# 1 0.023173 -0.001164 -0.006075 0.000000 0.000000 0.000000
# 2 -0.001164 0.019493 -0.003270 0.000000 0.000000 0.000000
# 3 -0.006075 -0.003270 0.006295 0.000000 0.000000 0.000000
# 4 0.000000 0.000000 0.000000 0.035457 0.000000 0.000000
# 5 0.000000 0.000000 0.000000 0.000000 -0.159636 0.000000
# 6 0.000000 0.000000 0.000000 0.000000 0.000000 0.365350
#
#
# Mechanical properties :
#
#
# Convention : Reuss Voigt Hill
#
# Bulk Modulus (GPa) = 35.78824 69.28676 52.53750
# Shear Modulus (GPa) = 15.60229 21.00451 18.30340
#
# Velocity S-wave (km/s) = 2.84025 3.29548 3.07630
# Velocity P-wave (km/s) = 5.40926 7.09256 6.30732
#
# Compressibility (1/GPa) = 0.02794214
#
# Stress axis : x y z
#
# Youngs Moduli (GPa) = 43.15458 51.30024 158.85130
#
# Poissons Ratio (x) = 0.05972 0.96508
# Poissons Ratio (y) = 0.05024 0.51942
# Poissons Ratio (z) = 0.26218 0.16774
#
# Static dielectric constant tensor:
#      x y z
#    x 1.638990 0.000000 0.000000 
#    y 0.000000 1.730220 0.000000 
#    z 0.000000 0.000000 1.702750 
# 
# From -- ./inp_files/13089.got.cif
#   From: 2010.05.17/outbox.cif.g08.bks.cpg/sg47_7_cif.got.tgz:13089.got - 2010.06.03 20:15:42.
