data_PCOD9384454
_publ_section_title
;
Structure prediction by ZEFSAII (Michael W. Deem and Ramdas Pophale) SiO2 
 PCOD9384454
Probable space group: P M M M
;
_chemical_formula_sum "Si O2"
_cell_formula_units_Z 64
_cell_length_a 14.374105
_cell_length_b 31.523546
_cell_length_c 9.044617
_cell_angle_alpha 90.000000
_cell_angle_beta 90.000000
_cell_angle_gamma 90.000000
_cell_volume 4098.321820
_symmetry_space_group_name_H-M "P M M M"
_symmetry_group_IT_number 47
_symmetry_cell_setting 'orthorhombic'
loop_
_space_group_symop_operation_xyz
x,y,z
-x,-y,z
x,-y,-z
-x,y,-z
-x,-y,-z
x,y,-z
-x,y,z
x,-y,z
loop_
_atom_site_type_symbol
_atom_site_label
_atom_site_fract_x
_atom_site_fract_y
_atom_site_fract_z
Si Si1 0.611462 0.206132 0.325704
Si Si2 0.390029 0.049430 0.675536
Si Si3 0.612835 0.452863 0.172198
Si Si4 0.709542 0.713111 0.176124
Si Si5 0.611709 0.366324 0.325719
Si Si6 0.107274 0.157315 0.324825
Si Si7 0.288243 0.126314 0.175542
Si Si8 0.107194 0.741447 0.675534
O O1 0.635301 0.206736 0.500000
O O2 0.500000 0.206552 0.311736
O O3 0.655069 0.247212 0.248191
O O4 0.653391 0.164094 0.252280
O O5 0.374802 0.056518 0.500000
O O6 0.500000 0.056461 0.703367
O O7 0.329927 0.082058 0.768502
O O8 0.370020 0.000000 0.706815
O O9 0.500000 0.453532 0.176814
O O10 0.644278 0.500000 0.219739
O O11 0.641724 0.412851 0.269387
O O12 0.638746 0.446806 0.000000
O O13 0.663054 0.670275 0.235925
O O14 0.815584 0.717252 0.231566
O O15 0.704194 0.715425 0.000000
O O16 0.629298 0.361509 0.500000
O O17 0.500000 0.362542 0.302631
O O18 0.122503 0.149974 0.500000
O O19 0.182789 0.132612 0.230433
O O20 0.119084 0.207911 0.299890
O O21 0.000000 0.146774 0.290997
O O22 0.294588 0.130088 0.000000
O O23 0.121087 0.734134 0.500000
O O24 0.000000 0.730886 0.711258
#
# Coordination Sequence:
#
# PCOD9384454 Si02
#       8
#     8   8   8   8   8   8   8   8
#     4  11  23  37  51  67  94 134 174 207 237 279
#     4   9  19  37  59  79 100 132 172 207 240 284
#     4   8  14  26  44  65  90 121 159 206 256 298
#     4  12  23  33  48  71  99 130 163 204 251 297
#     4  10  20  32  46  65  93 133 175 209 244 292
#     4   9  18  34  56  77  98 129 167 204 242 288
#     4  12  23  33  51  80 108 132 159 199 250 296
#     4   9  18  34  55  74  94 125 164 204 245 291
#
# _framework density 15.616148000000001
#
# number of rings (size 3 to 8) (size 9 to 14) (size 15 to 20)
#    0.000    2.000    1.250    5.250    0.000    6.000 
#    0.000    3.125    0.000    0.375    0.000    2.625 
#    0.000    0.500    0.000    5.250    0.000    2.500 
#
# Total GULP energy -357223.788798 kJ/mol
# GULP energy per Si atom -5581.621700 kJ/mol
# Density = 1.558061 g / cm^3
# Si number density = 15.616148 Si / 1000 Ang^3
#
#
#
# Elastic Constant Matrix: (Units=GPa)
#
#
# Indices 1 2 3 4 5 6 
#
# 1 79.6078 55.3867 71.6609 0.0000 0.0000 0.0000
# 2 55.3867 96.7990 74.3299 0.0000 0.0000 0.0000
# 3 71.6609 74.3299 116.6808 0.0000 0.0000 0.0000
# 4 0.0000 0.0000 0.0000 21.1355 0.0000 0.0000
# 5 0.0000 0.0000 0.0000 0.0000 1.0087 0.0000
# 6 0.0000 0.0000 0.0000 0.0000 0.0000 3.4747
#
#
#
# Elastic Compliance Matrix: (Units=1/GPa)
#
#
# Indices 1 2 3 4 5 6 
#
# 1 0.029692 -0.005846 -0.014511 0.000000 0.000000 0.000000
# 2 -0.005846 0.021374 -0.010026 0.000000 0.000000 0.000000
# 3 -0.014511 -0.010026 0.023869 0.000000 0.000000 0.000000
# 4 0.000000 0.000000 0.000000 0.047314 0.000000 0.000000
# 5 0.000000 0.000000 0.000000 0.000000 0.991398 0.000000
# 6 0.000000 0.000000 0.000000 0.000000 0.000000 0.287798
#
#
# Mechanical properties :
#
#
# Convention : Reuss Voigt Hill
#
# Bulk Modulus (GPa) = 70.57616 77.31584 73.94600
# Shear Modulus (GPa) = 3.40847 11.23776 7.32311
#
# Velocity S-wave (km/s) = 1.47898 2.68549 2.16786
# Velocity P-wave (km/s) = 6.94327 7.69633 7.32948
#
# Compressibility (1/GPa) = 0.01416909
#
# Stress axis : x y z
#
# Youngs Moduli (GPa) = 33.67936 46.78514 41.89448
#
# Poissons Ratio (x) = 0.27351 0.60795
# Poissons Ratio (y) = 0.19689 0.42002
# Poissons Ratio (z) = 0.48873 0.46906
#
# Static dielectric constant tensor:
#      x y z
#    x 1.513990 0.000000 0.000000 
#    y 0.000000 1.507350 0.000000 
#    z 0.000000 0.000000 1.515340 
# 
# From -- ./inp_files/8320.got.cif
#   From: 2010.05.17/outbox.cif.g08.bks.cpg/sg47_5_cif.got.tgz:8320.got - 2010.06.03 20:15:42.
