data_PCOD9384626
_publ_section_title
;
Structure prediction by ZEFSAII (Michael W. Deem and Ramdas Pophale) SiO2 
 PCOD9384626
Probable space group: P M M M
;
_chemical_formula_sum "Si O2"
_cell_formula_units_Z 52
_cell_length_a 7.534395
_cell_length_b 16.469557
_cell_length_c 19.833679
_cell_angle_alpha 90.000000
_cell_angle_beta 90.000000
_cell_angle_gamma 90.000000
_cell_volume 2461.124493
_symmetry_space_group_name_H-M "P M M M"
_symmetry_group_IT_number 47
_symmetry_cell_setting 'orthorhombic'
loop_
_space_group_symop_operation_xyz
x,y,z
-x,-y,z
x,-y,-z
-x,y,-z
-x,-y,-z
x,y,-z
-x,y,z
x,-y,z
loop_
_atom_site_type_symbol
_atom_site_label
_atom_site_fract_x
_atom_site_fract_y
_atom_site_fract_z
Si Si1 0.792663 0.087402 0.219372
Si Si2 0.711486 0.000000 0.577942
Si Si3 0.285366 0.147225 0.075280
Si Si4 0.208940 0.178287 0.575954
Si Si5 0.285694 0.663951 0.074911
Si Si6 0.781399 0.251121 0.290220
Si Si7 0.791664 0.410991 0.784561
O O1 0.780264 0.096850 0.138631
O O2 0.719314 0.170674 0.250377
O O3 0.000000 0.085522 0.237947
O O4 0.713895 0.000000 0.239726
O O5 0.771716 0.913332 0.605029
O O6 0.500000 0.000000 0.577965
O O7 0.776924 0.000000 0.500000
O O8 0.500000 0.144790 0.076412
O O9 0.231183 0.241782 0.084509
O O10 0.229157 0.121517 0.000000
O O11 0.285924 0.181242 0.500000
O O12 0.276499 0.239363 0.632496
O O13 0.000000 0.193052 0.569756
O O14 0.500000 0.662972 0.075790
O O15 0.222367 0.610057 0.136449
O O16 0.228152 0.638278 0.000000
O O17 0.717966 0.333626 0.255638
O O18 0.000000 0.251246 0.287895
O O19 0.714458 0.500000 0.770887
O O20 0.000000 0.414492 0.767604
#
# Coordination Sequence:
#
# PCOD9384626 Si02
#       7
#     8   4   8   8   8   8   8
#     4  10  20  32  48  70  95 128 167 201 239 287
#     4   9  17  29  45  71 107 135 158 197 244 283
#     4   9  18  33  51  69  93 127 164 203 245 286
#     4   9  17  30  51  74  96 131 174 204 233 285
#     4   9  18  33  52  73  98 128 161 200 248 297
#     4   9  18  33  51  71  99 128 157 201 247 283
#     4  10  20  34  53  75  97 126 163 200 246 301
#
# _framework density 21.128554000000001
#
# number of rings (size 3 to 8) (size 9 to 14) (size 15 to 20)
#    0.000    2.692    1.538    1.154    1.077    2.769 
#    0.000    6.154    0.000    0.462    0.000    3.231 
#    0.000    0.000    0.000    5.231    0.000    5.538 
#
# Total GULP energy -290217.653348 kJ/mol
# GULP energy per Si atom -5581.108718 kJ/mol
# Density = 2.108046 g / cm^3
# Si number density = 21.128554 Si / 1000 Ang^3
#
#
#
# Elastic Constant Matrix: (Units=GPa)
#
#
# Indices 1 2 3 4 5 6 
#
# 1 53.8179 7.9178 -0.9040 0.0000 0.0000 0.0000
# 2 7.9178 166.2935 84.5610 0.0000 0.0000 0.0000
# 3 -0.9040 84.5610 119.1796 0.0000 0.0000 0.0000
# 4 0.0000 0.0000 0.0000 13.5175 0.0000 0.0000
# 5 0.0000 0.0000 0.0000 0.0000 48.2157 0.0000
# 6 0.0000 0.0000 0.0000 0.0000 0.0000 -4.2708
#
#
#
# Elastic Compliance Matrix: (Units=1/GPa)
#
#
# Indices 1 2 3 4 5 6 
#
# 1 0.018825 -0.001516 0.001218 0.000000 0.000000 0.000000
# 2 -0.001516 0.009530 -0.006773 0.000000 0.000000 0.000000
# 3 0.001218 -0.006773 0.013206 0.000000 0.000000 0.000000
# 4 0.000000 0.000000 0.000000 0.073978 0.000000 0.000000
# 5 0.000000 0.000000 0.000000 0.000000 0.020740 0.000000
# 6 0.000000 0.000000 0.000000 0.000000 0.000000 -0.234150
#
#
# Mechanical properties :
#
#
# Convention : Reuss Voigt Hill
#
# Bulk Modulus (GPa) = 36.47132 58.04896 47.26014
# Shear Modulus (GPa) = -67.03240 28.00688 -19.51276
#
# Velocity S-wave (km/s) = -5.63869 3.64476 -3.04225
# Velocity P-wave (km/s) = 5.00939 6.72653 3.17428
#
# Compressibility (1/GPa) = 0.02741881
#
# Stress axis : x y z
#
# Youngs Moduli (GPa) = 53.12181 104.93373 75.72502
#
# Poissons Ratio (x) = 0.15906 -0.09226
# Poissons Ratio (y) = 0.08052 0.51290
# Poissons Ratio (z) = -0.06472 0.71073
#
# Static dielectric constant tensor:
#      x y z
#    x 1.795900 0.000000 0.000000 
#    y 0.000000 1.767050 0.000000 
#    z 0.000000 0.000000 1.781640 
# 
# From -- ./inp_files/24964.got.cif
#   From: 2010.05.17/outbox.cif.g08.bks.cpg/sg47_13_cif.got.tgz:24964.got - 2010.06.03 20:15:42.
