data_PCOD9384096
_publ_section_title
;
Structure prediction by ZEFSAII (Michael W. Deem and Ramdas Pophale) SiO2 
 PCOD9384096
Probable space group: P M M M
;
_chemical_formula_sum "Si O2"
_cell_formula_units_Z 56
_cell_length_a 23.740803
_cell_length_b 7.657627
_cell_length_c 19.278730
_cell_angle_alpha 90.000000
_cell_angle_beta 90.000000
_cell_angle_gamma 90.000000
_cell_volume 3504.838683
_symmetry_space_group_name_H-M "P M M M"
_symmetry_group_IT_number 47
_symmetry_cell_setting 'orthorhombic'
loop_
_space_group_symop_operation_xyz
x,y,z
-x,-y,z
x,-y,-z
-x,y,-z
-x,-y,-z
x,y,-z
-x,y,z
x,-y,z
loop_
_atom_site_type_symbol
_atom_site_label
_atom_site_fract_x
_atom_site_fract_y
_atom_site_fract_z
Si Si1 0.564051 0.500000 0.084064
Si Si2 0.821639 0.299058 0.286892
Si Si3 0.347785 0.206165 0.083286
Si Si4 0.884708 0.786828 0.922325
Si Si5 0.000000 0.802076 0.415894
Si Si6 0.873582 0.707182 0.421720
Si Si7 0.768998 0.796097 0.145855
Si Si8 0.938400 0.211737 0.782216
O O1 0.500000 0.500000 0.110090
O O2 0.599856 0.671743 0.103165
O O3 0.561481 0.500000 0.000000
O O4 0.804207 0.500000 0.293201
O O5 0.831115 0.220679 0.363555
O O6 0.782473 0.217775 0.227609
O O7 0.884823 0.289667 0.255937
O O8 0.291161 0.272100 0.121323
O O9 0.357255 0.000000 0.098418
O O10 0.339081 0.220677 0.000000
O O11 0.823520 0.724177 0.894892
O O12 0.929597 0.742427 0.863172
O O13 0.882985 0.000000 0.923567
O O14 0.896249 0.726661 0.000000
O O15 0.061120 0.726730 0.398185
O O16 0.000000 0.798162 0.500000
O O17 0.000000 0.000000 0.390448
O O18 0.868310 0.779266 0.500000
O O19 0.863471 0.500000 0.425263
O O20 0.767105 0.000000 0.127233
O O21 0.000000 0.266244 0.757325
O O22 0.934472 0.000000 0.776099
#
# Coordination Sequence:
#
# PCOD9384096 Si02
#       8
#     4   8   8   8   4   8   8   8
#     4   9  18  30  44  68 100 130 160 196 231 258
#     4  10  20  30  43  60  76 100 131 168 213 261
#     4   9  17  29  47  69  92 125 163 195 227 260
#     4   8  13  23  40  58  73  91 122 165 206 246
#     4   9  17  27  41  61  77  91 118 159 204 251
#     4   9  18  32  45  57  76 101 130 163 205 261
#     4   9  17  29  44  62  84 107 137 178 218 254
#     4   9  18  30  41  54  73  97 123 158 208 260
#
# _framework density 15.977911000000001
#
# number of rings (size 3 to 8) (size 9 to 14) (size 15 to 20)
#    0.000    3.000    0.000    1.929    2.000    4.571 
#    0.000    2.857    0.000    3.857    0.000    4.000 
#    0.000    0.000    0.000    0.000    0.000    1.429 
#
# Total GULP energy -311935.283825 kJ/mol
# GULP energy per Si atom -5570.272925 kJ/mol
# Density = 1.594154 g / cm^3
# Si number density = 15.977911 Si / 1000 Ang^3
#
#
#
# Elastic Constant Matrix: (Units=GPa)
#
#
# Indices 1 2 3 4 5 6 
#
# 1 77.3353 15.8123 11.5232 0.0000 0.0000 0.0000
# 2 15.8123 38.2664 -1.0848 0.0000 0.0000 0.0000
# 3 11.5232 -1.0848 64.4521 0.0000 0.0000 0.0000
# 4 0.0000 0.0000 0.0000 9.7174 0.0000 0.0000
# 5 0.0000 0.0000 0.0000 0.0000 12.2673 0.0000
# 6 0.0000 0.0000 0.0000 0.0000 0.0000 10.3989
#
#
#
# Elastic Compliance Matrix: (Units=1/GPa)
#
#
# Indices 1 2 3 4 5 6 
#
# 1 0.014582 -0.006102 -0.002710 0.000000 0.000000 0.000000
# 2 -0.006102 0.028699 0.001574 0.000000 0.000000 0.000000
# 3 -0.002710 0.001574 0.016026 0.000000 0.000000 0.000000
# 4 0.000000 0.000000 0.000000 0.102909 0.000000 0.000000
# 5 0.000000 0.000000 0.000000 0.000000 0.081517 0.000000
# 6 0.000000 0.000000 0.000000 0.000000 0.000000 0.096164
#
#
# Mechanical properties :
#
#
# Convention : Reuss Voigt Hill
#
# Bulk Modulus (GPa) = 22.30595 25.83946 24.07271
# Shear Modulus (GPa) = 13.53848 16.73025 15.13437
#
# Velocity S-wave (km/s) = 2.91404 3.23938 3.08101
# Velocity P-wave (km/s) = 5.03120 5.49532 5.26837
#
# Compressibility (1/GPa) = 0.04483109
#
# Stress axis : x y z
#
# Youngs Moduli (GPa) = 68.57679 34.84460 62.39710
#
# Poissons Ratio (x) = 0.21264 0.16909
# Poissons Ratio (y) = 0.41848 -0.09822
# Poissons Ratio (z) = 0.18583 -0.05485
#
# Static dielectric constant tensor:
#      x y z
#    x 1.512000 0.000000 0.000000 
#    y 0.000000 1.597160 0.000000 
#    z 0.000000 0.000000 1.587720 
# 
# From -- ./inp_files/31489.got.cif
#   From: 2010.05.17/outbox.cif.g08.bks.cpg/sg47_16_cif.got.tgz:31489.got - 2010.06.03 20:15:42.
