data_PCOD9384046
_publ_section_title
;
Structure prediction by ZEFSAII (Michael W. Deem and Ramdas Pophale) SiO2 
 PCOD9384046
Probable space group: P M M M
;
_chemical_formula_sum "Si O2"
_cell_formula_units_Z 56
_cell_length_a 16.047241
_cell_length_b 8.273030
_cell_length_c 20.853898
_cell_angle_alpha 90.000000
_cell_angle_beta 90.000000
_cell_angle_gamma 90.000000
_cell_volume 2768.549030
_symmetry_space_group_name_H-M "P M M M"
_symmetry_group_IT_number 47
_symmetry_cell_setting 'orthorhombic'
loop_
_space_group_symop_operation_xyz
x,y,z
-x,-y,z
x,-y,-z
-x,y,-z
-x,-y,-z
x,y,-z
-x,y,z
x,-y,z
loop_
_atom_site_type_symbol
_atom_site_label
_atom_site_fract_x
_atom_site_fract_y
_atom_site_fract_z
Si Si1 0.728120 0.694797 0.570569
Si Si2 0.863802 0.304023 0.244072
Si Si3 0.273973 0.807485 0.930036
Si Si4 0.090483 0.697729 0.385630
Si Si5 0.090255 0.695821 0.102466
Si Si6 0.321520 0.692591 0.207510
Si Si7 0.591683 0.191744 0.671633
O O1 0.699920 0.749461 0.500000
O O2 0.731224 0.500000 0.570839
O O3 0.823331 0.751399 0.582201
O O4 0.664957 0.742855 0.626440
O O5 0.864452 0.500000 0.245809
O O6 0.902228 0.251605 0.311000
O O7 0.907656 0.259327 0.177884
O O8 0.768062 0.252116 0.235934
O O9 0.175482 0.764975 0.925534
O O10 0.318917 0.735810 0.867521
O O11 0.282469 0.000000 0.927071
O O12 0.304100 0.750091 0.000000
O O13 0.090865 0.500000 0.387923
O O14 0.000000 0.749402 0.411392
O O15 0.095579 0.500000 0.097563
O O16 0.000000 0.745286 0.075930
O O17 0.325477 0.500000 0.213450
O O18 0.389575 0.767118 0.254253
O O19 0.500000 0.256023 0.653714
O O20 0.591295 0.000000 0.664439
#
# Coordination Sequence:
#
# PCOD9384046 Si02
#       7
#     8   8   8   8   8   8   8
#     4  10  21  37  57  85 121 157 197 245 292 338
#     4   8  13  24  45  73 103 136 178 232 289 335
#     4  10  21  35  51  75 111 154 194 233 285 348
#     4   9  15  25  47  79 114 150 190 237 286 335
#     4   9  17  28  44  69 101 140 193 253 302 344
#     4  10  19  35  61  87 112 143 185 237 287 339
#     4  11  24  41  63  90 118 149 187 233 291 360
#
# _framework density 20.227201000000001
#
# number of rings (size 3 to 8) (size 9 to 14) (size 15 to 20)
#    0.000    2.429    1.429    2.571    0.000    5.429 
#    0.000    4.286    0.000    0.857    0.000    4.000 
#    0.000    0.000    0.000    0.000    0.000    0.000 
#
# Total GULP energy -312304.881803 kJ/mol
# GULP energy per Si atom -5576.872889 kJ/mol
# Density = 2.018116 g / cm^3
# Si number density = 20.227201 Si / 1000 Ang^3
#
#
#
# Elastic Constant Matrix: (Units=GPa)
#
#
# Indices 1 2 3 4 5 6 
#
# 1 102.0714 11.5905 44.3462 0.0000 0.0000 0.0000
# 2 11.5905 12.0160 6.3652 0.0000 0.0000 0.0000
# 3 44.3462 6.3652 113.3587 0.0000 0.0000 0.0000
# 4 0.0000 0.0000 0.0000 52.1068 0.0000 0.0000
# 5 0.0000 0.0000 0.0000 0.0000 -9.0668 0.0000
# 6 0.0000 0.0000 0.0000 0.0000 0.0000 28.5025
#
#
#
# Elastic Compliance Matrix: (Units=1/GPa)
#
#
# Indices 1 2 3 4 5 6 
#
# 1 0.012883 -0.010057 -0.004475 0.000000 0.000000 0.000000
# 2 -0.010057 0.093624 -0.001323 0.000000 0.000000 0.000000
# 3 -0.004475 -0.001323 0.010647 0.000000 0.000000 0.000000
# 4 0.000000 0.000000 0.000000 0.019191 0.000000 0.000000
# 5 0.000000 0.000000 0.000000 0.000000 -0.110292 0.000000
# 6 0.000000 0.000000 0.000000 0.000000 0.000000 0.035085
#
#
# Mechanical properties :
#
#
# Convention : Reuss Voigt Hill
#
# Bulk Modulus (GPa) = 11.70354 39.11664 25.41009
# Shear Modulus (GPa) = 41.21043 25.31811 33.26427
#
# Velocity S-wave (km/s) = 4.51863 3.54176 4.05968
# Velocity P-wave (km/s) = 5.74653 6.00883 5.87914
#
# Compressibility (1/GPa) = 0.08544423
#
# Stress axis : x y z
#
# Youngs Moduli (GPa) = 77.61944 10.68105 93.92673
#
# Poissons Ratio (x) = 0.10741 0.42035
# Poissons Ratio (y) = 0.78058 0.12426
# Poissons Ratio (z) = 0.34737 0.01413
#
# Static dielectric constant tensor:
#      x y z
#    x 1.730650 0.000000 0.000000 
#    y 0.000000 1.708300 0.000000 
#    z 0.000000 0.000000 1.735430 
# 
# From -- ./inp_files/11193.got.cif
#   From: 2010.05.17/outbox.cif.g08.bks.cpg/sg47_6_cif.got.tgz:11193.got - 2010.06.03 20:15:42.
