data_PCOD9384238
_publ_section_title
;
Structure prediction by ZEFSAII (Michael W. Deem and Ramdas Pophale) SiO2 
 PCOD9384238
Probable space group: P M M M
;
_chemical_formula_sum "Si O2"
_cell_formula_units_Z 40
_cell_length_a 9.770281
_cell_length_b 7.799664
_cell_length_c 26.602098
_cell_angle_alpha 90.000000
_cell_angle_beta 90.000000
_cell_angle_gamma 90.000000
_cell_volume 2027.210457
_symmetry_space_group_name_H-M "P M M M"
_symmetry_group_IT_number 47
_symmetry_cell_setting 'orthorhombic'
loop_
_space_group_symop_operation_xyz
x,y,z
-x,-y,z
x,-y,-z
-x,y,-z
-x,-y,-z
x,y,-z
-x,y,z
x,-y,z
loop_
_atom_site_type_symbol
_atom_site_label
_atom_site_fract_x
_atom_site_fract_y
_atom_site_fract_z
Si Si1 0.158485 0.289363 0.609946
Si Si2 0.154160 0.793912 0.092108
Si Si3 0.654762 0.294973 0.701642
Si Si4 0.346970 0.296894 0.000000
Si Si5 0.155788 0.793044 0.205627
Si Si6 0.833633 0.301907 0.500000
O O1 0.159259 0.500000 0.608701
O O2 0.255920 0.229881 0.654643
O O3 0.204263 0.228392 0.554387
O O4 0.000000 0.239525 0.618516
O O5 0.188280 0.734351 0.148715
O O6 0.000000 0.732401 0.079568
O O7 0.147792 0.000000 0.094213
O O8 0.261821 0.750063 0.049511
O O9 0.500000 0.226788 0.703057
O O10 0.646438 0.500000 0.695304
O O11 0.736805 0.262901 0.752851
O O12 0.358720 0.500000 0.000000
O O13 0.500000 0.221390 0.000000
O O14 0.000000 0.736128 0.217682
O O15 0.154696 0.000000 0.205303
O O16 0.786776 0.500000 0.500000
O O17 0.000000 0.304055 0.500000
#
# Coordination Sequence:
#
# PCOD9384238 Si02
#       6
#     8   8   8   4   8   4
#     4   8  13  23  40  61  87 121 160 200 241 285
#     4   9  19  37  59  79  98 124 163 208 247 285
#     4  10  20  31  44  68 102 134 162 195 239 292
#     4  11  24  37  50  76 112 141 164 193 232 282
#     4   9  19  36  56  76  96 122 162 208 248 287
#     4   7  10  18  35  59  84 113 154 201 242 280
#
# _framework density 19.731548
#
# number of rings (size 3 to 8) (size 9 to 14) (size 15 to 20)
#    0.000    3.000    0.000    3.600    0.000    5.600 
#    0.000    6.500    0.000    3.000    0.000    0.700 
#    0.000    5.600    0.000    0.000    0.000    0.000 
#
# Total GULP energy -223013.296631 kJ/mol
# GULP energy per Si atom -5575.332416 kJ/mol
# Density = 1.968664 g / cm^3
# Si number density = 19.731548 Si / 1000 Ang^3
#
#
#
# Elastic Constant Matrix: (Units=GPa)
#
#
# Indices 1 2 3 4 5 6 
#
# 1 159.9623 8.4251 140.9159 0.0000 0.0000 0.0000
# 2 8.4251 23.7099 6.6998 0.0000 0.0000 0.0000
# 3 140.9159 6.6998 196.0568 0.0000 0.0000 0.0000
# 4 0.0000 0.0000 0.0000 25.8570 0.0000 0.0000
# 5 0.0000 0.0000 0.0000 0.0000 -8.9442 0.0000
# 6 0.0000 0.0000 0.0000 0.0000 0.0000 16.7626
#
#
#
# Elastic Compliance Matrix: (Units=1/GPa)
#
#
# Indices 1 2 3 4 5 6 
#
# 1 0.017205 -0.002645 -0.012275 0.000000 0.000000 0.000000
# 2 -0.002645 0.042994 0.000432 0.000000 0.000000 0.000000
# 3 -0.012275 0.000432 0.013909 0.000000 0.000000 0.000000
# 4 0.000000 0.000000 0.000000 0.038674 0.000000 0.000000
# 5 0.000000 0.000000 0.000000 0.000000 -0.111804 0.000000
# 6 0.000000 0.000000 0.000000 0.000000 0.000000 0.059657
#
#
# Mechanical properties :
#
#
# Convention : Reuss Voigt Hill
#
# Bulk Modulus (GPa) = 22.15785 76.86783 49.51284
# Shear Modulus (GPa) = 47.77608 21.64763 34.71185
#
# Velocity S-wave (km/s) = 4.92601 3.31585 4.19884
# Velocity P-wave (km/s) = 6.60365 7.32811 6.97529
#
# Compressibility (1/GPa) = 0.04513073
#
# Stress axis : x y z
#
# Youngs Moduli (GPa) = 58.12410 23.25886 71.89711
#
# Poissons Ratio (x) = 0.06151 0.88257
# Poissons Ratio (y) = 0.15372 -0.03104
# Poissons Ratio (z) = 0.71350 -0.01004
#
# Static dielectric constant tensor:
#      x y z
#    x 1.681780 0.000000 0.000000 
#    y 0.000000 1.739930 0.000000 
#    z 0.000000 0.000000 1.703980 
# 
# From -- ./inp_files/13001.got.cif
#   From: 2010.05.17/outbox.cif.g08.bks.cpg/sg47_7_cif.got.tgz:13001.got - 2010.06.03 20:15:42.
