data_PCOD9384410
_publ_section_title
;
Structure prediction by ZEFSAII (Michael W. Deem and Ramdas Pophale) SiO2 
 PCOD9384410
Probable space group: P M M M
;
_chemical_formula_sum "Si O2"
_cell_formula_units_Z 40
_cell_length_a 24.356333
_cell_length_b 12.022648
_cell_length_c 8.654067
_cell_angle_alpha 90.000000
_cell_angle_beta 90.000000
_cell_angle_gamma 90.000000
_cell_volume 2534.149828
_symmetry_space_group_name_H-M "P M M M"
_symmetry_group_IT_number 47
_symmetry_cell_setting 'orthorhombic'
loop_
_space_group_symop_operation_xyz
x,y,z
-x,-y,z
x,-y,-z
-x,y,-z
-x,-y,-z
x,y,-z
-x,y,z
x,-y,z
loop_
_atom_site_type_symbol
_atom_site_label
_atom_site_fract_x
_atom_site_fract_y
_atom_site_fract_z
Si Si1 0.321920 0.364894 0.179641
Si Si2 0.000000 0.373451 0.188114
Si Si3 0.794543 0.629449 0.316142
Si Si4 0.440797 0.631162 0.188025
Si Si5 0.064289 0.000000 0.685202
Si Si6 0.105514 0.768767 0.185286
O O1 0.325106 0.500000 0.182283
O O2 0.267327 0.335376 0.271794
O O3 0.381446 0.323801 0.239451
O O4 0.315388 0.332283 0.000000
O O5 0.054349 0.308194 0.236618
O O6 0.000000 0.500000 0.243202
O O7 0.000000 0.375492 0.000000
O O8 0.800988 0.631937 0.500000
O O9 0.802041 0.500000 0.264338
O O10 0.839076 0.709285 0.239622
O O11 0.500000 0.678981 0.238399
O O12 0.441901 0.500000 0.228451
O O13 0.439522 0.636016 0.000000
O O14 0.094321 0.890172 0.746550
O O15 0.064606 0.000000 0.500000
O O16 0.000000 0.000000 0.736878
O O17 0.104994 0.775505 0.000000
#
# Coordination Sequence:
#
# PCOD9384410 Si02
#       6
#     8   4   8   8   4   8
#     4   8  13  22  37  56  79 112 153 191 227 270
#     4   9  18  31  49  74  98 117 142 183 228 263
#     4  10  20  32  45  65  95 127 157 191 236 284
#     4   7   9  14  27  49  75 103 141 189 231 263
#     4  11  23  39  57  75  99 123 146 179 228 283
#     4  11  21  35  55  74  94 119 155 194 228 270
#
# _framework density 15.784385
#
# number of rings (size 3 to 8) (size 9 to 14) (size 15 to 20)
#    0.000    2.800    1.000    3.900    0.000    2.400 
#    0.000    0.000    0.000    3.000    0.000    4.200 
#    0.000    0.000    0.000    0.900    0.000   19.000 
#
# Total GULP energy -222679.034383 kJ/mol
# GULP energy per Si atom -5566.975860 kJ/mol
# Density = 1.574846 g / cm^3
# Si number density = 15.784385 Si / 1000 Ang^3
#
#
#
# Elastic Constant Matrix: (Units=GPa)
#
#
# Indices 1 2 3 4 5 6 
#
# 1 160.1997 58.7259 32.5915 0.0000 0.0000 0.0000
# 2 58.7259 82.1615 23.2697 0.0000 0.0000 0.0000
# 3 32.5915 23.2697 32.4523 0.0000 0.0000 0.0000
# 4 0.0000 0.0000 0.0000 13.5778 0.0000 0.0000
# 5 0.0000 0.0000 0.0000 0.0000 9.1445 0.0000
# 6 0.0000 0.0000 0.0000 0.0000 0.0000 -0.5803
#
#
#
# Elastic Compliance Matrix: (Units=1/GPa)
#
#
# Indices 1 2 3 4 5 6 
#
# 1 0.009227 -0.004983 -0.005694 0.000000 0.000000 0.000000
# 2 -0.004983 0.017963 -0.007877 0.000000 0.000000 0.000000
# 3 -0.005694 -0.007877 0.042181 0.000000 0.000000 0.000000
# 4 0.000000 0.000000 0.000000 0.073650 0.000000 0.000000
# 5 0.000000 0.000000 0.000000 0.000000 0.109355 0.000000
# 6 0.000000 0.000000 0.000000 0.000000 0.000000 -1.723143
#
#
# Mechanical properties :
#
#
# Convention : Reuss Voigt Hill
#
# Bulk Modulus (GPa) = 30.99335 55.99863 43.49599
# Shear Modulus (GPa) = -3.51394 15.11015 5.79810
#
# Velocity S-wave (km/s) = -1.49367 3.09736 1.91867
# Velocity P-wave (km/s) = 4.08697 6.95311 5.70303
#
# Compressibility (1/GPa) = 0.03226499
#
# Stress axis : x y z
#
# Youngs Moduli (GPa) = 108.37625 55.66917 23.70749
#
# Poissons Ratio (x) = 0.27737 0.13499
# Poissons Ratio (y) = 0.53999 0.18673
# Poissons Ratio (z) = 0.61710 0.43848
#
# Static dielectric constant tensor:
#      x y z
#    x 1.571370 0.000000 0.000000 
#    y 0.000000 1.493120 0.000000 
#    z 0.000000 0.000000 1.527590 
# 
# From -- ./inp_files/10684.got.cif
#   From: 2010.05.17/outbox.cif.g08.bks.cpg/sg47_6_cif.got.tgz:10684.got - 2010.06.03 20:15:42.
