data_PCOD9384575
_publ_section_title
;
Structure prediction by ZEFSAII (Michael W. Deem and Ramdas Pophale) SiO2 
 PCOD9384575
Probable space group: P M M M
;
_chemical_formula_sum "Si O2"
_cell_formula_units_Z 48
_cell_length_a 7.582974
_cell_length_b 36.179059
_cell_length_c 9.468160
_cell_angle_alpha 90.000000
_cell_angle_beta 90.000000
_cell_angle_gamma 90.000000
_cell_volume 2597.541065
_symmetry_space_group_name_H-M "P M M M"
_symmetry_group_IT_number 47
_symmetry_cell_setting 'orthorhombic'
loop_
_space_group_symop_operation_xyz
x,y,z
-x,-y,z
x,-y,-z
-x,y,-z
-x,-y,-z
x,y,-z
-x,y,z
x,-y,z
loop_
_atom_site_type_symbol
_atom_site_label
_atom_site_fract_x
_atom_site_fract_y
_atom_site_fract_z
Si Si1 0.500000 0.821627 0.829300
Si Si2 0.789855 0.387023 0.841513
Si Si3 0.500000 0.744547 0.331220
Si Si4 0.796760 0.120328 0.827781
Si Si5 0.208413 0.684280 0.667464
Si Si6 0.287806 0.458841 0.660897
Si Si7 0.214666 0.960245 0.165609
O O1 0.500000 0.782368 0.754162
O O2 0.330600 0.846372 0.788615
O O3 0.500000 0.817306 0.000000
O O4 0.727789 0.351789 0.751991
O O5 0.760221 0.425494 0.762151
O O6 0.000000 0.382413 0.850416
O O7 0.717149 0.387640 0.000000
O O8 0.500000 0.751608 0.500000
O O9 0.670974 0.719399 0.298052
O O10 0.731559 0.079805 0.776831
O O11 0.000000 0.125870 0.784492
O O12 0.795761 0.118387 0.000000
O O13 0.227025 0.676916 0.500000
O O14 0.000000 0.690819 0.695315
O O15 0.225712 0.452080 0.500000
O O16 0.500000 0.459995 0.656471
O O17 0.226881 0.500000 0.704402
O O18 0.000000 0.959624 0.168663
O O19 0.271121 0.000000 0.227396
O O20 0.265658 0.960871 0.000000
#
# Coordination Sequence:
#
# PCOD9384575 Si02
#       7
#     4   8   4   8   8   8   8
#     4  10  20  32  47  70  96 123 159 196 236 296
#     4  10  21  35  52  78 109 136 163 202 253 304
#     4  10  22  38  56  77  98 126 162 202 250 299
#     4   8  14  25  40  60  91 128 160 194 239 287
#     4   9  19  37  58  78 101 129 163 204 249 299
#     4   9  19  35  53  74 102 139 182 219 247 283
#     4   7   9  15  30  52  80 118 159 193 230 278
#
# _framework density 18.479015
#
# number of rings (size 3 to 8) (size 9 to 14) (size 15 to 20)
#    0.000    3.167    0.000    2.500    1.167    3.333 
#    0.000    2.917    0.000    2.500    0.000    0.000 
#    0.000    1.333    0.000    4.167    0.000    3.333 
#
# Total GULP energy -267381.172337 kJ/mol
# GULP energy per Si atom -5570.441090 kJ/mol
# Density = 1.843696 g / cm^3
# Si number density = 18.479015 Si / 1000 Ang^3
#
#
#
# Elastic Constant Matrix: (Units=GPa)
#
#
# Indices 1 2 3 4 5 6 
#
# 1 70.9787 62.3103 31.0214 0.0000 0.0000 0.0000
# 2 62.3103 220.1815 81.8641 0.0000 0.0000 0.0000
# 3 31.0214 81.8641 46.4577 0.0000 0.0000 0.0000
# 4 0.0000 0.0000 0.0000 45.7320 0.0000 0.0000
# 5 0.0000 0.0000 0.0000 0.0000 10.0176 0.0000
# 6 0.0000 0.0000 0.0000 0.0000 0.0000 40.2925
#
#
#
# Elastic Compliance Matrix: (Units=1/GPa)
#
#
# Indices 1 2 3 4 5 6 
#
# 1 0.020204 -0.002035 -0.009906 0.000000 0.000000 0.000000
# 2 -0.002035 0.013375 -0.022211 0.000000 0.000000 0.000000
# 3 -0.009906 -0.022211 0.067277 0.000000 0.000000 0.000000
# 4 0.000000 0.000000 0.000000 0.021867 0.000000 0.000000
# 5 0.000000 0.000000 0.000000 0.000000 0.099824 0.000000
# 6 0.000000 0.000000 0.000000 0.000000 0.000000 0.024818
#
#
# Mechanical properties :
#
#
# Convention : Reuss Voigt Hill
#
# Bulk Modulus (GPa) = 30.71729 76.44551 53.58140
# Shear Modulus (GPa) = 15.31303 30.03656 22.67480
#
# Velocity S-wave (km/s) = 2.88179 4.03605 3.50674
# Velocity P-wave (km/s) = 5.26610 7.94847 6.74203
#
# Compressibility (1/GPa) = 0.03255495
#
# Stress axis : x y z
#
# Youngs Moduli (GPa) = 49.49443 74.76357 14.86393
#
# Poissons Ratio (x) = 0.15213 0.14724
# Poissons Ratio (y) = 0.10071 0.33014
# Poissons Ratio (z) = 0.49027 1.66054
#
# Static dielectric constant tensor:
#      x y z
#    x 1.676680 0.000000 0.000000 
#    y 0.000000 1.639470 0.000000 
#    z 0.000000 0.000000 1.627020 
# 
# From -- ./inp_files/2710.got.cif
#   From: 2010.05.17/outbox.cif.g08.bks.cpg/sg47_2_cif.got.tgz:2710.got - 2010.06.03 20:15:42.
