data_PCOD9384457
_publ_section_title
;
Structure prediction by ZEFSAII (Michael W. Deem and Ramdas Pophale) SiO2 
 PCOD9384457
Probable space group: P M M M
;
_chemical_formula_sum "Si O2"
_cell_formula_units_Z 56
_cell_length_a 21.350739
_cell_length_b 15.754875
_cell_length_c 8.489965
_cell_angle_alpha 90.000000
_cell_angle_beta 90.000000
_cell_angle_gamma 90.000000
_cell_volume 2855.839349
_symmetry_space_group_name_H-M "P M M M"
_symmetry_group_IT_number 47
_symmetry_cell_setting 'orthorhombic'
loop_
_space_group_symop_operation_xyz
x,y,z
-x,-y,z
x,-y,-z
-x,y,-z
-x,-y,-z
x,y,-z
-x,y,z
x,-y,z
loop_
_atom_site_type_symbol
_atom_site_label
_atom_site_fract_x
_atom_site_fract_y
_atom_site_fract_z
Si Si1 0.683791 0.096593 0.172777
Si Si2 0.813234 0.096080 0.682001
Si Si3 0.817540 0.718000 0.188354
Si Si4 0.710014 0.594999 0.690604
Si Si5 0.070639 0.597384 0.808031
Si Si6 0.431421 0.822015 0.319620
Si Si7 0.568245 0.380813 0.683099
O O1 0.738074 0.102275 0.300180
O O2 0.624731 0.152227 0.209892
O O3 0.661798 0.000000 0.171281
O O4 0.711336 0.116285 0.000000
O O5 0.831970 0.098003 0.500000
O O6 0.831888 0.184729 0.762564
O O7 0.829421 0.000000 0.744752
O O8 0.753659 0.672148 0.249339
O O9 0.874913 0.659468 0.246696
O O10 0.814783 0.714739 0.000000
O O11 0.708297 0.601683 0.500000
O O12 0.734917 0.500000 0.731550
O O13 0.637249 0.597424 0.748003
O O14 0.082020 0.500000 0.759594
O O15 0.000000 0.621411 0.759286
O O16 0.071322 0.598447 0.000000
O O17 0.419806 0.850518 0.500000
O O18 0.500000 0.853974 0.271000
O O19 0.433322 0.720781 0.320210
O O20 0.568350 0.408535 0.500000
O O21 0.500000 0.407082 0.751867
#
# Coordination Sequence:
#
# PCOD9384457 Si02
#       7
#     8   8   8   8   8   8   8
#     4  10  20  32  46  66  92 121 158 209 267 321
#     4  10  21  37  56  76 101 136 175 215 263 321
#     4  11  21  33  55  84 112 142 177 222 272 318
#     4  10  20  32  49  76 108 141 178 222 271 322
#     4   8  15  30  53  82 116 152 187 219 254 303
#     4   9  17  29  45  63  85 120 166 211 257 317
#     4   8  15  29  47  65  87 121 169 219 259 298
#
# _framework density 19.608944999999999
#
# number of rings (size 3 to 8) (size 9 to 14) (size 15 to 20)
#    0.000    2.571    0.000    3.857    0.000    4.571 
#    0.000    2.857    0.000    3.429    0.000    9.000 
#    0.000    0.000    0.000    0.000    0.000    0.000 
#
# Total GULP energy -311796.109577 kJ/mol
# GULP energy per Si atom -5567.787671 kJ/mol
# Density = 1.956431 g / cm^3
# Si number density = 19.608945 Si / 1000 Ang^3
#
#
#
# Elastic Constant Matrix: (Units=GPa)
#
#
# Indices 1 2 3 4 5 6 
#
# 1 96.5418 62.1977 8.0291 0.0000 0.0000 0.0000
# 2 62.1977 100.1941 19.0252 0.0000 0.0000 0.0000
# 3 8.0291 19.0252 22.7594 0.0000 0.0000 0.0000
# 4 0.0000 0.0000 0.0000 -47.0539 0.0000 0.0000
# 5 0.0000 0.0000 0.0000 0.0000 15.2050 0.0000
# 6 0.0000 0.0000 0.0000 0.0000 0.0000 43.4629
#
#
#
# Elastic Compliance Matrix: (Units=1/GPa)
#
#
# Indices 1 2 3 4 5 6 
#
# 1 0.017487 -0.011511 0.003453 0.000000 0.000000 0.000000
# 2 -0.011511 0.019441 -0.012190 0.000000 0.000000 0.000000
# 3 0.003453 -0.012190 0.052910 0.000000 0.000000 0.000000
# 4 0.000000 0.000000 0.000000 -0.021252 0.000000 0.000000
# 5 0.000000 0.000000 0.000000 0.000000 0.065768 0.000000
# 6 0.000000 0.000000 0.000000 0.000000 0.000000 0.023008
#
#
# Mechanical properties :
#
#
# Convention : Reuss Voigt Hill
#
# Bulk Modulus (GPa) = 20.26685 44.22215 32.24450
# Shear Modulus (GPa) = 23.33111 11.00569 17.16840
#
# Velocity S-wave (km/s) = 3.45312 2.37166 2.96216
# Velocity P-wave (km/s) = 5.12412 5.48641 5.30836
#
# Compressibility (1/GPa) = 0.04934166
#
# Stress axis : x y z
#
# Youngs Moduli (GPa) = 57.18456 51.43689 18.90005
#
# Poissons Ratio (x) = 0.59211 -0.06527
# Poissons Ratio (y) = 0.65827 0.23040
# Poissons Ratio (z) = -0.19748 0.62704
#
# Static dielectric constant tensor:
#      x y z
#    x 1.702220 0.000000 0.000000 
#    y 0.000000 1.727760 0.000000 
#    z 0.000000 0.000000 1.703330 
# 
# From -- ./inp_files/11243.got.cif
#   From: 2010.05.17/outbox.cif.g08.bks.cpg/sg47_6_cif.got.tgz:11243.got - 2010.06.03 20:15:42.
