data_PCOD9384893
_publ_section_title
;
Structure prediction by ZEFSAII (Michael W. Deem and Ramdas Pophale) SiO2 
 PCOD9384893
Probable space group: P M M M
;
_chemical_formula_sum "Si O2"
_cell_formula_units_Z 48
_cell_length_a 21.182565
_cell_length_b 20.237714
_cell_length_c 8.954278
_cell_angle_alpha 90.000000
_cell_angle_beta 90.000000
_cell_angle_gamma 90.000000
_cell_volume 3838.579817
_symmetry_space_group_name_H-M "P M M M"
_symmetry_group_IT_number 47
_symmetry_cell_setting 'orthorhombic'
loop_
_space_group_symop_operation_xyz
x,y,z
-x,-y,z
x,-y,-z
-x,y,-z
-x,-y,-z
x,y,-z
-x,y,z
x,-y,z
loop_
_atom_site_type_symbol
_atom_site_label
_atom_site_fract_x
_atom_site_fract_y
_atom_site_fract_z
Si Si1 0.761143 0.921195 0.822481
Si Si2 0.924118 0.716542 0.179429
Si Si3 0.500000 0.080568 0.172772
Si Si4 0.629530 0.080296 0.671709
Si Si5 0.075355 0.428993 0.819858
Si Si6 0.000000 0.079158 0.175110
Si Si7 0.119919 0.149957 0.678267
O O1 0.691974 0.901394 0.763279
O O2 0.815696 0.881613 0.739026
O O3 0.768991 0.000000 0.794017
O O4 0.765661 0.911123 0.000000
O O5 0.902267 0.643235 0.230401
O O6 0.889773 0.775655 0.262937
O O7 0.000000 0.721971 0.204855
O O8 0.915072 0.722161 0.000000
O O9 0.435966 0.102511 0.254096
O O10 0.500000 0.000000 0.176286
O O11 0.500000 0.100288 0.000000
O O12 0.634084 0.101754 0.500000
O O13 0.627782 0.000000 0.672030
O O14 0.100662 0.500000 0.763834
O O15 0.000000 0.429272 0.791878
O O16 0.082571 0.429036 0.000000
O O17 0.061794 0.108513 0.252998
O O18 0.000000 0.000000 0.184412
O O19 0.000000 0.098302 0.000000
O O20 0.117754 0.147588 0.500000
#
# Coordination Sequence:
#
# PCOD9384893 Si02
#       7
#     8   8   4   8   8   4   8
#     4  10  20  33  46  57  71  94 124 158 196 237
#     4   9  16  27  43  58  75  98 121 148 183 224
#     4   9  15  23  37  57  79 101 123 145 174 217
#     4   9  16  26  40  58  78  97 118 148 186 225
#     4   7  10  18  35  59  79  93 114 143 173 209
#     4  11  23  37  49  57  66  85 118 159 201 242
#     4  12  23  32  43  58  75  95 120 155 195 235
#
# _framework density 12.504624
#
# number of rings (size 3 to 8) (size 9 to 14) (size 15 to 20)
#    0.000    2.500    0.833    5.000    0.000    6.667 
#    0.000    0.000    0.000    0.500    0.000    2.333 
#    0.000    0.000    0.000    0.000    0.000    0.000 
#
# Total GULP energy -267370.844357 kJ/mol
# GULP energy per Si atom -5570.225924 kJ/mol
# Density = 1.247616 g / cm^3
# Si number density = 12.504624 Si / 1000 Ang^3
#
#
#
# Elastic Constant Matrix: (Units=GPa)
#
#
# Indices 1 2 3 4 5 6 
#
# 1 87.0133 41.0475 45.5439 0.0000 0.0000 0.0000
# 2 41.0475 76.2317 45.0829 0.0000 0.0000 0.0000
# 3 45.5439 45.0829 77.1355 0.0000 0.0000 0.0000
# 4 0.0000 0.0000 0.0000 2.0690 0.0000 0.0000
# 5 0.0000 0.0000 0.0000 0.0000 6.6041 0.0000
# 6 0.0000 0.0000 0.0000 0.0000 0.0000 -0.5132
#
#
#
# Elastic Compliance Matrix: (Units=1/GPa)
#
#
# Indices 1 2 3 4 5 6 
#
# 1 0.017874 -0.005170 -0.007532 0.000000 0.000000 0.000000
# 2 -0.005170 0.021543 -0.009538 0.000000 0.000000 0.000000
# 3 -0.007532 -0.009538 0.022986 0.000000 0.000000 0.000000
# 4 0.000000 0.000000 0.000000 0.483325 0.000000 0.000000
# 5 0.000000 0.000000 0.000000 0.000000 0.151421 0.000000
# 6 0.000000 0.000000 0.000000 0.000000 0.000000 -1.948624
#
#
# Mechanical properties :
#
#
# Convention : Reuss Voigt Hill
#
# Bulk Modulus (GPa) = 55.79634 55.96990 55.88312
# Shear Modulus (GPa) = -4.16312 8.87906 2.35797
#
# Velocity S-wave (km/s) = -1.82661 2.66759 1.37469
# Velocity P-wave (km/s) = 6.34577 7.37188 6.87798
#
# Compressibility (1/GPa) = 0.01792232
#
# Stress axis : x y z
#
# Youngs Moduli (GPa) = 55.94868 46.41964 43.50490
#
# Poissons Ratio (x) = 0.23999 0.32766
# Poissons Ratio (y) = 0.28926 0.41496
# Poissons Ratio (z) = 0.42138 0.44276
#
# Static dielectric constant tensor:
#      x y z
#    x 1.386250 0.000000 0.000000 
#    y 0.000000 1.419310 0.000000 
#    z 0.000000 0.000000 1.413960 
# 
# From -- ./inp_files/11433.got.cif
#   From: 2010.05.17/outbox.cif.g08.bks.cpg/sg47_6_cif.got.tgz:11433.got - 2010.06.03 20:15:42.
