data_PCOD9384364
_publ_section_title
;
Structure prediction by ZEFSAII (Michael W. Deem and Ramdas Pophale) SiO2 
 PCOD9384364
Probable space group: P M M M
;
_chemical_formula_sum "Si O2"
_cell_formula_units_Z 48
_cell_length_a 18.321343
_cell_length_b 7.625749
_cell_length_c 16.020938
_cell_angle_alpha 90.000000
_cell_angle_beta 90.000000
_cell_angle_gamma 90.000000
_cell_volume 2238.348740
_symmetry_space_group_name_H-M "P M M M"
_symmetry_group_IT_number 47
_symmetry_cell_setting 'orthorhombic'
loop_
_space_group_symop_operation_xyz
x,y,z
-x,-y,z
x,-y,-z
-x,y,-z
-x,-y,-z
x,y,-z
-x,y,z
x,-y,z
loop_
_atom_site_type_symbol
_atom_site_label
_atom_site_fract_x
_atom_site_fract_y
_atom_site_fract_z
Si Si1 0.000000 0.697037 0.188624
Si Si2 0.835831 0.286049 0.592688
Si Si3 0.582703 0.713702 0.595044
Si Si4 0.707059 0.302969 0.093438
Si Si5 0.865239 0.803727 0.090375
Si Si6 0.000000 0.298211 0.385239
Si Si7 0.710255 0.715195 0.719755
O O1 0.926447 0.783908 0.158057
O O2 0.000000 0.694164 0.286443
O O3 0.000000 0.500000 0.154339
O O4 0.804959 0.244106 0.500000
O O5 0.838748 0.500000 0.598149
O O6 0.920182 0.222459 0.593370
O O7 0.784756 0.230142 0.670620
O O8 0.598400 0.769198 0.500000
O O9 0.500000 0.767753 0.616218
O O10 0.583587 0.500000 0.594882
O O11 0.643954 0.768705 0.659895
O O12 0.675595 0.500000 0.093656
O O13 0.795109 0.315252 0.096363
O O14 0.694004 0.222530 0.185445
O O15 0.690065 0.227007 0.000000
O O16 0.834970 0.000000 0.092896
O O17 0.901088 0.776853 0.000000
O O18 0.000000 0.500000 0.415212
O O19 0.713320 0.500000 0.724102
#
# Coordination Sequence:
#
# PCOD9384364 Si02
#       7
#     4   8   8   8   8   4   8
#     4  11  20  29  43  61  82 109 142 179 222 273
#     4   9  15  22  33  50  75 105 134 170 217 258
#     4   8  13  21  34  55  86 121 149 174 214 266
#     4   9  17  29  44  61  83 112 143 174 212 259
#     4  10  20  32  44  59  81 108 141 185 231 267
#     4   9  17  26  35  51  78 109 137 168 208 253
#     4   9  15  23  37  57  81 110 145 180 213 257
#
# _framework density 21.444379000000001
#
# number of rings (size 3 to 8) (size 9 to 14) (size 15 to 20)
#    0.000    2.833    0.000    3.250    0.000    7.667 
#    0.000    0.000    0.000    0.500    0.000    3.500 
#    0.000   35.333    0.000    6.000    0.000    6.000 
#
# Total GULP energy -267324.273725 kJ/mol
# GULP energy per Si atom -5569.255703 kJ/mol
# Density = 2.139557 g / cm^3
# Si number density = 21.444379 Si / 1000 Ang^3
#
#
#
# Elastic Constant Matrix: (Units=GPa)
#
#
# Indices 1 2 3 4 5 6 
#
# 1 95.3081 -0.0649 74.9609 0.0000 0.0000 0.0000
# 2 -0.0649 46.4788 4.6942 0.0000 0.0000 0.0000
# 3 74.9609 4.6942 187.3901 0.0000 0.0000 0.0000
# 4 0.0000 0.0000 0.0000 3.7936 0.0000 0.0000
# 5 0.0000 0.0000 0.0000 0.0000 32.0051 0.0000
# 6 0.0000 0.0000 0.0000 0.0000 0.0000 3.6650
#
#
#
# Elastic Compliance Matrix: (Units=1/GPa)
#
#
# Indices 1 2 3 4 5 6 
#
# 1 0.015328 0.000642 -0.006148 0.000000 0.000000 0.000000
# 2 0.000642 0.021597 -0.000798 0.000000 0.000000 0.000000
# 3 -0.006148 -0.000798 0.007816 0.000000 0.000000 0.000000
# 4 0.000000 0.000000 0.000000 0.263605 0.000000 0.000000
# 5 0.000000 0.000000 0.000000 0.000000 0.031245 0.000000
# 6 0.000000 0.000000 0.000000 0.000000 0.000000 0.272852
#
#
# Mechanical properties :
#
#
# Convention : Reuss Voigt Hill
#
# Bulk Modulus (GPa) = 31.11998 54.26192 42.69095
# Shear Modulus (GPa) = 7.86460 24.53186 16.19823
#
# Velocity S-wave (km/s) = 1.91713 3.38594 2.75136
# Velocity P-wave (km/s) = 4.40953 6.37531 5.48127
#
# Compressibility (1/GPa) = 0.03213370
#
# Stress axis : x y z
#
# Youngs Moduli (GPa) = 65.24033 46.30339 127.94795
#
# Poissons Ratio (x) = -0.02974 0.78658
# Poissons Ratio (y) = -0.04190 0.10209
# Poissons Ratio (z) = 0.40108 0.03695
#
# Static dielectric constant tensor:
#      x y z
#    x 1.765320 0.000000 0.000000 
#    y 0.000000 1.824890 0.000000 
#    z 0.000000 0.000000 1.825700 
# 
# From -- ./inp_files/24502.got.cif
#   From: 2010.05.17/outbox.cif.g08.bks.cpg/sg47_13_cif.got.tgz:24502.got - 2010.06.03 20:15:42.
