data_PCOD9384356
_publ_section_title
;
Structure prediction by ZEFSAII (Michael W. Deem and Ramdas Pophale) SiO2 
 PCOD9384356
Probable space group: P M M M
;
_chemical_formula_sum "Si O2"
_cell_formula_units_Z 44
_cell_length_a 18.027113
_cell_length_b 9.246780
_cell_length_c 20.783213
_cell_angle_alpha 90.000000
_cell_angle_beta 90.000000
_cell_angle_gamma 90.000000
_cell_volume 3464.410886
_symmetry_space_group_name_H-M "P M M M"
_symmetry_group_IT_number 47
_symmetry_cell_setting 'orthorhombic'
loop_
_space_group_symop_operation_xyz
x,y,z
-x,-y,z
x,-y,-z
-x,y,-z
-x,-y,-z
x,y,-z
-x,y,z
x,-y,z
loop_
_atom_site_type_symbol
_atom_site_label
_atom_site_fract_x
_atom_site_fract_y
_atom_site_fract_z
Si Si1 0.088594 0.328734 0.170708
Si Si2 0.351306 0.333221 0.078221
Si Si3 0.909823 0.331516 0.571834
Si Si4 0.800373 0.828538 0.923130
Si Si5 0.500000 0.832507 0.078478
Si Si6 0.090231 0.834353 0.301423
O O1 0.103210 0.500000 0.169185
O O2 0.133859 0.246866 0.115750
O O3 0.110394 0.261473 0.239733
O O4 0.000000 0.307525 0.162746
O O5 0.349387 0.500000 0.099658
O O6 0.277180 0.246683 0.096083
O O7 0.425802 0.251054 0.099260
O O8 0.353071 0.334929 0.000000
O O9 0.886087 0.285469 0.500000
O O10 0.889693 0.500000 0.580946
O O11 0.884013 0.235425 0.631456
O O12 0.000000 0.326660 0.572031
O O13 0.797943 0.000000 0.910620
O O14 0.809831 0.808312 0.000000
O O15 0.500000 0.000000 0.098522
O O16 0.500000 0.832105 0.000000
O O17 0.000000 0.835000 0.303395
O O18 0.114675 0.000000 0.294162
#
# Coordination Sequence:
#
# PCOD9384356 Si02
#       6
#     8   8   8   8   4   8
#     4  10  20  32  44  55  68  90 121 156 193 232
#     4   9  16  26  40  57  76  96 117 141 172 213
#     4   8  13  21  33  49  69  91 112 135 167 208
#     4  10  20  32  44  57  73  92 116 151 194 233
#     4   9  15  23  37  57  79  99 117 137 166 207
#     4   9  16  25  37  52  69  88 112 144 180 217
#
# _framework density 12.700571999999999
#
# number of rings (size 3 to 8) (size 9 to 14) (size 15 to 20)
#    0.000    2.818    0.000    3.000    0.000    8.364 
#    0.000    3.636    0.000    0.000    0.000    0.000 
#    0.000    0.000    0.000    0.000    0.000    0.000 
#
# Total GULP energy -245010.513166 kJ/mol
# GULP energy per Si atom -5568.420754 kJ/mol
# Density = 1.267166 g / cm^3
# Si number density = 12.700572 Si / 1000 Ang^3
#
#
#
# Elastic Constant Matrix: (Units=GPa)
#
#
# Indices 1 2 3 4 5 6 
#
# 1 47.4888 52.0863 34.5882 0.0000 0.0000 0.0000
# 2 52.0863 122.1302 56.6969 0.0000 0.0000 0.0000
# 3 34.5882 56.6969 55.8223 0.0000 0.0000 0.0000
# 4 0.0000 0.0000 0.0000 19.8416 0.0000 0.0000
# 5 0.0000 0.0000 0.0000 0.0000 -0.5491 0.0000
# 6 0.0000 0.0000 0.0000 0.0000 0.0000 18.9365
#
#
#
# Elastic Compliance Matrix: (Units=1/GPa)
#
#
# Indices 1 2 3 4 5 6 
#
# 1 0.046290 -0.012160 -0.016331 0.000000 0.000000 0.000000
# 2 -0.012160 0.018688 -0.011446 0.000000 0.000000 0.000000
# 3 -0.016331 -0.011446 0.039658 0.000000 0.000000 0.000000
# 4 0.000000 0.000000 0.000000 0.050399 0.000000 0.000000
# 5 0.000000 0.000000 0.000000 0.000000 -1.821007 0.000000
# 6 0.000000 0.000000 0.000000 0.000000 0.000000 0.052808
#
#
# Mechanical properties :
#
#
# Convention : Reuss Voigt Hill
#
# Bulk Modulus (GPa) = 40.38548 56.90933 48.64741
# Shear Modulus (GPa) = -3.27861 13.11712 4.91926
#
# Velocity S-wave (km/s) = -1.60844 3.21720 1.97019
# Velocity P-wave (km/s) = 5.33083 7.66200 6.60015
#
# Compressibility (1/GPa) = 0.02476137
#
# Stress axis : x y z
#
# Youngs Moduli (GPa) = 21.60311 53.51132 25.21584
#
# Poissons Ratio (x) = 0.65072 0.41179
# Poissons Ratio (y) = 0.26270 0.28861
# Poissons Ratio (z) = 0.35279 0.61247
#
# Static dielectric constant tensor:
#      x y z
#    x 1.392120 0.000000 0.000000 
#    y 0.000000 1.425330 0.000000 
#    z 0.000000 0.000000 1.405440 
# 
# From -- ./inp_files/9436.got.cif
#   From: 2010.05.17/outbox.cif.g08.bks.cpg/sg47_5_cif.got.tgz:9436.got - 2010.06.03 20:15:42.
