data_PCOD9384693
_publ_section_title
;
Structure prediction by ZEFSAII (Michael W. Deem and Ramdas Pophale) SiO2 
 PCOD9384693
Probable space group: P M M M
;
_chemical_formula_sum "Si O2"
_cell_formula_units_Z 64
_cell_length_a 15.622180
_cell_length_b 9.031317
_cell_length_c 23.813963
_cell_angle_alpha 90.000000
_cell_angle_beta 90.000000
_cell_angle_gamma 90.000000
_cell_volume 3359.884887
_symmetry_space_group_name_H-M "P M M M"
_symmetry_group_IT_number 47
_symmetry_cell_setting 'orthorhombic'
loop_
_space_group_symop_operation_xyz
x,y,z
-x,-y,z
x,-y,-z
-x,y,-z
-x,-y,-z
x,y,-z
-x,y,z
x,-y,z
loop_
_atom_site_type_symbol
_atom_site_label
_atom_site_fract_x
_atom_site_fract_y
_atom_site_fract_z
Si Si1 0.223587 0.819354 0.561439
Si Si2 0.399833 0.323036 0.157369
Si Si3 0.899375 0.661673 0.783975
Si Si4 0.280082 0.178897 0.062766
Si Si5 0.164099 0.830192 0.319048
Si Si6 0.359319 0.170430 0.725063
Si Si7 0.408442 0.180525 0.397991
Si Si8 0.901983 0.822911 0.895889
O O1 0.193299 0.771776 0.500000
O O2 0.171157 0.776539 0.616808
O O3 0.322118 0.771296 0.571161
O O4 0.223804 0.000000 0.562391
O O5 0.500000 0.286352 0.146621
O O6 0.390645 0.500000 0.156065
O O7 0.337700 0.251084 0.111028
O O8 0.376274 0.263540 0.219460
O O9 0.857837 0.500000 0.790570
O O10 0.886200 0.726115 0.722603
O O11 0.874342 0.773675 0.833190
O O12 0.000000 0.646314 0.792173
O O13 0.179604 0.224263 0.067516
O O14 0.282791 0.000000 0.069314
O O15 0.310965 0.215824 0.000000
O O16 0.259777 0.831837 0.292973
O O17 0.132249 0.000000 0.318144
O O18 0.403614 0.224059 0.667602
O O19 0.385715 0.000000 0.735668
O O20 0.500000 0.226630 0.422111
O O21 0.405853 0.000000 0.398431
O O22 0.000000 0.769392 0.908680
O O23 0.906582 0.000000 0.898598
#
# Coordination Sequence:
#
# PCOD9384693 Si02
#       8
#     8   8   8   8   8   8   8   8
#     4   8  14  24  38  59  88 121 157 196 235 276
#     4  11  24  38  52  73 101 134 173 217 262 301
#     4  10  20  32  48  73 102 128 156 192 235 286
#     4  10  22  39  58  80 104 133 171 208 242 289
#     4   9  17  29  47  71  97 126 160 198 242 292
#     4   9  17  30  49  72  97 125 159 200 246 296
#     4   8  13  21  36  61  91 121 152 187 231 283
#     4   9  18  34  57  84 112 137 159 191 241 299
#
# _framework density 19.048272000000001
#
# number of rings (size 3 to 8) (size 9 to 14) (size 15 to 20)
#    0.000    2.750    0.000    3.375    0.000    7.250 
#    0.000    3.750    0.000    0.750    0.000    5.250 
#    0.000    0.000    0.000   13.250    0.000   10.000 
#
# Total GULP energy -356477.906307 kJ/mol
# GULP energy per Si atom -5569.967286 kJ/mol
# Density = 1.900492 g / cm^3
# Si number density = 19.048272 Si / 1000 Ang^3
#
#
#
# Elastic Constant Matrix: (Units=GPa)
#
#
# Indices 1 2 3 4 5 6 
#
# 1 31.0477 16.7842 27.8225 0.0000 0.0000 0.0000
# 2 16.7842 11.4729 10.8439 0.0000 0.0000 0.0000
# 3 27.8225 10.8439 97.1134 0.0000 0.0000 0.0000
# 4 0.0000 0.0000 0.0000 -8.6946 0.0000 0.0000
# 5 0.0000 0.0000 0.0000 0.0000 5.1965 0.0000
# 6 0.0000 0.0000 0.0000 0.0000 0.0000 10.8490
#
#
#
# Elastic Compliance Matrix: (Units=1/GPa)
#
#
# Indices 1 2 3 4 5 6 
#
# 1 0.206307 -0.274970 -0.028402 0.000000 0.000000 0.000000
# 2 -0.274970 0.463932 0.026974 0.000000 0.000000 0.000000
# 3 -0.028402 0.026974 0.015422 0.000000 0.000000 0.000000
# 4 0.000000 0.000000 0.000000 -0.115014 0.000000 0.000000
# 5 0.000000 0.000000 0.000000 0.000000 0.192436 0.000000
# 6 0.000000 0.000000 0.000000 0.000000 0.000000 0.092175
#
#
# Mechanical properties :
#
#
# Convention : Reuss Voigt Hill
#
# Bulk Modulus (GPa) = 7.52645 27.83724 17.68185
# Shear Modulus (GPa) = 3.44271 7.08242 5.26256
#
# Velocity S-wave (km/s) = 1.34584 1.93034 1.66396
# Velocity P-wave (km/s) = 2.52485 4.42878 3.60478
#
# Compressibility (1/GPa) = 0.13286468
#
# Stress axis : x y z
#
# Youngs Moduli (GPa) = 4.84713 2.15549 64.84081
#
# Poissons Ratio (x) = 0.59270 1.84163
# Poissons Ratio (y) = 1.33282 -1.74902
# Poissons Ratio (z) = 0.13767 -0.05814
#
# Static dielectric constant tensor:
#      x y z
#    x 1.720580 0.000000 0.000000 
#    y 0.000000 1.669740 0.000000 
#    z 0.000000 0.000000 1.661960 
# 
# From -- ./inp_files/32779.got.cif
#   From: 2010.05.17/outbox.cif.g08.bks.cpg/sg47_17_cif.got.tgz:32779.got - 2010.06.03 20:15:42.
