data_PCOD9384154
_publ_section_title
;
Structure prediction by ZEFSAII (Michael W. Deem and Ramdas Pophale) SiO2 
 PCOD9384154
Probable space group: P M M M
;
_chemical_formula_sum "Si O2"
_cell_formula_units_Z 56
_cell_length_a 19.495617
_cell_length_b 19.645399
_cell_length_c 7.527092
_cell_angle_alpha 90.000000
_cell_angle_beta 90.000000
_cell_angle_gamma 90.000000
_cell_volume 2882.870024
_symmetry_space_group_name_H-M "P M M M"
_symmetry_group_IT_number 47
_symmetry_cell_setting 'orthorhombic'
loop_
_space_group_symop_operation_xyz
x,y,z
-x,-y,z
x,-y,-z
-x,y,-z
-x,-y,-z
x,y,-z
-x,y,z
x,-y,z
loop_
_atom_site_type_symbol
_atom_site_label
_atom_site_fract_x
_atom_site_fract_y
_atom_site_fract_z
Si Si1 0.572913 0.581865 0.794480
Si Si2 0.282101 0.719440 0.281536
Si Si3 0.075075 0.920508 0.716385
Si Si4 0.274419 0.423981 0.701438
Si Si5 0.575788 0.780036 0.292926
Si Si6 0.781696 0.861120 0.715059
Si Si7 0.637478 0.924605 0.208214
O O1 0.500000 0.608674 0.723239
O O2 0.567258 0.500000 0.796799
O O3 0.643785 0.591481 0.695163
O O4 0.579735 0.603209 0.000000
O O5 0.282953 0.717415 0.500000
O O6 0.251311 0.647590 0.216893
O O7 0.359848 0.737195 0.219492
O O8 0.237851 0.784819 0.229770
O O9 0.075529 0.917534 0.500000
O O10 0.143693 0.883641 0.778770
O O11 0.000000 0.894721 0.774287
O O12 0.079582 0.000000 0.764408
O O13 0.248354 0.428005 0.500000
O O14 0.265437 0.500000 0.781449
O O15 0.571950 0.761542 0.500000
O O16 0.500000 0.770926 0.213806
O O17 0.597936 0.859480 0.285409
O O18 0.781710 0.862985 0.500000
O O19 0.718604 0.909156 0.771367
O O20 0.621819 0.000000 0.280714
O O21 0.621057 0.924885 0.000000
#
# Coordination Sequence:
#
# PCOD9384154 Si02
#       7
#     8   8   8   8   8   8   8
#     4   8  14  24  35  47  66  90 114 144 186 236
#     4   8  15  27  41  58  78 100 130 166 200 235
#     4   8  13  21  37  65  93 108 124 158 198 228
#     4   9  16  25  38  55  73  93 120 157 197 233
#     4   9  18  32  47  59  73  99 135 173 211 250
#     4   9  16  28  46  62  80 110 141 164 190 232
#     4  10  20  31  43  61  84 107 132 167 207 240
#
# _framework density 19.425087999999999
#
# number of rings (size 3 to 8) (size 9 to 14) (size 15 to 20)
#    0.000    3.286    0.000    2.571    0.000    3.143 
#    0.000    7.143    0.000    0.429    0.000    2.000 
#    0.000    0.571    0.000    8.000    0.000    0.000 
#
# Total GULP energy -311910.117811 kJ/mol
# GULP energy per Si atom -5569.823532 kJ/mol
# Density = 1.938088 g / cm^3
# Si number density = 19.425088 Si / 1000 Ang^3
#
#
#
# Elastic Constant Matrix: (Units=GPa)
#
#
# Indices 1 2 3 4 5 6 
#
# 1 83.5574 25.6118 -1.0026 0.0000 0.0000 0.0000
# 2 25.6118 136.9197 -1.1630 0.0000 0.0000 0.0000
# 3 -1.0026 -1.1630 50.9288 0.0000 0.0000 0.0000
# 4 0.0000 0.0000 0.0000 -21.0154 0.0000 0.0000
# 5 0.0000 0.0000 0.0000 0.0000 -7.8236 0.0000
# 6 0.0000 0.0000 0.0000 0.0000 0.0000 7.6063
#
#
#
# Elastic Compliance Matrix: (Units=1/GPa)
#
#
# Indices 1 2 3 4 5 6 
#
# 1 0.012698 -0.002374 0.000196 0.000000 0.000000 0.000000
# 2 -0.002374 0.007749 0.000130 0.000000 0.000000 0.000000
# 3 0.000196 0.000130 0.019642 0.000000 0.000000 0.000000
# 4 0.000000 0.000000 0.000000 -0.047584 0.000000 0.000000
# 5 0.000000 0.000000 0.000000 0.000000 -0.127818 0.000000
# 6 0.000000 0.000000 0.000000 0.000000 0.000000 0.131470
#
#
# Mechanical properties :
#
#
# Convention : Reuss Voigt Hill
#
# Bulk Modulus (GPa) = 27.78290 35.36648 31.57469
# Shear Modulus (GPa) = 408.17943 12.28409 210.23176
#
# Velocity S-wave (km/s) = 14.51159 2.51745 10.41450
# Velocity P-wave (km/s) = 17.17892 5.16684 12.68486
#
# Compressibility (1/GPa) = 0.03599336
#
# Stress axis : x y z
#
# Youngs Moduli (GPa) = 78.75440 129.05485 50.91109
#
# Poissons Ratio (x) = 0.30632 -0.00997
# Poissons Ratio (y) = 0.18693 -0.00663
# Poissons Ratio (z) = -0.01542 -0.01680
#
# Static dielectric constant tensor:
#      x y z
#    x 1.683200 0.000000 0.000000 
#    y 0.000000 1.739190 0.000000 
#    z 0.000000 0.000000 1.720740 
# 
# From -- ./inp_files/11740.got.cif
#   From: 2010.05.17/outbox.cif.g08.bks.cpg/sg47_6_cif.got.tgz:11740.got - 2010.06.03 20:15:42.
