data_PCOD9384929
_publ_section_title
;
Structure prediction by ZEFSAII (Michael W. Deem and Ramdas Pophale) SiO2 
 PCOD9384929
Probable space group: P M M M
;
_chemical_formula_sum "Si O2"
_cell_formula_units_Z 52
_cell_length_a 21.066109
_cell_length_b 16.004482
_cell_length_c 7.741333
_cell_angle_alpha 90.000000
_cell_angle_beta 90.000000
_cell_angle_gamma 90.000000
_cell_volume 2610.007160
_symmetry_space_group_name_H-M "P M M M"
_symmetry_group_IT_number 47
_symmetry_cell_setting 'orthorhombic'
loop_
_space_group_symop_operation_xyz
x,y,z
-x,-y,z
x,-y,-z
-x,y,-z
-x,-y,-z
x,y,-z
-x,y,z
x,-y,z
loop_
_atom_site_type_symbol
_atom_site_label
_atom_site_fract_x
_atom_site_fract_y
_atom_site_fract_z
Si Si1 0.251332 0.220592 0.211307
Si Si2 0.000000 0.898514 0.199370
Si Si3 0.500000 0.116359 0.309275
Si Si4 0.644190 0.091457 0.795572
Si Si5 0.500000 0.712723 0.185036
Si Si6 0.392570 0.593241 0.703401
Si Si7 0.138603 0.095999 0.211363
Si Si8 0.247711 0.592259 0.799667
O O1 0.316404 0.172787 0.269063
O O2 0.194773 0.157812 0.259278
O O3 0.235039 0.314705 0.274554
O O4 0.254495 0.227471 0.000000
O O5 0.931355 0.875802 0.274257
O O6 0.000000 0.000000 0.196300
O O7 0.000000 0.869419 0.000000
O O8 0.500000 0.082061 0.500000
O O9 0.431869 0.095709 0.226608
O O10 0.500000 0.215580 0.321092
O O11 0.665109 0.000000 0.725278
O O12 0.657360 0.089847 0.000000
O O13 0.561339 0.656783 0.206063
O O14 0.500000 0.756014 0.000000
O O15 0.385970 0.612824 0.500000
O O16 0.419769 0.500000 0.715813
O O17 0.324021 0.592112 0.788684
O O18 0.149986 0.000000 0.265064
O O19 0.136183 0.094981 0.000000
O O20 0.228125 0.500000 0.725786
O O21 0.227099 0.592028 0.000000
#
# Coordination Sequence:
#
# PCOD9384929 Si02
#       8
#     8   4   4   8   4   8   8   8
#     4   9  16  26  42  63  85 112 148 188 227 266
#     4   7  10  16  28  50  83 119 148 175 213 265
#     4  12  25  38  51  65  85 117 154 189 228 274
#     4  10  20  34  51  69  88 112 146 189 235 283
#     4  12  23  34  49  67  87 111 143 183 226 275
#     4  10  20  33  48  66  88 112 140 180 232 286
#     4   8  12  19  33  56  86 117 148 182 221 266
#     4   9  17  29  44  62  85 115 151 186 218 258
#
# _framework density 19.923317999999998
#
# number of rings (size 3 to 8) (size 9 to 14) (size 15 to 20)
#    0.000    2.538    0.000    4.615    0.000    6.154 
#    0.000    0.000    0.000    0.000    0.000    0.538 
#    0.000    4.308    0.000    2.769    0.000   32.308 
#
# Total GULP energy -289626.266203 kJ/mol
# GULP energy per Si atom -5569.735889 kJ/mol
# Density = 1.987797 g / cm^3
# Si number density = 19.923318 Si / 1000 Ang^3
#
#
#
# Elastic Constant Matrix: (Units=GPa)
#
#
# Indices 1 2 3 4 5 6 
#
# 1 88.3482 54.1691 -7.0355 0.0000 0.0000 0.0000
# 2 54.1691 150.0083 10.9071 0.0000 0.0000 0.0000
# 3 -7.0355 10.9071 40.2494 0.0000 0.0000 0.0000
# 4 0.0000 0.0000 0.0000 -137.5355 0.0000 0.0000
# 5 0.0000 0.0000 0.0000 0.0000 18.7478 0.0000
# 6 0.0000 0.0000 0.0000 0.0000 0.0000 10.4742
#
#
#
# Elastic Compliance Matrix: (Units=1/GPa)
#
#
# Indices 1 2 3 4 5 6 
#
# 1 0.015213 -0.005801 0.004231 0.000000 0.000000 0.000000
# 2 -0.005801 0.009012 -0.003456 0.000000 0.000000 0.000000
# 3 0.004231 -0.003456 0.026521 0.000000 0.000000 0.000000
# 4 0.000000 0.000000 0.000000 -0.007271 0.000000 0.000000
# 5 0.000000 0.000000 0.000000 0.000000 0.053340 0.000000
# 6 0.000000 0.000000 0.000000 0.000000 0.000000 0.095472
#
#
# Mechanical properties :
#
#
# Convention : Reuss Voigt Hill
#
# Bulk Modulus (GPa) = 24.57368 43.85415 34.21391
# Shear Modulus (GPa) = 23.15839 -6.95837 8.10001
#
# Velocity S-wave (km/s) = 3.41306 -1.87087 2.01852
# Velocity P-wave (km/s) = 5.28137 4.17042 4.75843
#
# Compressibility (1/GPa) = 0.04069395
#
# Stress axis : x y z
#
# Youngs Moduli (GPa) = 65.73503 110.95835 37.70558
#
# Poissons Ratio (x) = 0.64367 -0.15954
# Poissons Ratio (y) = 0.38133 0.13032
# Poissons Ratio (z) = -0.27813 0.38350
#
# Static dielectric constant tensor:
#      x y z
#    x 1.693290 0.000000 0.000000 
#    y 0.000000 1.756410 0.000000 
#    z 0.000000 0.000000 1.752880 
# 
# From -- ./inp_files/11133.got.cif
#   From: 2010.05.17/outbox.cif.g08.bks.cpg/sg47_6_cif.got.tgz:11133.got - 2010.06.03 20:15:42.
