data_PCOD9384958
_publ_section_title
;
Structure prediction by ZEFSAII (Michael W. Deem and Ramdas Pophale) SiO2 
 PCOD9384958
Probable space group: P M M M
;
_chemical_formula_sum "Si O2"
_cell_formula_units_Z 56
_cell_length_a 9.300786
_cell_length_b 13.701684
_cell_length_c 23.682844
_cell_angle_alpha 90.000000
_cell_angle_beta 90.000000
_cell_angle_gamma 90.000000
_cell_volume 3018.057109
_symmetry_space_group_name_H-M "P M M M"
_symmetry_group_IT_number 47
_symmetry_cell_setting 'orthorhombic'
loop_
_space_group_symop_operation_xyz
x,y,z
-x,-y,z
x,-y,-z
-x,y,-z
-x,-y,-z
x,y,-z
-x,y,z
x,-y,z
loop_
_atom_site_type_symbol
_atom_site_label
_atom_site_fract_x
_atom_site_fract_y
_atom_site_fract_z
Si Si1 0.832225 0.385999 0.758732
Si Si2 0.835056 0.881173 0.611927
Si Si3 0.328946 0.884408 0.934671
Si Si4 0.658718 0.614671 0.650492
Si Si5 0.830086 0.793800 0.169257
Si Si6 0.830412 0.500000 0.566736
Si Si7 0.335178 0.117647 0.724854
Si Si8 0.665905 0.880504 0.500000
O O1 0.804933 0.500000 0.769763
O O2 0.737645 0.347881 0.706326
O O3 0.809332 0.318934 0.813086
O O4 0.000000 0.376881 0.742062
O O5 0.746428 0.853381 0.667416
O O6 0.750881 0.849337 0.555951
O O7 0.000000 0.846800 0.613572
O O8 0.839564 0.000000 0.610456
O O9 0.500000 0.869662 0.926558
O O10 0.240400 0.823588 0.889498
O O11 0.301199 0.000000 0.925980
O O12 0.294888 0.861696 0.000000
O O13 0.500000 0.656006 0.639178
O O14 0.639589 0.500000 0.665584
O O15 0.759192 0.596532 0.595843
O O16 0.752239 0.851234 0.219971
O O17 0.000000 0.815031 0.169176
O O18 0.805529 0.500000 0.500000
O O19 0.000000 0.500000 0.578766
O O20 0.500000 0.153197 0.726664
O O21 0.340322 0.000000 0.724054
O O22 0.500000 0.848856 0.500000
O O23 0.664703 0.000000 0.500000
#
# Coordination Sequence:
#
# PCOD9384958 Si02
#       8
#     8   8   8   8   8   4   8   4
#     4   9  18  34  53  72 101 139 175 215 265 320
#     4   9  16  26  41  62  89 122 163 212 258 300
#     4   9  19  37  59  82 112 151 187 216 255 311
#     4   8  15  25  41  66  93 123 164 215 263 309
#     4  11  22  33  52  83 109 136 176 219 264 313
#     4   9  15  23  39  65  97 133 170 209 262 331
#     4  10  20  33  48  69 101 138 170 204 254 313
#     4   9  15  23  37  59  87 121 164 207 250 309
#
# _framework density 18.554984999999999
#
# number of rings (size 3 to 8) (size 9 to 14) (size 15 to 20)
#    0.429    2.286    0.000    2.786    0.000    7.429 
#    0.000    0.714    0.000    0.429    1.857    3.000 
#    0.000    0.000    0.000    0.000    0.000    0.000 
#
# Total GULP energy -312188.581896 kJ/mol
# GULP energy per Si atom -5574.796105 kJ/mol
# Density = 1.851275 g / cm^3
# Si number density = 18.554985 Si / 1000 Ang^3
#
#
#
# Elastic Constant Matrix: (Units=GPa)
#
#
# Indices 1 2 3 4 5 6 
#
# 1 148.2610 46.1056 107.2536 0.0000 0.0000 0.0000
# 2 46.1056 51.5787 46.7319 0.0000 0.0000 0.0000
# 3 107.2536 46.7319 153.6731 0.0000 0.0000 0.0000
# 4 0.0000 0.0000 0.0000 3.7800 0.0000 0.0000
# 5 0.0000 0.0000 0.0000 0.0000 36.8488 0.0000
# 6 0.0000 0.0000 0.0000 0.0000 0.0000 13.7596
#
#
#
# Elastic Compliance Matrix: (Units=1/GPa)
#
#
# Indices 1 2 3 4 5 6 
#
# 1 0.014591 -0.005267 -0.008582 0.000000 0.000000 0.000000
# 2 -0.005267 0.028663 -0.005040 0.000000 0.000000 0.000000
# 3 -0.008582 -0.005040 0.014029 0.000000 0.000000 0.000000
# 4 0.000000 0.000000 0.000000 0.264550 0.000000 0.000000
# 5 0.000000 0.000000 0.000000 0.000000 0.027138 0.000000
# 6 0.000000 0.000000 0.000000 0.000000 0.000000 0.072676
#
#
# Mechanical properties :
#
#
# Convention : Reuss Voigt Hill
#
# Bulk Modulus (GPa) = 51.26920 83.74389 67.50655
# Shear Modulus (GPa) = 10.73129 21.10581 15.91855
#
# Velocity S-wave (km/s) = 2.40750 3.37630 2.93219
# Velocity P-wave (km/s) = 5.95139 7.77368 6.92276
#
# Compressibility (1/GPa) = 0.01950489
#
# Stress axis : x y z
#
# Youngs Moduli (GPa) = 68.53522 34.88849 71.27846
#
# Poissons Ratio (x) = 0.18377 0.61169
# Poissons Ratio (y) = 0.36100 0.35924
# Poissons Ratio (z) = 0.58815 0.17584
#
# Static dielectric constant tensor:
#      x y z
#    x 1.657130 0.000000 0.000000 
#    y 0.000000 1.684240 0.000000 
#    z 0.000000 0.000000 1.603880 
# 
# From -- ./inp_files/29788.got.cif
#   From: 2010.05.17/outbox.cif.g08.bks.cpg/sg47_15_cif.got.tgz:29788.got - 2010.06.03 20:15:42.
