data_PCOD9384920
_publ_section_title
;
Structure prediction by ZEFSAII (Michael W. Deem and Ramdas Pophale) SiO2 
 PCOD9384920
Probable space group: P M M M
;
_chemical_formula_sum "Si O2"
_cell_formula_units_Z 64
_cell_length_a 32.181490
_cell_length_b 14.649021
_cell_length_c 9.200553
_cell_angle_alpha 90.000000
_cell_angle_beta 90.000000
_cell_angle_gamma 90.000000
_cell_volume 4337.392069
_symmetry_space_group_name_H-M "P M M M"
_symmetry_group_IT_number 47
_symmetry_cell_setting 'orthorhombic'
loop_
_space_group_symop_operation_xyz
x,y,z
-x,-y,z
x,-y,-z
-x,y,-z
-x,-y,-z
x,y,-z
-x,y,z
x,-y,z
loop_
_atom_site_type_symbol
_atom_site_label
_atom_site_fract_x
_atom_site_fract_y
_atom_site_fract_z
Si Si1 0.795499 0.217724 0.825692
Si Si2 0.371470 0.111141 0.332963
Si Si3 0.954344 0.794162 0.322842
Si Si4 0.713016 0.106558 0.174245
Si Si5 0.921571 0.600759 0.324036
Si Si6 0.454020 0.889102 0.830084
Si Si7 0.130405 0.891902 0.326309
Si Si8 0.823233 0.604762 0.673480
O O1 0.752593 0.167312 0.785490
O O2 0.833669 0.161254 0.757627
O O3 0.798675 0.319191 0.761300
O O4 0.798747 0.218854 0.000000
O O5 0.369518 0.139354 0.500000
O O6 0.329732 0.137501 0.248388
O O7 0.414162 0.143264 0.258788
O O8 0.372408 0.000000 0.328715
O O9 0.954503 0.794126 0.500000
O O10 0.946187 0.689765 0.274363
O O11 0.914907 0.854857 0.280442
O O12 0.000000 0.825469 0.275110
O O13 0.720613 0.000000 0.213704
O O14 0.707990 0.109906 0.000000
O O15 0.925069 0.598833 0.500000
O O16 0.934589 0.500000 0.271269
O O17 0.872568 0.613566 0.292732
O O18 0.500000 0.859468 0.779066
O O19 0.453928 0.000000 0.823145
O O20 0.449753 0.865287 0.000000
O O21 0.134789 0.874150 0.500000
O O22 0.133439 0.000000 0.302911
O O23 0.818951 0.619594 0.500000
O O24 0.811384 0.500000 0.704926
#
# Coordination Sequence:
#
# PCOD9384920 Si02
#       8
#     8   8   8   8   8   8   8   8
#     4  11  21  32  49  70  90 112 142 181 218 258
#     4   9  16  24  35  53  76 102 136 181 227 263
#     4   9  16  26  42  65  90 112 138 174 213 253
#     4   9  18  31  43  56  79 112 146 179 218 261
#     4   8  13  23  41  64  88 110 131 161 203 248
#     4   8  13  21  33  48  68 100 141 180 219 263
#     4  10  20  33  48  65  87 115 146 181 219 257
#     4   9  17  31  51  71  92 116 139 167 206 254
#
# _framework density 14.755409999999999
#
# number of rings (size 3 to 8) (size 9 to 14) (size 15 to 20)
#    0.000    2.875    1.250    2.250    0.000    4.250 
#    0.000    5.000    0.000    0.375    0.000    0.875 
#    0.000    2.000    0.000    0.000    0.000    0.625 
#
# Total GULP energy -356426.516665 kJ/mol
# GULP energy per Si atom -5569.164323 kJ/mol
# Density = 1.472183 g / cm^3
# Si number density = 14.755410 Si / 1000 Ang^3
#
#
#
# Elastic Constant Matrix: (Units=GPa)
#
#
# Indices 1 2 3 4 5 6 
#
# 1 133.8821 49.1819 48.6292 0.0000 0.0000 0.0000
# 2 49.1819 57.8220 29.5442 0.0000 0.0000 0.0000
# 3 48.6292 29.5442 30.7904 0.0000 0.0000 0.0000
# 4 0.0000 0.0000 0.0000 13.6478 0.0000 0.0000
# 5 0.0000 0.0000 0.0000 0.0000 20.4697 0.0000
# 6 0.0000 0.0000 0.0000 0.0000 0.0000 4.8768
#
#
#
# Elastic Compliance Matrix: (Units=1/GPa)
#
#
# Indices 1 2 3 4 5 6 
#
# 1 0.017586 -0.001504 -0.026331 0.000000 0.000000 0.000000
# 2 -0.001504 0.034057 -0.030303 0.000000 0.000000 0.000000
# 3 -0.026331 -0.030303 0.103141 0.000000 0.000000 0.000000
# 4 0.000000 0.000000 0.000000 0.073272 0.000000 0.000000
# 5 0.000000 0.000000 0.000000 0.000000 0.048853 0.000000
# 6 0.000000 0.000000 0.000000 0.000000 0.000000 0.205053
#
#
# Mechanical properties :
#
#
# Convention : Reuss Voigt Hill
#
# Bulk Modulus (GPa) = 25.96932 53.02279 39.49606
# Shear Modulus (GPa) = 8.18228 14.14147 11.16188
#
# Velocity S-wave (km/s) = 2.35740 3.09915 2.75337
# Velocity P-wave (km/s) = 5.00478 6.98704 6.07728
#
# Compressibility (1/GPa) = 0.03850698
#
# Stress axis : x y z
#
# Youngs Moduli (GPa) = 56.86326 29.36225 9.69542
#
# Poissons Ratio (x) = 0.04417 0.25529
# Poissons Ratio (y) = 0.08553 0.29380
# Poissons Ratio (z) = 1.49729 0.88977
#
# Static dielectric constant tensor:
#      x y z
#    x 1.490110 0.000000 0.000000 
#    y 0.000000 1.482050 0.000000 
#    z 0.000000 0.000000 1.492740 
# 
# From -- ./inp_files/14256.got.cif
#   From: 2010.05.17/outbox.cif.g08.bks.cpg/sg47_8_cif.got.tgz:14256.got - 2010.06.03 20:15:42.
