data_PCOD9384013
_publ_section_title
;
Structure prediction by ZEFSAII (Michael W. Deem and Ramdas Pophale) SiO2 
 PCOD9384013
Probable space group: P M M M
;
_chemical_formula_sum "Si O2"
_cell_formula_units_Z 48
_cell_length_a 21.159328
_cell_length_b 8.528807
_cell_length_c 14.518848
_cell_angle_alpha 90.000000
_cell_angle_beta 90.000000
_cell_angle_gamma 90.000000
_cell_volume 2620.126841
_symmetry_space_group_name_H-M "P M M M"
_symmetry_group_IT_number 47
_symmetry_cell_setting 'orthorhombic'
loop_
_space_group_symop_operation_xyz
x,y,z
-x,-y,z
x,-y,-z
-x,y,-z
-x,-y,-z
x,y,-z
-x,y,z
x,-y,z
loop_
_atom_site_type_symbol
_atom_site_label
_atom_site_fract_x
_atom_site_fract_y
_atom_site_fract_z
Si Si1 0.175385 0.687718 0.394973
Si Si2 0.500000 0.687468 0.106311
Si Si3 0.877723 0.812035 0.212875
Si Si4 0.376285 0.189660 0.208675
Si Si5 0.682620 0.810505 0.396122
Si Si6 0.000000 0.312109 0.893346
Si Si7 0.248142 0.191020 0.105618
O O1 0.159335 0.734534 0.500000
O O2 0.175291 0.500000 0.389864
O O3 0.129465 0.755915 0.317744
O O4 0.246778 0.748244 0.377151
O O5 0.500000 0.500000 0.104228
O O6 0.561958 0.744858 0.160008
O O7 0.500000 0.745008 0.000000
O O8 0.813837 0.757841 0.160775
O O9 0.938235 0.747470 0.159890
O O10 0.879479 0.000000 0.210751
O O11 0.364552 0.237829 0.314782
O O12 0.313154 0.239298 0.153891
O O13 0.379703 0.000000 0.205984
O O14 0.664817 0.761806 0.500000
O O15 0.686161 0.000000 0.394168
O O16 0.000000 0.500000 0.893435
O O17 0.000000 0.257588 0.000000
O O18 0.247771 0.000000 0.106371
O O19 0.245777 0.242871 0.000000
#
# Coordination Sequence:
#
# PCOD9384013 Si02
#       7
#     8   4   8   8   8   4   8
#     4  10  20  34  55  85 120 155 188 229 287 348
#     4  11  25  41  54  75 110 150 189 233 286 339
#     4  11  21  37  60  86 115 151 195 242 287 334
#     4  10  19  35  58  83 109 145 188 230 280 335
#     4   9  17  32  56  86 116 144 182 233 283 334
#     4  11  25  43  60  83 120 161 195 232 286 349
#     4   9  17  30  52  83 112 136 177 235 283 326
#
# _framework density 18.319724000000001
#
# number of rings (size 3 to 8) (size 9 to 14) (size 15 to 20)
#    0.000    2.000    1.667    2.500    0.000    4.333 
#    0.000    0.833    0.000    8.000    0.000    0.000 
#    0.000    0.000    0.000    0.000    0.000    0.000 
#
# Total GULP energy -267974.517300 kJ/mol
# GULP energy per Si atom -5582.802444 kJ/mol
# Density = 1.827803 g / cm^3
# Si number density = 18.319724 Si / 1000 Ang^3
#
#
#
# Elastic Constant Matrix: (Units=GPa)
#
#
# Indices 1 2 3 4 5 6 
#
# 1 154.3710 30.0489 102.8569 0.0000 0.0000 0.0000
# 2 30.0489 23.5898 37.8879 0.0000 0.0000 0.0000
# 3 102.8569 37.8879 189.8377 0.0000 0.0000 0.0000
# 4 0.0000 0.0000 0.0000 21.9830 0.0000 0.0000
# 5 0.0000 0.0000 0.0000 0.0000 32.3929 0.0000
# 6 0.0000 0.0000 0.0000 0.0000 0.0000 -44.9355
#
#
#
# Elastic Compliance Matrix: (Units=1/GPa)
#
#
# Indices 1 2 3 4 5 6 
#
# 1 0.010754 -0.006388 -0.004552 0.000000 0.000000 0.000000
# 2 -0.006388 0.066185 -0.009748 0.000000 0.000000 0.000000
# 3 -0.004552 -0.009748 0.009679 0.000000 0.000000 0.000000
# 4 0.000000 0.000000 0.000000 0.045490 0.000000 0.000000
# 5 0.000000 0.000000 0.000000 0.000000 0.030871 0.000000
# 6 0.000000 0.000000 0.000000 0.000000 0.000000 -0.022254
#
#
# Mechanical properties :
#
#
# Convention : Reuss Voigt Hill
#
# Bulk Modulus (GPa) = 22.10305 78.82068 50.46186
# Shear Modulus (GPa) = 25.35725 15.02172 20.18948
#
# Velocity S-wave (km/s) = 3.72445 2.86663 3.32333
# Velocity P-wave (km/s) = 5.53053 7.35358 6.50623
#
# Compressibility (1/GPa) = 0.04524263
#
# Stress axis : x y z
#
# Youngs Moduli (GPa) = 92.98634 15.10918 103.31131
#
# Poissons Ratio (x) = 0.09652 0.47026
# Poissons Ratio (y) = 0.59400 1.00709
# Poissons Ratio (z) = 0.42326 0.14729
#
# Static dielectric constant tensor:
#      x y z
#    x 1.586920 0.000000 0.000000 
#    y 0.000000 1.622600 0.000000 
#    z 0.000000 0.000000 1.652130 
# 
# From -- ./inp_files/24441.got.cif
#   From: 2010.05.17/outbox.cif.g08.bks.cpg/sg47_13_cif.got.tgz:24441.got - 2010.06.03 20:15:42.
