data_PCOD9384669
_publ_section_title
;
Structure prediction by ZEFSAII (Michael W. Deem and Ramdas Pophale) SiO2 
 PCOD9384669
Probable space group: P M M M
;
_chemical_formula_sum "Si O2"
_cell_formula_units_Z 56
_cell_length_a 15.953310
_cell_length_b 21.185159
_cell_length_c 7.637862
_cell_angle_alpha 90.000000
_cell_angle_beta 90.000000
_cell_angle_gamma 90.000000
_cell_volume 2581.394257
_symmetry_space_group_name_H-M "P M M M"
_symmetry_group_IT_number 47
_symmetry_cell_setting 'orthorhombic'
loop_
_space_group_symop_operation_xyz
x,y,z
-x,-y,z
x,-y,-z
-x,y,-z
-x,-y,-z
x,y,-z
-x,y,z
x,-y,z
loop_
_atom_site_type_symbol
_atom_site_label
_atom_site_fract_x
_atom_site_fract_y
_atom_site_fract_z
Si Si1 0.223862 0.818880 0.797538
Si Si2 0.593145 0.170990 0.800531
Si Si3 0.881038 0.568937 0.707553
Si Si4 0.095616 0.071637 0.288132
Si Si5 0.405085 0.687427 0.298506
Si Si6 0.908392 0.289087 0.289933
Si Si7 0.318803 0.432949 0.708378
O O1 0.314388 0.839740 0.717100
O O2 0.159613 0.876211 0.775406
O O3 0.171596 0.755828 0.745360
O O4 0.243257 0.808889 0.000000
O O5 0.500000 0.154140 0.723364
O O6 0.594392 0.247075 0.800397
O O7 0.592271 0.146132 0.000000
O O8 0.902683 0.568787 0.500000
O O9 0.909211 0.500000 0.778099
O O10 0.904698 0.638319 0.777427
O O11 0.780823 0.567598 0.720301
O O12 0.096112 0.073463 0.500000
O O13 0.000000 0.084647 0.231960
O O14 0.116935 0.000000 0.234477
O O15 0.377245 0.700878 0.500000
O O16 0.500000 0.663839 0.307011
O O17 0.351921 0.631875 0.216396
O O18 0.909757 0.293665 0.500000
O O19 0.000000 0.262163 0.234405
O O20 0.340104 0.431436 0.500000
O O21 0.350172 0.500000 0.779031
#
# Coordination Sequence:
#
# PCOD9384669 Si02
#       7
#     8   8   8   8   8   8   8
#     4  11  22  34  53  80 107 137 173 214 257 299
#     4   9  19  35  51  68  95 131 168 206 250 298
#     4   8  14  25  41  61  86 120 165 212 252 295
#     4   9  19  37  60  85 114 147 177 203 239 292
#     4   9  16  25  40  63  87 113 151 198 247 302
#     4  10  20  32  48  72 102 136 171 210 261 315
#     4   8  13  21  34  54  81 111 143 187 246 303
#
# _framework density 21.693701999999998
#
# number of rings (size 3 to 8) (size 9 to 14) (size 15 to 20)
#    0.000    2.857    0.000    3.000    0.000    5.429 
#    0.000    3.571    0.000    1.286    0.000   10.000 
#    0.000    0.000    0.000    0.000    0.000    0.000 
#
# Total GULP energy -311736.867913 kJ/mol
# GULP energy per Si atom -5566.729784 kJ/mol
# Density = 2.164433 g / cm^3
# Si number density = 21.693702 Si / 1000 Ang^3
#
#
#
# Elastic Constant Matrix: (Units=GPa)
#
#
# Indices 1 2 3 4 5 6 
#
# 1 125.2651 61.0911 6.5254 0.0000 0.0000 0.0000
# 2 61.0911 86.6357 -0.4509 0.0000 0.0000 0.0000
# 3 6.5254 -0.4509 45.4205 0.0000 0.0000 0.0000
# 4 0.0000 0.0000 0.0000 37.0772 0.0000 0.0000
# 5 0.0000 0.0000 0.0000 0.0000 17.0652 0.0000
# 6 0.0000 0.0000 0.0000 0.0000 0.0000 32.5744
#
#
#
# Elastic Compliance Matrix: (Units=1/GPa)
#
#
# Indices 1 2 3 4 5 6 
#
# 1 0.012322 -0.008699 -0.001857 0.000000 0.000000 0.000000
# 2 -0.008699 0.017684 0.001425 0.000000 0.000000 0.000000
# 3 -0.001857 0.001425 0.022297 0.000000 0.000000 0.000000
# 4 0.000000 0.000000 0.000000 0.026971 0.000000 0.000000
# 5 0.000000 0.000000 0.000000 0.000000 0.058599 0.000000
# 6 0.000000 0.000000 0.000000 0.000000 0.000000 0.030699
#
#
# Mechanical properties :
#
#
# Convention : Reuss Voigt Hill
#
# Bulk Modulus (GPa) = 29.37432 43.51695 36.44563
# Shear Modulus (GPa) = 25.22969 30.02040 27.62504
#
# Velocity S-wave (km/s) = 3.41397 3.72402 3.57236
# Velocity P-wave (km/s) = 5.39538 6.21244 5.81827
#
# Compressibility (1/GPa) = 0.03404334
#
# Stress axis : x y z
#
# Youngs Moduli (GPa) = 81.15562 56.54910 44.84834
#
# Poissons Ratio (x) = 0.49189 0.08327
# Poissons Ratio (y) = 0.70593 -0.06392
# Poissons Ratio (z) = 0.15067 -0.08060
#
# Static dielectric constant tensor:
#      x y z
#    x 1.890660 0.000000 0.000000 
#    y 0.000000 1.779530 0.000000 
#    z 0.000000 0.000000 1.840860 
# 
# From -- ./inp_files/7295.got.cif
#   From: 2010.05.17/outbox.cif.g08.bks.cpg/sg47_4_cif.got.tgz:7295.got - 2010.06.03 20:15:42.
