data_PCOD9384443
_publ_section_title
;
Structure prediction by ZEFSAII (Michael W. Deem and Ramdas Pophale) SiO2 
 PCOD9384443
Probable space group: P M M M
;
_chemical_formula_sum "Si O2"
_cell_formula_units_Z 44
_cell_length_a 9.289836
_cell_length_b 7.627207
_cell_length_c 30.193754
_cell_angle_alpha 90.000000
_cell_angle_beta 90.000000
_cell_angle_gamma 90.000000
_cell_volume 2139.393602
_symmetry_space_group_name_H-M "P M M M"
_symmetry_group_IT_number 47
_symmetry_cell_setting 'orthorhombic'
loop_
_space_group_symop_operation_xyz
x,y,z
-x,-y,z
x,-y,-z
-x,y,-z
-x,-y,-z
x,y,-z
-x,y,z
x,-y,z
loop_
_atom_site_type_symbol
_atom_site_label
_atom_site_fract_x
_atom_site_fract_y
_atom_site_fract_z
Si Si1 0.335941 0.707365 0.760708
Si Si2 0.334587 0.214831 0.588008
Si Si3 0.834477 0.785807 0.500000
Si Si4 0.666396 0.789003 0.142742
Si Si5 0.838375 0.792251 0.326530
Si Si6 0.673740 0.210809 0.952322
O O1 0.500000 0.781197 0.758852
O O2 0.346522 0.500000 0.756229
O O3 0.271078 0.743572 0.809447
O O4 0.241259 0.771343 0.720107
O O5 0.500000 0.271388 0.586697
O O6 0.248259 0.269470 0.544304
O O7 0.255974 0.276689 0.632635
O O8 0.335554 0.000000 0.588210
O O9 0.000000 0.728755 0.500000
O O10 0.834871 0.000000 0.500000
O O11 0.500000 0.725908 0.144578
O O12 0.728797 0.725260 0.095574
O O13 0.663168 0.000000 0.140236
O O14 0.000000 0.718923 0.325540
O O15 0.850293 0.000000 0.334408
O O16 0.500000 0.236772 0.951510
O O17 0.695950 0.000000 0.953235
O O18 0.726274 0.280172 0.000000
#
# Coordination Sequence:
#
# PCOD9384443 Si02
#       6
#     8   8   4   8   8   8
#     4  10  20  32  46  65  90 121 156 193 234 281
#     4   9  16  26  42  65  93 124 156 190 230 276
#     4   9  15  23  37  61  96 131 158 187 226 271
#     4   8  13  22  38  59  83 114 151 189 228 270
#     4  10  20  33  49  69  92 119 154 196 240 283
#     4   7   9  14  27  50  79 109 142 180 221 265
#
# _framework density 20.566573000000002
#
# number of rings (size 3 to 8) (size 9 to 14) (size 15 to 20)
#    0.000    3.182    0.000    3.545    0.000    5.455 
#    0.000    0.000    0.000    0.545    0.000    4.455 
#    0.000    5.818    0.000    8.364    0.000    9.636 
#
# Total GULP energy -245133.506931 kJ/mol
# GULP energy per Si atom -5571.216067 kJ/mol
# Density = 2.051976 g / cm^3
# Si number density = 20.566573 Si / 1000 Ang^3
#
#
#
# Elastic Constant Matrix: (Units=GPa)
#
#
# Indices 1 2 3 4 5 6 
#
# 1 109.1484 5.2473 99.7102 0.0000 0.0000 0.0000
# 2 5.2473 38.8733 -1.4091 0.0000 0.0000 0.0000
# 3 99.7102 -1.4091 245.6341 0.0000 0.0000 0.0000
# 4 0.0000 0.0000 0.0000 -44.0030 0.0000 0.0000
# 5 0.0000 0.0000 0.0000 0.0000 -12.2791 0.0000
# 6 0.0000 0.0000 0.0000 0.0000 0.0000 0.6199
#
#
#
# Elastic Compliance Matrix: (Units=1/GPa)
#
#
# Indices 1 2 3 4 5 6 
#
# 1 0.014749 -0.002208 -0.006000 0.000000 0.000000 0.000000
# 2 -0.002208 0.026061 0.001046 0.000000 0.000000 0.000000
# 3 -0.006000 0.001046 0.006513 0.000000 0.000000 0.000000
# 4 0.000000 0.000000 0.000000 -0.022726 0.000000 0.000000
# 5 0.000000 0.000000 0.000000 0.000000 -0.081439 0.000000
# 6 0.000000 0.000000 0.000000 0.000000 0.000000 1.613248
#
#
# Mechanical properties :
#
#
# Convention : Reuss Voigt Hill
#
# Bulk Modulus (GPa) = 30.30502 66.75027 48.52765
# Shear Modulus (GPa) = 3.16110 8.20804 5.68457
#
# Velocity S-wave (km/s) = 1.24111 1.99991 1.66433
# Velocity P-wave (km/s) = 4.10132 6.15297 5.22876
#
# Compressibility (1/GPa) = 0.03299784
#
# Stress axis : x y z
#
# Youngs Moduli (GPa) = 67.80175 38.37212 153.54985
#
# Poissons Ratio (x) = 0.08474 0.92125
# Poissons Ratio (y) = 0.14973 -0.16060
# Poissons Ratio (z) = 0.40679 -0.04013
#
# Static dielectric constant tensor:
#      x y z
#    x 1.701510 0.000000 0.000000 
#    y 0.000000 1.755990 0.000000 
#    z 0.000000 0.000000 1.771340 
# 
# From -- ./inp_files/13631.got.cif
#   From: 2010.05.17/outbox.cif.g08.bks.cpg/sg47_7_cif.got.tgz:13631.got - 2010.06.03 20:15:42.
