data_PCOD9384430
_publ_section_title
;
Structure prediction by ZEFSAII (Michael W. Deem and Ramdas Pophale) SiO2 
 PCOD9384430
Probable space group: P M M M
;
_chemical_formula_sum "Si O2"
_cell_formula_units_Z 52
_cell_length_a 14.298799
_cell_length_b 7.887837
_cell_length_c 27.034144
_cell_angle_alpha 90.000000
_cell_angle_beta 90.000000
_cell_angle_gamma 90.000000
_cell_volume 3049.089072
_symmetry_space_group_name_H-M "P M M M"
_symmetry_group_IT_number 47
_symmetry_cell_setting 'orthorhombic'
loop_
_space_group_symop_operation_xyz
x,y,z
-x,-y,z
x,-y,-z
-x,y,-z
-x,-y,-z
x,y,-z
-x,y,z
x,-y,z
loop_
_atom_site_type_symbol
_atom_site_label
_atom_site_fract_x
_atom_site_fract_y
_atom_site_fract_z
Si Si1 0.113625 0.500000 0.556012
Si Si2 0.607338 0.202550 0.787308
Si Si3 0.268812 0.803925 0.698899
Si Si4 0.609037 0.299257 0.392496
Si Si5 0.393222 0.201195 0.000000
Si Si6 0.111318 0.200896 0.630265
Si Si7 0.608450 0.202768 0.500000
Si Si8 0.393016 0.298498 0.894659
O O1 0.149877 0.500000 0.500000
O O2 0.138428 0.330344 0.586490
O O3 0.000000 0.500000 0.553476
O O4 0.500000 0.269858 0.783904
O O5 0.675264 0.274080 0.744941
O O6 0.645303 0.233609 0.842583
O O7 0.600501 0.000000 0.780121
O O8 0.335121 0.791064 0.650845
O O9 0.169636 0.740828 0.678371
O O10 0.252821 0.000000 0.711856
O O11 0.500000 0.245047 0.391303
O O12 0.613260 0.500000 0.383593
O O13 0.647128 0.263715 0.447568
O O14 0.349127 0.253423 0.052360
O O15 0.500000 0.275324 0.000000
O O16 0.399520 0.000000 0.000000
O O17 0.000000 0.213483 0.637527
O O18 0.132171 0.000000 0.620144
O O19 0.500000 0.264017 0.500000
O O20 0.609412 0.000000 0.500000
O O21 0.500000 0.228623 0.896366
O O22 0.397006 0.500000 0.891520
#
# Coordination Sequence:
#
# PCOD9384430 Si02
#       8
#     4   8   8   8   4   8   4   8
#     4   9  18  34  56  78  97 119 147 182 230 285
#     4   9  17  29  44  62  87 119 155 192 227 266
#     4  10  20  33  49  68  88 117 152 185 224 272
#     4  10  20  32  46  65  88 112 141 179 220 262
#     4   9  15  23  37  55  77 111 154 191 224 265
#     4   9  19  36  55  75  98 122 151 188 232 283
#     4   9  17  31  49  63  80 109 142 177 215 258
#     4   9  16  25  37  56  83 114 149 190 231 265
#
# _framework density 17.054272999999998
#
# number of rings (size 3 to 8) (size 9 to 14) (size 15 to 20)
#    0.000    2.692    0.000    1.846    1.077    6.154 
#    1.385    3.077    0.000    0.000    0.000    0.000 
#    0.000    0.000    0.000    0.692    0.000   16.385 
#
# Total GULP energy -289651.385034 kJ/mol
# GULP energy per Si atom -5570.218943 kJ/mol
# Density = 1.701546 g / cm^3
# Si number density = 17.054273 Si / 1000 Ang^3
#
#
#
# Elastic Constant Matrix: (Units=GPa)
#
#
# Indices 1 2 3 4 5 6 
#
# 1 50.7918 14.7972 40.2922 0.0000 0.0000 0.0000
# 2 14.7972 42.6046 17.5469 0.0000 0.0000 0.0000
# 3 40.2922 17.5469 146.0800 0.0000 0.0000 0.0000
# 4 0.0000 0.0000 0.0000 53.1584 0.0000 0.0000
# 5 0.0000 0.0000 0.0000 0.0000 4.0993 0.0000
# 6 0.0000 0.0000 0.0000 0.0000 0.0000 7.8885
#
#
#
# Elastic Compliance Matrix: (Units=1/GPa)
#
#
# Indices 1 2 3 4 5 6 
#
# 1 0.026860 -0.006604 -0.006615 0.000000 0.000000 0.000000
# 2 -0.006604 0.026317 -0.001340 0.000000 0.000000 0.000000
# 3 -0.006615 -0.001340 0.008831 0.000000 0.000000 0.000000
# 4 0.000000 0.000000 0.000000 0.018812 0.000000 0.000000
# 5 0.000000 0.000000 0.000000 0.000000 0.243942 0.000000
# 6 0.000000 0.000000 0.000000 0.000000 0.000000 0.126767
#
#
# Mechanical properties :
#
#
# Convention : Reuss Voigt Hill
#
# Bulk Modulus (GPa) = 30.40448 42.74989 36.57718
# Shear Modulus (GPa) = 10.17064 24.15191 17.16127
#
# Velocity S-wave (km/s) = 2.44472 3.76730 3.17562
# Velocity P-wave (km/s) = 5.08288 6.63662 5.91102
#
# Compressibility (1/GPa) = 0.03288989
#
# Stress axis : x y z
#
# Youngs Moduli (GPa) = 37.22996 37.99804 113.23590
#
# Poissons Ratio (x) = 0.25095 0.74909
# Poissons Ratio (y) = 0.24588 0.15168
# Poissons Ratio (z) = 0.24629 0.05090
#
# Static dielectric constant tensor:
#      x y z
#    x 1.593530 0.000000 0.000000 
#    y 0.000000 1.601570 0.000000 
#    z 0.000000 0.000000 1.615910 
# 
# From -- ./inp_files/32696.got.cif
#   From: 2010.05.17/outbox.cif.g08.bks.cpg/sg47_17_cif.got.tgz:32696.got - 2010.06.03 20:15:42.
