data_PCOD9384774
_publ_section_title
;
Structure prediction by ZEFSAII (Michael W. Deem and Ramdas Pophale) SiO2 
 PCOD9384774
Probable space group: P M M M
;
_chemical_formula_sum "Si O2"
_cell_formula_units_Z 32
_cell_length_a 24.306032
_cell_length_b 8.138865
_cell_length_c 7.367853
_cell_angle_alpha 90.000000
_cell_angle_beta 90.000000
_cell_angle_gamma 90.000000
_cell_volume 1457.534565
_symmetry_space_group_name_H-M "P M M M"
_symmetry_group_IT_number 47
_symmetry_cell_setting 'orthorhombic'
loop_
_space_group_symop_operation_xyz
x,y,z
-x,-y,z
x,-y,-z
-x,y,-z
-x,-y,-z
x,y,-z
-x,y,z
x,-y,z
loop_
_atom_site_type_symbol
_atom_site_label
_atom_site_fract_x
_atom_site_fract_y
_atom_site_fract_z
Si Si1 0.635388 0.688919 0.778794
Si Si2 0.936194 0.500000 0.277998
Si Si3 0.760235 0.688239 0.781296
Si Si4 0.563420 0.000000 0.778325
Si Si5 0.876181 0.176258 0.288748
O O1 0.622919 0.500000 0.722594
O O2 0.698188 0.729696 0.723700
O O3 0.594701 0.833615 0.720322
O O4 0.634569 0.687021 0.000000
O O5 0.932985 0.500000 0.500000
O O6 0.905363 0.336898 0.211713
O O7 0.000000 0.500000 0.228908
O O8 0.771092 0.500000 0.723952
O O9 0.810556 0.798037 0.719193
O O10 0.760333 0.692038 0.000000
O O11 0.500000 0.000000 0.722144
O O12 0.564480 0.000000 0.000000
O O13 0.891992 0.171204 0.500000
O O14 0.890699 0.000000 0.207657
#
# Coordination Sequence:
#
# PCOD9384774 Si02
#       5
#     8   4   8   4   8
#     4   8  15  26  38  57  85 115 150 191 230 273
#     4   9  18  34  53  71  97 131 160 193 238 282
#     4   9  17  30  49  71  96 128 163 195 236 290
#     4   9  16  24  36  56  83 119 158 189 226 276
#     4  10  20  32  49  75 101 125 156 196 239 283
#
# _framework density 21.954882000000001
#
# number of rings (size 3 to 8) (size 9 to 14) (size 15 to 20)
#    0.000    3.000    1.250    1.500    1.750    1.500 
#    0.000    5.000    0.000    1.500    0.000    1.750 
#    0.000    2.000    0.000    5.500    0.000    5.500 
#
# Total GULP energy -178632.729070 kJ/mol
# GULP energy per Si atom -5582.272783 kJ/mol
# Density = 2.190491 g / cm^3
# Si number density = 21.954882 Si / 1000 Ang^3
#
#
#
# Elastic Constant Matrix: (Units=GPa)
#
#
# Indices 1 2 3 4 5 6 
#
# 1 137.2145 125.7317 -2.3452 0.0000 0.0000 0.0000
# 2 125.7317 220.7974 9.8616 0.0000 0.0000 0.0000
# 3 -2.3452 9.8616 78.6870 0.0000 0.0000 0.0000
# 4 0.0000 0.0000 0.0000 -5.8880 0.0000 0.0000
# 5 0.0000 0.0000 0.0000 0.0000 10.3219 0.0000
# 6 0.0000 0.0000 0.0000 0.0000 0.0000 -21.6626
#
#
#
# Elastic Compliance Matrix: (Units=1/GPa)
#
#
# Indices 1 2 3 4 5 6 
#
# 1 0.015430 -0.008857 0.001570 0.000000 0.000000 0.000000
# 2 -0.008857 0.009638 -0.001472 0.000000 0.000000 0.000000
# 3 0.001570 -0.001472 0.012940 0.000000 0.000000 0.000000
# 4 0.000000 0.000000 0.000000 -0.169837 0.000000 0.000000
# 5 0.000000 0.000000 0.000000 0.000000 0.096881 0.000000
# 6 0.000000 0.000000 0.000000 0.000000 0.000000 -0.046162
#
#
# Mechanical properties :
#
#
# Convention : Reuss Voigt Hill
#
# Bulk Modulus (GPa) = 48.80255 78.13277 63.46766
# Shear Modulus (GPa) = -88.08731 16.78432 -35.65150
#
# Velocity S-wave (km/s) = -6.34106 2.76794 -4.03408
# Velocity P-wave (km/s) = 5.59779 6.77351 2.69678
#
# Compressibility (1/GPa) = 0.02049073
#
# Stress axis : x y z
#
# Youngs Moduli (GPa) = 64.80748 103.75344 77.28074
#
# Poissons Ratio (x) = 0.91892 -0.12132
# Poissons Ratio (y) = 0.57399 0.11375
# Poissons Ratio (z) = -0.10174 0.15271
#
# Static dielectric constant tensor:
#      x y z
#    x 1.747640 0.000000 0.000000 
#    y 0.000000 1.811270 0.000000 
#    z 0.000000 0.000000 1.874980 
# 
# From -- ./inp_files/1327.got.cif
#   From: 2010.05.17/outbox.cif.g08.bks.cpg/sg47_1_cif.got.tgz:1327.got - 2010.06.03 20:15:42.
