data_PCOD9384671
_publ_section_title
;
Structure prediction by ZEFSAII (Michael W. Deem and Ramdas Pophale) SiO2 
 PCOD9384671
Probable space group: P M M M
;
_chemical_formula_sum "Si O2"
_cell_formula_units_Z 52
_cell_length_a 20.776911
_cell_length_b 8.581806
_cell_length_c 15.327556
_cell_angle_alpha 90.000000
_cell_angle_beta 90.000000
_cell_angle_gamma 90.000000
_cell_volume 2732.955647
_symmetry_space_group_name_H-M "P M M M"
_symmetry_group_IT_number 47
_symmetry_cell_setting 'orthorhombic'
loop_
_space_group_symop_operation_xyz
x,y,z
-x,-y,z
x,-y,-z
-x,y,-z
-x,-y,-z
x,y,-z
-x,y,z
x,-y,z
loop_
_atom_site_type_symbol
_atom_site_label
_atom_site_fract_x
_atom_site_fract_y
_atom_site_fract_z
Si Si1 0.423761 0.309255 0.500000
Si Si2 0.073465 0.813938 0.191118
Si Si3 0.238335 0.183022 0.904078
Si Si4 0.324130 0.316143 0.350678
Si Si5 0.500000 0.322362 0.896204
Si Si6 0.371501 0.821527 0.825506
Si Si7 0.192255 0.316203 0.277025
Si Si8 0.078249 0.679604 0.000000
O O1 0.426516 0.500000 0.500000
O O2 0.500000 0.259381 0.500000
O O3 0.378428 0.258313 0.418474
O O4 0.121721 0.758844 0.267393
O O5 0.094486 0.758312 0.093426
O O6 0.000000 0.757940 0.204564
O O7 0.073209 0.000000 0.189385
O O8 0.315574 0.187185 0.897238
O O9 0.217377 0.281755 0.821046
O O10 0.219523 0.000000 0.892542
O O11 0.217868 0.236140 0.000000
O O12 0.317605 0.500000 0.368258
O O13 0.352765 0.286014 0.255484
O O14 0.249581 0.255632 0.341429
O O15 0.500000 0.500000 0.862651
O O16 0.562052 0.232476 0.863882
O O17 0.500000 0.327572 0.000000
O O18 0.373281 0.000000 0.794039
O O19 0.185703 0.500000 0.291214
O O20 0.099565 0.500000 0.000000
O O21 0.000000 0.681968 0.000000
#
# Coordination Sequence:
#
# PCOD9384671 Si02
#       8
#     4   8   8   8   4   8   8   4
#     4   9  18  34  61  91 114 141 175 209 256 324
#     4  10  20  33  49  70  98 137 184 228 270 319
#     4   9  18  32  48  65  90 129 175 217 257 306
#     4   9  19  36  56  82 110 138 173 211 259 321
#     4  11  23  35  49  70  97 134 177 219 262 307
#     4  10  20  34  52  73 100 133 169 214 264 312
#     4  10  20  32  48  72 104 138 173 219 267 312
#     4   9  17  29  45  67  99 137 178 227 278 319
#
# _framework density 19.027018999999999
#
# number of rings (size 3 to 8) (size 9 to 14) (size 15 to 20)
#    0.000    2.385    0.000    2.308    2.154    4.615 
#    0.000    0.385    0.000    0.462    0.000    0.538 
#    0.000    4.308    0.000    0.000    0.000    0.000 
#
# Total GULP energy -289613.418361 kJ/mol
# GULP energy per Si atom -5569.488815 kJ/mol
# Density = 1.898371 g / cm^3
# Si number density = 19.027019 Si / 1000 Ang^3
#
#
#
# Elastic Constant Matrix: (Units=GPa)
#
#
# Indices 1 2 3 4 5 6 
#
# 1 151.2664 10.0892 38.1027 0.0000 0.0000 0.0000
# 2 10.0892 20.1833 -1.8361 0.0000 0.0000 0.0000
# 3 38.1027 -1.8361 61.4308 0.0000 0.0000 0.0000
# 4 0.0000 0.0000 0.0000 -1.7215 0.0000 0.0000
# 5 0.0000 0.0000 0.0000 0.0000 40.0943 0.0000
# 6 0.0000 0.0000 0.0000 0.0000 0.0000 22.8817
#
#
#
# Elastic Compliance Matrix: (Units=1/GPa)
#
#
# Indices 1 2 3 4 5 6 
#
# 1 0.008239 -0.004596 -0.005248 0.000000 0.000000 0.000000
# 2 -0.004596 0.052245 0.004412 0.000000 0.000000 0.000000
# 3 -0.005248 0.004412 0.019665 0.000000 0.000000 0.000000
# 4 0.000000 0.000000 0.000000 -0.580905 0.000000 0.000000
# 5 0.000000 0.000000 0.000000 0.000000 0.024941 0.000000
# 6 0.000000 0.000000 0.000000 0.000000 0.000000 0.043703
#
#
# Mechanical properties :
#
#
# Convention : Reuss Voigt Hill
#
# Bulk Modulus (GPa) = 14.43291 36.17690 25.30490
# Shear Modulus (GPa) = -12.55801 24.68588 6.06394
#
# Velocity S-wave (km/s) = -2.57185 3.60587 1.78716
# Velocity P-wave (km/s) = 1.10330 6.03250 4.19367
#
# Compressibility (1/GPa) = 0.06928610
#
# Stress axis : x y z
#
# Youngs Moduli (GPa) = 121.36980 19.14068 50.85088
#
# Poissons Ratio (x) = 0.08797 0.26686
# Poissons Ratio (y) = 0.55782 -0.22436
# Poissons Ratio (z) = 0.63693 -0.08445
#
# Static dielectric constant tensor:
#      x y z
#    x 1.750510 0.000000 0.000000 
#    y 0.000000 1.670230 0.000000 
#    z 0.000000 0.000000 1.633760 
# 
# From -- ./inp_files/25097.got.cif
#   From: 2010.05.17/outbox.cif.g08.bks.cpg/sg47_13_cif.got.tgz:25097.got - 2010.06.03 20:15:42.
