data_PCOD9384319
_publ_section_title
;
Structure prediction by ZEFSAII (Michael W. Deem and Ramdas Pophale) SiO2 
 PCOD9384319
Probable space group: P M M M
;
_chemical_formula_sum "Si O2"
_cell_formula_units_Z 52
_cell_length_a 14.659989
_cell_length_b 16.533159
_cell_length_c 9.709357
_cell_angle_alpha 90.000000
_cell_angle_beta 90.000000
_cell_angle_gamma 90.000000
_cell_volume 2353.314424
_symmetry_space_group_name_H-M "P M M M"
_symmetry_group_IT_number 47
_symmetry_cell_setting 'orthorhombic'
loop_
_space_group_symop_operation_xyz
x,y,z
-x,-y,z
x,-y,-z
-x,y,-z
-x,-y,-z
x,y,-z
-x,y,z
x,-y,z
loop_
_atom_site_type_symbol
_atom_site_label
_atom_site_fract_x
_atom_site_fract_y
_atom_site_fract_z
Si Si1 0.609070 0.247303 0.840775
Si Si2 0.111610 0.147391 0.653821
Si Si3 0.111224 0.000000 0.844647
Si Si4 0.388837 0.092291 0.338816
Si Si5 0.354140 0.593067 0.657788
Si Si6 0.135066 0.408311 0.646872
Si Si7 0.895417 0.280109 0.849674
O O1 0.500000 0.237917 0.847560
O O2 0.642584 0.167598 0.756179
O O3 0.623850 0.332243 0.759014
O O4 0.642209 0.250219 0.000000
O O5 0.145317 0.136026 0.500000
O O6 0.146032 0.228159 0.726762
O O7 0.000000 0.147521 0.645061
O O8 0.138237 0.077129 0.757182
O O9 0.000000 0.000000 0.850887
O O10 0.145277 0.000000 0.000000
O O11 0.364525 0.105140 0.500000
O O12 0.500000 0.091964 0.333519
O O13 0.359864 0.000000 0.299367
O O14 0.387117 0.607714 0.500000
O O15 0.382324 0.500000 0.697054
O O16 0.244431 0.591839 0.650518
O O17 0.106233 0.369100 0.500000
O O18 0.104593 0.500000 0.643310
O O19 0.102923 0.368119 0.786443
O O20 0.000000 0.251569 0.862323
O O21 0.853664 0.273587 0.000000
#
# Coordination Sequence:
#
# PCOD9384319 Si02
#       7
#     8   8   4   8   8   8   8
#     4  10  20  31  46  74 109 140 170 207 253 302
#     4   9  16  26  41  62  89 121 156 191 228 274
#     4   9  15  23  37  59  89 121 151 187 232 279
#     4   8  14  26  45  69  98 133 172 211 248 289
#     4   9  19  36  55  73  95 128 172 216 254 298
#     4   9  19  36  55  73  93 121 161 205 247 295
#     4  10  20  32  47  71 101 128 156 194 242 295
#
# _framework density 22.096495999999998
#
# number of rings (size 3 to 8) (size 9 to 14) (size 15 to 20)
#    0.000    2.846    0.000    3.000    0.000    6.769 
#    0.000    6.154    0.000    0.000    2.000    0.000 
#    0.000    0.000    0.000    0.000    0.000    0.000 
#
# Total GULP energy -289916.266682 kJ/mol
# GULP energy per Si atom -5575.312821 kJ/mol
# Density = 2.204620 g / cm^3
# Si number density = 22.096496 Si / 1000 Ang^3
#
#
#
# Elastic Constant Matrix: (Units=GPa)
#
#
# Indices 1 2 3 4 5 6 
#
# 1 63.9116 2.6121 4.9743 0.0000 0.0000 0.0000
# 2 2.6121 158.5982 113.4123 0.0000 0.0000 0.0000
# 3 4.9743 113.4123 214.8088 0.0000 0.0000 0.0000
# 4 0.0000 0.0000 0.0000 42.8169 0.0000 0.0000
# 5 0.0000 0.0000 0.0000 0.0000 -23.4769 0.0000
# 6 0.0000 0.0000 0.0000 0.0000 0.0000 28.6302
#
#
#
# Elastic Compliance Matrix: (Units=1/GPa)
#
#
# Indices 1 2 3 4 5 6 
#
# 1 0.015675 0.000002 -0.000364 0.000000 0.000000 0.000000
# 2 0.000002 0.010130 -0.005348 0.000000 0.000000 0.000000
# 3 -0.000364 -0.005348 0.007487 0.000000 0.000000 0.000000
# 4 0.000000 0.000000 0.000000 0.023355 0.000000 0.000000
# 5 0.000000 0.000000 0.000000 0.000000 -0.042595 0.000000
# 6 0.000000 0.000000 0.000000 0.000000 0.000000 0.034928
#
#
# Mechanical properties :
#
#
# Convention : Reuss Voigt Hill
#
# Bulk Modulus (GPa) = 45.72115 75.47954 60.60034
# Shear Modulus (GPa) = 73.86503 30.68203 52.27353
#
# Velocity S-wave (km/s) = 5.78800 3.73036 4.86912
# Velocity P-wave (km/s) = 8.08730 7.26549 7.68739
#
# Compressibility (1/GPa) = 0.02187172
#
# Stress axis : x y z
#
# Youngs Moduli (GPa) = 63.79639 98.72008 133.55751
#
# Poissons Ratio (x) = -0.00022 0.04864
# Poissons Ratio (y) = -0.00014 0.71429
# Poissons Ratio (z) = 0.02323 0.52797
#
# Static dielectric constant tensor:
#      x y z
#    x 1.873670 0.000000 0.000000 
#    y 0.000000 1.900140 0.000000 
#    z 0.000000 0.000000 1.790310 
# 
# From -- ./inp_files/10948.got.cif
#   From: 2010.05.17/outbox.cif.g08.bks.cpg/sg47_6_cif.got.tgz:10948.got - 2010.06.03 20:15:42.
