data_PCOD9384232
_publ_section_title
;
Structure prediction by ZEFSAII (Michael W. Deem and Ramdas Pophale) SiO2 
 PCOD9384232
Probable space group: P M M M
;
_chemical_formula_sum "Si O2"
_cell_formula_units_Z 48
_cell_length_a 32.333444
_cell_length_b 9.825091
_cell_length_c 7.599592
_cell_angle_alpha 90.000000
_cell_angle_beta 90.000000
_cell_angle_gamma 90.000000
_cell_volume 2414.231012
_symmetry_space_group_name_H-M "P M M M"
_symmetry_group_IT_number 47
_symmetry_cell_setting 'orthorhombic'
loop_
_space_group_symop_operation_xyz
x,y,z
-x,-y,z
x,-y,-z
-x,y,-z
-x,-y,-z
x,y,-z
-x,y,z
x,-y,z
loop_
_atom_site_type_symbol
_atom_site_label
_atom_site_fract_x
_atom_site_fract_y
_atom_site_fract_z
Si Si1 0.120768 0.845942 0.210644
Si Si2 0.545800 0.844934 0.788425
Si Si3 0.198119 0.655434 0.287584
Si Si4 0.377392 0.346092 0.710731
Si Si5 0.047110 0.655410 0.214809
Si Si6 0.288360 0.334255 0.296908
O O1 0.161833 0.758427 0.243216
O O2 0.081285 0.761286 0.278157
O O3 0.123338 0.000000 0.279373
O O4 0.115869 0.854592 0.000000
O O5 0.500000 0.799494 0.727201
O O6 0.583578 0.748499 0.742239
O O7 0.552301 0.000000 0.725842
O O8 0.544305 0.849337 0.000000
O O9 0.201167 0.649214 0.500000
O O10 0.189514 0.500000 0.226894
O O11 0.243530 0.700447 0.219538
O O12 0.372202 0.355093 0.500000
O O13 0.384657 0.500000 0.776757
O O14 0.332848 0.293791 0.780765
O O15 0.056877 0.500000 0.268336
O O16 0.000000 0.686800 0.268449
O O17 0.047547 0.656385 0.000000
O O18 0.287673 0.286646 0.500000
O O19 0.289218 0.500000 0.298615
#
# Coordination Sequence:
#
# PCOD9384232 Si02
#       6
#     8   8   8   8   8   8
#     4  10  20  31  44  67  99 129 154 185 229 277
#     4   9  19  35  50  64  89 127 164 192 222 267
#     4   9  17  31  52  72  89 118 160 196 227 270
#     4   9  17  30  50  75  98 117 144 189 239 280
#     4   8  14  26  45  67  89 116 153 194 232 271
#     4   7  12  26  47  69  92 117 147 186 230 274
#
# _framework density 19.882106
#
# number of rings (size 3 to 8) (size 9 to 14) (size 15 to 20)
#    0.000    3.333    0.000    3.500    0.000    3.000 
#    0.000    5.833    0.000    8.500    0.000    3.500 
#    0.000    0.000    0.000    0.000    0.000    0.000 
#
# Total GULP energy -267416.768358 kJ/mol
# GULP energy per Si atom -5571.182674 kJ/mol
# Density = 1.983685 g / cm^3
# Si number density = 19.882106 Si / 1000 Ang^3
#
#
#
# Elastic Constant Matrix: (Units=GPa)
#
#
# Indices 1 2 3 4 5 6 
#
# 1 228.8205 130.6766 5.2003 0.0000 0.0000 0.0000
# 2 130.6766 119.8349 5.8639 0.0000 0.0000 0.0000
# 3 5.2003 5.8639 41.4784 0.0000 0.0000 0.0000
# 4 0.0000 0.0000 0.0000 15.5582 0.0000 0.0000
# 5 0.0000 0.0000 0.0000 0.0000 19.6104 0.0000
# 6 0.0000 0.0000 0.0000 0.0000 0.0000 -17.0431
#
#
#
# Elastic Compliance Matrix: (Units=1/GPa)
#
#
# Indices 1 2 3 4 5 6 
#
# 1 0.011589 -0.012654 0.000336 0.000000 0.000000 0.000000
# 2 -0.012654 0.022220 -0.001555 0.000000 0.000000 0.000000
# 3 0.000336 -0.001555 0.024287 0.000000 0.000000 0.000000
# 4 0.000000 0.000000 0.000000 0.064275 0.000000 0.000000
# 5 0.000000 0.000000 0.000000 0.000000 0.050993 0.000000
# 6 0.000000 0.000000 0.000000 0.000000 0.000000 -0.058675
#
#
# Mechanical properties :
#
#
# Convention : Reuss Voigt Hill
#
# Bulk Modulus (GPa) = 32.94918 74.84616 53.89767
# Shear Modulus (GPa) = 32.77577 20.18464 26.48021
#
# Velocity S-wave (km/s) = 4.06458 3.18970 3.65343
# Velocity P-wave (km/s) = 6.21579 7.16187 6.70553
#
# Compressibility (1/GPa) = 0.03034976
#
# Stress axis : x y z
#
# Youngs Moduli (GPa) = 86.28690 45.00468 41.17498
#
# Poissons Ratio (x) = 0.56950 -0.01383
# Poissons Ratio (y) = 1.09189 0.06402
# Poissons Ratio (z) = -0.02899 0.06997
#
# Static dielectric constant tensor:
#      x y z
#    x 1.731160 0.000000 0.000000 
#    y 0.000000 1.669410 0.000000 
#    z 0.000000 0.000000 1.775570 
# 
# From -- ./inp_files/2437.got.cif
#   From: 2010.05.17/outbox.cif.g08.bks.cpg/sg47_2_cif.got.tgz:2437.got - 2010.06.03 20:15:42.
