data_PCOD9384027
_publ_section_title
;
Structure prediction by ZEFSAII (Michael W. Deem and Ramdas Pophale) SiO2 
 PCOD9384027
Probable space group: P M M M
;
_chemical_formula_sum "Si O2"
_cell_formula_units_Z 44
_cell_length_a 8.782726
_cell_length_b 17.385615
_cell_length_c 15.922127
_cell_angle_alpha 90.000000
_cell_angle_beta 90.000000
_cell_angle_gamma 90.000000
_cell_volume 2431.198817
_symmetry_space_group_name_H-M "P M M M"
_symmetry_group_IT_number 47
_symmetry_cell_setting 'orthorhombic'
loop_
_space_group_symop_operation_xyz
x,y,z
-x,-y,z
x,-y,-z
-x,y,-z
-x,-y,-z
x,y,-z
-x,y,z
x,-y,z
loop_
_atom_site_type_symbol
_atom_site_label
_atom_site_fract_x
_atom_site_fract_y
_atom_site_fract_z
Si Si1 0.682456 0.257124 0.749131
Si Si2 0.817120 0.835444 0.595283
Si Si3 0.682986 0.412765 0.823317
Si Si4 0.681436 0.000000 0.859692
Si Si5 0.817442 0.836389 0.906160
Si Si6 0.171671 0.406624 0.000000
Si Si7 0.181801 0.000000 0.674840
O O1 0.500000 0.251307 0.751505
O O2 0.743742 0.218988 0.664724
O O3 0.727286 0.346688 0.758273
O O4 0.748124 0.212350 0.829995
O O5 0.765762 0.821224 0.500000
O O6 0.000000 0.826283 0.598170
O O7 0.785192 0.923329 0.622426
O O8 0.500000 0.415213 0.827190
O O9 0.737275 0.500000 0.806036
O O10 0.743530 0.386987 0.914368
O O11 0.753517 0.077130 0.897819
O O12 0.725177 0.000000 0.761082
O O13 0.500000 0.000000 0.870832
O O14 0.000000 0.837890 0.897451
O O15 0.780040 0.806678 0.000000
O O16 0.165167 0.500000 0.000000
O O17 0.000000 0.375909 0.000000
O O18 0.000000 0.000000 0.695195
#
# Coordination Sequence:
#
# PCOD9384027 Si02
#       7
#     8   8   8   4   8   4   4
#     4  11  23  37  57  85 114 145 185 238 286 329
#     4  10  21  38  61  86 113 147 184 225 279 340
#     4   9  19  36  55  76 108 150 189 226 278 338
#     4  12  23  36  57  83 113 148 191 239 281 321
#     4  11  24  40  57  78 110 156 198 232 276 332
#     4   9  17  29  49  79 109 138 179 228 273 321
#     4  10  19  35  59  83 111 147 183 221 271 336
#
# _framework density 18.098067
#
# number of rings (size 3 to 8) (size 9 to 14) (size 15 to 20)
#    0.000    1.727    1.818    2.727    1.273    6.545 
#    0.000    0.000    0.000    2.182    0.000    3.818 
#    0.000    0.000    0.000    0.000    0.000    0.000 
#
# Total GULP energy -245781.269698 kJ/mol
# GULP energy per Si atom -5585.937948 kJ/mol
# Density = 1.805688 g / cm^3
# Si number density = 18.098067 Si / 1000 Ang^3
#
#
#
# Elastic Constant Matrix: (Units=GPa)
#
#
# Indices 1 2 3 4 5 6 
#
# 1 35.2036 36.0857 45.8546 0.0000 0.0000 0.0000
# 2 36.0857 126.0599 74.5261 0.0000 0.0000 0.0000
# 3 45.8546 74.5261 155.2204 0.0000 0.0000 0.0000
# 4 0.0000 0.0000 0.0000 -14.9093 0.0000 0.0000
# 5 0.0000 0.0000 0.0000 0.0000 -7.5993 0.0000
# 6 0.0000 0.0000 0.0000 0.0000 0.0000 11.6151
#
#
#
# Elastic Compliance Matrix: (Units=1/GPa)
#
#
# Indices 1 2 3 4 5 6 
#
# 1 0.051375 -0.008007 -0.011333 0.000000 0.000000 0.000000
# 2 -0.008007 0.012325 -0.003552 0.000000 0.000000 0.000000
# 3 -0.011333 -0.003552 0.011496 0.000000 0.000000 0.000000
# 4 0.000000 0.000000 0.000000 -0.067072 0.000000 0.000000
# 5 0.000000 0.000000 0.000000 0.000000 -0.131591 0.000000
# 6 0.000000 0.000000 0.000000 0.000000 0.000000 0.086095
#
#
# Mechanical properties :
#
#
# Convention : Reuss Voigt Hill
#
# Bulk Modulus (GPa) = 33.99930 69.93521 51.96725
# Shear Modulus (GPa) = 274.50172 8.48912 141.49542
#
# Velocity S-wave (km/s) = 12.32899 2.16813 8.85169
# Velocity P-wave (km/s) = 14.88283 6.70776 11.54324
#
# Compressibility (1/GPa) = 0.02941237
#
# Stress axis : x y z
#
# Youngs Moduli (GPa) = 19.46472 81.13748 86.98784
#
# Poissons Ratio (x) = 0.64964 0.98581
# Poissons Ratio (y) = 0.15585 0.30900
# Poissons Ratio (z) = 0.22059 0.28822
#
# Static dielectric constant tensor:
#      x y z
#    x 1.610040 0.000000 0.000000 
#    y 0.000000 1.647370 0.000000 
#    z 0.000000 0.000000 1.597110 
# 
# From -- ./inp_files/20971.got.cif
#   From: 2010.05.17/outbox.cif.g08.bks.cpg/sg47_11_cif.got.tgz:20971.got - 2010.06.03 20:15:42.
