data_PCOD9384276
_publ_section_title
;
Structure prediction by ZEFSAII (Michael W. Deem and Ramdas Pophale) SiO2 
 PCOD9384276
Probable space group: P M M M
;
_chemical_formula_sum "Si O2"
_cell_formula_units_Z 44
_cell_length_a 29.130279
_cell_length_b 7.588048
_cell_length_c 9.926714
_cell_angle_alpha 90.000000
_cell_angle_beta 90.000000
_cell_angle_gamma 90.000000
_cell_volume 2194.220272
_symmetry_space_group_name_H-M "P M M M"
_symmetry_group_IT_number 47
_symmetry_cell_setting 'orthorhombic'
loop_
_space_group_symop_operation_xyz
x,y,z
-x,-y,z
x,-y,-z
-x,y,-z
-x,-y,-z
x,y,-z
-x,y,z
x,-y,z
loop_
_atom_site_type_symbol
_atom_site_label
_atom_site_fract_x
_atom_site_fract_y
_atom_site_fract_z
Si Si1 0.000000 0.290642 0.153519
Si Si2 0.180221 0.784664 0.654144
Si Si3 0.900077 0.790194 0.153268
Si Si4 0.284206 0.787669 0.652855
Si Si5 0.367739 0.290201 0.152088
Si Si6 0.552489 0.284812 0.653235
O O1 0.049007 0.237899 0.213293
O O2 0.000000 0.500000 0.146177
O O3 0.000000 0.216250 0.000000
O O4 0.170701 0.732773 0.500000
O O5 0.141135 0.720803 0.755336
O O6 0.232328 0.729434 0.687123
O O7 0.179914 0.000000 0.656932
O O8 0.893764 0.000000 0.143890
O O9 0.899374 0.718500 0.000000
O O10 0.295269 0.726323 0.500000
O O11 0.321772 0.735686 0.761530
O O12 0.283515 0.000000 0.648603
O O13 0.374715 0.500000 0.141637
O O14 0.410523 0.220351 0.239349
O O15 0.364761 0.219475 0.000000
O O16 0.564083 0.230698 0.500000
O O17 0.500000 0.231912 0.682061
O O18 0.553146 0.500000 0.653891
#
# Coordination Sequence:
#
# PCOD9384276 Si02
#       6
#     4   8   8   8   8   8
#     4   9  17  29  44  63  90 122 150 177 216 264
#     4   8  15  29  48  69  91 114 145 187 230 270
#     4   9  16  27  46  69  88 110 146 187 220 256
#     4   9  18  33  52  71  92 123 161 196 233 281
#     4  10  20  31  45  70 101 128 155 191 236 283
#     4   8  14  26  45  67  90 120 159 198 234 275
#
# _framework density 20.052681
#
# number of rings (size 3 to 8) (size 9 to 14) (size 15 to 20)
#    0.000    3.182    0.000    2.455    0.000    3.636 
#    0.000    5.000    0.000    7.091    0.000    3.818 
#    0.000    0.000    0.000    0.000    0.000    0.000 
#
# Total GULP energy -245313.704311 kJ/mol
# GULP energy per Si atom -5575.311462 kJ/mol
# Density = 2.000704 g / cm^3
# Si number density = 20.052681 Si / 1000 Ang^3
#
#
#
# Elastic Constant Matrix: (Units=GPa)
#
#
# Indices 1 2 3 4 5 6 
#
# 1 187.3483 1.3053 138.2931 0.0000 0.0000 0.0000
# 2 1.3053 43.5612 6.2115 0.0000 0.0000 0.0000
# 3 138.2931 6.2115 147.1661 0.0000 0.0000 0.0000
# 4 0.0000 0.0000 0.0000 9.0543 0.0000 0.0000
# 5 0.0000 0.0000 0.0000 0.0000 44.7698 0.0000
# 6 0.0000 0.0000 0.0000 0.0000 0.0000 16.7539
#
#
#
# Elastic Compliance Matrix: (Units=1/GPa)
#
#
# Indices 1 2 3 4 5 6 
#
# 1 0.017569 0.001839 -0.016587 0.000000 0.000000 0.000000
# 2 0.001839 0.023288 -0.002711 0.000000 0.000000 0.000000
# 3 -0.016587 -0.002711 0.022497 0.000000 0.000000 0.000000
# 4 0.000000 0.000000 0.000000 0.110445 0.000000 0.000000
# 5 0.000000 0.000000 0.000000 0.000000 0.022336 0.000000
# 6 0.000000 0.000000 0.000000 0.000000 0.000000 0.059688
#
#
# Mechanical properties :
#
#
# Convention : Reuss Voigt Hill
#
# Bulk Modulus (GPa) = 35.16845 74.41060 54.78953
# Shear Modulus (GPa) = 16.65452 29.59997 23.12724
#
# Velocity S-wave (km/s) = 2.88503 3.84619 3.39975
# Velocity P-wave (km/s) = 5.35481 7.54402 6.54165
#
# Compressibility (1/GPa) = 0.02843458
#
# Stress axis : x y z
#
# Youngs Moduli (GPa) = 56.91887 42.94123 44.45118
#
# Poissons Ratio (x) = -0.07896 0.73732
# Poissons Ratio (y) = -0.10466 0.12050
# Poissons Ratio (z) = 0.94413 0.11641
#
# Static dielectric constant tensor:
#      x y z
#    x 1.703570 0.000000 0.000000 
#    y 0.000000 1.770500 0.000000 
#    z 0.000000 0.000000 1.701570 
# 
# From -- ./inp_files/2302.got.cif
#   From: 2010.05.17/outbox.cif.g08.bks.cpg/sg47_2_cif.got.tgz:2302.got - 2010.06.03 20:15:42.
