data_PCOD9384577
_publ_section_title
;
Structure prediction by ZEFSAII (Michael W. Deem and Ramdas Pophale) SiO2 
 PCOD9384577
Probable space group: P M M M
;
_chemical_formula_sum "Si O2"
_cell_formula_units_Z 48
_cell_length_a 7.348587
_cell_length_b 9.460654
_cell_length_c 32.370071
_cell_angle_alpha 90.000000
_cell_angle_beta 90.000000
_cell_angle_gamma 90.000000
_cell_volume 2250.446286
_symmetry_space_group_name_H-M "P M M M"
_symmetry_group_IT_number 47
_symmetry_cell_setting 'orthorhombic'
loop_
_space_group_symop_operation_xyz
x,y,z
-x,-y,z
x,-y,-z
-x,y,-z
-x,-y,-z
x,y,-z
-x,y,z
x,-y,z
loop_
_atom_site_type_symbol
_atom_site_label
_atom_site_fract_x
_atom_site_fract_y
_atom_site_fract_z
Si Si1 0.281217 0.160576 0.953623
Si Si2 0.777985 0.662635 0.285134
Si Si3 0.785521 0.341328 0.126652
Si Si4 0.222144 0.164667 0.365316
Si Si5 0.218992 0.169234 0.455589
Si Si6 0.222439 0.162363 0.795526
O O1 0.500000 0.156566 0.954793
O O2 0.231934 0.267496 0.917643
O O3 0.218700 0.000000 0.944487
O O4 0.219050 0.198646 0.000000
O O5 0.719920 0.500000 0.283272
O O6 0.719219 0.740870 0.326955
O O7 0.721878 0.750473 0.244883
O O8 0.000000 0.662644 0.285311
O O9 0.709774 0.500000 0.126984
O O10 0.714089 0.241343 0.163071
O O11 0.000000 0.353335 0.134967
O O12 0.282580 0.218854 0.410595
O O13 0.000000 0.165102 0.365657
O O14 0.275474 0.000000 0.360251
O O15 0.286800 0.224662 0.500000
O O16 0.000000 0.187332 0.455980
O O17 0.252167 0.000000 0.455430
O O18 0.000000 0.160212 0.795685
O O19 0.281553 0.000000 0.794185
#
# Coordination Sequence:
#
# PCOD9384577 Si02
#       6
#     8   8   8   8   8   8
#     4   9  19  36  55  73  94 122 156 190 221 255
#     4   9  15  21  29  42  62  86 111 143 186 235
#     4  10  20  32  47  70  98 123 148 181 222 267
#     4   8  12  17  25  36  49  68  98 134 173 223
#     4   7   9  13  21  32  44  59  85 126 173 217
#     4   9  16  26  40  56  75 101 132 164 200 244
#
# _framework density 21.329104999999998
#
# number of rings (size 3 to 8) (size 9 to 14) (size 15 to 20)
#    0.000    3.333    0.000    3.500    0.000    6.000 
#    0.000    2.500    0.000    0.500    0.000    3.500 
#    0.000    0.000    0.000    0.000    0.000    0.000 
#
# Total GULP energy -267762.949230 kJ/mol
# GULP energy per Si atom -5578.394776 kJ/mol
# Density = 2.128056 g / cm^3
# Si number density = 21.329105 Si / 1000 Ang^3
#
#
#
# Elastic Constant Matrix: (Units=GPa)
#
#
# Indices 1 2 3 4 5 6 
#
# 1 76.7500 5.6079 1.4664 0.0000 0.0000 0.0000
# 2 5.6079 168.4432 137.7700 0.0000 0.0000 0.0000
# 3 1.4664 137.7700 228.5316 0.0000 0.0000 0.0000
# 4 0.0000 0.0000 0.0000 -15.0883 0.0000 0.0000
# 5 0.0000 0.0000 0.0000 0.0000 120.8959 0.0000
# 6 0.0000 0.0000 0.0000 0.0000 0.0000 -71.9215
#
#
#
# Elastic Compliance Matrix: (Units=1/GPa)
#
#
# Indices 1 2 3 4 5 6 
#
# 1 0.013075 -0.000723 0.000352 0.000000 0.000000 0.000000
# 2 -0.000723 0.011751 -0.007080 0.000000 0.000000 0.000000
# 3 0.000352 -0.007080 0.008641 0.000000 0.000000 0.000000
# 4 0.000000 0.000000 0.000000 -0.066277 0.000000 0.000000
# 5 0.000000 0.000000 0.000000 0.000000 0.008272 0.000000
# 6 0.000000 0.000000 0.000000 0.000000 0.000000 -0.013904
#
#
# Mechanical properties :
#
#
# Convention : Reuss Voigt Hill
#
# Bulk Modulus (GPa) = 53.86027 84.82372 69.34199
# Shear Modulus (GPa) = -288.17144 28.70259 -129.73443
#
# Velocity S-wave (km/s) = -11.63617 3.67236 -7.80750
# Velocity P-wave (km/s) = 12.45902 7.60506 6.97819
#
# Compressibility (1/GPa) = 0.01856656
#
# Stress axis : x y z
#
# Youngs Moduli (GPa) = 76.47923 85.09796 115.72211
#
# Poissons Ratio (x) = 0.06156 -0.04075
# Poissons Ratio (y) = 0.05532 0.81926
# Poissons Ratio (z) = -0.02693 0.60245
#
# Static dielectric constant tensor:
#      x y z
#    x 1.871110 0.000000 0.000000 
#    y 0.000000 1.714480 0.000000 
#    z 0.000000 0.000000 1.766960 
# 
# From -- ./inp_files/14069.got.cif
#   From: 2010.05.17/outbox.cif.g08.bks.cpg/sg47_8_cif.got.tgz:14069.got - 2010.06.03 20:15:42.
