data_PCOD9384225
_publ_section_title
;
Structure prediction by ZEFSAII (Michael W. Deem and Ramdas Pophale) SiO2 
 PCOD9384225
Probable space group: P M M M
;
_chemical_formula_sum "Si O2"
_cell_formula_units_Z 44
_cell_length_a 29.575215
_cell_length_b 7.706979
_cell_length_c 9.732520
_cell_angle_alpha 90.000000
_cell_angle_beta 90.000000
_cell_angle_gamma 90.000000
_cell_volume 2218.387405
_symmetry_space_group_name_H-M "P M M M"
_symmetry_group_IT_number 47
_symmetry_cell_setting 'orthorhombic'
loop_
_space_group_symop_operation_xyz
x,y,z
-x,-y,z
x,-y,-z
-x,y,-z
-x,-y,-z
x,y,-z
-x,y,z
x,-y,z
loop_
_atom_site_type_symbol
_atom_site_label
_atom_site_fract_x
_atom_site_fract_y
_atom_site_fract_z
Si Si1 0.685407 0.209373 0.843470
Si Si2 0.852483 0.287150 0.840310
Si Si3 0.230369 0.292981 0.344861
Si Si4 0.048569 0.292551 0.165716
Si Si5 0.416375 0.208253 0.154604
Si Si6 0.500000 0.705256 0.346787
O O1 0.723229 0.264193 0.736607
O O2 0.634348 0.269340 0.809495
O O3 0.685017 0.000000 0.844950
O O4 0.695904 0.267204 0.000000
O O5 0.852966 0.500000 0.840090
O O6 0.811566 0.225833 0.745596
O O7 0.902177 0.228187 0.789175
O O8 0.846218 0.235906 0.000000
O O9 0.231713 0.223292 0.500000
O O10 0.223947 0.500000 0.353986
O O11 0.047991 0.500000 0.191702
O O12 0.000000 0.222211 0.215929
O O13 0.048898 0.271718 0.000000
O O14 0.455321 0.249043 0.261482
O O15 0.413974 0.000000 0.147147
O O16 0.427406 0.271498 0.000000
O O17 0.500000 0.500000 0.359369
O O18 0.500000 0.782620 0.500000
#
# Coordination Sequence:
#
# PCOD9384225 Si02
#       6
#     8   8   8   8   8   4
#     4   9  19  36  56  76  96 120 156 202 245 283
#     4   8  13  22  37  56  80 114 154 192 231 277
#     4  10  20  31  44  66  97 130 160 192 233 282
#     4   7   9  14  27  49  75 103 140 187 233 273
#     4   9  19  37  59  79  98 124 161 202 241 282
#     4  11  24  37  50  76 112 141 164 193 228 270
#
# _framework density 19.834229000000001
#
# number of rings (size 3 to 8) (size 9 to 14) (size 15 to 20)
#    0.000    3.182    0.000    3.818    0.000    5.091 
#    0.000    5.455    0.000    0.545    0.000    3.818 
#    0.000    0.727    0.000    8.364    0.000    9.636 
#
# Total GULP energy -245174.811323 kJ/mol
# GULP energy per Si atom -5572.154803 kJ/mol
# Density = 1.978909 g / cm^3
# Si number density = 19.834229 Si / 1000 Ang^3
#
#
#
# Elastic Constant Matrix: (Units=GPa)
#
#
# Indices 1 2 3 4 5 6 
#
# 1 211.3908 5.8477 131.2901 0.0000 0.0000 0.0000
# 2 5.8477 29.6085 6.6058 0.0000 0.0000 0.0000
# 3 131.2901 6.6058 132.3443 0.0000 0.0000 0.0000
# 4 0.0000 0.0000 0.0000 13.6129 0.0000 0.0000
# 5 0.0000 0.0000 0.0000 0.0000 -7.2655 0.0000
# 6 0.0000 0.0000 0.0000 0.0000 0.0000 24.6604
#
#
#
# Elastic Compliance Matrix: (Units=1/GPa)
#
#
# Indices 1 2 3 4 5 6 
#
# 1 0.012326 0.000297 -0.012243 0.000000 0.000000 0.000000
# 2 0.000297 0.034162 -0.002000 0.000000 0.000000 0.000000
# 3 -0.012243 -0.002000 0.019801 0.000000 0.000000 0.000000
# 4 0.000000 0.000000 0.000000 0.073460 0.000000 0.000000
# 5 0.000000 0.000000 0.000000 0.000000 -0.137638 0.000000
# 6 0.000000 0.000000 0.000000 0.000000 0.000000 0.040551
#
#
# Mechanical properties :
#
#
# Convention : Reuss Voigt Hill
#
# Bulk Modulus (GPa) = 26.04321 73.42566 49.73444
# Shear Modulus (GPa) = 59.98699 21.50824 40.74762
#
# Velocity S-wave (km/s) = 5.50544 3.29660 4.53748
# Velocity P-wave (km/s) = 7.31929 7.18262 7.25128
#
# Compressibility (1/GPa) = 0.03839772
#
# Stress axis : x y z
#
# Youngs Moduli (GPa) = 81.12956 29.27269 50.50266
#
# Poissons Ratio (x) = -0.00869 0.61828
# Poissons Ratio (y) = -0.02409 0.10099
# Poissons Ratio (z) = 0.99324 0.05854
#
# Static dielectric constant tensor:
#      x y z
#    x 1.730720 0.000000 0.000000 
#    y 0.000000 1.754240 0.000000 
#    z 0.000000 0.000000 1.682230 
# 
# From -- ./inp_files/2156.got.cif
#   From: 2010.05.17/outbox.cif.g08.bks.cpg/sg47_2_cif.got.tgz:2156.got - 2010.06.03 20:15:42.
