data_PCOD9384487
_publ_section_title
;
Structure prediction by ZEFSAII (Michael W. Deem and Ramdas Pophale) SiO2 
 PCOD9384487
Probable space group: P M M M
;
_chemical_formula_sum "Si O2"
_cell_formula_units_Z 64
_cell_length_a 14.584257
_cell_length_b 8.941388
_cell_length_c 29.394822
_cell_angle_alpha 90.000000
_cell_angle_beta 90.000000
_cell_angle_gamma 90.000000
_cell_volume 3833.187686
_symmetry_space_group_name_H-M "P M M M"
_symmetry_group_IT_number 47
_symmetry_cell_setting 'orthorhombic'
loop_
_space_group_symop_operation_xyz
x,y,z
-x,-y,z
x,-y,-z
-x,y,-z
-x,-y,-z
x,y,-z
-x,y,z
x,-y,z
loop_
_atom_site_type_symbol
_atom_site_label
_atom_site_fract_x
_atom_site_fract_y
_atom_site_fract_z
Si Si1 0.292612 0.180764 0.949410
Si Si2 0.890747 0.824179 0.194102
Si Si3 0.888901 0.674230 0.449655
Si Si4 0.777529 0.322469 0.725662
Si Si5 0.108248 0.178186 0.355601
Si Si6 0.102187 0.181574 0.910651
Si Si7 0.392837 0.178572 0.767529
Si Si8 0.610120 0.327450 0.863655
O O1 0.186037 0.224426 0.942489
O O2 0.347571 0.254215 0.908403
O O3 0.298650 0.000000 0.945645
O O4 0.324123 0.223286 0.000000
O O5 0.835194 0.729205 0.230170
O O6 0.876010 0.777329 0.141702
O O7 0.000000 0.813699 0.202596
O O8 0.865299 0.000000 0.198533
O O9 0.857274 0.723778 0.500000
O O10 0.863145 0.500000 0.443520
O O11 0.861998 0.770244 0.406041
O O12 0.000000 0.678813 0.450723
O O13 0.772623 0.500000 0.723263
O O14 0.830710 0.257383 0.682280
O O15 0.676683 0.253186 0.732336
O O16 0.000000 0.218134 0.349722
O O17 0.115406 0.000000 0.351013
O O18 0.000000 0.235549 0.922595
O O19 0.098250 0.000000 0.910961
O O20 0.500000 0.217607 0.760044
O O21 0.366493 0.237213 0.817891
O O22 0.384113 0.000000 0.766261
O O23 0.500000 0.324082 0.867643
O O24 0.639374 0.500000 0.858882
#
# Coordination Sequence:
#
# PCOD9384487 Si02
#       8
#     8   8   8   8   8   8   8   8
#     4  10  20  32  49  74  99 124 156 192 230 275
#     4   9  17  30  48  68  92 126 167 205 239 281
#     4   8  14  26  44  65  92 129 172 217 263 306
#     4  12  23  32  47  71 101 134 164 199 244 293
#     4  10  20  32  46  67  99 139 181 220 253 290
#     4   8  15  29  48  68  90 118 153 192 230 268
#     4  10  21  38  59  78  96 121 154 194 240 291
#     4  10  21  37  56  76  97 121 150 186 232 286
#
# _framework density 16.696285
#
# number of rings (size 3 to 8) (size 9 to 14) (size 15 to 20)
#    0.000    2.375    0.000    4.500    0.000    6.000 
#    0.000    3.750    0.000    1.125    0.000    0.875 
#    0.000    0.500    0.000    5.250    0.000    2.500 
#
# Total GULP energy -357073.140431 kJ/mol
# GULP energy per Si atom -5579.267819 kJ/mol
# Density = 1.665828 g / cm^3
# Si number density = 16.696285 Si / 1000 Ang^3
#
#
#
# Elastic Constant Matrix: (Units=GPa)
#
#
# Indices 1 2 3 4 5 6 
#
# 1 53.2441 39.1456 54.0000 0.0000 0.0000 0.0000
# 2 39.1456 70.8091 51.0554 0.0000 0.0000 0.0000
# 3 54.0000 51.0554 91.1244 0.0000 0.0000 0.0000
# 4 0.0000 0.0000 0.0000 45.0455 0.0000 0.0000
# 5 0.0000 0.0000 0.0000 0.0000 17.1928 0.0000
# 6 0.0000 0.0000 0.0000 0.0000 0.0000 17.0574
#
#
#
# Elastic Compliance Matrix: (Units=1/GPa)
#
#
# Indices 1 2 3 4 5 6 
#
# 1 0.051623 -0.010875 -0.024499 0.000000 0.000000 0.000000
# 2 -0.010875 0.025985 -0.008115 0.000000 0.000000 0.000000
# 3 -0.024499 -0.008115 0.030039 0.000000 0.000000 0.000000
# 4 0.000000 0.000000 0.000000 0.022200 0.000000 0.000000
# 5 0.000000 0.000000 0.000000 0.000000 0.058164 0.000000
# 6 0.000000 0.000000 0.000000 0.000000 0.000000 0.058626
#
#
# Mechanical properties :
#
#
# Convention : Reuss Voigt Hill
#
# Bulk Modulus (GPa) = 48.37825 55.95329 52.16577
# Shear Modulus (GPa) = 14.68412 20.59091 17.63752
#
# Velocity S-wave (km/s) = 2.96883 3.51559 3.25372
# Velocity P-wave (km/s) = 6.38673 7.07562 6.73998
#
# Compressibility (1/GPa) = 0.02067044
#
# Stress axis : x y z
#
# Youngs Moduli (GPa) = 19.37108 38.48313 33.29044
#
# Poissons Ratio (x) = 0.41849 0.81558
# Poissons Ratio (y) = 0.21065 0.27015
# Poissons Ratio (z) = 0.47457 0.31229
#
# Static dielectric constant tensor:
#      x y z
#    x 1.572650 0.000000 0.000000 
#    y 0.000000 1.560220 0.000000 
#    z 0.000000 0.000000 1.556160 
# 
# From -- ./inp_files/34409.got.cif
#   From: 2010.05.17/outbox.cif.g08.bks.cpg/sg47_18_cif.got.tgz:34409.got - 2010.06.03 20:15:42.
