data_PCOD9384837
_publ_section_title
;
Structure prediction by ZEFSAII (Michael W. Deem and Ramdas Pophale) SiO2 
 PCOD9384837
Probable space group: P M M M
;
_chemical_formula_sum "Si O2"
_cell_formula_units_Z 64
_cell_length_a 14.730022
_cell_length_b 26.069053
_cell_length_c 9.104645
_cell_angle_alpha 90.000000
_cell_angle_beta 90.000000
_cell_angle_gamma 90.000000
_cell_volume 3496.162960
_symmetry_space_group_name_H-M "P M M M"
_symmetry_group_IT_number 47
_symmetry_cell_setting 'orthorhombic'
loop_
_space_group_symop_operation_xyz
x,y,z
-x,-y,z
x,-y,-z
-x,y,-z
-x,-y,-z
x,y,-z
-x,y,z
x,-y,z
loop_
_atom_site_type_symbol
_atom_site_label
_atom_site_fract_x
_atom_site_fract_y
_atom_site_fract_z
Si Si1 0.107514 0.559759 0.823395
Si Si2 0.399109 0.937803 0.330680
Si Si3 0.200902 0.342873 0.322960
Si Si4 0.608848 0.556624 0.162642
Si Si5 0.216016 0.939657 0.174249
Si Si6 0.398681 0.342915 0.673269
Si Si7 0.891202 0.250692 0.166984
Si Si8 0.109305 0.148059 0.330755
O O1 0.126919 0.500000 0.784268
O O2 0.169696 0.602594 0.745910
O O3 0.000000 0.569016 0.790472
O O4 0.117944 0.564244 0.000000
O O5 0.382195 0.922328 0.500000
O O6 0.500000 0.919921 0.287403
O O7 0.316605 0.923276 0.226696
O O8 0.401766 0.000000 0.329808
O O9 0.199830 0.346881 0.500000
O O10 0.301473 0.322112 0.274984
O O11 0.133746 0.299606 0.263851
O O12 0.500000 0.552009 0.150587
O O13 0.646375 0.500000 0.190589
O O14 0.619434 0.597298 0.290264
O O15 0.641299 0.574027 0.000000
O O16 0.146375 0.903355 0.257396
O O17 0.204113 0.000000 0.211544
O O18 0.206856 0.934382 0.000000
O O19 0.404020 0.334196 0.500000
O O20 0.500000 0.329989 0.734960
O O21 0.858476 0.197997 0.241395
O O22 0.000000 0.247355 0.160671
O O23 0.857382 0.256324 0.000000
O O24 0.138538 0.151459 0.500000
O O25 0.000000 0.147534 0.327660
#
# Coordination Sequence:
#
# PCOD9384837 Si02
#       8
#     8   8   8   8   8   8   8   8
#     4   9  19  36  55  75 103 138 171 205 253 314
#     4   8  14  26  45  69  99 138 184 231 275 317
#     4  11  22  34  53  80 105 132 170 214 257 304
#     4   8  14  25  41  61  85 115 154 199 242 282
#     4  10  20  32  49  77 113 151 187 223 265 315
#     4   9  19  34  48  65  94 131 167 202 243 293
#     4  10  21  38  60  83 106 132 164 207 261 318
#     4  10  21  37  57  80 107 140 178 221 266 311
#
# _framework density 18.305782000000001
#
# number of rings (size 3 to 8) (size 9 to 14) (size 15 to 20)
#    0.000    2.625    0.000    3.000    0.000    6.500 
#    0.000    6.875    0.000    0.750    0.000    1.750 
#    0.000    0.000    0.000    0.000    0.000    0.000 
#
# Total GULP energy -356329.523621 kJ/mol
# GULP energy per Si atom -5567.648807 kJ/mol
# Density = 1.826412 g / cm^3
# Si number density = 18.305782 Si / 1000 Ang^3
#
#
#
# Elastic Constant Matrix: (Units=GPa)
#
#
# Indices 1 2 3 4 5 6 
#
# 1 58.8657 21.1813 27.5032 0.0000 0.0000 0.0000
# 2 21.1813 61.8652 33.1481 0.0000 0.0000 0.0000
# 3 27.5032 33.1481 52.1192 0.0000 0.0000 0.0000
# 4 0.0000 0.0000 0.0000 23.0166 0.0000 0.0000
# 5 0.0000 0.0000 0.0000 0.0000 19.8860 0.0000
# 6 0.0000 0.0000 0.0000 0.0000 0.0000 -8.3597
#
#
#
# Elastic Compliance Matrix: (Units=1/GPa)
#
#
# Indices 1 2 3 4 5 6 
#
# 1 0.022718 -0.002055 -0.010681 0.000000 0.000000 0.000000
# 2 -0.002055 0.024706 -0.014629 0.000000 0.000000 0.000000
# 3 -0.010681 -0.014629 0.034127 0.000000 0.000000 0.000000
# 4 0.000000 0.000000 0.000000 0.043447 0.000000 0.000000
# 5 0.000000 0.000000 0.000000 0.000000 0.050287 0.000000
# 6 0.000000 0.000000 0.000000 0.000000 0.000000 -0.119622
#
#
# Mechanical properties :
#
#
# Convention : Reuss Voigt Hill
#
# Bulk Modulus (GPa) = 37.28396 37.39058 37.33727
# Shear Modulus (GPa) = 41.89970 12.97642 27.43806
#
# Velocity S-wave (km/s) = 4.78941 2.66535 3.87573
# Velocity P-wave (km/s) = 7.14116 5.47193 6.36153
#
# Compressibility (1/GPa) = 0.02682118
#
# Stress axis : x y z
#
# Youngs Moduli (GPa) = 44.01860 40.47592 29.30221
#
# Poissons Ratio (x) = 0.08318 0.31298
# Poissons Ratio (y) = 0.09046 0.42865
# Poissons Ratio (z) = 0.47017 0.59211
#
# Static dielectric constant tensor:
#      x y z
#    x 1.694840 0.000000 0.000000 
#    y 0.000000 1.610540 0.000000 
#    z 0.000000 0.000000 1.628900 
# 
# From -- ./inp_files/7925.got.cif
#   From: 2010.05.17/outbox.cif.g08.bks.cpg/sg47_4_cif.got.tgz:7925.got - 2010.06.03 20:15:42.
