data_PCOD9384346
_publ_section_title
;
Structure prediction by ZEFSAII (Michael W. Deem and Ramdas Pophale) SiO2 
 PCOD9384346
Probable space group: P M M M
;
_chemical_formula_sum "Si O2"
_cell_formula_units_Z 52
_cell_length_a 9.191925
_cell_length_b 20.014748
_cell_length_c 23.865736
_cell_angle_alpha 90.000000
_cell_angle_beta 90.000000
_cell_angle_gamma 90.000000
_cell_volume 4390.676407
_symmetry_space_group_name_H-M "P M M M"
_symmetry_group_IT_number 47
_symmetry_cell_setting 'orthorhombic'
loop_
_space_group_symop_operation_xyz
x,y,z
-x,-y,z
x,-y,-z
-x,y,-z
-x,-y,-z
x,y,-z
-x,y,z
x,-y,z
loop_
_atom_site_type_symbol
_atom_site_label
_atom_site_fract_x
_atom_site_fract_y
_atom_site_fract_z
Si Si1 0.826261 0.207291 0.565572
Si Si2 0.330299 0.418798 0.937569
Si Si3 0.671360 0.926702 0.432174
Si Si4 0.175105 0.353151 0.393262
Si Si5 0.328021 0.580301 0.712323
Si Si6 0.166723 0.581260 0.173526
Si Si7 0.671369 0.419838 0.500000
O O1 0.783584 0.217525 0.500000
O O2 0.753070 0.139527 0.587306
O O3 0.790605 0.274612 0.598840
O O4 0.000000 0.198869 0.566392
O O5 0.500000 0.400853 0.930093
O O6 0.324961 0.500000 0.937443
O O7 0.235321 0.395500 0.885205
O O8 0.283000 0.397292 0.000000
O O9 0.685840 0.926999 0.500000
O O10 0.500000 0.921764 0.419779
O O11 0.723857 0.000000 0.412578
O O12 0.240992 0.382921 0.336620
O O13 0.248836 0.391029 0.445409
O O14 0.000000 0.361121 0.395210
O O15 0.500000 0.594239 0.709053
O O16 0.309291 0.500000 0.705842
O O17 0.263540 0.599571 0.772883
O O18 0.166543 0.500000 0.171862
O O19 0.000000 0.603006 0.180113
O O20 0.680548 0.500000 0.500000
O O21 0.500000 0.401494 0.500000
#
# Coordination Sequence:
#
# PCOD9384346 Si02
#       7
#     8   8   8   8   8   8   4
#     4   9  17  29  41  55  74  92 111 134 166 208
#     4   8  13  21  33  49  69  91 111 132 163 203
#     4   8  14  24  38  57  77  94 112 131 153 188
#     4  11  21  33  45  57  72  89 112 144 181 219
#     4  10  20  32  43  54  68  87 115 149 183 222
#     4   9  16  25  37  52  68  87 111 139 173 210
#     4  11  23  35  45  57  70  85 110 143 181 226
#
# _framework density 11.843278
#
# number of rings (size 3 to 8) (size 9 to 14) (size 15 to 20)
#    0.000    2.692    0.769    3.000    0.000    7.077 
#    0.000    3.077    0.000    0.000    0.000    0.000 
#    0.000    0.000    0.000    0.000    0.000    0.000 
#
# Total GULP energy -289564.398296 kJ/mol
# GULP energy per Si atom -5568.546121 kJ/mol
# Density = 1.181632 g / cm^3
# Si number density = 11.843278 Si / 1000 Ang^3
#
#
#
# Elastic Constant Matrix: (Units=GPa)
#
#
# Indices 1 2 3 4 5 6 
#
# 1 65.3855 40.2526 44.6625 0.0000 0.0000 0.0000
# 2 40.2526 58.7355 31.3482 0.0000 0.0000 0.0000
# 3 44.6625 31.3482 82.2039 0.0000 0.0000 0.0000
# 4 0.0000 0.0000 0.0000 -0.0367 0.0000 0.0000
# 5 0.0000 0.0000 0.0000 0.0000 18.7266 0.0000
# 6 0.0000 0.0000 0.0000 0.0000 0.0000 16.5937
#
#
#
# Elastic Compliance Matrix: (Units=1/GPa)
#
#
# Indices 1 2 3 4 5 6 
#
# 1 0.033791 -0.016773 -0.011963 0.000000 0.000000 0.000000
# 2 -0.016773 0.029702 -0.002214 0.000000 0.000000 0.000000
# 3 -0.011963 -0.002214 0.019509 0.000000 0.000000 0.000000
# 4 0.000000 0.000000 0.000000-27.229282 0.000000 0.000000
# 5 0.000000 0.000000 0.000000 0.000000 0.053400 0.000000
# 6 0.000000 0.000000 0.000000 0.000000 0.000000 0.060264
#
#
# Mechanical properties :
#
#
# Convention : Reuss Voigt Hill
#
# Bulk Modulus (GPa) = 47.38769 48.76127 48.07448
# Shear Modulus (GPa) = -0.18543 13.06083 6.43770
#
# Velocity S-wave (km/s) = -0.39612 3.32445 2.33400
# Velocity P-wave (km/s) = 6.31585 7.48315 6.92414
#
# Compressibility (1/GPa) = 0.02110253
#
# Stress axis : x y z
#
# Youngs Moduli (GPa) = 29.59372 33.66803 51.25937
#
# Poissons Ratio (x) = 0.56471 0.61321
# Poissons Ratio (y) = 0.49637 0.11348
# Poissons Ratio (z) = 0.35402 0.07453
#
# Static dielectric constant tensor:
#      x y z
#    x 1.396200 0.000000 0.000000 
#    y 0.000000 1.371530 0.000000 
#    z 0.000000 0.000000 1.375640 
# 
# From -- ./inp_files/10089.got.cif
#   From: 2010.05.17/outbox.cif.g08.bks.cpg/sg47_6_cif.got.tgz:10089.got - 2010.06.03 20:15:42.
