data_PCOD9384961
_publ_section_title
;
Structure prediction by ZEFSAII (Michael W. Deem and Ramdas Pophale) SiO2 
 PCOD9384961
Probable space group: P M M M
;
_chemical_formula_sum "Si O2"
_cell_formula_units_Z 52
_cell_length_a 11.882894
_cell_length_b 31.872498
_cell_length_c 9.051662
_cell_angle_alpha 90.000000
_cell_angle_beta 90.000000
_cell_angle_gamma 90.000000
_cell_volume 3428.203975
_symmetry_space_group_name_H-M "P M M M"
_symmetry_group_IT_number 47
_symmetry_cell_setting 'orthorhombic'
loop_
_space_group_symop_operation_xyz
x,y,z
-x,-y,z
x,-y,-z
-x,y,-z
-x,-y,-z
x,y,-z
-x,y,z
x,-y,z
loop_
_atom_site_type_symbol
_atom_site_label
_atom_site_fract_x
_atom_site_fract_y
_atom_site_fract_z
Si Si1 0.500000 0.550230 0.322280
Si Si2 0.136534 0.256077 0.830815
Si Si3 0.862829 0.000000 0.670498
Si Si4 0.137240 0.171119 0.670581
Si Si5 0.270637 0.418558 0.178488
Si Si6 0.866467 0.343342 0.676566
Si Si7 0.873436 0.500000 0.178850
Si Si8 0.137149 0.914475 0.170470
O O1 0.500000 0.500000 0.288055
O O2 0.500000 0.554521 0.500000
O O3 0.609288 0.571809 0.251212
O O4 0.174920 0.212543 0.757859
O O5 0.164420 0.297051 0.735501
O O6 0.000000 0.254282 0.833612
O O7 0.174982 0.260155 0.000000
O O8 0.826269 0.042581 0.751212
O O9 0.828526 0.000000 0.500000
O O10 0.000000 0.000000 0.673497
O O11 0.171467 0.172877 0.500000
O O12 0.173414 0.127701 0.746039
O O13 0.000000 0.171228 0.673266
O O14 0.209628 0.377541 0.241785
O O15 0.192956 0.458319 0.220621
O O16 0.279508 0.416509 0.000000
O O17 0.852844 0.345748 0.500000
O O18 0.000000 0.350237 0.709781
O O19 0.000000 0.500000 0.237045
O O20 0.878450 0.500000 0.000000
O O21 0.000000 0.914541 0.173234
O O22 0.171606 0.913639 0.000000
#
# Coordination Sequence:
#
# PCOD9384961 Si02
#       8
#     4   8   4   8   8   8   4   8
#     4  11  23  39  57  75  99 125 153 187 225 262
#     4   9  16  26  40  57  77 103 134 166 202 248
#     4   9  15  21  27  35  49  71 101 141 191 242
#     4   9  15  22  32  46  64  87 116 152 195 243
#     4  11  21  35  55  75  97 123 156 189 219 258
#     4  10  20  33  48  69  97 124 148 178 221 269
#     4   9  18  31  49  74 100 123 148 181 218 255
#     4   9  15  21  28  38  53  75 106 145 189 239
#
# _framework density 15.168291999999999
#
# number of rings (size 3 to 8) (size 9 to 14) (size 15 to 20)
#    0.000    2.385    0.769    3.231    0.000    8.308 
#    0.000    0.000    0.000    1.846    0.000    0.000 
#    0.000    0.000    0.000    0.000    0.000    0.000 
#
# Total GULP energy -289830.037327 kJ/mol
# GULP energy per Si atom -5573.654564 kJ/mol
# Density = 1.513377 g / cm^3
# Si number density = 15.168292 Si / 1000 Ang^3
#
#
#
# Elastic Constant Matrix: (Units=GPa)
#
#
# Indices 1 2 3 4 5 6 
#
# 1 54.6771 41.1878 32.8571 0.0000 0.0000 0.0000
# 2 41.1878 154.5185 72.5921 0.0000 0.0000 0.0000
# 3 32.8571 72.5921 112.6501 0.0000 0.0000 0.0000
# 4 0.0000 0.0000 0.0000 31.2521 0.0000 0.0000
# 5 0.0000 0.0000 0.0000 0.0000 11.9105 0.0000
# 6 0.0000 0.0000 0.0000 0.0000 0.0000 -0.8727
#
#
#
# Elastic Compliance Matrix: (Units=1/GPa)
#
#
# Indices 1 2 3 4 5 6 
#
# 1 0.024169 -0.004490 -0.004156 0.000000 0.000000 0.000000
# 2 -0.004490 0.010116 -0.005209 0.000000 0.000000 0.000000
# 3 -0.004156 -0.005209 0.013446 0.000000 0.000000 0.000000
# 4 0.000000 0.000000 0.000000 0.031998 0.000000 0.000000
# 5 0.000000 0.000000 0.000000 0.000000 0.083960 0.000000
# 6 0.000000 0.000000 0.000000 0.000000 0.000000 -1.145909
#
#
# Mechanical properties :
#
#
# Convention : Reuss Voigt Hill
#
# Bulk Modulus (GPa) = 49.94863 68.34663 59.14763
# Shear Modulus (GPa) = -5.27516 20.13856 7.43170
#
# Velocity S-wave (km/s) = -1.86690 3.64768 2.21588
# Velocity P-wave (km/s) = 5.32485 7.93079 6.75468
#
# Compressibility (1/GPa) = 0.02002057
#
# Stress axis : x y z
#
# Youngs Moduli (GPa) = 41.37546 98.85649 74.37153
#
# Poissons Ratio (x) = 0.44385 0.30910
# Poissons Ratio (y) = 0.18577 0.38740
# Poissons Ratio (z) = 0.17196 0.51495
#
# Static dielectric constant tensor:
#      x y z
#    x 1.470500 0.000000 0.000000 
#    y 0.000000 1.501360 0.000000 
#    z 0.000000 0.000000 1.507200 
# 
# From -- ./inp_files/4624.got.cif
#   From: 2010.05.17/outbox.cif.g08.bks.cpg/sg47_3_cif.got.tgz:4624.got - 2010.06.03 20:15:42.
