data_PCOD9384426
_publ_section_title
;
Structure prediction by ZEFSAII (Michael W. Deem and Ramdas Pophale) SiO2 
 PCOD9384426
Probable space group: P M M M
;
_chemical_formula_sum "Si O2"
_cell_formula_units_Z 56
_cell_length_a 21.017125
_cell_length_b 15.871772
_cell_length_c 8.495409
_cell_angle_alpha 90.000000
_cell_angle_beta 90.000000
_cell_angle_gamma 90.000000
_cell_volume 2833.890176
_symmetry_space_group_name_H-M "P M M M"
_symmetry_group_IT_number 47
_symmetry_cell_setting 'orthorhombic'
loop_
_space_group_symop_operation_xyz
x,y,z
-x,-y,z
x,-y,-z
-x,y,-z
-x,-y,-z
x,y,-z
-x,y,z
x,-y,z
loop_
_atom_site_type_symbol
_atom_site_label
_atom_site_fract_x
_atom_site_fract_y
_atom_site_fract_z
Si Si1 0.828500 0.403782 0.676904
Si Si2 0.930003 0.881779 0.683196
Si Si3 0.313300 0.593585 0.811556
Si Si4 0.068716 0.293932 0.176052
Si Si5 0.213852 0.093288 0.691999
Si Si6 0.574217 0.097727 0.188830
Si Si7 0.321550 0.776578 0.313813
O O1 0.830926 0.368039 0.500000
O O2 0.850377 0.500000 0.670838
O O3 0.756975 0.404269 0.737782
O O4 0.873245 0.353705 0.792299
O O5 0.930302 0.905927 0.500000
O O6 0.929645 0.781430 0.701244
O O7 0.860072 0.905587 0.747060
O O8 0.000000 0.907763 0.749565
O O9 0.340818 0.500000 0.765537
O O10 0.338517 0.685146 0.758559
O O11 0.310529 0.593872 0.000000
O O12 0.000000 0.337623 0.190102
O O13 0.072319 0.257333 0.000000
O O14 0.212617 0.097535 0.500000
O O15 0.257591 0.172578 0.744327
O O16 0.240312 0.000000 0.734221
O O17 0.500000 0.115201 0.222909
O O18 0.621428 0.159505 0.277206
O O19 0.586524 0.000000 0.229356
O O20 0.583016 0.106640 0.000000
O O21 0.313591 0.764234 0.500000
#
# Coordination Sequence:
#
# PCOD9384426 Si02
#       7
#     8   8   8   8   8   8   8
#     4  10  20  33  49  69  94 124 161 211 272 333
#     4   9  17  30  49  69  90 125 174 223 268 315
#     4  10  21  37  57  80 107 142 184 228 274 327
#     4  10  20  32  46  64  88 121 162 210 265 328
#     4   9  18  31  47  73 108 140 174 220 272 324
#     4   9  19  37  60  86 119 159 199 237 278 328
#     4  11  21  33  55  85 117 152 187 230 284 337
#
# _framework density 19.760822000000001
#
# number of rings (size 3 to 8) (size 9 to 14) (size 15 to 20)
#    0.000    2.286    0.000    3.429    0.000    5.429 
#    0.000    4.286    0.000    2.571    0.000    5.000 
#    0.000    0.000    0.000    0.000    0.000    0.000 
#
# Total GULP energy -311913.245990 kJ/mol
# GULP energy per Si atom -5569.879393 kJ/mol
# Density = 1.971585 g / cm^3
# Si number density = 19.760822 Si / 1000 Ang^3
#
#
#
# Elastic Constant Matrix: (Units=GPa)
#
#
# Indices 1 2 3 4 5 6 
#
# 1 56.0881 35.0445 10.6598 0.0000 0.0000 0.0000
# 2 35.0445 100.2264 24.3162 0.0000 0.0000 0.0000
# 3 10.6598 24.3162 36.8054 0.0000 0.0000 0.0000
# 4 0.0000 0.0000 0.0000 9.8218 0.0000 0.0000
# 5 0.0000 0.0000 0.0000 0.0000 20.6169 0.0000
# 6 0.0000 0.0000 0.0000 0.0000 0.0000 8.6657
#
#
#
# Elastic Compliance Matrix: (Units=1/GPa)
#
#
# Indices 1 2 3 4 5 6 
#
# 1 0.022892 -0.007616 -0.001598 0.000000 0.000000 0.000000
# 2 -0.007616 0.014416 -0.007318 0.000000 0.000000 0.000000
# 3 -0.001598 -0.007318 0.032468 0.000000 0.000000 0.000000
# 4 0.000000 0.000000 0.000000 0.101814 0.000000 0.000000
# 5 0.000000 0.000000 0.000000 0.000000 0.048504 0.000000
# 6 0.000000 0.000000 0.000000 0.000000 0.000000 0.115397
#
#
# Mechanical properties :
#
#
# Convention : Reuss Voigt Hill
#
# Bulk Modulus (GPa) = 27.24069 37.01787 32.12928
# Shear Modulus (GPa) = 13.13051 16.02752 14.57902
#
# Velocity S-wave (km/s) = 2.58053 2.85103 2.71915
# Velocity P-wave (km/s) = 4.76382 5.44164 5.11397
#
# Compressibility (1/GPa) = 0.03670979
#
# Stress axis : x y z
#
# Youngs Moduli (GPa) = 43.68403 69.36713 30.79985
#
# Poissons Ratio (x) = 0.52833 0.04922
# Poissons Ratio (y) = 0.33272 0.22540
# Poissons Ratio (z) = 0.06981 0.50765
#
# Static dielectric constant tensor:
#      x y z
#    x 1.697900 0.000000 0.000000 
#    y 0.000000 1.740880 0.000000 
#    z 0.000000 0.000000 1.709500 
# 
# From -- ./inp_files/7348.got.cif
#   From: 2010.05.17/outbox.cif.g08.bks.cpg/sg47_4_cif.got.tgz:7348.got - 2010.06.03 20:15:42.
