data_PCOD9384206
_publ_section_title
;
Structure prediction by ZEFSAII (Michael W. Deem and Ramdas Pophale) SiO2 
 PCOD9384206
Probable space group: P M M M
;
_chemical_formula_sum "Si O2"
_cell_formula_units_Z 64
_cell_length_a 19.358935
_cell_length_b 7.418206
_cell_length_c 21.659973
_cell_angle_alpha 90.000000
_cell_angle_beta 90.000000
_cell_angle_gamma 90.000000
_cell_volume 3110.557700
_symmetry_space_group_name_H-M "P M M M"
_symmetry_group_IT_number 47
_symmetry_cell_setting 'orthorhombic'
loop_
_space_group_symop_operation_xyz
x,y,z
-x,-y,z
x,-y,-z
-x,y,-z
-x,-y,-z
x,y,-z
-x,y,z
x,-y,z
loop_
_atom_site_type_symbol
_atom_site_label
_atom_site_fract_x
_atom_site_fract_y
_atom_site_fract_z
Si Si1 0.827582 0.712371 0.186803
Si Si2 0.082614 0.282890 0.433829
Si Si3 0.420359 0.217492 0.298615
Si Si4 0.579146 0.280085 0.069510
Si Si5 0.416869 0.784198 0.433548
Si Si6 0.921418 0.782807 0.930041
Si Si7 0.080107 0.720667 0.299267
Si Si8 0.326879 0.286617 0.180293
O O1 0.820822 0.500000 0.200032
O O2 0.867680 0.729049 0.122236
O O3 0.874368 0.785645 0.242367
O O4 0.750366 0.788388 0.184770
O O5 0.109970 0.215044 0.500000
O O6 0.090741 0.500000 0.434545
O O7 0.107461 0.220415 0.366780
O O8 0.000000 0.248655 0.433478
O O9 0.500000 0.278605 0.288589
O O10 0.394340 0.282492 0.366116
O O11 0.370690 0.266231 0.242692
O O12 0.422912 0.000000 0.301525
O O13 0.500000 0.224676 0.081121
O O14 0.579094 0.500000 0.070400
O O15 0.629510 0.213643 0.122694
O O16 0.598674 0.225816 0.000000
O O17 0.390989 0.713515 0.500000
O O18 0.500000 0.758573 0.433249
O O19 0.405096 0.000000 0.434344
O O20 0.000000 0.722388 0.915420
O O21 0.922587 0.000000 0.930973
O O22 0.904634 0.722662 0.000000
O O23 0.079640 0.500000 0.299479
O O24 0.000000 0.774983 0.292309
O O25 0.319908 0.500000 0.168593
#
# Coordination Sequence:
#
# PCOD9384206 Si02
#       8
#     8   8   8   8   8   8   8   8
#     4  10  20  31  45  68  96 125 156 188 222 266
#     4   7   9  14  27  49  75 102 134 173 216 257
#     4   9  17  29  47  70  92 117 154 198 239 280
#     4   8  14  26  44  62  78 102 141 183 217 254
#     4   7  10  19  38  64  89 110 140 189 241 279
#     4   9  19  36  55  73  94 121 153 190 234 283
#     4   8  13  22  37  57  82 110 140 179 222 256
#     4  10  20  31  44  65  94 125 152 182 225 276
#
# _framework density 20.575088000000001
#
# number of rings (size 3 to 8) (size 9 to 14) (size 15 to 20)
#    0.000    3.500    0.000    3.750    0.000    2.750 
#    0.000    1.875    0.000    1.500    0.000    5.250 
#    0.000    0.500    0.000    4.625    0.000    3.750 
#
# Total GULP energy -356593.216065 kJ/mol
# GULP energy per Si atom -5571.769001 kJ/mol
# Density = 2.052826 g / cm^3
# Si number density = 20.575088 Si / 1000 Ang^3
#
#
#
# Elastic Constant Matrix: (Units=GPa)
#
#
# Indices 1 2 3 4 5 6 
#
# 1 107.1678 2.2894 116.8089 0.0000 0.0000 0.0000
# 2 2.2894 62.3186 -3.0237 0.0000 0.0000 0.0000
# 3 116.8089 -3.0237 219.7749 0.0000 0.0000 0.0000
# 4 0.0000 0.0000 0.0000 115.4752 0.0000 0.0000
# 5 0.0000 0.0000 0.0000 0.0000 -6.8210 0.0000
# 6 0.0000 0.0000 0.0000 0.0000 0.0000 -1.5135
#
#
#
# Elastic Compliance Matrix: (Units=1/GPa)
#
#
# Indices 1 2 3 4 5 6 
#
# 1 0.022301 -0.001395 -0.011872 0.000000 0.000000 0.000000
# 2 -0.001395 0.016145 0.000964 0.000000 0.000000 0.000000
# 3 -0.011872 0.000964 0.010873 0.000000 0.000000 0.000000
# 4 0.000000 0.000000 0.000000 0.008660 0.000000 0.000000
# 5 0.000000 0.000000 0.000000 0.000000 -0.146607 0.000000
# 6 0.000000 0.000000 0.000000 0.000000 0.000000 -0.660727
#
#
# Mechanical properties :
#
#
# Convention : Reuss Voigt Hill
#
# Bulk Modulus (GPa) = 40.46679 69.04562 54.75620
# Shear Modulus (GPa) = -6.97826 39.64060 16.33117
#
# Velocity S-wave (km/s) = -1.84363 4.39410 2.82039
# Velocity P-wave (km/s) = 3.89597 7.70551 6.10547
#
# Compressibility (1/GPa) = 0.02471162
#
# Stress axis : x y z
#
# Youngs Moduli (GPa) = 44.84087 61.94028 91.96841
#
# Poissons Ratio (x) = 0.08643 1.09186
# Poissons Ratio (y) = 0.06257 -0.08863
# Poissons Ratio (z) = 0.53235 -0.05969
#
# Static dielectric constant tensor:
#      x y z
#    x 1.671750 0.000000 0.000000 
#    y 0.000000 1.799020 0.000000 
#    z 0.000000 0.000000 1.766940 
# 
# From -- ./inp_files/31531.got.cif
#   From: 2010.05.17/outbox.cif.g08.bks.cpg/sg47_16_cif.got.tgz:31531.got - 2010.06.03 20:15:42.
