data_PCOD9384836
_publ_section_title
;
Structure prediction by ZEFSAII (Michael W. Deem and Ramdas Pophale) SiO2 
 PCOD9384836
Probable space group: P M M M
;
_chemical_formula_sum "Si O2"
_cell_formula_units_Z 64
_cell_length_a 8.897570
_cell_length_b 25.519229
_cell_length_c 15.665592
_cell_angle_alpha 90.000000
_cell_angle_beta 90.000000
_cell_angle_gamma 90.000000
_cell_volume 3557.015634
_symmetry_space_group_name_H-M "P M M M"
_symmetry_group_IT_number 47
_symmetry_cell_setting 'orthorhombic'
loop_
_space_group_symop_operation_xyz
x,y,z
-x,-y,z
x,-y,-z
-x,y,-z
-x,-y,-z
x,y,-z
-x,y,z
x,-y,z
loop_
_atom_site_type_symbol
_atom_site_label
_atom_site_fract_x
_atom_site_fract_y
_atom_site_fract_z
Si Si1 0.319342 0.643705 0.726475
Si Si2 0.673786 0.758300 0.328886
Si Si3 0.818784 0.941145 0.733519
Si Si4 0.180767 0.857008 0.594686
Si Si5 0.318912 0.099200 0.906103
Si Si6 0.674350 0.218262 0.129625
Si Si7 0.180475 0.561792 0.402396
Si Si8 0.179310 0.671896 0.094790
O O1 0.500000 0.644161 0.731441
O O2 0.272436 0.698482 0.680789
O O3 0.260499 0.596538 0.668727
O O4 0.255477 0.645076 0.822944
O O5 0.500000 0.757774 0.356815
O O6 0.766324 0.798237 0.385683
O O7 0.679193 0.780462 0.232299
O O8 0.764080 0.897174 0.667047
O O9 0.754983 0.929758 0.827066
O O10 0.000000 0.938065 0.737041
O O11 0.777963 0.000000 0.706219
O O12 0.230418 0.872829 0.500000
O O13 0.000000 0.858177 0.596828
O O14 0.500000 0.096465 0.898154
O O15 0.278416 0.160962 0.900642
O O16 0.276872 0.079083 0.000000
O O17 0.500000 0.226968 0.104429
O O18 0.771823 0.267082 0.098856
O O19 0.223667 0.576396 0.500000
O O20 0.213179 0.500000 0.391701
O O21 0.000000 0.568184 0.395505
O O22 0.000000 0.667834 0.103102
O O23 0.222684 0.651926 0.000000
#
# Coordination Sequence:
#
# PCOD9384836 Si02
#       8
#     8   8   8   8   8   8   8   8
#     4  10  21  35  54  82 115 152 190 228 272 323
#     4   9  18  33  52  76 107 140 172 209 258 312
#     4  10  22  39  56  74  99 131 169 218 269 317
#     4  10  21  36  55  78 101 130 170 214 264 321
#     4  10  20  34  54  78 103 133 169 209 257 317
#     4   9  17  31  51  74 103 138 173 212 260 315
#     4   9  19  37  60  85 114 149 189 234 282 328
#     4  10  20  32  49  77 112 149 188 228 271 321
#
# _framework density 17.992611
#
# number of rings (size 3 to 8) (size 9 to 14) (size 15 to 20)
#    0.000    2.375    1.250    2.250    0.000    6.750 
#    0.000    5.625    0.000    0.375    0.000    4.375 
#    0.000    0.000    0.000    0.000    0.000    0.000 
#
# Total GULP energy -356980.707615 kJ/mol
# GULP energy per Si atom -5577.823556 kJ/mol
# Density = 1.795166 g / cm^3
# Si number density = 17.992611 Si / 1000 Ang^3
#
#
#
# Elastic Constant Matrix: (Units=GPa)
#
#
# Indices 1 2 3 4 5 6 
#
# 1 26.1428 29.0577 36.8404 0.0000 0.0000 0.0000
# 2 29.0577 75.8040 59.9494 0.0000 0.0000 0.0000
# 3 36.8404 59.9494 120.1650 0.0000 0.0000 0.0000
# 4 0.0000 0.0000 0.0000 -4.6280 0.0000 0.0000
# 5 0.0000 0.0000 0.0000 0.0000 0.6498 0.0000
# 6 0.0000 0.0000 0.0000 0.0000 0.0000 22.4017
#
#
#
# Elastic Compliance Matrix: (Units=1/GPa)
#
#
# Indices 1 2 3 4 5 6 
#
# 1 0.080882 -0.018818 -0.015409 0.000000 0.000000 0.000000
# 2 -0.018818 0.026167 -0.007285 0.000000 0.000000 0.000000
# 3 -0.015409 -0.007285 0.016680 0.000000 0.000000 0.000000
# 4 0.000000 0.000000 0.000000 -0.216076 0.000000 0.000000
# 5 0.000000 0.000000 0.000000 0.000000 1.538987 0.000000
# 6 0.000000 0.000000 0.000000 0.000000 0.000000 0.044639
#
#
# Mechanical properties :
#
#
# Convention : Reuss Voigt Hill
#
# Bulk Modulus (GPa) = 24.56698 52.64520 38.60609
# Shear Modulus (GPa) = 3.14887 10.10231 6.62559
#
# Velocity S-wave (km/s) = 1.32434 2.37211 1.92104
# Velocity P-wave (km/s) = 4.00276 6.06839 5.14040
#
# Compressibility (1/GPa) = 0.04070505
#
# Stress axis : x y z
#
# Youngs Moduli (GPa) = 12.36370 38.21617 59.95080
#
# Poissons Ratio (x) = 0.71917 0.92376
# Poissons Ratio (y) = 0.23267 0.43675
# Poissons Ratio (z) = 0.19051 0.27841
#
# Static dielectric constant tensor:
#      x y z
#    x 1.608090 0.000000 0.000000 
#    y 0.000000 1.599500 0.000000 
#    z 0.000000 0.000000 1.629590 
# 
# From -- ./inp_files/21961.got.cif
#   From: 2010.05.17/outbox.cif.g08.bks.cpg/sg47_11_cif.got.tgz:21961.got - 2010.06.03 20:15:42.
