data_PCOD9384906
_publ_section_title
;
Structure prediction by ZEFSAII (Michael W. Deem and Ramdas Pophale) SiO2 
 PCOD9384906
Probable space group: P M M M
;
_chemical_formula_sum "Si O2"
_cell_formula_units_Z 40
_cell_length_a 20.598410
_cell_length_b 15.936389
_cell_length_c 8.609441
_cell_angle_alpha 90.000000
_cell_angle_beta 90.000000
_cell_angle_gamma 90.000000
_cell_volume 2826.171904
_symmetry_space_group_name_H-M "P M M M"
_symmetry_group_IT_number 47
_symmetry_cell_setting 'orthorhombic'
loop_
_space_group_symop_operation_xyz
x,y,z
-x,-y,z
x,-y,-z
-x,y,-z
-x,-y,-z
x,y,-z
-x,y,z
x,-y,z
loop_
_atom_site_type_symbol
_atom_site_label
_atom_site_fract_x
_atom_site_fract_y
_atom_site_fract_z
Si Si1 0.788879 0.597936 0.310436
Si Si2 0.578705 0.000000 0.679270
Si Si3 0.349049 0.337906 0.686483
Si Si4 0.930096 0.398407 0.684621
Si Si5 0.575666 0.821409 0.814309
Si Si6 0.424112 0.500000 0.813546
O O1 0.790974 0.598469 0.500000
O O2 0.780173 0.500000 0.265383
O O3 0.725755 0.649543 0.262219
O O4 0.859635 0.629060 0.254115
O O5 0.598569 0.913336 0.759913
O O6 0.500000 0.000000 0.685502
O O7 0.598667 0.000000 0.500000
O O8 0.350550 0.339603 0.500000
O O9 0.381366 0.252804 0.745599
O O10 0.389307 0.417357 0.748679
O O11 0.931093 0.379482 0.500000
O O12 0.929021 0.500000 0.696615
O O13 0.000000 0.369784 0.750268
O O14 0.500000 0.810664 0.764463
O O15 0.576949 0.817467 0.000000
O O16 0.500000 0.500000 0.769994
O O17 0.419801 0.500000 0.000000
#
# Coordination Sequence:
#
# PCOD9384906 Si02
#       6
#     8   4   8   8   8   4
#     4   8  13  22  34  51  77 105 134 169 206 239
#     4   9  17  31  51  71  85  99 126 165 208 255
#     4  11  20  30  44  61  81 108 140 175 210 245
#     4   7   9  14  27  47  71  99 128 159 198 241
#     4  10  20  33  47  63  84 108 134 168 210 252
#     4  11  23  35  43  53  74 105 142 182 217 247
#
# _framework density 14.153421
#
# number of rings (size 3 to 8) (size 9 to 14) (size 15 to 20)
#    0.000    2.800    1.000    4.200    0.000    5.600 
#    0.000    0.000    0.000    0.000    0.000    0.000 
#    0.000    4.000    0.000    0.900    0.000   21.200 
#
# Total GULP energy -222669.147049 kJ/mol
# GULP energy per Si atom -5566.728676 kJ/mol
# Density = 1.412121 g / cm^3
# Si number density = 14.153421 Si / 1000 Ang^3
#
#
#
# Elastic Constant Matrix: (Units=GPa)
#
#
# Indices 1 2 3 4 5 6 
#
# 1 141.3640 63.5388 27.3837 0.0000 0.0000 0.0000
# 2 63.5388 92.4772 21.8282 0.0000 0.0000 0.0000
# 3 27.3837 21.8282 23.8022 0.0000 0.0000 0.0000
# 4 0.0000 0.0000 0.0000 31.1459 0.0000 0.0000
# 5 0.0000 0.0000 0.0000 0.0000 -1.2691 0.0000
# 6 0.0000 0.0000 0.0000 0.0000 0.0000 1.3950
#
#
#
# Elastic Compliance Matrix: (Units=1/GPa)
#
#
# Indices 1 2 3 4 5 6 
#
# 1 0.011175 -0.005926 -0.007422 0.000000 0.000000 0.000000
# 2 -0.005926 0.016944 -0.008720 0.000000 0.000000 0.000000
# 3 -0.007422 -0.008720 0.058549 0.000000 0.000000 0.000000
# 4 0.000000 0.000000 0.000000 0.032107 0.000000 0.000000
# 5 0.000000 0.000000 0.000000 0.000000 -0.787956 0.000000
# 6 0.000000 0.000000 0.000000 0.000000 0.000000 0.716826
#
#
# Mechanical properties :
#
#
# Convention : Reuss Voigt Hill
#
# Bulk Modulus (GPa) = 23.51258 53.68277 38.59767
# Shear Modulus (GPa) = 47.18744 15.91386 31.55065
#
# Velocity S-wave (km/s) = 5.78034 3.35682 4.72655
# Velocity P-wave (km/s) = 7.82295 7.28257 7.55759
#
# Compressibility (1/GPa) = 0.04253043
#
# Stress axis : x y z
#
# Youngs Moduli (GPa) = 89.48191 59.01876 17.07973
#
# Poissons Ratio (x) = 0.34977 0.12677
# Poissons Ratio (y) = 0.53031 0.14894
# Poissons Ratio (z) = 0.66414 0.51466
#
# Static dielectric constant tensor:
#      x y z
#    x 1.510510 0.000000 0.000000 
#    y 0.000000 1.431950 0.000000 
#    z 0.000000 0.000000 1.478400 
# 
# From -- ./inp_files/10826.got.cif
#   From: 2010.05.17/outbox.cif.g08.bks.cpg/sg47_6_cif.got.tgz:10826.got - 2010.06.03 20:15:42.
