data_PCOD9384153
_publ_section_title
;
Structure prediction by ZEFSAII (Michael W. Deem and Ramdas Pophale) SiO2 
 PCOD9384153
Probable space group: P M M M
;
_chemical_formula_sum "Si O2"
_cell_formula_units_Z 56
_cell_length_a 19.651778
_cell_length_b 19.612993
_cell_length_c 8.112589
_cell_angle_alpha 90.000000
_cell_angle_beta 90.000000
_cell_angle_gamma 90.000000
_cell_volume 3126.836674
_symmetry_space_group_name_H-M "P M M M"
_symmetry_group_IT_number 47
_symmetry_cell_setting 'orthorhombic'
loop_
_space_group_symop_operation_xyz
x,y,z
-x,-y,z
x,-y,-z
-x,y,-z
-x,-y,-z
x,y,-z
-x,y,z
x,-y,z
loop_
_atom_site_type_symbol
_atom_site_label
_atom_site_fract_x
_atom_site_fract_y
_atom_site_fract_z
Si Si1 0.715370 0.576151 0.697042
Si Si2 0.423816 0.355972 0.197005
Si Si3 0.220430 0.283913 0.303236
Si Si4 0.918596 0.426045 0.687262
Si Si5 0.924071 0.278866 0.811275
Si Si6 0.641395 0.216427 0.299681
Si Si7 0.579453 0.924927 0.299159
O O1 0.724553 0.572810 0.500000
O O2 0.727507 0.500000 0.764061
O O3 0.637782 0.599656 0.729990
O O4 0.762779 0.638744 0.758573
O O5 0.500000 0.374007 0.254630
O O6 0.407591 0.277339 0.241392
O O7 0.421596 0.363474 0.000000
O O8 0.225721 0.287764 0.500000
O O9 0.146306 0.253718 0.265257
O O10 0.282902 0.237498 0.244201
O O11 0.893051 0.412331 0.500000
O O12 0.891901 0.500000 0.740944
O O13 0.911790 0.360354 0.798610
O O14 0.000000 0.432664 0.673753
O O15 0.000000 0.265816 0.737518
O O16 0.926609 0.257689 0.000000
O O17 0.639740 0.216809 0.500000
O O18 0.619008 0.141894 0.241661
O O19 0.582173 0.924769 0.500000
O O20 0.500000 0.918548 0.254325
O O21 0.603700 0.000000 0.244614
#
# Coordination Sequence:
#
# PCOD9384153 Si02
#       7
#     8   8   8   8   8   8   8
#     4   9  19  35  51  65  82 108 146 190 232 275
#     4  10  20  31  44  65  91 118 150 188 229 269
#     4   9  18  31  46  64  85 112 146 181 219 264
#     4   8  14  25  40  56  74  98 127 159 201 255
#     4  10  20  31  43  61  83 105 133 173 219 265
#     4   9  17  30  48  68  91 121 156 187 213 252
#     4   8  13  22  41  72 104 128 150 178 211 245
#
# _framework density 17.909473999999999
#
# number of rings (size 3 to 8) (size 9 to 14) (size 15 to 20)
#    0.000    3.000    0.000    3.000    0.000    6.286 
#    0.000    4.286    0.000    0.429    0.000    2.000 
#    0.000    0.571    0.000    7.143    0.000    1.143 
#
# Total GULP energy -311796.400408 kJ/mol
# GULP energy per Si atom -5567.792864 kJ/mol
# Density = 1.786871 g / cm^3
# Si number density = 17.909474 Si / 1000 Ang^3
#
#
#
# Elastic Constant Matrix: (Units=GPa)
#
#
# Indices 1 2 3 4 5 6 
#
# 1 132.3288 35.0056 4.0874 0.0000 0.0000 0.0000
# 2 35.0056 86.5168 4.4191 0.0000 0.0000 0.0000
# 3 4.0874 4.4191 6.7972 0.0000 0.0000 0.0000
# 4 0.0000 0.0000 0.0000 3.2639 0.0000 0.0000
# 5 0.0000 0.0000 0.0000 0.0000 9.6201 0.0000
# 6 0.0000 0.0000 0.0000 0.0000 0.0000 6.9651
#
#
#
# Elastic Compliance Matrix: (Units=1/GPa)
#
#
# Indices 1 2 3 4 5 6 
#
# 1 0.008521 -0.003295 -0.002981 0.000000 0.000000 0.000000
# 2 -0.003295 0.013230 -0.006620 0.000000 0.000000 0.000000
# 3 -0.002981 -0.006620 0.153216 0.000000 0.000000 0.000000
# 4 0.000000 0.000000 0.000000 0.306381 0.000000 0.000000
# 5 0.000000 0.000000 0.000000 0.000000 0.103949 0.000000
# 6 0.000000 0.000000 0.000000 0.000000 0.000000 0.143572
#
#
# Mechanical properties :
#
#
# Convention : Reuss Voigt Hill
#
# Bulk Modulus (GPa) = 6.70360 34.74078 20.72219
# Shear Modulus (GPa) = 6.21592 16.11187 11.16389
#
# Velocity S-wave (km/s) = 1.86501 3.00263 2.49941
# Velocity P-wave (km/s) = 2.89636 5.60903 4.46375
#
# Compressibility (1/GPa) = 0.14917359
#
# Stress axis : x y z
#
# Youngs Moduli (GPa) = 117.36063 75.58642 6.52674
#
# Poissons Ratio (x) = 0.24908 0.01946
# Poissons Ratio (y) = 0.38674 0.04321
# Poissons Ratio (z) = 0.34990 0.50036
#
# Static dielectric constant tensor:
#      x y z
#    x 1.667260 0.000000 0.000000 
#    y 0.000000 1.617650 0.000000 
#    z 0.000000 0.000000 1.646160 
# 
# From -- ./inp_files/11730.got.cif
#   From: 2010.05.17/outbox.cif.g08.bks.cpg/sg47_6_cif.got.tgz:11730.got - 2010.06.03 20:15:42.
