data_PCOD9384747
_publ_section_title
;
Structure prediction by ZEFSAII (Michael W. Deem and Ramdas Pophale) SiO2 
 PCOD9384747
Probable space group: P M M M
;
_chemical_formula_sum "Si O2"
_cell_formula_units_Z 52
_cell_length_a 15.105246
_cell_length_b 9.095310
_cell_length_c 22.999553
_cell_angle_alpha 90.000000
_cell_angle_beta 90.000000
_cell_angle_gamma 90.000000
_cell_volume 3159.837173
_symmetry_space_group_name_H-M "P M M M"
_symmetry_group_IT_number 47
_symmetry_cell_setting 'orthorhombic'
loop_
_space_group_symop_operation_xyz
x,y,z
-x,-y,z
x,-y,-z
-x,y,-z
-x,-y,-z
x,y,-z
-x,y,z
x,-y,z
loop_
_atom_site_type_symbol
_atom_site_label
_atom_site_fract_x
_atom_site_fract_y
_atom_site_fract_z
Si Si1 0.892707 0.330915 0.000000
Si Si2 0.849537 0.169132 0.343078
Si Si3 0.000000 0.821058 0.432907
Si Si4 0.596978 0.676586 0.264742
Si Si5 0.793340 0.323517 0.773069
Si Si6 0.105519 0.175479 0.120338
Si Si7 0.646882 0.832241 0.617791
Si Si8 0.605627 0.334648 0.500000
O O1 0.867190 0.246241 0.941316
O O2 0.861902 0.500000 0.000000
O O3 0.000000 0.333347 0.000000
O O4 0.842724 0.266352 0.285149
O O5 0.751242 0.166122 0.368960
O O6 0.915815 0.221340 0.393468
O O7 0.874074 0.000000 0.327258
O O8 0.000000 0.768523 0.500000
O O9 0.000000 0.000000 0.436108
O O10 0.500000 0.715721 0.239093
O O11 0.599782 0.500000 0.270369
O O12 0.688673 0.718756 0.232596
O O13 0.603048 0.747664 0.328476
O O14 0.799004 0.500000 0.776650
O O15 0.839317 0.248770 0.828046
O O16 0.000000 0.203656 0.128603
O O17 0.117839 0.000000 0.119341
O O18 0.632305 0.750946 0.557624
O O19 0.614992 0.000000 0.615020
O O20 0.642447 0.500000 0.500000
O O21 0.500000 0.343508 0.500000
#
# Coordination Sequence:
#
# PCOD9384747 Si02
#       8
#     4   8   4   8   8   8   8   4
#     4   9  17  31  51  77 108 141 178 215 251 288
#     4   9  19  34  51  71  95 123 160 203 248 299
#     4   9  18  32  53  71  87 120 165 202 241 299
#     4   9  18  34  53  71  96 130 163 198 248 307
#     4  10  20  33  51  76 104 133 169 211 253 295
#     4  10  20  33  51  75 108 146 180 209 245 294
#     4  10  20  32  49  71  93 115 148 197 247 294
#     4  11  23  35  47  64  87 116 148 183 235 307
#
# _framework density 16.456544000000001
#
# number of rings (size 3 to 8) (size 9 to 14) (size 15 to 20)
#    0.000    2.385    0.000    2.308    2.154    5.846 
#    0.000    0.000    0.000    0.462    0.000    0.538 
#    0.000    4.308    0.000    0.000    0.000    0.000 
#
# Total GULP energy -289903.179139 kJ/mol
# GULP energy per Si atom -5575.061137 kJ/mol
# Density = 1.641909 g / cm^3
# Si number density = 16.456544 Si / 1000 Ang^3
#
#
#
# Elastic Constant Matrix: (Units=GPa)
#
#
# Indices 1 2 3 4 5 6 
#
# 1 86.4005 36.3119 64.0478 0.0000 0.0000 0.0000
# 2 36.3119 65.4796 65.0711 0.0000 0.0000 0.0000
# 3 64.0478 65.0711 149.1912 0.0000 0.0000 0.0000
# 4 0.0000 0.0000 0.0000 30.3245 0.0000 0.0000
# 5 0.0000 0.0000 0.0000 0.0000 12.4596 0.0000
# 6 0.0000 0.0000 0.0000 0.0000 0.0000 19.9569
#
#
#
# Elastic Compliance Matrix: (Units=1/GPa)
#
#
# Indices 1 2 3 4 5 6 
#
# 1 0.017540 -0.003961 -0.005802 0.000000 0.000000 0.000000
# 2 -0.003961 0.027850 -0.010447 0.000000 0.000000 0.000000
# 3 -0.005802 -0.010447 0.013750 0.000000 0.000000 0.000000
# 4 0.000000 0.000000 0.000000 0.032977 0.000000 0.000000
# 5 0.000000 0.000000 0.000000 0.000000 0.080259 0.000000
# 6 0.000000 0.000000 0.000000 0.000000 0.000000 0.050108
#
#
# Mechanical properties :
#
#
# Convention : Reuss Voigt Hill
#
# Bulk Modulus (GPa) = 53.41735 70.21477 61.81606
# Shear Modulus (GPa) = 18.57750 21.59091 20.08421
#
# Velocity S-wave (km/s) = 3.36353 3.62608 3.49727
# Velocity P-wave (km/s) = 6.90033 7.76471 7.34524
#
# Compressibility (1/GPa) = 0.01872051
#
# Stress axis : x y z
#
# Youngs Moduli (GPa) = 57.01322 35.90705 72.72633
#
# Poissons Ratio (x) = 0.14221 0.42199
# Poissons Ratio (y) = 0.22580 0.75975
# Poissons Ratio (z) = 0.33081 0.37511
#
# Static dielectric constant tensor:
#      x y z
#    x 1.574480 0.000000 0.000000 
#    y 0.000000 1.563050 0.000000 
#    z 0.000000 0.000000 1.509270 
# 
# From -- ./inp_files/11143.got.cif
#   From: 2010.05.17/outbox.cif.g08.bks.cpg/sg47_6_cif.got.tgz:11143.got - 2010.06.03 20:15:42.
