data_PCOD9384907
_publ_section_title
;
Structure prediction by ZEFSAII (Michael W. Deem and Ramdas Pophale) SiO2 
 PCOD9384907
Probable space group: P M M M
;
_chemical_formula_sum "Si O2"
_cell_formula_units_Z 52
_cell_length_a 13.842168
_cell_length_b 25.607677
_cell_length_c 9.054608
_cell_angle_alpha 90.000000
_cell_angle_beta 90.000000
_cell_angle_gamma 90.000000
_cell_volume 3209.548571
_symmetry_space_group_name_H-M "P M M M"
_symmetry_group_IT_number 47
_symmetry_cell_setting 'orthorhombic'
loop_
_space_group_symop_operation_xyz
x,y,z
-x,-y,z
x,-y,-z
-x,y,-z
-x,-y,-z
x,y,-z
-x,y,z
x,-y,z
loop_
_atom_site_type_symbol
_atom_site_label
_atom_site_fract_x
_atom_site_fract_y
_atom_site_fract_z
Si Si1 0.382497 0.500000 0.831753
Si Si2 0.383122 0.894196 0.831203
Si Si3 0.617921 0.000000 0.329078
Si Si4 0.117281 0.500000 0.667955
Si Si5 0.613560 0.215361 0.677107
Si Si6 0.276242 0.691213 0.824689
Si Si7 0.113133 0.390315 0.823165
Si Si8 0.615058 0.604185 0.333918
O O1 0.500000 0.500000 0.839514
O O2 0.353506 0.550405 0.739857
O O3 0.346257 0.500000 0.000000
O O4 0.500000 0.897502 0.836377
O O5 0.362528 0.842059 0.739080
O O6 0.349662 0.947378 0.753156
O O7 0.348606 0.890210 0.000000
O O8 0.500000 0.000000 0.326869
O O9 0.647111 0.000000 0.500000
O O10 0.153822 0.500000 0.500000
O O11 0.141445 0.445417 0.748597
O O12 0.000000 0.500000 0.664016
O O13 0.617645 0.216380 0.500000
O O14 0.500000 0.227097 0.718321
O O15 0.689516 0.256361 0.743903
O O16 0.178974 0.659430 0.779790
O O17 0.357160 0.649798 0.776576
O O18 0.273333 0.699859 0.000000
O O19 0.000000 0.380800 0.790787
O O20 0.123854 0.396610 0.000000
O O21 0.654242 0.612173 0.500000
O O22 0.500000 0.602193 0.346001
#
# Coordination Sequence:
#
# PCOD9384907 Si02
#       8
#     4   8   4   4   8   8   8   8
#     4   9  17  30  47  64  82 106 138 176 213 249
#     4   9  16  26  41  61  86 118 157 198 233 264
#     4   9  15  23  37  59  87 119 156 195 234 273
#     4   9  17  30  51  76  94 108 132 170 217 269
#     4  10  20  33  47  64  90 124 158 191 228 268
#     4  11  22  33  48  68  87 112 147 183 218 260
#     4   9  19  36  54  70  90 115 141 173 219 274
#     4  10  20  33  47  63  85 112 140 172 212 257
#
# _framework density 16.201654999999999
#
# number of rings (size 3 to 8) (size 9 to 14) (size 15 to 20)
#    0.000    2.385    0.000    3.000    0.000   10.154 
#    0.000    0.769    0.000    0.000    0.000    0.000 
#    0.000    0.000    0.000    0.692    0.000   14.385 
#
# Total GULP energy -289916.252664 kJ/mol
# GULP energy per Si atom -5575.312551 kJ/mol
# Density = 1.616478 g / cm^3
# Si number density = 16.201655 Si / 1000 Ang^3
#
#
#
# Elastic Constant Matrix: (Units=GPa)
#
#
# Indices 1 2 3 4 5 6 
#
# 1 63.7053 41.7358 35.2569 0.0000 0.0000 0.0000
# 2 41.7358 144.0173 52.8857 0.0000 0.0000 0.0000
# 3 35.2569 52.8857 74.5259 0.0000 0.0000 0.0000
# 4 0.0000 0.0000 0.0000 25.9752 0.0000 0.0000
# 5 0.0000 0.0000 0.0000 0.0000 12.0624 0.0000
# 6 0.0000 0.0000 0.0000 0.0000 0.0000 -32.6364
#
#
#
# Elastic Compliance Matrix: (Units=1/GPa)
#
#
# Indices 1 2 3 4 5 6 
#
# 1 0.022522 -0.003535 -0.008146 0.000000 0.000000 0.000000
# 2 -0.003535 0.009946 -0.005385 0.000000 0.000000 0.000000
# 3 -0.008146 -0.005385 0.021093 0.000000 0.000000 0.000000
# 4 0.000000 0.000000 0.000000 0.038498 0.000000 0.000000
# 5 0.000000 0.000000 0.000000 0.000000 0.082902 0.000000
# 6 0.000000 0.000000 0.000000 0.000000 0.000000 -0.030641
#
#
# Mechanical properties :
#
#
# Convention : Reuss Voigt Hill
#
# Bulk Modulus (GPa) = 51.47254 60.22280 55.84767
# Shear Modulus (GPa) = 27.03742 11.23827 19.13785
#
# Velocity S-wave (km/s) = 4.08953 2.63658 3.44063
# Velocity P-wave (km/s) = 7.35785 6.82057 7.09430
#
# Compressibility (1/GPa) = 0.01942783
#
# Stress axis : x y z
#
# Youngs Moduli (GPa) = 44.40174 100.54588 47.40860
#
# Poissons Ratio (x) = 0.35548 0.38618
# Poissons Ratio (y) = 0.15698 0.25530
# Poissons Ratio (z) = 0.36168 0.54146
#
# Static dielectric constant tensor:
#      x y z
#    x 1.567870 0.000000 0.000000 
#    y 0.000000 1.511150 0.000000 
#    z 0.000000 0.000000 1.556500 
# 
# From -- ./inp_files/7723.got.cif
#   From: 2010.05.17/outbox.cif.g08.bks.cpg/sg47_4_cif.got.tgz:7723.got - 2010.06.03 20:15:42.
