data_PCOD9384390
_publ_section_title
;
Structure prediction by ZEFSAII (Michael W. Deem and Ramdas Pophale) SiO2 
 PCOD9384390
Probable space group: P M M M
;
_chemical_formula_sum "Si O2"
_cell_formula_units_Z 64
_cell_length_a 32.022269
_cell_length_b 9.052871
_cell_length_c 14.727770
_cell_angle_alpha 90.000000
_cell_angle_beta 90.000000
_cell_angle_gamma 90.000000
_cell_volume 4269.484356
_symmetry_space_group_name_H-M "P M M M"
_symmetry_group_IT_number 47
_symmetry_cell_setting 'orthorhombic'
loop_
_space_group_symop_operation_xyz
x,y,z
-x,-y,z
x,-y,-z
-x,y,-z
-x,-y,-z
x,y,-z
-x,y,z
x,-y,z
loop_
_atom_site_type_symbol
_atom_site_label
_atom_site_fract_x
_atom_site_fract_y
_atom_site_fract_z
Si Si1 0.869840 0.668926 0.110344
Si Si2 0.321713 0.176581 0.396340
Si Si3 0.546408 0.321890 0.781770
Si Si4 0.046245 0.827125 0.889692
Si Si5 0.291353 0.322630 0.217245
Si Si6 0.216372 0.823787 0.107379
Si Si7 0.421038 0.176739 0.602706
Si Si8 0.626387 0.320193 0.103903
O O1 0.864671 0.500000 0.139821
O O2 0.913777 0.736254 0.142591
O O3 0.829463 0.765213 0.134378
O O4 0.871489 0.669470 0.000000
O O5 0.309999 0.214964 0.500000
O O6 0.297104 0.262345 0.318869
O O7 0.371410 0.207148 0.386819
O O8 0.316365 0.000000 0.385310
O O9 0.500000 0.279684 0.813350
O O10 0.548250 0.500000 0.777997
O O11 0.554695 0.258579 0.681846
O O12 0.583916 0.270936 0.846928
O O13 0.000000 0.776081 0.860093
O O14 0.050759 0.000000 0.866230
O O15 0.046313 0.820018 0.000000
O O16 0.288854 0.500000 0.216928
O O17 0.251706 0.254355 0.166545
O O18 0.333056 0.277020 0.161602
O O19 0.218457 0.000000 0.117282
O O20 0.222490 0.788461 0.000000
O O21 0.433174 0.219609 0.500000
O O22 0.426622 0.000000 0.610683
O O23 0.625795 0.500000 0.102601
O O24 0.629028 0.269402 0.000000
#
# Coordination Sequence:
#
# PCOD9384390 Si02
#       8
#     8   8   8   8   8   8   8   8
#     4   9  16  25  37  54  78 108 145 191 237 275
#     4   9  18  33  52  72  93 116 142 173 210 257
#     4  10  20  33  49  70  93 116 145 179 214 254
#     4   8  13  21  33  49  71 103 144 188 233 279
#     4  11  20  31  50  72  93 115 142 181 224 266
#     4  10  20  32  45  62  87 120 155 189 228 273
#     4   9  18  33  52  71  92 118 143 169 206 254
#     4   9  18  32  48  67  90 115 143 177 216 255
#
# _framework density 14.9901
#
# number of rings (size 3 to 8) (size 9 to 14) (size 15 to 20)
#    0.000    2.625    1.250    2.625    0.000    4.250 
#    0.000    5.000    0.000    1.125    0.000    0.875 
#    0.000    0.000    0.000    0.000    0.000    0.625 
#
# Total GULP energy -356681.049385 kJ/mol
# GULP energy per Si atom -5573.141397 kJ/mol
# Density = 1.495598 g / cm^3
# Si number density = 14.990100 Si / 1000 Ang^3
#
#
#
# Elastic Constant Matrix: (Units=GPa)
#
#
# Indices 1 2 3 4 5 6 
#
# 1 120.1712 43.7487 49.5008 0.0000 0.0000 0.0000
# 2 43.7487 38.4999 27.9723 0.0000 0.0000 0.0000
# 3 49.5008 27.9723 71.1929 0.0000 0.0000 0.0000
# 4 0.0000 0.0000 0.0000 18.2442 0.0000 0.0000
# 5 0.0000 0.0000 0.0000 0.0000 4.0652 0.0000
# 6 0.0000 0.0000 0.0000 0.0000 0.0000 24.0312
#
#
#
# Elastic Compliance Matrix: (Units=1/GPa)
#
#
# Indices 1 2 3 4 5 6 
#
# 1 0.015555 -0.013740 -0.005417 0.000000 0.000000 0.000000
# 2 -0.013740 0.048488 -0.009498 0.000000 0.000000 0.000000
# 3 -0.005417 -0.009498 0.021545 0.000000 0.000000 0.000000
# 4 0.000000 0.000000 0.000000 0.054812 0.000000 0.000000
# 5 0.000000 0.000000 0.000000 0.000000 0.245992 0.000000
# 6 0.000000 0.000000 0.000000 0.000000 0.000000 0.041613
#
#
# Mechanical properties :
#
#
# Convention : Reuss Voigt Hill
#
# Bulk Modulus (GPa) = 35.36314 52.47863 43.92088
# Shear Modulus (GPa) = 10.10634 16.51093 13.30864
#
# Velocity S-wave (km/s) = 2.59936 3.32242 2.98288
# Velocity P-wave (km/s) = 5.71411 7.05711 6.42082
#
# Compressibility (1/GPa) = 0.02827803
#
# Stress axis : x y z
#
# Youngs Moduli (GPa) = 64.28890 20.62370 46.41544
#
# Poissons Ratio (x) = 0.28337 0.25143
# Poissons Ratio (y) = 0.88332 0.44085
# Poissons Ratio (z) = 0.34824 0.19588
#
# Static dielectric constant tensor:
#      x y z
#    x 1.501780 0.000000 0.000000 
#    y 0.000000 1.499170 0.000000 
#    z 0.000000 0.000000 1.475410 
# 
# From -- ./inp_files/14337.got.cif
#   From: 2010.05.17/outbox.cif.g08.bks.cpg/sg47_8_cif.got.tgz:14337.got - 2010.06.03 20:15:42.
