data_PCOD9384133
_publ_section_title
;
Structure prediction by ZEFSAII (Michael W. Deem and Ramdas Pophale) SiO2 
 PCOD9384133
Probable space group: P M M M
;
_chemical_formula_sum "Si O2"
_cell_formula_units_Z 64
_cell_length_a 32.655789
_cell_length_b 14.816558
_cell_length_c 8.590445
_cell_angle_alpha 90.000000
_cell_angle_beta 90.000000
_cell_angle_gamma 90.000000
_cell_volume 4156.455817
_symmetry_space_group_name_H-M "P M M M"
_symmetry_group_IT_number 47
_symmetry_cell_setting 'orthorhombic'
loop_
_space_group_symop_operation_xyz
x,y,z
-x,-y,z
x,-y,-z
-x,y,-z
-x,-y,-z
x,y,-z
-x,y,z
x,-y,z
loop_
_atom_site_type_symbol
_atom_site_label
_atom_site_fract_x
_atom_site_fract_y
_atom_site_fract_z
Si Si1 0.719694 0.604289 0.814793
Si Si2 0.367213 0.609627 0.681803
Si Si3 0.795481 0.284728 0.685942
Si Si4 0.077437 0.898466 0.187644
Si Si5 0.875505 0.604051 0.309814
Si Si6 0.173562 0.898841 0.812570
Si Si7 0.954941 0.714110 0.312434
Si Si8 0.455840 0.393382 0.310603
O O1 0.724486 0.500000 0.758744
O O2 0.674025 0.635839 0.769463
O O3 0.754767 0.666473 0.744345
O O4 0.723496 0.603914 0.000000
O O5 0.363151 0.634043 0.500000
O O6 0.369142 0.500000 0.688864
O O7 0.411601 0.642890 0.742348
O O8 0.795786 0.285819 0.500000
O O9 0.835466 0.340813 0.741497
O O10 0.800708 0.182629 0.743464
O O11 0.125513 0.887342 0.229891
O O12 0.052757 0.816838 0.261227
O O13 0.064762 0.000000 0.234111
O O14 0.074535 0.893470 0.000000
O O15 0.875630 0.604858 0.500000
O O16 0.873768 0.500000 0.260470
O O17 0.916985 0.653423 0.256510
O O18 0.185950 0.000000 0.763390
O O19 0.175596 0.895322 0.000000
O O20 0.954423 0.710464 0.500000
O O21 0.000000 0.683990 0.259151
O O22 0.454928 0.388837 0.500000
O O23 0.500000 0.354901 0.259237
O O24 0.456611 0.500000 0.271260
#
# Coordination Sequence:
#
# PCOD9384133 Si02
#       8
#     8   8   8   8   8   8   8   8
#     4  10  20  31  42  59  86 119 152 186 226 268
#     4   8  13  22  36  53  75 105 143 186 227 265
#     4  11  20  31  50  71  90 112 141 180 219 258
#     4   9  18  33  52  71  92 118 142 165 199 247
#     4   9  18  32  48  67  89 112 140 175 213 250
#     4   9  18  33  52  72  93 115 138 167 206 254
#     4  10  20  33  49  70  93 115 142 176 212 249
#     4   7   9  14  27  48  71  96 132 180 228 267
#
# _framework density 15.397734
#
# number of rings (size 3 to 8) (size 9 to 14) (size 15 to 20)
#    0.000    2.875    1.250    3.000    0.000    2.500 
#    0.000    3.750    0.000    1.500    0.000    3.500 
#    0.000    0.000    0.000    0.000    0.000    0.625 
#
# Total GULP energy -356413.652072 kJ/mol
# GULP energy per Si atom -5568.963314 kJ/mol
# Density = 1.536269 g / cm^3
# Si number density = 15.397734 Si / 1000 Ang^3
#
#
#
# Elastic Constant Matrix: (Units=GPa)
#
#
# Indices 1 2 3 4 5 6 
#
# 1 138.0666 57.4142 23.3820 0.0000 0.0000 0.0000
# 2 57.4142 75.3836 13.0304 0.0000 0.0000 0.0000
# 3 23.3820 13.0304 10.5340 0.0000 0.0000 0.0000
# 4 0.0000 0.0000 0.0000 16.1243 0.0000 0.0000
# 5 0.0000 0.0000 0.0000 0.0000 9.3163 0.0000
# 6 0.0000 0.0000 0.0000 0.0000 0.0000 4.2786
#
#
#
# Elastic Compliance Matrix: (Units=1/GPa)
#
#
# Indices 1 2 3 4 5 6 
#
# 1 0.013799 -0.006634 -0.022423 0.000000 0.000000 0.000000
# 2 -0.006634 0.020062 -0.010092 0.000000 0.000000 0.000000
# 3 -0.022423 -0.010092 0.157187 0.000000 0.000000 0.000000
# 4 0.000000 0.000000 0.000000 0.062018 0.000000 0.000000
# 5 0.000000 0.000000 0.000000 0.000000 0.107339 0.000000
# 6 0.000000 0.000000 0.000000 0.000000 0.000000 0.233722
#
#
# Mechanical properties :
#
#
# Convention : Reuss Voigt Hill
#
# Bulk Modulus (GPa) = 8.86917 45.73747 27.30332
# Shear Modulus (GPa) = 7.04216 14.62101 10.83159
#
# Velocity S-wave (km/s) = 2.14090 3.08483 2.65515
# Velocity P-wave (km/s) = 3.44729 6.51588 5.21251
#
# Compressibility (1/GPa) = 0.11275008
#
# Stress axis : x y z
#
# Youngs Moduli (GPa) = 72.46957 49.84459 6.36183
#
# Poissons Ratio (x) = 0.33065 0.14265
# Poissons Ratio (y) = 0.48074 0.06421
# Poissons Ratio (z) = 1.62501 0.50305
#
# Static dielectric constant tensor:
#      x y z
#    x 1.544250 0.000000 0.000000 
#    y 0.000000 1.490650 0.000000 
#    z 0.000000 0.000000 1.520260 
# 
# From -- ./inp_files/8268.got.cif
#   From: 2010.05.17/outbox.cif.g08.bks.cpg/sg47_5_cif.got.tgz:8268.got - 2010.06.03 20:15:42.
