data_PCOD9384277
_publ_section_title
;
Structure prediction by ZEFSAII (Michael W. Deem and Ramdas Pophale) SiO2 
 PCOD9384277
Probable space group: P M M M
;
_chemical_formula_sum "Si O2"
_cell_formula_units_Z 44
_cell_length_a 7.602879
_cell_length_b 9.625507
_cell_length_c 29.735155
_cell_angle_alpha 90.000000
_cell_angle_beta 90.000000
_cell_angle_gamma 90.000000
_cell_volume 2176.065179
_symmetry_space_group_name_H-M "P M M M"
_symmetry_group_IT_number 47
_symmetry_cell_setting 'orthorhombic'
loop_
_space_group_symop_operation_xyz
x,y,z
-x,-y,z
x,-y,-z
-x,y,-z
-x,-y,-z
x,y,-z
-x,y,z
x,-y,z
loop_
_atom_site_type_symbol
_atom_site_label
_atom_site_fract_x
_atom_site_fract_y
_atom_site_fract_z
Si Si1 0.285225 0.159855 0.550691
Si Si2 0.709915 0.656378 0.633299
Si Si3 0.787922 0.839826 0.280170
Si Si4 0.716042 0.659832 0.000000
Si Si5 0.291585 0.158615 0.916207
Si Si6 0.211217 0.162112 0.817902
O O1 0.231520 0.199304 0.500000
O O2 0.500000 0.160980 0.551167
O O3 0.221155 0.259791 0.590071
O O4 0.232196 0.000000 0.558878
O O5 0.500000 0.646780 0.627145
O O6 0.780292 0.500000 0.636670
O O7 0.738254 0.743806 0.678465
O O8 0.728137 0.785242 0.230944
O O9 0.000000 0.845013 0.278804
O O10 0.726984 0.000000 0.286205
O O11 0.775823 0.743488 0.044215
O O12 0.772443 0.500000 0.000000
O O13 0.500000 0.658693 0.000000
O O14 0.500000 0.146660 0.923393
O O15 0.267592 0.219582 0.866059
O O16 0.218972 0.000000 0.917781
O O17 0.000000 0.166471 0.817862
O O18 0.266349 0.000000 0.818508
#
# Coordination Sequence:
#
# PCOD9384277 Si02
#       6
#     8   8   8   4   8   8
#     4   8  14  26  45  68  93 122 156 193 234 279
#     4  10  20  31  45  70 101 129 158 193 233 278
#     4   9  18  33  52  71  92 123 161 197 236 283
#     4   9  17  29  44  63  90 122 150 177 216 264
#     4   9  16  27  46  70  91 113 146 185 221 261
#     4   8  15  29  48  69  91 114 145 187 231 273
#
# _framework density 20.219982000000002
#
# number of rings (size 3 to 8) (size 9 to 14) (size 15 to 20)
#    0.000    3.182    0.000    2.455    0.000    3.636 
#    0.000    5.000    0.000    7.091    0.000    3.818 
#    0.000    0.000    0.000    0.000    0.000    0.000 
#
# Total GULP energy -245217.685911 kJ/mol
# GULP energy per Si atom -5573.129225 kJ/mol
# Density = 2.017396 g / cm^3
# Si number density = 20.219982 Si / 1000 Ang^3
#
#
#
# Elastic Constant Matrix: (Units=GPa)
#
#
# Indices 1 2 3 4 5 6 
#
# 1 38.4691 5.9456 2.9185 0.0000 0.0000 0.0000
# 2 5.9456 115.0234 121.8998 0.0000 0.0000 0.0000
# 3 2.9185 121.8998 236.1571 0.0000 0.0000 0.0000
# 4 0.0000 0.0000 0.0000 -7.5252 0.0000 0.0000
# 5 0.0000 0.0000 0.0000 0.0000 36.8211 0.0000
# 6 0.0000 0.0000 0.0000 0.0000 0.0000 5.6040
#
#
#
# Elastic Compliance Matrix: (Units=1/GPa)
#
#
# Indices 1 2 3 4 5 6 
#
# 1 0.026278 -0.002239 0.000831 0.000000 0.000000 0.000000
# 2 -0.002239 0.019384 -0.009978 0.000000 0.000000 0.000000
# 3 0.000831 -0.009978 0.009375 0.000000 0.000000 0.000000
# 4 0.000000 0.000000 0.000000 -0.132887 0.000000 0.000000
# 5 0.000000 0.000000 0.000000 0.000000 0.027158 0.000000
# 6 0.000000 0.000000 0.000000 0.000000 0.000000 0.178445
#
#
# Mechanical properties :
#
#
# Convention : Reuss Voigt Hill
#
# Bulk Modulus (GPa) = 30.99367 72.35303 51.67335
# Shear Modulus (GPa) = 31.00202 24.23902 27.62052
#
# Velocity S-wave (km/s) = 3.91990 3.46608 3.69995
# Velocity P-wave (km/s) = 5.98741 7.20270 6.62299
#
# Compressibility (1/GPa) = 0.03226465
#
# Stress axis : x y z
#
# Youngs Moduli (GPa) = 38.05482 51.58826 106.66989
#
# Poissons Ratio (x) = 0.11550 -0.08864
# Poissons Ratio (y) = 0.08520 1.06436
# Poissons Ratio (z) = -0.03162 0.51475
#
# Static dielectric constant tensor:
#      x y z
#    x 1.766910 0.000000 0.000000 
#    y 0.000000 1.686600 0.000000 
#    z 0.000000 0.000000 1.733420 
# 
# From -- ./inp_files/2012.got.cif
#   From: 2010.05.17/outbox.cif.g08.bks.cpg/sg47_2_cif.got.tgz:2012.got - 2010.06.03 20:15:42.
