data_PCOD9384866
_publ_section_title
;
Structure prediction by ZEFSAII (Michael W. Deem and Ramdas Pophale) SiO2 
 PCOD9384866
Probable space group: P M M M
;
_chemical_formula_sum "Si O2"
_cell_formula_units_Z 52
_cell_length_a 14.968654
_cell_length_b 21.723264
_cell_length_c 7.883069
_cell_angle_alpha 90.000000
_cell_angle_beta 90.000000
_cell_angle_gamma 90.000000
_cell_volume 2563.321958
_symmetry_space_group_name_H-M "P M M M"
_symmetry_group_IT_number 47
_symmetry_cell_setting 'orthorhombic'
loop_
_space_group_symop_operation_xyz
x,y,z
-x,-y,z
x,-y,-z
-x,y,-z
-x,-y,-z
x,y,-z
-x,y,z
x,-y,z
loop_
_atom_site_type_symbol
_atom_site_label
_atom_site_fract_x
_atom_site_fract_y
_atom_site_fract_z
Si Si1 0.600811 0.686714 0.703319
Si Si2 0.765418 0.071424 0.703273
Si Si3 0.902198 0.073383 0.000000
Si Si4 0.289125 0.433284 0.800009
Si Si5 0.099462 0.243637 0.201443
Si Si6 0.901457 0.612524 0.704100
Si Si7 0.708201 0.197036 0.698206
O O1 0.595573 0.693506 0.500000
O O2 0.500000 0.680961 0.769678
O O3 0.658440 0.625586 0.732121
O O4 0.651007 0.747248 0.775229
O O5 0.784779 0.076621 0.500000
O O6 0.848458 0.085582 0.827444
O O7 0.697209 0.126059 0.753152
O O8 0.738793 0.000000 0.733067
O O9 0.000000 0.102100 0.000000
O O10 0.911302 0.000000 0.000000
O O11 0.316332 0.500000 0.728137
O O12 0.183718 0.423837 0.769628
O O13 0.305174 0.434091 0.000000
O O14 0.105622 0.316956 0.233735
O O15 0.187053 0.213926 0.282511
O O16 0.000000 0.224643 0.262969
O O17 0.104293 0.232450 0.000000
O O18 0.897538 0.613000 0.500000
O O19 0.000000 0.589289 0.755166
O O20 0.686782 0.196581 0.500000
#
# Coordination Sequence:
#
# PCOD9384866 Si02
#       7
#     8   8   4   8   8   8   8
#     4  10  22  41  64  88 113 143 183 233 288 346
#     4   9  19  35  54  78 111 153 196 238 289 346
#     4   9  18  32  50  76 113 155 200 245 285 335
#     4  11  24  40  59  84 115 150 187 231 282 336
#     4  10  20  32  50  79 113 148 186 229 278 332
#     4  10  20  35  56  82 114 151 191 233 277 329
#     4  10  20  35  57  83 112 148 189 235 283 336
#
# _framework density 20.286176999999999
#
# number of rings (size 3 to 8) (size 9 to 14) (size 15 to 20)
#    0.000    2.077    1.538    1.385    1.077    4.923 
#    0.000    6.154    0.000    0.462    0.000    3.231 
#    0.000    1.846    0.000    0.154    0.000    0.000 
#
# Total GULP energy -289969.090678 kJ/mol
# GULP energy per Si atom -5576.328667 kJ/mol
# Density = 2.024000 g / cm^3
# Si number density = 20.286177 Si / 1000 Ang^3
#
#
#
# Elastic Constant Matrix: (Units=GPa)
#
#
# Indices 1 2 3 4 5 6 
#
# 1 97.1049 70.7337 3.6459 0.0000 0.0000 0.0000
# 2 70.7337 156.9133 14.0549 0.0000 0.0000 0.0000
# 3 3.6459 14.0549 39.1485 0.0000 0.0000 0.0000
# 4 0.0000 0.0000 0.0000 19.1803 0.0000 0.0000
# 5 0.0000 0.0000 0.0000 0.0000 -31.5607 0.0000
# 6 0.0000 0.0000 0.0000 0.0000 0.0000 2.4830
#
#
#
# Elastic Compliance Matrix: (Units=1/GPa)
#
#
# Indices 1 2 3 4 5 6 
#
# 1 0.015378 -0.007030 0.001092 0.000000 0.000000 0.000000
# 2 -0.007030 0.009798 -0.002863 0.000000 0.000000 0.000000
# 3 0.001092 -0.002863 0.026470 0.000000 0.000000 0.000000
# 4 0.000000 0.000000 0.000000 0.052137 0.000000 0.000000
# 5 0.000000 0.000000 0.000000 0.000000 -0.031685 0.000000
# 6 0.000000 0.000000 0.000000 0.000000 0.000000 0.402736
#
#
# Mechanical properties :
#
#
# Convention : Reuss Voigt Hill
#
# Bulk Modulus (GPa) = 29.37397 52.22617 40.80007
# Shear Modulus (GPa) = 9.92488 11.66935 10.79712
#
# Velocity S-wave (km/s) = 2.21428 2.40101 2.30954
# Velocity P-wave (km/s) = 4.58788 5.78680 5.22186
#
# Compressibility (1/GPa) = 0.03404374
#
# Stress axis : x y z
#
# Youngs Moduli (GPa) = 65.02848 102.05832 37.77864
#
# Poissons Ratio (x) = 0.71745 -0.04124
# Poissons Ratio (y) = 0.45714 0.10816
# Poissons Ratio (z) = -0.07099 0.29220
#
# Static dielectric constant tensor:
#      x y z
#    x 1.709600 0.000000 0.000000 
#    y 0.000000 1.796770 0.000000 
#    z 0.000000 0.000000 1.726060 
# 
# From -- ./inp_files/6920.got.cif
#   From: 2010.05.17/outbox.cif.g08.bks.cpg/sg47_4_cif.got.tgz:6920.got - 2010.06.03 20:15:42.
