data_PCOD9384823
_publ_section_title
;
Structure prediction by ZEFSAII (Michael W. Deem and Ramdas Pophale) SiO2 
 PCOD9384823
Probable space group: P M M M
;
_chemical_formula_sum "Si O2"
_cell_formula_units_Z 52
_cell_length_a 14.848141
_cell_length_b 9.019308
_cell_length_c 23.318681
_cell_angle_alpha 90.000000
_cell_angle_beta 90.000000
_cell_angle_gamma 90.000000
_cell_volume 3122.836755
_symmetry_space_group_name_H-M "P M M M"
_symmetry_group_IT_number 47
_symmetry_cell_setting 'orthorhombic'
loop_
_space_group_symop_operation_xyz
x,y,z
-x,-y,z
x,-y,-z
-x,y,-z
-x,-y,-z
x,y,-z
-x,y,z
x,-y,z
loop_
_atom_site_type_symbol
_atom_site_label
_atom_site_fract_x
_atom_site_fract_y
_atom_site_fract_z
Si Si1 0.782263 0.824214 0.932830
Si Si2 0.896578 0.320060 0.500000
Si Si3 0.782145 0.678442 0.387882
Si Si4 0.599898 0.329284 0.930514
Si Si5 0.892253 0.329298 0.165579
Si Si6 0.106160 0.822698 0.714309
Si Si7 0.396804 0.822120 0.568047
O O1 0.681531 0.776344 0.914693
O O2 0.849151 0.740446 0.890818
O O3 0.793530 0.000000 0.928239
O O4 0.794453 0.782796 0.000000
O O5 0.899394 0.500000 0.500000
O O6 0.841759 0.275863 0.556604
O O7 0.000000 0.266962 0.500000
O O8 0.780947 0.500000 0.384791
O O9 0.831329 0.745868 0.332746
O O10 0.681643 0.739814 0.397770
O O11 0.500000 0.285866 0.910301
O O12 0.617284 0.500000 0.913149
O O13 0.596910 0.328882 0.000000
O O14 0.863686 0.500000 0.172478
O O15 0.869512 0.236809 0.222549
O O16 0.000000 0.325944 0.160083
O O17 0.000000 0.785657 0.704139
O O18 0.115073 0.000000 0.711876
O O19 0.386138 0.789304 0.500000
O O20 0.500000 0.782361 0.583857
O O21 0.387587 0.000000 0.574764
#
# Coordination Sequence:
#
# PCOD9384823 Si02
#       7
#     8   4   8   8   8   8   8
#     4  10  20  32  49  76 108 139 170 209 259 312
#     4   9  18  30  44  69 106 140 167 203 252 299
#     4  11  20  32  52  78 107 139 174 215 260 305
#     4   8  14  26  45  69  98 132 168 205 245 292
#     4  10  21  37  56  76  99 132 175 219 260 306
#     4  10  21  37  56  77 102 135 174 214 257 311
#     4   9  18  33  52  74 104 141 178 218 263 311
#
# _framework density 16.651527000000002
#
# number of rings (size 3 to 8) (size 9 to 14) (size 15 to 20)
#    0.000    2.385    0.769    3.231    0.000    4.308 
#    0.000    3.846    0.000    2.769    0.000    0.000 
#    0.000    0.000    0.000    0.000    0.000    0.000 
#
# Total GULP energy -289960.238568 kJ/mol
# GULP energy per Si atom -5576.158434 kJ/mol
# Density = 1.661363 g / cm^3
# Si number density = 16.651527 Si / 1000 Ang^3
#
#
#
# Elastic Constant Matrix: (Units=GPa)
#
#
# Indices 1 2 3 4 5 6 
#
# 1 96.2721 52.1777 60.9160 0.0000 0.0000 0.0000
# 2 52.1777 67.5584 48.4957 0.0000 0.0000 0.0000
# 3 60.9160 48.4957 89.8875 0.0000 0.0000 0.0000
# 4 0.0000 0.0000 0.0000 26.4390 0.0000 0.0000
# 5 0.0000 0.0000 0.0000 0.0000 3.5905 0.0000
# 6 0.0000 0.0000 0.0000 0.0000 0.0000 27.6546
#
#
#
# Elastic Compliance Matrix: (Units=1/GPa)
#
#
# Indices 1 2 3 4 5 6 
#
# 1 0.021749 -0.010147 -0.009265 0.000000 0.000000 0.000000
# 2 -0.010147 0.028892 -0.008711 0.000000 0.000000 0.000000
# 3 -0.009265 -0.008711 0.022103 0.000000 0.000000 0.000000
# 4 0.000000 0.000000 0.000000 0.037823 0.000000 0.000000
# 5 0.000000 0.000000 0.000000 0.000000 0.278511 0.000000
# 6 0.000000 0.000000 0.000000 0.000000 0.000000 0.036160
#
#
# Mechanical properties :
#
#
# Convention : Reuss Voigt Hill
#
# Bulk Modulus (GPa) = 60.61046 64.09966 62.35506
# Shear Modulus (GPa) = 10.26728 17.67872 13.97300
#
# Velocity S-wave (km/s) = 2.48583 3.26189 2.89994
# Velocity P-wave (km/s) = 6.68711 7.26394 6.98149
#
# Compressibility (1/GPa) = 0.01649880
#
# Stress axis : x y z
#
# Youngs Moduli (GPa) = 45.97940 34.61153 45.24199
#
# Poissons Ratio (x) = 0.35120 0.41915
# Poissons Ratio (y) = 0.46655 0.39411
# Poissons Ratio (z) = 0.42598 0.30151
#
# Static dielectric constant tensor:
#      x y z
#    x 1.563640 0.000000 0.000000 
#    y 0.000000 1.556500 0.000000 
#    z 0.000000 0.000000 1.534810 
# 
# From -- ./inp_files/30885.got.cif
#   From: 2010.05.17/outbox.cif.g08.bks.cpg/sg47_16_cif.got.tgz:30885.got - 2010.06.03 20:15:42.
