data_PCOD9384156
_publ_section_title
;
Structure prediction by ZEFSAII (Michael W. Deem and Ramdas Pophale) SiO2 
 PCOD9384156
Probable space group: P M M M
;
_chemical_formula_sum "Si O2"
_cell_formula_units_Z 52
_cell_length_a 19.397687
_cell_length_b 19.380677
_cell_length_c 8.755091
_cell_angle_alpha 90.000000
_cell_angle_beta 90.000000
_cell_angle_gamma 90.000000
_cell_volume 3291.391592
_symmetry_space_group_name_H-M "P M M M"
_symmetry_group_IT_number 47
_symmetry_cell_setting 'orthorhombic'
loop_
_space_group_symop_operation_xyz
x,y,z
-x,-y,z
x,-y,-z
-x,y,-z
-x,-y,-z
x,y,-z
-x,y,z
x,-y,z
loop_
_atom_site_type_symbol
_atom_site_label
_atom_site_fract_x
_atom_site_fract_y
_atom_site_fract_z
Si Si1 0.288522 0.839321 0.314938
Si Si2 0.146514 0.579496 0.817875
Si Si3 0.791633 0.292505 0.683450
Si Si4 0.000000 0.583662 0.327855
Si Si5 0.578040 0.079347 0.314064
Si Si6 0.842014 0.079795 0.183093
Si Si7 0.076640 0.798800 0.316068
O O1 0.285037 0.842850 0.500000
O O2 0.269047 0.760641 0.272503
O O3 0.362291 0.868562 0.264262
O O4 0.228390 0.888025 0.249847
O O5 0.158525 0.500000 0.769198
O O6 0.203231 0.632646 0.757197
O O7 0.071382 0.601417 0.753864
O O8 0.143936 0.581197 0.000000
O O9 0.791269 0.299735 0.500000
O O10 0.862227 0.252858 0.729061
O O11 0.000000 0.500000 0.334713
O O12 0.000000 0.612090 0.500000
O O13 0.577764 0.080116 0.500000
O O14 0.500000 0.096010 0.264288
O O15 0.593568 0.000000 0.268831
O O16 0.903094 0.127358 0.247233
O O17 0.848700 0.000000 0.227601
O O18 0.840480 0.084345 0.000000
O O19 0.078660 0.803481 0.500000
O O20 0.000000 0.776863 0.269589
#
# Coordination Sequence:
#
# PCOD9384156 Si02
#       7
#     8   8   8   4   8   8   8
#     4   9  17  30  47  66  89 118 150 181 213 256
#     4  10  20  32  45  64  88 111 141 180 221 268
#     4   9  18  30  45  64  85 113 146 179 218 264
#     4   9  17  29  45  63  83 109 138 171 216 265
#     4   8  13  22  41  71 100 122 147 180 215 251
#     4  10  20  31  43  61  84 111 145 184 224 263
#     4   9  19  34  48  62  80 105 141 184 225 267
#
# _framework density 15.798788
#
# number of rings (size 3 to 8) (size 9 to 14) (size 15 to 20)
#    0.000    2.846    0.000    3.000    1.077    6.769 
#    0.000    1.538    0.000    0.462    0.000    2.154 
#    0.000    0.615    0.000    7.692    0.000    1.231 
#
# Total GULP energy -289789.922631 kJ/mol
# GULP energy per Si atom -5572.883128 kJ/mol
# Density = 1.576283 g / cm^3
# Si number density = 15.798788 Si / 1000 Ang^3
#
#
#
# Elastic Constant Matrix: (Units=GPa)
#
#
# Indices 1 2 3 4 5 6 
#
# 1 89.7232 44.5567 12.5794 0.0000 0.0000 0.0000
# 2 44.5567 102.0888 21.5279 0.0000 0.0000 0.0000
# 3 12.5794 21.5279 10.4734 0.0000 0.0000 0.0000
# 4 0.0000 0.0000 0.0000 18.4556 0.0000 0.0000
# 5 0.0000 0.0000 0.0000 0.0000 6.1072 0.0000
# 6 0.0000 0.0000 0.0000 0.0000 0.0000 24.0191
#
#
#
# Elastic Compliance Matrix: (Units=1/GPa)
#
#
# Indices 1 2 3 4 5 6 
#
# 1 0.014584 -0.004715 -0.007825 0.000000 0.000000 0.000000
# 2 -0.004715 0.018814 -0.033009 0.000000 0.000000 0.000000
# 3 -0.007825 -0.033009 0.172727 0.000000 0.000000 0.000000
# 4 0.000000 0.000000 0.000000 0.054184 0.000000 0.000000
# 5 0.000000 0.000000 0.000000 0.000000 0.163740 0.000000
# 6 0.000000 0.000000 0.000000 0.000000 0.000000 0.041634
#
#
# Mechanical properties :
#
#
# Convention : Reuss Voigt Hill
#
# Bulk Modulus (GPa) = 8.69351 39.95707 24.32529
# Shear Modulus (GPa) = 8.40162 17.95781 13.17971
#
# Velocity S-wave (km/s) = 2.30856 3.37509 2.89143
# Velocity P-wave (km/s) = 3.55253 6.36667 5.15534
#
# Compressibility (1/GPa) = 0.11502834
#
# Stress axis : x y z
#
# Youngs Moduli (GPa) = 68.56832 53.15184 5.78947
#
# Poissons Ratio (x) = 0.25062 0.04530
# Poissons Ratio (y) = 0.32331 0.19110
# Poissons Ratio (z) = 0.53652 1.75447
#
# Static dielectric constant tensor:
#      x y z
#    x 1.521550 0.000000 0.000000 
#    y 0.000000 1.549990 0.000000 
#    z 0.000000 0.000000 1.529380 
# 
# From -- ./inp_files/11518.got.cif
#   From: 2010.05.17/outbox.cif.g08.bks.cpg/sg47_6_cif.got.tgz:11518.got - 2010.06.03 20:15:42.
