data_PCOD9384117
_publ_section_title
;
Structure prediction by ZEFSAII (Michael W. Deem and Ramdas Pophale) SiO2 
 PCOD9384117
Probable space group: P M M M
;
_chemical_formula_sum "Si O2"
_cell_formula_units_Z 64
_cell_length_a 24.351683
_cell_length_b 20.077428
_cell_length_c 7.563254
_cell_angle_alpha 90.000000
_cell_angle_beta 90.000000
_cell_angle_gamma 90.000000
_cell_volume 3697.819809
_symmetry_space_group_name_H-M "P M M M"
_symmetry_group_IT_number 47
_symmetry_cell_setting 'orthorhombic'
loop_
_space_group_symop_operation_xyz
x,y,z
-x,-y,z
x,-y,-z
-x,y,-z
-x,-y,-z
x,y,-z
-x,y,z
x,-y,z
loop_
_atom_site_type_symbol
_atom_site_label
_atom_site_fract_x
_atom_site_fract_y
_atom_site_fract_z
Si Si1 0.777629 0.424772 0.283675
Si Si2 0.670157 0.653305 0.710587
Si Si3 0.746234 0.927238 0.708643
Si Si4 0.271291 0.783522 0.283332
Si Si5 0.561472 0.424679 0.212161
Si Si6 0.938445 0.204275 0.211095
Si Si7 0.162518 0.705746 0.288070
Si Si8 0.875234 0.073871 0.214182
O O1 0.777854 0.426081 0.500000
O O2 0.787328 0.500000 0.223320
O O3 0.717833 0.397229 0.226222
O O4 0.821323 0.368482 0.227341
O O5 0.676967 0.655746 0.500000
O O6 0.685260 0.727471 0.774469
O O7 0.610000 0.625626 0.744912
O O8 0.733627 0.929551 0.500000
O O9 0.720929 0.858849 0.780617
O O10 0.812111 0.919687 0.726830
O O11 0.731679 0.000000 0.784637
O O12 0.271215 0.785721 0.500000
O O13 0.211503 0.755182 0.228169
O O14 0.500000 0.406868 0.275205
O O15 0.574194 0.500000 0.276100
O O16 0.559051 0.427811 0.000000
O O17 0.896131 0.264278 0.241599
O O18 0.910953 0.135868 0.279594
O O19 0.000000 0.214804 0.279948
O O20 0.942304 0.196417 0.000000
O O21 0.165845 0.704674 0.500000
O O22 0.894855 0.000000 0.268298
O O23 0.875054 0.075397 0.000000
#
# Coordination Sequence:
#
# PCOD9384117 Si02
#       8
#     8   8   8   8   8   8   8   8
#     4   8  14  25  43  66  87 105 127 162 207 246
#     4   9  16  26  43  65  87 111 140 173 203 235
#     4   9  15  24  41  61  82 110 137 159 192 242
#     4   8  14  25  40  61  87 108 130 166 207 239
#     4   9  18  31  43  57  85 122 150 173 203 236
#     4  10  20  31  42  57  78 103 131 166 205 244
#     4   9  16  28  45  61  79 103 130 161 200 246
#     4   9  17  28  41  57  77 102 133 166 197 233
#
# _framework density 17.307494999999999
#
# number of rings (size 3 to 8) (size 9 to 14) (size 15 to 20)
#    0.000    3.125    1.250    2.250    0.000    1.500 
#    0.000    5.000    0.000    1.500    0.000    5.250 
#    0.000    0.500    0.000    6.250    0.000    1.000 
#
# Total GULP energy -356532.915477 kJ/mol
# GULP energy per Si atom -5570.826804 kJ/mol
# Density = 1.726810 g / cm^3
# Si number density = 17.307495 Si / 1000 Ang^3
#
#
#
# Elastic Constant Matrix: (Units=GPa)
#
#
# Indices 1 2 3 4 5 6 
#
# 1 91.6252 75.1579 -3.9357 0.0000 0.0000 0.0000
# 2 75.1579 182.5930 5.4233 0.0000 0.0000 0.0000
# 3 -3.9357 5.4233 37.0843 0.0000 0.0000 0.0000
# 4 0.0000 0.0000 0.0000 7.6098 0.0000 0.0000
# 5 0.0000 0.0000 0.0000 0.0000 17.2224 0.0000
# 6 0.0000 0.0000 0.0000 0.0000 0.0000 24.1033
#
#
#
# Elastic Compliance Matrix: (Units=1/GPa)
#
#
# Indices 1 2 3 4 5 6 
#
# 1 0.016762 -0.006983 0.002800 0.000000 0.000000 0.000000
# 2 -0.006983 0.008409 -0.001971 0.000000 0.000000 0.000000
# 3 0.002800 -0.001971 0.027551 0.000000 0.000000 0.000000
# 4 0.000000 0.000000 0.000000 0.131409 0.000000 0.000000
# 5 0.000000 0.000000 0.000000 0.000000 0.058064 0.000000
# 6 0.000000 0.000000 0.000000 0.000000 0.000000 0.041488
#
#
# Mechanical properties :
#
#
# Convention : Reuss Voigt Hill
#
# Bulk Modulus (GPa) = 24.74298 51.62149 38.18224
# Shear Modulus (GPa) = 16.15706 25.43091 20.79399
#
# Velocity S-wave (km/s) = 3.05869 3.83738 3.46995
# Velocity P-wave (km/s) = 5.17699 7.03739 6.17762
#
# Compressibility (1/GPa) = 0.04041551
#
# Stress axis : x y z
#
# Youngs Moduli (GPa) = 59.65872 118.91515 36.29636
#
# Poissons Ratio (x) = 0.83034 -0.10163
# Poissons Ratio (y) = 0.41658 0.07154
# Poissons Ratio (z) = -0.16705 0.23437
#
# Static dielectric constant tensor:
#      x y z
#    x 1.568520 0.000000 0.000000 
#    y 0.000000 1.626370 0.000000 
#    z 0.000000 0.000000 1.656400 
# 
# From -- ./inp_files/12957.got.cif
#   From: 2010.05.17/outbox.cif.g08.bks.cpg/sg47_7_cif.got.tgz:12957.got - 2010.06.03 20:15:42.
