data_PCOD9384253
_publ_section_title
;
Structure prediction by ZEFSAII (Michael W. Deem and Ramdas Pophale) SiO2 
 PCOD9384253
Probable space group: P M M M
;
_chemical_formula_sum "Si O2"
_cell_formula_units_Z 52
_cell_length_a 23.844953
_cell_length_b 13.893453
_cell_length_c 9.662914
_cell_angle_alpha 90.000000
_cell_angle_beta 90.000000
_cell_angle_gamma 90.000000
_cell_volume 3201.214544
_symmetry_space_group_name_H-M "P M M M"
_symmetry_group_IT_number 47
_symmetry_cell_setting 'orthorhombic'
loop_
_space_group_symop_operation_xyz
x,y,z
-x,-y,z
x,-y,-z
-x,y,-z
-x,-y,-z
x,y,-z
-x,y,z
x,-y,z
loop_
_atom_site_type_symbol
_atom_site_label
_atom_site_fract_x
_atom_site_fract_y
_atom_site_fract_z
Si Si1 0.169404 0.883567 0.339021
Si Si2 0.606080 0.116260 0.841361
Si Si3 0.500000 0.117619 0.340749
Si Si4 0.063398 0.116918 0.159405
Si Si5 0.669714 0.389442 0.164186
Si Si6 0.437456 0.382822 0.340836
Si Si7 0.728804 0.799389 0.164150
O O1 0.170117 0.855762 0.500000
O O2 0.112193 0.851852 0.262644
O O3 0.222304 0.842730 0.256107
O O4 0.171644 0.000000 0.332539
O O5 0.556462 0.147505 0.739193
O O6 0.668366 0.152116 0.806009
O O7 0.606951 0.000000 0.839535
O O8 0.593916 0.146700 0.000000
O O9 0.500000 0.148494 0.500000
O O10 0.500000 0.000000 0.339746
O O11 0.000000 0.147815 0.195829
O O12 0.063138 0.000000 0.161355
O O13 0.074960 0.145285 0.000000
O O14 0.682285 0.500000 0.202633
O O15 0.613772 0.356205 0.243090
O O16 0.718872 0.313772 0.191350
O O17 0.658588 0.386522 0.000000
O O18 0.427768 0.353620 0.500000
O O19 0.500000 0.351433 0.298491
O O20 0.438458 0.500000 0.339532
O O21 0.740093 0.814080 0.000000
#
# Coordination Sequence:
#
# PCOD9384253 Si02
#       7
#     8   8   4   8   8   8   8
#     4  10  20  31  45  69 100 130 158 192 230 264
#     4   9  17  30  47  63  80 107 143 180 218 265
#     4   9  17  29  45  63  82 105 134 174 225 271
#     4   8  14  26  45  68  95 130 167 194 217 253
#     4   9  18  32  48  66  87 111 144 189 236 276
#     4   8  14  26  44  63  82 106 135 168 215 278
#     4  10  20  33  48  66  88 119 155 189 228 277
#
# _framework density 16.243835000000001
#
# number of rings (size 3 to 8) (size 9 to 14) (size 15 to 20)
#    0.000    3.000    0.000    2.077    0.000    4.308 
#    1.385    4.615    0.000    0.000    0.000    0.000 
#    0.000    0.615    0.000    7.077    0.000    2.308 
#
# Total GULP energy -289935.850606 kJ/mol
# GULP energy per Si atom -5575.689435 kJ/mol
# Density = 1.620686 g / cm^3
# Si number density = 16.243835 Si / 1000 Ang^3
#
#
#
# Elastic Constant Matrix: (Units=GPa)
#
#
# Indices 1 2 3 4 5 6 
#
# 1 138.5210 30.4415 100.5153 0.0000 0.0000 0.0000
# 2 30.4415 38.6465 29.2248 0.0000 0.0000 0.0000
# 3 100.5153 29.2248 100.7386 0.0000 0.0000 0.0000
# 4 0.0000 0.0000 0.0000 11.7172 0.0000 0.0000
# 5 0.0000 0.0000 0.0000 0.0000 -24.5591 0.0000
# 6 0.0000 0.0000 0.0000 0.0000 0.0000 13.3750
#
#
#
# Elastic Compliance Matrix: (Units=1/GPa)
#
#
# Indices 1 2 3 4 5 6 
#
# 1 0.026196 -0.001113 -0.025815 0.000000 0.000000 0.000000
# 2 -0.001113 0.033195 -0.008520 0.000000 0.000000 0.000000
# 3 -0.025815 -0.008520 0.038156 0.000000 0.000000 0.000000
# 4 0.000000 0.000000 0.000000 0.085344 0.000000 0.000000
# 5 0.000000 0.000000 0.000000 0.000000 -0.040718 0.000000
# 6 0.000000 0.000000 0.000000 0.000000 0.000000 0.074767
#
#
# Mechanical properties :
#
#
# Convention : Reuss Voigt Hill
#
# Bulk Modulus (GPa) = 37.52088 66.47436 51.99762
# Shear Modulus (GPa) = 16.85100 7.95491 12.40296
#
# Velocity S-wave (km/s) = 3.22433 2.21536 2.76624
# Velocity P-wave (km/s) = 6.08362 6.89604 6.50253
#
# Compressibility (1/GPa) = 0.02665183
#
# Stress axis : x y z
#
# Youngs Moduli (GPa) = 38.17398 30.12524 26.20816
#
# Poissons Ratio (x) = 0.03352 0.67656
# Poissons Ratio (y) = 0.04248 0.22329
# Poissons Ratio (z) = 0.98546 0.25666
#
# Static dielectric constant tensor:
#      x y z
#    x 1.519170 0.000000 0.000000 
#    y 0.000000 1.580410 0.000000 
#    z 0.000000 0.000000 1.545150 
# 
# From -- ./inp_files/12541.got.cif
#   From: 2010.05.17/outbox.cif.g08.bks.cpg/sg47_7_cif.got.tgz:12541.got - 2010.06.03 20:15:42.
