data_PCOD9384505
_publ_section_title
;
Structure prediction by ZEFSAII (Michael W. Deem and Ramdas Pophale) SiO2 
 PCOD9384505
Probable space group: P M M M
;
_chemical_formula_sum "Si O2"
_cell_formula_units_Z 52
_cell_length_a 14.820145
_cell_length_b 25.990036
_cell_length_c 7.606156
_cell_angle_alpha 90.000000
_cell_angle_beta 90.000000
_cell_angle_gamma 90.000000
_cell_volume 2929.709520
_symmetry_space_group_name_H-M "P M M M"
_symmetry_group_IT_number 47
_symmetry_cell_setting 'orthorhombic'
loop_
_space_group_symop_operation_xyz
x,y,z
-x,-y,z
x,-y,-z
-x,y,-z
-x,-y,-z
x,y,-z
-x,y,z
x,-y,z
loop_
_atom_site_type_symbol
_atom_site_label
_atom_site_fract_x
_atom_site_fract_y
_atom_site_fract_z
Si Si1 0.899221 0.154692 0.292190
Si Si2 0.599877 0.100975 0.285714
Si Si3 0.788308 0.943110 0.715459
Si Si4 0.109239 0.441611 0.500000
Si Si5 0.399620 0.779506 0.287912
Si Si6 0.206785 0.742700 0.794936
Si Si7 0.107790 0.359828 0.791455
O O1 0.907581 0.145622 0.500000
O O2 0.849517 0.104064 0.220818
O O3 0.838626 0.205421 0.275577
O O4 0.000000 0.162512 0.219888
O O5 0.599440 0.100418 0.500000
O O6 0.500000 0.084211 0.228347
O O7 0.685308 0.068058 0.229217
O O8 0.612825 0.160754 0.233162
O O9 0.788747 0.942247 0.500000
O O10 0.817686 0.000000 0.769873
O O11 0.143767 0.500000 0.500000
O O12 0.133577 0.408551 0.672365
O O13 0.000000 0.444344 0.500000
O O14 0.399364 0.779461 0.500000
O O15 0.500000 0.763123 0.229625
O O16 0.314088 0.746723 0.229691
O O17 0.161543 0.690521 0.726505
O O18 0.185910 0.742803 0.000000
O O19 0.000000 0.350737 0.770881
O O20 0.124499 0.368239 0.000000
#
# Coordination Sequence:
#
# PCOD9384505 Si02
#       7
#     8   8   8   4   8   8   8
#     4  10  20  32  47  66  88 121 162 203 253 306
#     4   8  13  23  40  62  87 112 142 186 242 301
#     4   9  16  26  41  63  89 113 147 199 252 303
#     4   9  18  32  52  78 107 147 190 218 250 295
#     4   9  17  30  49  71  96 126 158 195 243 301
#     4  11  21  32  49  72 100 131 163 204 251 300
#     4   9  19  33  48  74 110 143 178 220 260 297
#
# _framework density 17.749199999999998
#
# number of rings (size 3 to 8) (size 9 to 14) (size 15 to 20)
#    0.000    2.692    1.538    1.846    2.154    2.154 
#    0.000    4.615    0.000    0.462    0.000    1.077 
#    0.000    3.692    0.000    3.385    0.000    0.154 
#
# Total GULP energy -289941.907798 kJ/mol
# GULP energy per Si atom -5575.805919 kJ/mol
# Density = 1.770880 g / cm^3
# Si number density = 17.749200 Si / 1000 Ang^3
#
#
#
# Elastic Constant Matrix: (Units=GPa)
#
#
# Indices 1 2 3 4 5 6 
#
# 1 94.4884 59.9296 11.5306 0.0000 0.0000 0.0000
# 2 59.9296 138.0594 26.3616 0.0000 0.0000 0.0000
# 3 11.5306 26.3616 45.3266 0.0000 0.0000 0.0000
# 4 0.0000 0.0000 0.0000 78.5613 0.0000 0.0000
# 5 0.0000 0.0000 0.0000 0.0000 5.1641 0.0000
# 6 0.0000 0.0000 0.0000 0.0000 0.0000 9.7731
#
#
#
# Elastic Compliance Matrix: (Units=1/GPa)
#
#
# Indices 1 2 3 4 5 6 
#
# 1 0.014604 -0.006333 -0.000032 0.000000 0.000000 0.000000
# 2 -0.006333 0.010895 -0.004725 0.000000 0.000000 0.000000
# 3 -0.000032 -0.004725 0.024818 0.000000 0.000000 0.000000
# 4 0.000000 0.000000 0.000000 0.012729 0.000000 0.000000
# 5 0.000000 0.000000 0.000000 0.000000 0.193643 0.000000
# 6 0.000000 0.000000 0.000000 0.000000 0.000000 0.102322
#
#
# Mechanical properties :
#
#
# Convention : Reuss Voigt Hill
#
# Bulk Modulus (GPa) = 35.54080 52.61313 44.07697
# Shear Modulus (GPa) = 12.80178 30.70321 21.75249
#
# Velocity S-wave (km/s) = 2.68854 4.16364 3.50458
# Velocity P-wave (km/s) = 5.45023 7.26784 6.42365
#
# Compressibility (1/GPa) = 0.02813667
#
# Stress axis : x y z
#
# Youngs Moduli (GPa) = 68.47366 91.78748 40.29293
#
# Poissons Ratio (x) = 0.58133 0.00128
# Poissons Ratio (y) = 0.43367 0.19039
# Poissons Ratio (z) = 0.00217 0.43371
#
# Static dielectric constant tensor:
#      x y z
#    x 1.617620 0.000000 0.000000 
#    y 0.000000 1.592830 0.000000 
#    z 0.000000 0.000000 1.674990 
# 
# From -- ./inp_files/7014.got.cif
#   From: 2010.05.17/outbox.cif.g08.bks.cpg/sg47_4_cif.got.tgz:7014.got - 2010.06.03 20:15:42.
