data_PCOD9384885
_publ_section_title
;
Structure prediction by ZEFSAII (Michael W. Deem and Ramdas Pophale) SiO2 
 PCOD9384885
Probable space group: P M M M
;
_chemical_formula_sum "Si O2"
_cell_formula_units_Z 48
_cell_length_a 14.547392
_cell_length_b 8.179081
_cell_length_c 20.899761
_cell_angle_alpha 90.000000
_cell_angle_beta 90.000000
_cell_angle_gamma 90.000000
_cell_volume 2486.743381
_symmetry_space_group_name_H-M "P M M M"
_symmetry_group_IT_number 47
_symmetry_cell_setting 'orthorhombic'
loop_
_space_group_symop_operation_xyz
x,y,z
-x,-y,z
x,-y,-z
-x,y,-z
-x,-y,-z
x,y,-z
-x,y,z
x,-y,z
loop_
_atom_site_type_symbol
_atom_site_label
_atom_site_fract_x
_atom_site_fract_y
_atom_site_fract_z
Si Si1 0.612119 0.000000 0.074395
Si Si2 0.899759 0.304385 0.265129
Si Si3 0.107269 0.826502 0.123925
Si Si4 0.297792 0.304796 0.301924
Si Si5 0.388754 0.693819 0.834330
Si Si6 0.394604 0.196460 0.569268
Si Si7 0.894598 0.500000 0.925051
O O1 0.636958 0.832875 0.113346
O O2 0.500000 0.000000 0.072799
O O3 0.643508 0.000000 0.000000
O O4 0.893741 0.500000 0.249540
O O5 0.896195 0.203960 0.199404
O O6 0.809509 0.258608 0.303415
O O7 0.000000 0.277676 0.295109
O O8 0.152482 0.665806 0.095954
O O9 0.000000 0.830135 0.101244
O O10 0.149446 0.000000 0.107497
O O11 0.304050 0.500000 0.302222
O O12 0.342676 0.256692 0.233726
O O13 0.345542 0.244498 0.365784
O O14 0.500000 0.698541 0.827370
O O15 0.365394 0.500000 0.847932
O O16 0.356145 0.252921 0.500000
O O17 0.500000 0.254175 0.572666
O O18 0.395853 0.000000 0.567523
O O19 0.000000 0.500000 0.896653
O O20 0.903475 0.500000 0.000000
#
# Coordination Sequence:
#
# PCOD9384885 Si02
#       7
#     4   8   8   8   8   8   4
#     4   9  18  32  52  78 106 144 186 217 270 344
#     4   9  17  32  52  73 100 134 172 223 279 324
#     4   9  16  27  44  65  88 119 160 208 265 325
#     4  10  20  32  52  83 109 140 182 227 276 327
#     4   9  18  32  50  78 112 139 174 229 279 326
#     4   9  19  35  54  79 114 153 185 214 260 326
#     4   9  16  26  42  64  90 120 154 203 268 330
#
# _framework density 19.302353
#
# number of rings (size 3 to 8) (size 9 to 14) (size 15 to 20)
#    0.000    2.833    0.833    1.000    1.167    2.667 
#    0.000    4.167    0.000    1.500    0.000    3.500 
#    0.000    0.000    0.000    0.000    0.000    0.000 
#
# Total GULP energy -267429.504655 kJ/mol
# GULP energy per Si atom -5571.448014 kJ/mol
# Density = 1.925842 g / cm^3
# Si number density = 19.302353 Si / 1000 Ang^3
#
#
#
# Elastic Constant Matrix: (Units=GPa)
#
#
# Indices 1 2 3 4 5 6 
#
# 1 72.7132 39.7325 55.6154 0.0000 0.0000 0.0000
# 2 39.7325 100.0346 58.0693 0.0000 0.0000 0.0000
# 3 55.6154 58.0693 143.2097 0.0000 0.0000 0.0000
# 4 0.0000 0.0000 0.0000 145.0312 0.0000 0.0000
# 5 0.0000 0.0000 0.0000 0.0000 -2.2565 0.0000
# 6 0.0000 0.0000 0.0000 0.0000 0.0000 15.2591
#
#
#
# Elastic Compliance Matrix: (Units=1/GPa)
#
#
# Indices 1 2 3 4 5 6 
#
# 1 0.021162 -0.004753 -0.006291 0.000000 0.000000 0.000000
# 2 -0.004753 0.014142 -0.003888 0.000000 0.000000 0.000000
# 3 -0.006291 -0.003888 0.011002 0.000000 0.000000 0.000000
# 4 0.000000 0.000000 0.000000 0.006895 0.000000 0.000000
# 5 0.000000 0.000000 0.000000 0.000000 -0.443158 0.000000
# 6 0.000000 0.000000 0.000000 0.000000 0.000000 0.065534
#
#
# Mechanical properties :
#
#
# Convention : Reuss Voigt Hill
#
# Bulk Modulus (GPa) = 60.82378 69.19909 65.01144
# Shear Modulus (GPa) = -17.29639 42.44278 12.57320
#
# Velocity S-wave (km/s) = -2.99670 4.69427 2.55499
# Velocity P-wave (km/s) = 4.42785 8.08142 6.51595
#
# Compressibility (1/GPa) = 0.01644094
#
# Stress axis : x y z
#
# Youngs Moduli (GPa) = 47.25556 70.71328 90.88977
#
# Poissons Ratio (x) = 0.33613 0.57175
# Poissons Ratio (y) = 0.22463 0.35340
# Poissons Ratio (z) = 0.29727 0.27495
#
# Static dielectric constant tensor:
#      x y z
#    x 1.716180 0.000000 0.000000 
#    y 0.000000 1.729660 0.000000 
#    z 0.000000 0.000000 1.649310 
# 
# From -- ./inp_files/28047.got.cif
#   From: 2010.05.17/outbox.cif.g08.bks.cpg/sg47_15_cif.got.tgz:28047.got - 2010.06.03 20:15:42.
