data_PCOD9384581
_publ_section_title
;
Structure prediction by ZEFSAII (Michael W. Deem and Ramdas Pophale) SiO2 
 PCOD9384581
Probable space group: P M M M
;
_chemical_formula_sum "Si O2"
_cell_formula_units_Z 44
_cell_length_a 9.368744
_cell_length_b 7.357105
_cell_length_c 29.192528
_cell_angle_alpha 90.000000
_cell_angle_beta 90.000000
_cell_angle_gamma 90.000000
_cell_volume 2012.148512
_symmetry_space_group_name_H-M "P M M M"
_symmetry_group_IT_number 47
_symmetry_cell_setting 'orthorhombic'
loop_
_space_group_symop_operation_xyz
x,y,z
-x,-y,z
x,-y,-z
-x,y,-z
-x,-y,-z
x,y,-z
-x,y,z
x,-y,z
loop_
_atom_site_type_symbol
_atom_site_label
_atom_site_fract_x
_atom_site_fract_y
_atom_site_fract_z
Si Si1 0.337461 0.281470 0.448771
Si Si2 0.336125 0.777826 0.271508
Si Si3 0.835058 0.778217 0.000000
Si Si4 0.664885 0.221802 0.090656
Si Si5 0.835424 0.778330 0.181158
Si Si6 0.160085 0.785617 0.641352
O O1 0.296411 0.219379 0.500000
O O2 0.500000 0.218886 0.439493
O O3 0.341471 0.500000 0.450088
O O4 0.232499 0.232369 0.408059
O O5 0.500000 0.718940 0.268587
O O6 0.244451 0.722100 0.227466
O O7 0.261123 0.714587 0.318251
O O8 0.338264 0.000000 0.271575
O O9 0.750708 0.721228 0.045469
O O10 0.000000 0.720285 0.000000
O O11 0.836040 0.000000 0.000000
O O12 0.500000 0.279710 0.090110
O O13 0.747528 0.278984 0.136425
O O14 0.663980 0.000000 0.090649
O O15 0.000000 0.719895 0.179871
O O16 0.836427 0.000000 0.180983
O O17 0.000000 0.709796 0.642172
O O18 0.148316 0.000000 0.650415
#
# Coordination Sequence:
#
# PCOD9384581 Si02
#       6
#     8   8   4   8   8   8
#     4   9  19  36  55  73  94 122 156 191 226 267
#     4   9  16  26  40  57  78 105 136 170 210 256
#     4   9  15  21  27  35  49  71 103 147 198 245
#     4   9  15  21  28  38  53  76 109 149 194 245
#     4   9  15  22  32  46  65  89 118 155 201 251
#     4  10  20  32  47  70  98 124 151 186 228 272
#
# _framework density 21.867172
#
# number of rings (size 3 to 8) (size 9 to 14) (size 15 to 20)
#    0.000    2.818    0.000    3.000    0.000    9.818 
#    0.000    2.727    0.000    0.000    0.000    0.000 
#    0.000    0.000    0.000    0.000    0.000    0.000 
#
# Total GULP energy -245870.258060 kJ/mol
# GULP energy per Si atom -5587.960410 kJ/mol
# Density = 2.181740 g / cm^3
# Si number density = 21.867172 Si / 1000 Ang^3
#
#
#
# Elastic Constant Matrix: (Units=GPa)
#
#
# Indices 1 2 3 4 5 6 
#
# 1 250.8240 5.4618 153.5680 0.0000 0.0000 0.0000
# 2 5.4618 79.1564 -1.0236 0.0000 0.0000 0.0000
# 3 153.5680 -1.0236 210.3075 0.0000 0.0000 0.0000
# 4 0.0000 0.0000 0.0000 110.5152 0.0000 0.0000
# 5 0.0000 0.0000 0.0000 0.0000 220.8805 0.0000
# 6 0.0000 0.0000 0.0000 0.0000 0.0000 -56.1686
#
#
#
# Elastic Compliance Matrix: (Units=1/GPa)
#
#
# Indices 1 2 3 4 5 6 
#
# 1 0.007236 -0.000568 -0.005286 0.000000 0.000000 0.000000
# 2 -0.000568 0.012679 0.000476 0.000000 0.000000 0.000000
# 3 -0.005286 0.000476 0.008617 0.000000 0.000000 0.000000
# 4 0.000000 0.000000 0.000000 0.009049 0.000000 0.000000
# 5 0.000000 0.000000 0.000000 0.000000 0.004527 0.000000
# 6 0.000000 0.000000 0.000000 0.000000 0.000000 -0.017804
#
#
# Mechanical properties :
#
#
# Convention : Reuss Voigt Hill
#
# Bulk Modulus (GPa) = 56.25532 95.14449 75.69990
# Shear Modulus (GPa) = 121.99499 80.53087 101.26293
#
# Velocity S-wave (km/s) = 7.47731 6.07513 6.81240
# Velocity P-wave (km/s) = 10.01642 9.63402 9.82708
#
# Compressibility (1/GPa) = 0.01777610
#
# Stress axis : x y z
#
# Youngs Moduli (GPa) = 138.20053 78.87347 116.04357
#
# Poissons Ratio (x) = 0.04477 0.61346
# Poissons Ratio (y) = 0.07845 -0.05526
# Poissons Ratio (z) = 0.73059 -0.03756
#
# Static dielectric constant tensor:
#      x y z
#    x 1.744530 0.000000 0.000000 
#    y 0.000000 1.866560 0.000000 
#    z 0.000000 0.000000 1.740510 
# 
# From -- ./inp_files/15287.got.cif
#   From: 2010.05.17/outbox.cif.g08.bks.cpg/sg47_8_cif.got.tgz:15287.got - 2010.06.03 20:15:42.
