data_PCOD9384378
_publ_section_title
;
Structure prediction by ZEFSAII (Michael W. Deem and Ramdas Pophale) SiO2 
 PCOD9384378
Probable space group: P M M M
;
_chemical_formula_sum "Si O2"
_cell_formula_units_Z 56
_cell_length_a 19.632491
_cell_length_b 19.302598
_cell_length_c 7.503534
_cell_angle_alpha 90.000000
_cell_angle_beta 90.000000
_cell_angle_gamma 90.000000
_cell_volume 2843.524849
_symmetry_space_group_name_H-M "P M M M"
_symmetry_group_IT_number 47
_symmetry_cell_setting 'orthorhombic'
loop_
_space_group_symop_operation_xyz
x,y,z
-x,-y,z
x,-y,-z
-x,y,-z
-x,-y,-z
x,y,-z
-x,y,z
x,-y,z
loop_
_atom_site_type_symbol
_atom_site_label
_atom_site_fract_x
_atom_site_fract_y
_atom_site_fract_z
Si Si1 0.221129 0.226119 0.288607
Si Si2 0.928724 0.916619 0.794254
Si Si3 0.136916 0.577162 0.783637
Si Si4 0.718137 0.370125 0.794302
Si Si5 0.574019 0.582051 0.215748
Si Si6 0.779813 0.922618 0.214492
Si Si7 0.075183 0.723683 0.291203
O O1 0.218069 0.236382 0.500000
O O2 0.264772 0.289000 0.212047
O O3 0.254153 0.150952 0.253072
O O4 0.143039 0.237978 0.217853
O O5 0.855474 0.907039 0.708837
O O6 0.000000 0.892132 0.712003
O O7 0.932302 0.000000 0.802312
O O8 0.927247 0.892572 0.000000
O O9 0.115392 0.500000 0.729318
O O10 0.214423 0.592296 0.719863
O O11 0.091470 0.641800 0.723778
O O12 0.137006 0.579435 0.000000
O O13 0.644142 0.385414 0.715383
O O14 0.714913 0.393612 0.000000
O O15 0.500000 0.607630 0.280965
O O16 0.577298 0.500000 0.250574
O O17 0.573017 0.590859 0.000000
O O18 0.757500 0.000000 0.274334
O O19 0.785188 0.927349 0.000000
O O20 0.072232 0.741608 0.500000
O O21 0.000000 0.737479 0.213470
#
# Coordination Sequence:
#
# PCOD9384378 Si02
#       7
#     8   8   8   8   8   8   8
#     4  10  20  32  45  61  83 113 148 184 221 262
#     4   7  10  18  33  53  75  96 119 152 198 252
#     4   9  17  28  43  64  86 108 140 183 226 263
#     4   9  16  28  46  65  89 121 151 177 209 253
#     4   8  13  22  41  72 103 125 148 180 214 246
#     4   9  17  29  45  64  84 105 133 173 219 266
#     4   9  19  34  46  56  76 109 147 185 226 270
#
# _framework density 19.693866
#
# number of rings (size 3 to 8) (size 9 to 14) (size 15 to 20)
#    0.000    3.286    0.000    2.571    0.000    4.000 
#    0.000    1.429    0.000    1.714    0.000    5.000 
#    0.000    0.571    0.000    6.571    0.000    1.857 
#
# Total GULP energy -311784.126263 kJ/mol
# GULP energy per Si atom -5567.573683 kJ/mol
# Density = 1.964904 g / cm^3
# Si number density = 19.693866 Si / 1000 Ang^3
#
#
#
# Elastic Constant Matrix: (Units=GPa)
#
#
# Indices 1 2 3 4 5 6 
#
# 1 89.5379 18.7759 3.4384 0.0000 0.0000 0.0000
# 2 18.7759 108.9168 -9.9840 0.0000 0.0000 0.0000
# 3 3.4384 -9.9840 58.3579 0.0000 0.0000 0.0000
# 4 0.0000 0.0000 0.0000 56.4815 0.0000 0.0000
# 5 0.0000 0.0000 0.0000 0.0000 1.5735 0.0000
# 6 0.0000 0.0000 0.0000 0.0000 0.0000 6.1864
#
#
#
# Elastic Compliance Matrix: (Units=1/GPa)
#
#
# Indices 1 2 3 4 5 6 
#
# 1 0.011650 -0.002104 -0.001046 0.000000 0.000000 0.000000
# 2 -0.002104 0.009708 0.001785 0.000000 0.000000 0.000000
# 3 -0.001046 0.001785 0.017503 0.000000 0.000000 0.000000
# 4 0.000000 0.000000 0.000000 0.017705 0.000000 0.000000
# 5 0.000000 0.000000 0.000000 0.000000 0.635521 0.000000
# 6 0.000000 0.000000 0.000000 0.000000 0.000000 0.161646
#
#
# Mechanical properties :
#
#
# Convention : Reuss Voigt Hill
#
# Bulk Modulus (GPa) = 27.67893 31.25257 29.46575
# Shear Modulus (GPa) = 5.75701 29.15378 17.45539
#
# Velocity S-wave (km/s) = 1.71161 3.85170 2.98037
# Velocity P-wave (km/s) = 4.24161 5.97365 5.18053
#
# Compressibility (1/GPa) = 0.03612857
#
# Stress axis : x y z
#
# Youngs Moduli (GPa) = 85.83770 103.01141 57.13422
#
# Poissons Ratio (x) = 0.21676 0.05979
# Poissons Ratio (y) = 0.18062 -0.10197
# Poissons Ratio (z) = 0.08982 -0.18385
#
# Static dielectric constant tensor:
#      x y z
#    x 1.747410 0.000000 0.000000 
#    y 0.000000 1.726300 0.000000 
#    z 0.000000 0.000000 1.785940 
# 
# From -- ./inp_files/11490.got.cif
#   From: 2010.05.17/outbox.cif.g08.bks.cpg/sg47_6_cif.got.tgz:11490.got - 2010.06.03 20:15:42.
