data_PCOD9384576
_publ_section_title
;
Structure prediction by ZEFSAII (Michael W. Deem and Ramdas Pophale) SiO2 
 PCOD9384576
Probable space group: P M M M
;
_chemical_formula_sum "Si O2"
_cell_formula_units_Z 40
_cell_length_a 8.615015
_cell_length_b 7.363249
_cell_length_c 27.846735
_cell_angle_alpha 90.000000
_cell_angle_beta 90.000000
_cell_angle_gamma 90.000000
_cell_volume 1766.443728
_symmetry_space_group_name_H-M "P M M M"
_symmetry_group_IT_number 47
_symmetry_cell_setting 'orthorhombic'
loop_
_space_group_symop_operation_xyz
x,y,z
-x,-y,z
x,-y,-z
-x,y,-z
-x,-y,-z
x,y,-z
-x,y,z
x,-y,z
loop_
_atom_site_type_symbol
_atom_site_label
_atom_site_fract_x
_atom_site_fract_y
_atom_site_fract_z
Si Si1 0.178455 0.221960 0.500000
Si Si2 0.825543 0.721096 0.894408
Si Si3 0.326641 0.782777 0.599421
Si Si4 0.673985 0.721117 0.797570
Si Si5 0.500000 0.279632 0.056101
Si Si6 0.172993 0.283205 0.701120
O O1 0.256842 0.284581 0.450688
O O2 0.000000 0.275211 0.500000
O O3 0.183994 0.000000 0.500000
O O4 0.826996 0.500000 0.897571
O O5 0.794806 0.772393 0.838854
O O6 0.666361 0.779958 0.921427
O O7 0.000000 0.780019 0.909785
O O8 0.500000 0.712361 0.606367
O O9 0.230485 0.748545 0.647344
O O10 0.334145 0.000000 0.594520
O O11 0.500000 0.779574 0.810374
O O12 0.671908 0.500000 0.797444
O O13 0.719083 0.783645 0.744317
O O14 0.500000 0.500000 0.061445
O O15 0.500000 0.234834 0.000000
O O16 0.167196 0.500000 0.706909
O O17 0.000000 0.210953 0.707042
#
# Coordination Sequence:
#
# PCOD9384576 Si02
#       6
#     4   8   8   8   4   8
#     4   9  17  31  52  73  92 119 154 190 228 275
#     4   9  15  23  35  50  70 100 140 183 227 276
#     4  10  20  34  52  73  96 123 156 192 232 281
#     4   9  15  25  41  59  81 110 144 184 229 276
#     4   9  16  24  32  46  70 100 139 186 231 272
#     4  10  20  32  47  70  97 123 155 196 239 282
#
# _framework density 22.644365000000001
#
# number of rings (size 3 to 8) (size 9 to 14) (size 15 to 20)
#    0.000    2.600    1.000    2.100    0.000    6.400 
#    0.000    2.500    0.000    3.000    0.000    0.000 
#    0.000    0.000    0.000    0.000    0.000    2.000 
#
# Total GULP energy -223297.311682 kJ/mol
# GULP energy per Si atom -5582.432792 kJ/mol
# Density = 2.259283 g / cm^3
# Si number density = 22.644365 Si / 1000 Ang^3
#
#
#
# Elastic Constant Matrix: (Units=GPa)
#
#
# Indices 1 2 3 4 5 6 
#
# 1 176.0585 4.2294 67.1993 0.0000 0.0000 0.0000
# 2 4.2294 81.1020 -2.2698 0.0000 0.0000 0.0000
# 3 67.1993 -2.2698 129.0756 0.0000 0.0000 0.0000
# 4 0.0000 0.0000 0.0000 -27.4743 0.0000 0.0000
# 5 0.0000 0.0000 0.0000 0.0000 7.5107 0.0000
# 6 0.0000 0.0000 0.0000 0.0000 0.0000 -4.3565
#
#
#
# Elastic Compliance Matrix: (Units=1/GPa)
#
#
# Indices 1 2 3 4 5 6 
#
# 1 0.007107 -0.000474 -0.003708 0.000000 0.000000 0.000000
# 2 -0.000474 0.012368 0.000464 0.000000 0.000000 0.000000
# 3 -0.003708 0.000464 0.009686 0.000000 0.000000 0.000000
# 4 0.000000 0.000000 0.000000 -0.036398 0.000000 0.000000
# 5 0.000000 0.000000 0.000000 0.000000 0.133144 0.000000
# 6 0.000000 0.000000 0.000000 0.000000 0.000000 -0.229540
#
#
# Mechanical properties :
#
#
# Convention : Reuss Voigt Hill
#
# Bulk Modulus (GPa) = 46.03113 58.28377 52.15745
# Shear Modulus (GPa) = -56.20808 16.27445 -19.96681
#
# Velocity S-wave (km/s) = -4.98758 2.68376 -2.97266
# Velocity P-wave (km/s) = 3.57715 5.94963 3.36170
#
# Compressibility (1/GPa) = 0.02172443
#
# Stress axis : x y z
#
# Youngs Moduli (GPa) = 140.71200 80.85456 103.24023
#
# Poissons Ratio (x) = 0.03836 0.38284
# Poissons Ratio (y) = 0.06675 -0.04795
# Poissons Ratio (z) = 0.52179 -0.03755
#
# Static dielectric constant tensor:
#      x y z
#    x 1.835520 0.000000 0.000000 
#    y 0.000000 1.902630 0.000000 
#    z 0.000000 0.000000 1.840440 
# 
# From -- ./inp_files/32992.got.cif
#   From: 2010.05.17/outbox.cif.g08.bks.cpg/sg47_17_cif.got.tgz:32992.got - 2010.06.03 20:15:42.
