data_PCOD9384488
_publ_section_title
;
Structure prediction by ZEFSAII (Michael W. Deem and Ramdas Pophale) SiO2 
 PCOD9384488
Probable space group: P M M M
;
_chemical_formula_sum "Si O2"
_cell_formula_units_Z 52
_cell_length_a 28.786729
_cell_length_b 12.418952
_cell_length_c 7.709463
_cell_angle_alpha 90.000000
_cell_angle_beta 90.000000
_cell_angle_gamma 90.000000
_cell_volume 2756.140776
_symmetry_space_group_name_H-M "P M M M"
_symmetry_group_IT_number 47
_symmetry_cell_setting 'orthorhombic'
loop_
_space_group_symop_operation_xyz
x,y,z
-x,-y,z
x,-y,-z
-x,y,-z
-x,-y,-z
x,y,-z
-x,y,z
x,-y,z
loop_
_atom_site_type_symbol
_atom_site_label
_atom_site_fract_x
_atom_site_fract_y
_atom_site_fract_z
Si Si1 0.354742 0.500000 0.199602
Si Si2 0.248181 0.500000 0.288184
Si Si3 0.101138 0.376459 0.790943
Si Si4 0.275343 0.878213 0.205494
Si Si5 0.360144 0.265809 0.795423
Si Si6 0.000000 0.369226 0.800062
Si Si7 0.552017 0.875593 0.709788
Si Si8 0.802854 0.282171 0.705694
O O1 0.298986 0.500000 0.208392
O O2 0.367814 0.614984 0.280645
O O3 0.371875 0.500000 0.000000
O O4 0.251290 0.500000 0.500000
O O5 0.221635 0.392357 0.231461
O O6 0.110948 0.500000 0.729760
O O7 0.143089 0.297415 0.747460
O O8 0.050290 0.341072 0.723483
O O9 0.097735 0.382274 0.000000
O O10 0.316035 0.800377 0.277990
O O11 0.225984 0.819268 0.226522
O O12 0.276454 0.000000 0.276734
O O13 0.284306 0.886776 0.000000
O O14 0.406350 0.196228 0.777306
O O15 0.350083 0.282309 0.000000
O O16 0.000000 0.500000 0.804084
O O17 0.000000 0.330879 0.000000
O O18 0.553222 0.872775 0.500000
O O19 0.500000 0.842021 0.764213
O O20 0.558621 0.000000 0.762614
O O21 0.797976 0.279575 0.500000
#
# Coordination Sequence:
#
# PCOD9384488 Si02
#       8
#     4   4   8   8   8   4   8   8
#     4  10  20  34  53  75 101 132 166 202 242 294
#     4  10  20  32  46  68 100 134 169 205 235 282
#     4   9  16  27  46  69  96 131 168 205 246 291
#     4  10  21  36  53  74  99 128 167 210 248 293
#     4  10  20  34  54  79 103 129 162 202 248 294
#     4   7  12  24  41  65  94 125 164 205 243 289
#     4   9  19  36  56  77 101 131 168 207 246 290
#     4  11  21  32  47  71 103 134 167 204 246 296
#
# _framework density 18.866962000000001
#
# number of rings (size 3 to 8) (size 9 to 14) (size 15 to 20)
#    0.000    2.385    2.308    2.308    0.000    3.385 
#    0.000    1.538    0.000    3.692    0.000    0.538 
#    0.000    4.308    0.000    0.000    0.000    0.000 
#
# Total GULP energy -289929.980995 kJ/mol
# GULP energy per Si atom -5575.576558 kJ/mol
# Density = 1.882402 g / cm^3
# Si number density = 18.866962 Si / 1000 Ang^3
#
#
#
# Elastic Constant Matrix: (Units=GPa)
#
#
# Indices 1 2 3 4 5 6 
#
# 1 120.8568 63.3611 -10.8586 0.0000 0.0000 0.0000
# 2 63.3611 124.1531 6.2568 0.0000 0.0000 0.0000
# 3 -10.8586 6.2568 29.7387 0.0000 0.0000 0.0000
# 4 0.0000 0.0000 0.0000 7.2136 0.0000 0.0000
# 5 0.0000 0.0000 0.0000 0.0000 32.7837 0.0000
# 6 0.0000 0.0000 0.0000 0.0000 0.0000 7.8973
#
#
#
# Elastic Compliance Matrix: (Units=1/GPa)
#
#
# Indices 1 2 3 4 5 6 
#
# 1 0.012223 -0.006532 0.005838 0.000000 0.000000 0.000000
# 2 -0.006532 0.011632 -0.004832 0.000000 0.000000 0.000000
# 3 0.005838 -0.004832 0.036774 0.000000 0.000000 0.000000
# 4 0.000000 0.000000 0.000000 0.138627 0.000000 0.000000
# 5 0.000000 0.000000 0.000000 0.000000 0.030503 0.000000
# 6 0.000000 0.000000 0.000000 0.000000 0.000000 0.126625
#
#
# Mechanical properties :
#
#
# Convention : Reuss Voigt Hill
#
# Bulk Modulus (GPa) = 20.17141 43.58526 31.87834
# Shear Modulus (GPa) = 13.02206 23.97821 18.50014
#
# Velocity S-wave (km/s) = 2.63002 3.56885 3.13478
# Velocity P-wave (km/s) = 4.46512 6.33512 5.48047
#
# Compressibility (1/GPa) = 0.04957511
#
# Stress axis : x y z
#
# Youngs Moduli (GPa) = 81.80998 85.97055 27.19285
#
# Poissons Ratio (x) = 0.56159 -0.15874
# Poissons Ratio (y) = 0.53441 0.13141
# Poissons Ratio (z) = -0.47757 0.41545
#
# Static dielectric constant tensor:
#      x y z
#    x 1.662480 0.000000 0.000000 
#    y 0.000000 1.667340 0.000000 
#    z 0.000000 0.000000 1.708580 
# 
# From -- ./inp_files/13302.got.cif
#   From: 2010.05.17/outbox.cif.g08.bks.cpg/sg47_7_cif.got.tgz:13302.got - 2010.06.03 20:15:42.
