data_PCOD9384417
_publ_section_title
;
Structure prediction by ZEFSAII (Michael W. Deem and Ramdas Pophale) SiO2 
 PCOD9384417
Probable space group: P M M M
;
_chemical_formula_sum "Si O2"
_cell_formula_units_Z 64
_cell_length_a 21.536744
_cell_length_b 20.403768
_cell_length_c 7.360039
_cell_angle_alpha 90.000000
_cell_angle_beta 90.000000
_cell_angle_gamma 90.000000
_cell_volume 3234.227296
_symmetry_space_group_name_H-M "P M M M"
_symmetry_group_IT_number 47
_symmetry_cell_setting 'orthorhombic'
loop_
_space_group_symop_operation_xyz
x,y,z
-x,-y,z
x,-y,-z
-x,y,-z
-x,-y,-z
x,y,-z
-x,y,z
x,-y,z
loop_
_atom_site_type_symbol
_atom_site_label
_atom_site_fract_x
_atom_site_fract_y
_atom_site_fract_z
Si Si1 0.886878 0.072616 0.287259
Si Si2 0.259990 0.072361 0.781019
Si Si3 0.431041 0.289533 0.778143
Si Si4 0.810982 0.288832 0.777817
Si Si5 0.688418 0.791435 0.778209
Si Si6 0.233606 0.427586 0.220831
Si Si7 0.067660 0.214440 0.789879
Si Si8 0.621459 0.427530 0.779028
O O1 0.901441 0.071753 0.500000
O O2 0.812619 0.081561 0.265668
O O3 0.919636 0.136578 0.211008
O O4 0.902261 0.000000 0.213193
O O5 0.299803 0.134107 0.718097
O O6 0.278716 0.000000 0.716193
O O7 0.262955 0.072007 0.000000
O O8 0.500000 0.269791 0.721289
O O9 0.375154 0.242544 0.718818
O O10 0.416314 0.364075 0.720194
O O11 0.430060 0.289517 0.000000
O O12 0.748451 0.250848 0.723004
O O13 0.804867 0.364375 0.720739
O O14 0.872448 0.251603 0.712492
O O15 0.811040 0.287064 0.000000
O O16 0.687809 0.791152 0.000000
O O17 0.213008 0.500000 0.280337
O O18 0.306078 0.419481 0.272100
O O19 0.232816 0.427623 0.000000
O O20 0.000000 0.227627 0.708280
O O21 0.064955 0.234940 0.000000
O O22 0.600470 0.500000 0.719961
O O23 0.619822 0.427754 0.000000
#
# Coordination Sequence:
#
# PCOD9384417 Si02
#       8
#     8   8   8   8   8   8   8   8
#     4  10  20  32  46  66  92 117 139 169 215 263
#     4   9  16  27  45  65  83 108 145 181 210 246
#     4   9  15  20  27  44  72 104 136 171 210 249
#     4   9  14  23  39  56  75 103 140 179 212 245
#     4   9  14  22  37  54  72 101 139 175 209 246
#     4   8  12  18  31  51  74 101 135 174 214 254
#     4  10  20  32  46  64  85 114 151 183 208 241
#     4   8  12  17  24  37  61  96 137 171 197 236
#
# _framework density 19.788343000000001
#
# number of rings (size 3 to 8) (size 9 to 14) (size 15 to 20)
#    0.000    3.000    2.500    1.125    0.000    1.500 
#    0.000    2.500    0.000    0.750    0.000    5.250 
#    0.000    1.000    0.000    4.250    0.000    4.875 
#
# Total GULP energy -357024.484804 kJ/mol
# GULP energy per Si atom -5578.507575 kJ/mol
# Density = 1.974330 g / cm^3
# Si number density = 19.788343 Si / 1000 Ang^3
#
#
#
# Elastic Constant Matrix: (Units=GPa)
#
#
# Indices 1 2 3 4 5 6 
#
# 1 140.8698 86.6831 3.0356 0.0000 0.0000 0.0000
# 2 86.6831 145.1131 1.2199 0.0000 0.0000 0.0000
# 3 3.0356 1.2199 71.8645 0.0000 0.0000 0.0000
# 4 0.0000 0.0000 0.0000 -42.9013 0.0000 0.0000
# 5 0.0000 0.0000 0.0000 0.0000 -69.4287 0.0000
# 6 0.0000 0.0000 0.0000 0.0000 0.0000 28.6295
#
#
#
# Elastic Compliance Matrix: (Units=1/GPa)
#
#
# Indices 1 2 3 4 5 6 
#
# 1 0.011234 -0.006708 -0.000361 0.000000 0.000000 0.000000
# 2 -0.006708 0.010897 0.000098 0.000000 0.000000 0.000000
# 3 -0.000361 0.000098 0.013929 0.000000 0.000000 0.000000
# 4 0.000000 0.000000 0.000000 -0.023309 0.000000 0.000000
# 5 0.000000 0.000000 0.000000 0.000000 -0.014403 0.000000
# 6 0.000000 0.000000 0.000000 0.000000 0.000000 0.034929
#
#
# Mechanical properties :
#
#
# Convention : Reuss Voigt Hill
#
# Bulk Modulus (GPa) = 45.20805 59.96940 52.58872
# Shear Modulus (GPa) = 91.59319 1.05381 46.32350
#
# Velocity S-wave (km/s) = 6.81079 0.73055 4.84358
# Velocity P-wave (km/s) = 9.20568 5.57520 7.61011
#
# Compressibility (1/GPa) = 0.02211996
#
# Stress axis : x y z
#
# Youngs Moduli (GPa) = 89.01574 91.76752 71.79451
#
# Poissons Ratio (x) = 0.61554 0.02589
# Poissons Ratio (y) = 0.59708 -0.00706
# Poissons Ratio (z) = 0.03210 -0.00902
#
# Static dielectric constant tensor:
#      x y z
#    x 1.665450 0.000000 0.000000 
#    y 0.000000 1.706870 0.000000 
#    z 0.000000 0.000000 1.743750 
# 
# From -- ./inp_files/11806.got.cif
#   From: 2010.05.17/outbox.cif.g08.bks.cpg/sg47_6_cif.got.tgz:11806.got - 2010.06.03 20:15:42.
