data_PCOD9384213
_publ_section_title
;
Structure prediction by ZEFSAII (Michael W. Deem and Ramdas Pophale) SiO2 
 PCOD9384213
Probable space group: P M M M
;
_chemical_formula_sum "Si O2"
_cell_formula_units_Z 36
_cell_length_a 24.573619
_cell_length_b 7.418107
_cell_length_c 9.674563
_cell_angle_alpha 90.000000
_cell_angle_beta 90.000000
_cell_angle_gamma 90.000000
_cell_volume 1763.573527
_symmetry_space_group_name_H-M "P M M M"
_symmetry_group_IT_number 47
_symmetry_cell_setting 'orthorhombic'
loop_
_space_group_symop_operation_xyz
x,y,z
-x,-y,z
x,-y,-z
-x,y,-z
-x,-y,-z
x,y,-z
-x,y,z
x,-y,z
loop_
_atom_site_type_symbol
_atom_site_label
_atom_site_fract_x
_atom_site_fract_y
_atom_site_fract_z
Si Si1 0.061317 0.283161 0.843577
Si Si2 0.500000 0.781007 0.835370
Si Si3 0.382894 0.783415 0.834310
Si Si4 0.164088 0.786611 0.655217
Si Si5 0.263889 0.220699 0.160554
O O1 0.059755 0.500000 0.847687
O O2 0.107578 0.233886 0.735995
O O3 0.000000 0.221265 0.808915
O O4 0.074422 0.220841 0.000000
O O5 0.441411 0.716649 0.779879
O O6 0.500000 0.000000 0.824492
O O7 0.500000 0.741223 0.000000
O O8 0.323609 0.720019 0.786271
O O9 0.383363 0.000000 0.815517
O O10 0.382782 0.751748 0.000000
O O11 0.161734 0.712746 0.500000
O O12 0.213980 0.715031 0.746828
O O13 0.173857 0.000000 0.644307
O O14 0.264156 0.000000 0.160270
O O15 0.257228 0.274305 0.000000
#
# Coordination Sequence:
#
# PCOD9384213 Si02
#       5
#     8   4   8   8   8
#     4   9  19  36  55  72  89 111 141 176 215 260
#     4   7   8  10  18  36  63  91 122 165 212 251
#     4   7   9  13  23  41  65  94 129 169 211 251
#     4  10  20  31  44  66  94 121 149 180 214 253
#     4   8  13  22  36  53  75 106 143 179 214 252
#
# _framework density 20.413098999999999
#
# number of rings (size 3 to 8) (size 9 to 14) (size 15 to 20)
#    0.000    3.667    0.000    4.000    0.000    2.667 
#    0.000    3.333    0.000    0.000    0.000    0.778 
#    0.000    6.222    0.000    1.000    0.000   24.000 
#
# Total GULP energy -200462.297258 kJ/mol
# GULP energy per Si atom -5568.397146 kJ/mol
# Density = 2.036664 g / cm^3
# Si number density = 20.413099 Si / 1000 Ang^3
#
#
#
# Elastic Constant Matrix: (Units=GPa)
#
#
# Indices 1 2 3 4 5 6 
#
# 1 229.9090 1.8840 112.3981 0.0000 0.0000 0.0000
# 2 1.8840 61.3740 4.0386 0.0000 0.0000 0.0000
# 3 112.3981 4.0386 94.4456 0.0000 0.0000 0.0000
# 4 0.0000 0.0000 0.0000 -62.4705 0.0000 0.0000
# 5 0.0000 0.0000 0.0000 0.0000 -6.0552 0.0000
# 6 0.0000 0.0000 0.0000 0.0000 0.0000 115.9424
#
#
#
# Elastic Compliance Matrix: (Units=1/GPa)
#
#
# Indices 1 2 3 4 5 6 
#
# 1 0.010416 0.000497 -0.012417 0.000000 0.000000 0.000000
# 2 0.000497 0.016363 -0.001292 0.000000 0.000000 0.000000
# 3 -0.012417 -0.001292 0.025421 0.000000 0.000000 0.000000
# 4 0.000000 0.000000 0.000000 -0.016008 0.000000 0.000000
# 5 0.000000 0.000000 0.000000 0.000000 -0.165148 0.000000
# 6 0.000000 0.000000 0.000000 0.000000 0.000000 0.008625
#
#
# Mechanical properties :
#
#
# Convention : Reuss Voigt Hill
#
# Bulk Modulus (GPa) = 38.79394 69.15221 53.97307
# Shear Modulus (GPa) = -58.60590 27.31054 -15.64768
#
# Velocity S-wave (km/s) = -5.36398 3.66169 -2.77167
# Velocity P-wave (km/s) = 4.39515 7.19911 4.03174
#
# Compressibility (1/GPa) = 0.02577722
#
# Stress axis : x y z
#
# Youngs Moduli (GPa) = 96.00660 61.11245 39.33801
#
# Poissons Ratio (x) = -0.03039 0.48846
# Poissons Ratio (y) = -0.04775 0.05081
# Poissons Ratio (z) = 1.19212 0.07893
#
# Static dielectric constant tensor:
#      x y z
#    x 1.774010 0.000000 0.000000 
#    y 0.000000 1.804470 0.000000 
#    z 0.000000 0.000000 1.677360 
# 
# From -- ./inp_files/4198.got.cif
#   From: 2010.05.17/outbox.cif.g08.bks.cpg/sg47_3_cif.got.tgz:4198.got - 2010.06.03 20:15:42.
