data_PCOD9384172
_publ_section_title
;
Structure prediction by ZEFSAII (Michael W. Deem and Ramdas Pophale) SiO2 
 PCOD9384172
Probable space group: P M M M
;
_chemical_formula_sum "Si O2"
_cell_formula_units_Z 56
_cell_length_a 15.687368
_cell_length_b 20.619595
_cell_length_c 8.939123
_cell_angle_alpha 90.000000
_cell_angle_beta 90.000000
_cell_angle_gamma 90.000000
_cell_volume 2891.512862
_symmetry_space_group_name_H-M "P M M M"
_symmetry_group_IT_number 47
_symmetry_cell_setting 'orthorhombic'
loop_
_space_group_symop_operation_xyz
x,y,z
-x,-y,z
x,-y,-z
-x,y,-z
-x,-y,-z
x,y,-z
-x,y,z
x,-y,z
loop_
_atom_site_type_symbol
_atom_site_label
_atom_site_fract_x
_atom_site_fract_y
_atom_site_fract_z
Si Si1 0.405084 0.782021 0.180791
Si Si2 0.278299 0.679078 0.322899
Si Si3 0.902653 0.836024 0.836289
Si Si4 0.620035 0.070982 0.176665
Si Si5 0.599849 0.423127 0.175420
Si Si6 0.205755 0.929525 0.667217
Si Si7 0.903747 0.319441 0.825577
O O1 0.500000 0.754387 0.215131
O O2 0.326876 0.741585 0.250264
O O3 0.407146 0.857630 0.230796
O O4 0.395290 0.780972 0.000000
O O5 0.274548 0.688189 0.500000
O O6 0.338969 0.619567 0.276277
O O7 0.183032 0.664262 0.261539
O O8 0.854384 0.870461 0.703878
O O9 0.903309 0.758873 0.823217
O O10 0.000000 0.858188 0.835561
O O11 0.865057 0.852403 0.000000
O O12 0.719734 0.071177 0.212528
O O13 0.590577 0.000000 0.236301
O O14 0.602080 0.070445 0.000000
O O15 0.500000 0.411678 0.208156
O O16 0.615265 0.500000 0.191548
O O17 0.613603 0.405993 0.000000
O O18 0.242301 0.924327 0.500000
O O19 0.161854 0.000000 0.677193
O O20 0.000000 0.339616 0.773723
O O21 0.896017 0.339531 0.000000
#
# Coordination Sequence:
#
# PCOD9384172 Si02
#       7
#     8   8   8   8   8   8   8
#     4  10  21  36  54  77 107 144 186 233 282 333
#     4  12  24  35  54  86 122 155 185 225 278 333
#     4   9  18  32  49  68  89 117 159 212 268 322
#     4   9  18  33  52  71  92 125 173 227 279 327
#     4   9  19  38  64  91 119 155 198 237 272 318
#     4  10  20  31  43  62  89 121 158 202 257 325
#     4   9  19  37  59  80 104 139 184 231 276 324
#
# _framework density 19.367024000000001
#
# number of rings (size 3 to 8) (size 9 to 14) (size 15 to 20)
#    0.000    2.286    0.000    4.286    0.000    9.143 
#    0.000    5.000    0.000    0.429    0.000    6.000 
#    0.000    0.000    0.000    0.000    0.000    0.000 
#
# Total GULP energy -311974.858167 kJ/mol
# GULP energy per Si atom -5570.979610 kJ/mol
# Density = 1.932294 g / cm^3
# Si number density = 19.367024 Si / 1000 Ang^3
#
#
#
# Elastic Constant Matrix: (Units=GPa)
#
#
# Indices 1 2 3 4 5 6 
#
# 1 102.5077 28.6159 44.6799 0.0000 0.0000 0.0000
# 2 28.6159 53.1501 20.6138 0.0000 0.0000 0.0000
# 3 44.6799 20.6138 51.8766 0.0000 0.0000 0.0000
# 4 0.0000 0.0000 0.0000 -23.4674 0.0000 0.0000
# 5 0.0000 0.0000 0.0000 0.0000 -0.1111 0.0000
# 6 0.0000 0.0000 0.0000 0.0000 0.0000 9.1186
#
#
#
# Elastic Compliance Matrix: (Units=1/GPa)
#
#
# Indices 1 2 3 4 5 6 
#
# 1 0.016286 -0.003935 -0.012463 0.000000 0.000000 0.000000
# 2 -0.003935 0.023193 -0.005827 0.000000 0.000000 0.000000
# 3 -0.012463 -0.005827 0.032326 0.000000 0.000000 0.000000
# 4 0.000000 0.000000 0.000000 -0.042612 0.000000 0.000000
# 5 0.000000 0.000000 0.000000 0.000000 -8.997377 0.000000
# 6 0.000000 0.000000 0.000000 0.000000 0.000000 0.109666
#
#
# Mechanical properties :
#
#
# Convention : Reuss Voigt Hill
#
# Bulk Modulus (GPa) = 36.55617 43.92815 40.24216
# Shear Modulus (GPa) = -0.56786 4.68300 2.05757
#
# Velocity S-wave (km/s) = -0.54208 1.55669 1.03185
# Velocity P-wave (km/s) = 4.30403 5.09531 4.71629
#
# Compressibility (1/GPa) = 0.02735516
#
# Stress axis : x y z
#
# Youngs Moduli (GPa) = 61.40195 43.11626 30.93449
#
# Poissons Ratio (x) = 0.16965 0.38555
# Poissons Ratio (y) = 0.24159 0.18026
# Poissons Ratio (z) = 0.76527 0.25125
#
# Static dielectric constant tensor:
#      x y z
#    x 1.700320 0.000000 0.000000 
#    y 0.000000 1.697390 0.000000 
#    z 0.000000 0.000000 1.677350 
# 
# From -- ./inp_files/7371.got.cif
#   From: 2010.05.17/outbox.cif.g08.bks.cpg/sg47_4_cif.got.tgz:7371.got - 2010.06.03 20:15:42.
