data_PCOD9384845
_publ_section_title
;
Structure prediction by ZEFSAII (Michael W. Deem and Ramdas Pophale) SiO2 
 PCOD9384845
Probable space group: P M M M
;
_chemical_formula_sum "Si O2"
_cell_formula_units_Z 48
_cell_length_a 13.764462
_cell_length_b 13.751251
_cell_length_c 13.844401
_cell_angle_alpha 90.000000
_cell_angle_beta 90.000000
_cell_angle_gamma 90.000000
_cell_volume 2620.448449
_symmetry_space_group_name_H-M "P M M M"
_symmetry_group_IT_number 47
_symmetry_cell_setting 'orthorhombic'
loop_
_space_group_symop_operation_xyz
x,y,z
-x,-y,z
x,-y,-z
-x,y,-z
-x,-y,-z
x,y,-z
-x,y,z
x,-y,z
loop_
_atom_site_type_symbol
_atom_site_label
_atom_site_fract_x
_atom_site_fract_y
_atom_site_fract_z
Si Si1 0.382521 0.106393 0.611498
Si Si2 0.614449 0.304217 0.722254
Si Si3 0.117340 0.500000 0.890887
Si Si4 0.389818 0.000000 0.883649
Si Si5 0.713267 0.795798 0.884497
Si Si6 0.114438 0.701310 0.784257
Si Si7 0.785885 0.611429 0.612891
O O1 0.351228 0.116562 0.500000
O O2 0.500000 0.104043 0.610940
O O3 0.357672 0.201582 0.671031
O O4 0.349321 0.000000 0.647391
O O5 0.500000 0.321666 0.712987
O O6 0.646225 0.285529 0.832510
O O7 0.681936 0.380201 0.666605
O O8 0.142442 0.598926 0.835991
O O9 0.000000 0.500000 0.895522
O O10 0.155655 0.500000 0.000000
O O11 0.333751 0.099321 0.861445
O O12 0.500000 0.000000 0.842690
O O13 0.398745 0.000000 0.000000
O O14 0.818538 0.781076 0.835843
O O15 0.718098 0.784718 0.000000
O O16 0.144509 0.682686 0.673449
O O17 0.000000 0.718110 0.795086
O O18 0.777150 0.636044 0.500000
O O19 0.821527 0.500000 0.619623
#
# Coordination Sequence:
#
# PCOD9384845 Si02
#       7
#     8   8   4   4   8   8   8
#     4   8  14  25  42  66  95 126 165 215 266 311
#     4  10  20  32  50  74 105 145 187 229 272 323
#     4   9  16  28  51  79 104 135 175 219 271 327
#     4   9  18  34  55  79 110 149 189 225 267 319
#     4  10  21  35  53  81 113 145 186 231 275 325
#     4  10  20  36  57  82 109 140 181 228 280 336
#     4  10  21  36  54  79 110 141 178 226 276 331
#
# _framework density 18.317475000000002
#
# number of rings (size 3 to 8) (size 9 to 14) (size 15 to 20)
#    0.000    2.500    0.833    2.000    1.167    3.667 
#    0.000    2.083    0.000    1.500    0.000    2.333 
#    0.000    3.000    0.000    0.000    0.000    0.000 
#
# Total GULP energy -267576.124035 kJ/mol
# GULP energy per Si atom -5574.502584 kJ/mol
# Density = 1.827578 g / cm^3
# Si number density = 18.317475 Si / 1000 Ang^3
#
#
#
# Elastic Constant Matrix: (Units=GPa)
#
#
# Indices 1 2 3 4 5 6 
#
# 1 98.4858 33.5956 29.1709 0.0000 0.0000 0.0000
# 2 33.5956 58.7740 29.6511 0.0000 0.0000 0.0000
# 3 29.1709 29.6511 113.2046 0.0000 0.0000 0.0000
# 4 0.0000 0.0000 0.0000 26.6760 0.0000 0.0000
# 5 0.0000 0.0000 0.0000 0.0000 18.0031 0.0000
# 6 0.0000 0.0000 0.0000 0.0000 0.0000 23.4829
#
#
#
# Elastic Compliance Matrix: (Units=1/GPa)
#
#
# Indices 1 2 3 4 5 6 
#
# 1 0.012860 -0.006544 -0.001600 0.000000 0.000000 0.000000
# 2 -0.006544 0.022935 -0.004321 0.000000 0.000000 0.000000
# 3 -0.001600 -0.004321 0.010378 0.000000 0.000000 0.000000
# 4 0.000000 0.000000 0.000000 0.037487 0.000000 0.000000
# 5 0.000000 0.000000 0.000000 0.000000 0.055546 0.000000
# 6 0.000000 0.000000 0.000000 0.000000 0.000000 0.042584
#
#
# Mechanical properties :
#
#
# Convention : Reuss Voigt Hill
#
# Bulk Modulus (GPa) = 47.07399 50.58884 48.83142
# Shear Modulus (GPa) = 23.38647 25.50219 24.44433
#
# Velocity S-wave (km/s) = 3.57701 3.73531 3.65702
# Velocity P-wave (km/s) = 6.54330 6.80303 6.67443
#
# Compressibility (1/GPa) = 0.02124315
#
# Stress axis : x y z
#
# Youngs Moduli (GPa) = 77.76178 43.60218 96.36170
#
# Poissons Ratio (x) = 0.28532 0.15416
# Poissons Ratio (y) = 0.50885 0.41637
# Poissons Ratio (z) = 0.12440 0.18840
#
# Static dielectric constant tensor:
#      x y z
#    x 1.615750 0.000000 0.000000 
#    y 0.000000 1.652150 0.000000 
#    z 0.000000 0.000000 1.684830 
# 
# From -- ./inp_files/23615.got.cif
#   From: 2010.05.17/outbox.cif.g08.bks.cpg/sg47_12_cif.got.tgz:23615.got - 2010.06.03 20:15:42.
