data_PCOD9384330
_publ_section_title
;
Structure prediction by ZEFSAII (Michael W. Deem and Ramdas Pophale) SiO2 
 PCOD9384330
Probable space group: P M M M
;
_chemical_formula_sum "Si O2"
_cell_formula_units_Z 52
_cell_length_a 7.695077
_cell_length_b 16.517611
_cell_length_c 21.063498
_cell_angle_alpha 90.000000
_cell_angle_beta 90.000000
_cell_angle_gamma 90.000000
_cell_volume 2677.260927
_symmetry_space_group_name_H-M "P M M M"
_symmetry_group_IT_number 47
_symmetry_cell_setting 'orthorhombic'
loop_
_space_group_symop_operation_xyz
x,y,z
-x,-y,z
x,-y,-z
-x,y,-z
-x,-y,-z
x,y,-z
-x,y,z
x,-y,z
loop_
_atom_site_type_symbol
_atom_site_label
_atom_site_fract_x
_atom_site_fract_y
_atom_site_fract_z
Si Si1 0.709538 0.090456 0.927056
Si Si2 0.712099 0.500000 0.428391
Si Si3 0.788964 0.095432 0.430745
Si Si4 0.288700 0.365386 0.330311
Si Si5 0.204176 0.230043 0.828298
Si Si6 0.800302 0.813201 0.309078
Si Si7 0.707691 0.411770 0.188124
O O1 0.500000 0.088920 0.927635
O O2 0.761599 0.164773 0.882744
O O3 0.767935 0.000000 0.905930
O O4 0.767916 0.101638 0.000000
O O5 0.500000 0.500000 0.429485
O O6 0.774900 0.500000 0.500000
O O7 0.764123 0.577559 0.387635
O O8 0.728259 0.127100 0.500000
O O9 0.720207 0.134337 0.365801
O O10 0.000000 0.105597 0.430320
O O11 0.753813 0.000000 0.429369
O O12 0.500000 0.357989 0.330177
O O13 0.205283 0.277997 0.334649
O O14 0.238845 0.402398 0.261926
O O15 0.281467 0.196469 0.761365
O O16 0.253910 0.323581 0.842107
O O17 0.000000 0.234452 0.817285
O O18 0.000000 0.841804 0.300907
O O19 0.500000 0.416792 0.186961
O O20 0.773738 0.500000 0.164049
#
# Coordination Sequence:
#
# PCOD9384330 Si02
#       7
#     8   4   8   8   8   8   8
#     4   9  19  37  59  80 104 137 173 205 239 286
#     4   9  16  26  41  61  85 115 154 199 244 293
#     4   8  14  26  44  62  81 114 160 201 236 281
#     4   9  16  28  44  62  85 116 156 196 237 289
#     4  10  20  31  47  77 110 135 163 204 257 308
#     4   9  18  30  44  67  96 122 153 197 247 290
#     4   9  16  29  50  70  92 129 174 213 248 291
#
# _framework density 19.422837000000001
#
# number of rings (size 3 to 8) (size 9 to 14) (size 15 to 20)
#    0.000    3.000    0.769    1.385    0.000    2.769 
#    0.000    2.692    0.000    1.385    0.000    4.308 
#    0.000    0.000    0.000    0.000    0.000    0.000 
#
# Total GULP energy -289483.229254 kJ/mol
# GULP energy per Si atom -5566.985178 kJ/mol
# Density = 1.937863 g / cm^3
# Si number density = 19.422837 Si / 1000 Ang^3
#
#
#
# Elastic Constant Matrix: (Units=GPa)
#
#
# Indices 1 2 3 4 5 6 
#
# 1 31.6320 5.1513 1.4533 0.0000 0.0000 0.0000
# 2 5.1513 134.7888 79.0152 0.0000 0.0000 0.0000
# 3 1.4533 79.0152 87.5951 0.0000 0.0000 0.0000
# 4 0.0000 0.0000 0.0000 23.5766 0.0000 0.0000
# 5 0.0000 0.0000 0.0000 0.0000 4.8470 0.0000
# 6 0.0000 0.0000 0.0000 0.0000 0.0000 16.6994
#
#
#
# Elastic Compliance Matrix: (Units=1/GPa)
#
#
# Indices 1 2 3 4 5 6 
#
# 1 0.031872 -0.001927 0.001210 0.000000 0.000000 0.000000
# 2 -0.001927 0.015861 -0.014276 0.000000 0.000000 0.000000
# 3 0.001210 -0.014276 0.024274 0.000000 0.000000 0.000000
# 4 0.000000 0.000000 0.000000 0.042415 0.000000 0.000000
# 5 0.000000 0.000000 0.000000 0.000000 0.206311 0.000000
# 6 0.000000 0.000000 0.000000 0.000000 0.000000 0.059883
#
#
# Mechanical properties :
#
#
# Convention : Reuss Voigt Hill
#
# Bulk Modulus (GPa) = 23.79813 47.25059 35.52436
# Shear Modulus (GPa) = 11.77555 20.25102 16.01329
#
# Velocity S-wave (km/s) = 2.46493 3.23250 2.87445
# Velocity P-wave (km/s) = 4.51447 6.18968 5.41722
#
# Compressibility (1/GPa) = 0.04202011
#
# Stress axis : x y z
#
# Youngs Moduli (GPa) = 31.37569 63.04655 41.19715
#
# Poissons Ratio (x) = 0.12150 -0.04983
# Poissons Ratio (y) = 0.06047 0.58812
# Poissons Ratio (z) = -0.03795 0.90003
#
# Static dielectric constant tensor:
#      x y z
#    x 1.723740 0.000000 0.000000 
#    y 0.000000 1.690380 0.000000 
#    z 0.000000 0.000000 1.693140 
# 
# From -- ./inp_files/7577.got.cif
#   From: 2010.05.17/outbox.cif.g08.bks.cpg/sg47_4_cif.got.tgz:7577.got - 2010.06.03 20:15:42.
