data_PCOD9384118
_publ_section_title
;
Structure prediction by ZEFSAII (Michael W. Deem and Ramdas Pophale) SiO2 
 PCOD9384118
Probable space group: P M M M
;
_chemical_formula_sum "Si O2"
_cell_formula_units_Z 48
_cell_length_a 22.793639
_cell_length_b 18.484093
_cell_length_c 9.208695
_cell_angle_alpha 90.000000
_cell_angle_beta 90.000000
_cell_angle_gamma 90.000000
_cell_volume 3879.805012
_symmetry_space_group_name_H-M "P M M M"
_symmetry_group_IT_number 47
_symmetry_cell_setting 'orthorhombic'
loop_
_space_group_symop_operation_xyz
x,y,z
-x,-y,z
x,-y,-z
-x,y,-z
-x,-y,-z
x,y,-z
-x,y,z
x,-y,z
loop_
_atom_site_type_symbol
_atom_site_label
_atom_site_fract_x
_atom_site_fract_y
_atom_site_fract_z
Si Si1 0.500000 0.411772 0.833221
Si Si2 0.138461 0.356471 0.824920
Si Si3 0.070170 0.226672 0.672460
Si Si4 0.066644 0.500000 0.175962
Si Si5 0.383833 0.587921 0.667354
Si Si6 0.928874 0.919215 0.831767
Si Si7 0.747945 0.585989 0.324823
O O1 0.500000 0.500000 0.826013
O O2 0.559969 0.387255 0.757032
O O3 0.500000 0.390667 0.000000
O O4 0.106069 0.287408 0.757962
O O5 0.100982 0.427734 0.781925
O O6 0.202595 0.369446 0.757913
O O7 0.140554 0.352129 0.000000
O O8 0.079358 0.232503 0.500000
O O9 0.088290 0.147449 0.730812
O O10 0.000000 0.235480 0.700181
O O11 0.000000 0.500000 0.230419
O O12 0.064626 0.500000 0.000000
O O13 0.390697 0.609932 0.500000
O O14 0.384006 0.500000 0.669424
O O15 0.318420 0.608252 0.717321
O O16 0.000000 0.920763 0.829614
O O17 0.908996 0.000000 0.788136
O O18 0.911694 0.906784 0.000000
O O19 0.753073 0.593516 0.500000
O O20 0.755094 0.500000 0.292323
#
# Coordination Sequence:
#
# PCOD9384118 Si02
#       7
#     4   8   8   4   8   8   8
#     4   9  15  21  31  51  73  89 107 141 180 211
#     4  11  20  30  43  56  72  95 124 159 196 233
#     4  10  20  31  42  58  78  98 121 151 189 229
#     4   9  18  30  41  53  67  86 117 156 197 237
#     4   8  14  24  37  50  66  91 116 139 175 223
#     4   8  14  26  44  63  80  97 116 139 173 220
#     4   9  17  29  42  54  70  92 120 155 191 228
#
# _framework density 12.371755
#
# number of rings (size 3 to 8) (size 9 to 14) (size 15 to 20)
#    0.000    2.833    0.833    3.250    0.000    3.667 
#    0.000    3.333    0.000    2.000    0.000    0.000 
#    0.000    0.000    0.000    0.000    0.000    0.000 
#
# Total GULP energy -267240.291085 kJ/mol
# GULP energy per Si atom -5567.506064 kJ/mol
# Density = 1.234360 g / cm^3
# Si number density = 12.371755 Si / 1000 Ang^3
#
#
#
# Elastic Constant Matrix: (Units=GPa)
#
#
# Indices 1 2 3 4 5 6 
#
# 1 98.7195 37.6359 51.6438 0.0000 0.0000 0.0000
# 2 37.6359 69.7045 38.0701 0.0000 0.0000 0.0000
# 3 51.6438 38.0701 56.8688 0.0000 0.0000 0.0000
# 4 0.0000 0.0000 0.0000 14.6737 0.0000 0.0000
# 5 0.0000 0.0000 0.0000 0.0000 17.1374 0.0000
# 6 0.0000 0.0000 0.0000 0.0000 0.0000 1.6717
#
#
#
# Elastic Compliance Matrix: (Units=1/GPa)
#
#
# Indices 1 2 3 4 5 6 
#
# 1 0.019377 -0.001342 -0.016698 0.000000 0.000000 0.000000
# 2 -0.001342 0.022708 -0.013982 0.000000 0.000000 0.000000
# 3 -0.016698 -0.013982 0.042108 0.000000 0.000000 0.000000
# 4 0.000000 0.000000 0.000000 0.068149 0.000000 0.000000
# 5 0.000000 0.000000 0.000000 0.000000 0.058352 0.000000
# 6 0.000000 0.000000 0.000000 0.000000 0.000000 0.598206
#
#
# Mechanical properties :
#
#
# Convention : Reuss Voigt Hill
#
# Bulk Modulus (GPa) = 49.63352 53.33246 51.48299
# Shear Modulus (GPa) = 5.68401 13.22609 9.45505
#
# Velocity S-wave (km/s) = 2.14577 3.27319 2.76750
# Velocity P-wave (km/s) = 6.80769 7.58201 7.20526
#
# Compressibility (1/GPa) = 0.02014768
#
# Stress axis : x y z
#
# Youngs Moduli (GPa) = 51.60843 44.03778 23.74836
#
# Poissons Ratio (x) = 0.05912 0.39654
# Poissons Ratio (y) = 0.06928 0.33206
# Poissons Ratio (z) = 0.86174 0.61575
#
# Static dielectric constant tensor:
#      x y z
#    x 1.401710 0.000000 0.000000 
#    y 0.000000 1.385340 0.000000 
#    z 0.000000 0.000000 1.409860 
# 
# From -- ./inp_files/11413.got.cif
#   From: 2010.05.17/outbox.cif.g08.bks.cpg/sg47_6_cif.got.tgz:11413.got - 2010.06.03 20:15:42.
