data_PCOD9384293
_publ_section_title
;
Structure prediction by ZEFSAII (Michael W. Deem and Ramdas Pophale) SiO2 
 PCOD9384293
Probable space group: P M M M
;
_chemical_formula_sum "Si O2"
_cell_formula_units_Z 44
_cell_length_a 29.632965
_cell_length_b 9.690886
_cell_length_c 7.670529
_cell_angle_alpha 90.000000
_cell_angle_beta 90.000000
_cell_angle_gamma 90.000000
_cell_volume 2202.743402
_symmetry_space_group_name_H-M "P M M M"
_symmetry_group_IT_number 47
_symmetry_cell_setting 'orthorhombic'
loop_
_space_group_symop_operation_xyz
x,y,z
-x,-y,z
x,-y,-z
-x,y,-z
-x,-y,-z
x,y,-z
-x,y,z
x,-y,z
loop_
_atom_site_type_symbol
_atom_site_label
_atom_site_fract_x
_atom_site_fract_y
_atom_site_fract_z
Si Si1 0.949040 0.656530 0.710183
Si Si2 0.500000 0.844654 0.292985
Si Si3 0.218277 0.659674 0.785848
Si Si4 0.683102 0.667926 0.201436
Si Si5 0.135407 0.844642 0.207966
Si Si6 0.585350 0.657022 0.790516
O O1 0.949856 0.653796 0.500000
O O2 0.938425 0.500000 0.769868
O O3 0.910944 0.763182 0.763279
O O4 0.000000 0.690858 0.769256
O O5 0.500000 0.855173 0.500000
O O6 0.455612 0.758539 0.244380
O O7 0.500000 0.000000 0.219042
O O8 0.210987 0.500000 0.735149
O O9 0.268079 0.706535 0.724079
O O10 0.177599 0.755439 0.724911
O O11 0.219371 0.660574 0.000000
O O12 0.683017 0.500000 0.199812
O O13 0.634390 0.705903 0.278617
O O14 0.683374 0.715454 0.000000
O O15 0.133867 0.000000 0.278394
O O16 0.141770 0.853610 0.000000
O O17 0.576164 0.500000 0.727904
O O18 0.590100 0.648022 0.000000
#
# Coordination Sequence:
#
# PCOD9384293 Si02
#       6
#     8   4   8   8   8   8
#     4   9  19  36  55  72  90 117 158 205 247 286
#     4  11  24  37  46  62  94 133 166 195 232 280
#     4   8  13  24  44  68  95 127 158 188 227 274
#     4   7  11  22  43  71  97 118 146 189 236 277
#     4  10  20  31  45  71 105 134 159 190 229 276
#     4   9  17  31  53  78  98 117 150 198 244 283
#
# _framework density 19.975090999999999
#
# number of rings (size 3 to 8) (size 9 to 14) (size 15 to 20)
#    0.000    3.182    0.000    3.818    0.000    4.364 
#    0.000    3.636    0.000    4.364    0.000    2.545 
#    0.000    0.000    0.000    0.000    0.000    0.000 
#
# Total GULP energy -245200.472153 kJ/mol
# GULP energy per Si atom -5572.738003 kJ/mol
# Density = 1.992963 g / cm^3
# Si number density = 19.975091 Si / 1000 Ang^3
#
#
#
# Elastic Constant Matrix: (Units=GPa)
#
#
# Indices 1 2 3 4 5 6 
#
# 1 220.8004 128.4881 4.4137 0.0000 0.0000 0.0000
# 2 128.4881 130.9141 6.2833 0.0000 0.0000 0.0000
# 3 4.4137 6.2833 35.3567 0.0000 0.0000 0.0000
# 4 0.0000 0.0000 0.0000 15.1511 0.0000 0.0000
# 5 0.0000 0.0000 0.0000 0.0000 195.7807 0.0000
# 6 0.0000 0.0000 0.0000 0.0000 0.0000 -7.9543
#
#
#
# Elastic Compliance Matrix: (Units=1/GPa)
#
#
# Indices 1 2 3 4 5 6 
#
# 1 0.010570 -0.010400 0.000529 0.000000 0.000000 0.000000
# 2 -0.010400 0.017936 -0.001889 0.000000 0.000000 0.000000
# 3 0.000529 -0.001889 0.028553 0.000000 0.000000 0.000000
# 4 0.000000 0.000000 0.000000 0.066002 0.000000 0.000000
# 5 0.000000 0.000000 0.000000 0.000000 0.005108 0.000000
# 6 0.000000 0.000000 0.000000 0.000000 0.000000 -0.125719
#
#
# Mechanical properties :
#
#
# Convention : Reuss Voigt Hill
#
# Bulk Modulus (GPa) = 29.81625 73.93792 51.87708
# Shear Modulus (GPa) = 134.58728 57.12124 95.85426
#
# Velocity S-wave (km/s) = 8.21729 5.35335 6.93477
# Velocity P-wave (km/s) = 10.24651 8.67793 9.49467
#
# Compressibility (1/GPa) = 0.03353876
#
# Stress axis : x y z
#
# Youngs Moduli (GPa) = 94.60565 55.75304 35.02269
#
# Poissons Ratio (x) = 0.57981 -0.01851
# Poissons Ratio (y) = 0.98387 0.06617
# Poissons Ratio (z) = -0.05001 0.10533
#
# Static dielectric constant tensor:
#      x y z
#    x 1.734690 0.000000 0.000000 
#    y 0.000000 1.679330 0.000000 
#    z 0.000000 0.000000 1.753930 
# 
# From -- ./inp_files/2304.got.cif
#   From: 2010.05.17/outbox.cif.g08.bks.cpg/sg47_2_cif.got.tgz:2304.got - 2010.06.03 20:15:42.
