data_PCOD9384584
_publ_section_title
;
Structure prediction by ZEFSAII (Michael W. Deem and Ramdas Pophale) SiO2 
 PCOD9384584
Probable space group: P M M M
;
_chemical_formula_sum "Si O2"
_cell_formula_units_Z 52
_cell_length_a 8.583129
_cell_length_b 16.851373
_cell_length_c 21.232297
_cell_angle_alpha 90.000000
_cell_angle_beta 90.000000
_cell_angle_gamma 90.000000
_cell_volume 3070.986533
_symmetry_space_group_name_H-M "P M M M"
_symmetry_group_IT_number 47
_symmetry_cell_setting 'orthorhombic'
loop_
_space_group_symop_operation_xyz
x,y,z
-x,-y,z
x,-y,-z
-x,y,-z
-x,-y,-z
x,y,-z
-x,y,z
x,-y,z
loop_
_atom_site_type_symbol
_atom_site_label
_atom_site_fract_x
_atom_site_fract_y
_atom_site_fract_z
Si Si1 0.186570 0.907030 0.000000
Si Si2 0.687987 0.324608 0.570150
Si Si3 0.310858 0.000000 0.210997
Si Si4 0.688416 0.590014 0.697285
Si Si5 0.186476 0.830598 0.634108
Si Si6 0.813764 0.256153 0.237367
Si Si7 0.313241 0.152476 0.131191
Si Si8 0.686720 0.000000 0.355657
O O1 0.246524 0.862369 0.937925
O O2 0.000000 0.908105 0.000000
O O3 0.240834 0.000000 0.000000
O O4 0.737259 0.348391 0.500000
O O5 0.500000 0.320014 0.571023
O O6 0.733967 0.384039 0.626225
O O7 0.754139 0.238462 0.588222
O O8 0.260171 0.077144 0.173023
O O9 0.257437 0.000000 0.282708
O O10 0.500000 0.000000 0.212262
O O11 0.500000 0.593967 0.701074
O O12 0.736847 0.500000 0.710511
O O13 0.758837 0.656449 0.742762
O O14 0.238082 0.801851 0.704601
O O15 0.252176 0.916960 0.617443
O O16 0.000000 0.832994 0.633628
O O17 0.743877 0.227225 0.171486
O O18 0.000000 0.252887 0.234633
O O19 0.500000 0.152705 0.127881
O O20 0.500000 0.000000 0.357432
#
# Coordination Sequence:
#
# PCOD9384584 Si02
#       8
#     4   8   4   8   8   8   8   4
#     4  11  23  35  47  71 108 147 182 219 259 297
#     4   9  18  33  52  73  99 132 166 202 248 302
#     4   9  18  28  46  72  97 128 168 213 255 294
#     4   9  18  33  54  80 106 131 162 203 251 305
#     4  10  20  32  47  70  98 129 166 209 255 301
#     4  10  20  33  50  74 103 134 167 208 257 306
#     4  11  20  34  52  73 101 139 182 217 254 299
#     4  11  19  31  49  71  95 126 168 215 260 299
#
# _framework density 16.932669000000001
#
# number of rings (size 3 to 8) (size 9 to 14) (size 15 to 20)
#    0.000    2.077    2.308    1.846    0.000    2.462 
#    0.000    1.923    0.000    2.308    0.000    4.846 
#    0.000    4.308    0.000    0.000    0.000    0.000 
#
# Total GULP energy -290138.681722 kJ/mol
# GULP energy per Si atom -5579.590033 kJ/mol
# Density = 1.689413 g / cm^3
# Si number density = 16.932669 Si / 1000 Ang^3
#
#
#
# Elastic Constant Matrix: (Units=GPa)
#
#
# Indices 1 2 3 4 5 6 
#
# 1 33.1124 24.4784 22.9021 0.0000 0.0000 0.0000
# 2 24.4784 114.1464 37.0117 0.0000 0.0000 0.0000
# 3 22.9021 37.0117 87.3135 0.0000 0.0000 0.0000
# 4 0.0000 0.0000 0.0000 13.6412 0.0000 0.0000
# 5 0.0000 0.0000 0.0000 0.0000 19.6140 0.0000
# 6 0.0000 0.0000 0.0000 0.0000 0.0000 18.0842
#
#
#
# Elastic Compliance Matrix: (Units=1/GPa)
#
#
# Indices 1 2 3 4 5 6 
#
# 1 0.040178 -0.006027 -0.007984 0.000000 0.000000 0.000000
# 2 -0.006027 0.011061 -0.003108 0.000000 0.000000 0.000000
# 3 -0.007984 -0.003108 0.014864 0.000000 0.000000 0.000000
# 4 0.000000 0.000000 0.000000 0.073308 0.000000 0.000000
# 5 0.000000 0.000000 0.000000 0.000000 0.050984 0.000000
# 6 0.000000 0.000000 0.000000 0.000000 0.000000 0.055297
#
#
# Mechanical properties :
#
#
# Convention : Reuss Voigt Hill
#
# Bulk Modulus (GPa) = 31.38163 44.81740 38.09951
# Shear Modulus (GPa) = 17.20872 20.27989 18.74430
#
# Velocity S-wave (km/s) = 3.19141 3.46450 3.33076
# Velocity P-wave (km/s) = 5.67041 6.52144 6.11076
#
# Compressibility (1/GPa) = 0.03186578
#
# Stress axis : x y z
#
# Youngs Moduli (GPa) = 24.88945 90.40869 67.27490
#
# Poissons Ratio (x) = 0.54492 0.53709
# Poissons Ratio (y) = 0.15002 0.20907
# Poissons Ratio (z) = 0.19871 0.28096
#
# Static dielectric constant tensor:
#      x y z
#    x 1.566500 0.000000 0.000000 
#    y 0.000000 1.562990 0.000000 
#    z 0.000000 0.000000 1.571790 
# 
# From -- ./inp_files/11137.got.cif
#   From: 2010.05.17/outbox.cif.g08.bks.cpg/sg47_6_cif.got.tgz:11137.got - 2010.06.03 20:15:42.
