data_PCOD9384578
_publ_section_title
;
Structure prediction by ZEFSAII (Michael W. Deem and Ramdas Pophale) SiO2 
 PCOD9384578
Probable space group: P M M M
;
_chemical_formula_sum "Si O2"
_cell_formula_units_Z 44
_cell_length_a 9.490631
_cell_length_b 29.411420
_cell_length_c 7.368844
_cell_angle_alpha 90.000000
_cell_angle_beta 90.000000
_cell_angle_gamma 90.000000
_cell_volume 2056.887049
_symmetry_space_group_name_H-M "P M M M"
_symmetry_group_IT_number 47
_symmetry_cell_setting 'orthorhombic'
loop_
_space_group_symop_operation_xyz
x,y,z
-x,-y,z
x,-y,-z
-x,y,-z
-x,-y,-z
x,y,-z
-x,y,z
x,-y,z
loop_
_atom_site_type_symbol
_atom_site_label
_atom_site_fract_x
_atom_site_fract_y
_atom_site_fract_z
Si Si1 0.658291 0.360969 0.785984
Si Si2 0.159925 0.551134 0.718255
Si Si3 0.836564 0.900674 0.222002
Si Si4 0.838072 0.724434 0.221893
Si Si5 0.662016 0.812887 0.221375
Si Si6 0.171359 0.000000 0.210670
O O1 0.500000 0.360548 0.710560
O O2 0.732253 0.409655 0.767993
O O3 0.758361 0.320965 0.714788
O O4 0.646369 0.351893 0.000000
O O5 0.156047 0.549900 0.500000
O O6 0.196660 0.500000 0.780226
O O7 0.000000 0.561550 0.780506
O O8 0.739116 0.859133 0.279109
O O9 0.000000 0.893538 0.274672
O O10 0.787822 0.950728 0.285814
O O11 0.835976 0.901868 0.000000
O O12 0.751261 0.768938 0.277454
O O13 0.000000 0.725712 0.280908
O O14 0.840296 0.724248 0.000000
O O15 0.500000 0.810420 0.279680
O O16 0.661824 0.812996 0.000000
O O17 0.000000 0.000000 0.213834
O O18 0.215804 0.000000 0.000000
#
# Coordination Sequence:
#
# PCOD9384578 Si02
#       6
#     8   8   8   8   8   4
#     4  10  20  32  47  70  98 123 148 183 227 271
#     4   9  19  36  55  73  94 122 156 190 221 257
#     4   8  12  18  27  37  50  73 108 148 191 240
#     4   9  16  26  40  56  75 102 135 169 207 253
#     4   9  15  21  29  43  64  88 115 152 200 250
#     4   7  10  16  25  35  47  67 101 147 192 233
#
# _framework density 21.391548
#
# number of rings (size 3 to 8) (size 9 to 14) (size 15 to 20)
#    0.000    3.182    0.000    3.273    0.000    6.545 
#    0.000    3.182    0.000    2.727    0.000    0.000 
#    0.000    0.000    0.000    0.000    0.000    0.000 
#
# Total GULP energy -245576.326960 kJ/mol
# GULP energy per Si atom -5581.280158 kJ/mol
# Density = 2.134286 g / cm^3
# Si number density = 21.391548 Si / 1000 Ang^3
#
#
#
# Elastic Constant Matrix: (Units=GPa)
#
#
# Indices 1 2 3 4 5 6 
#
# 1 196.9789 147.3935 6.2518 0.0000 0.0000 0.0000
# 2 147.3935 214.3970 1.6110 0.0000 0.0000 0.0000
# 3 6.2518 1.6110 75.1654 0.0000 0.0000 0.0000
# 4 0.0000 0.0000 0.0000 129.0266 0.0000 0.0000
# 5 0.0000 0.0000 0.0000 0.0000 -27.7139 0.0000
# 6 0.0000 0.0000 0.0000 0.0000 0.0000 -19.7375
#
#
#
# Elastic Compliance Matrix: (Units=1/GPa)
#
#
# Indices 1 2 3 4 5 6 
#
# 1 0.010494 -0.007209 -0.000718 0.000000 0.000000 0.000000
# 2 -0.007209 0.009617 0.000393 0.000000 0.000000 0.000000
# 3 -0.000718 0.000393 0.013355 0.000000 0.000000 0.000000
# 4 0.000000 0.000000 0.000000 0.007750 0.000000 0.000000
# 5 0.000000 0.000000 0.000000 0.000000 -0.036083 0.000000
# 6 0.000000 0.000000 0.000000 0.000000 0.000000 -0.050665
#
#
# Mechanical properties :
#
#
# Convention : Reuss Voigt Hill
#
# Bulk Modulus (GPa) = 54.35106 88.56155 71.45630
# Shear Modulus (GPa) = -205.49432 38.40069 -83.54681
#
# Velocity S-wave (km/s) = -9.81182 4.24150 -6.25626
# Velocity P-wave (km/s) = 10.14394 8.09180 4.32564
#
# Compressibility (1/GPa) = 0.01839891
#
# Stress axis : x y z
#
# Youngs Moduli (GPa) = 95.29682 103.98139 74.87661
#
# Poissons Ratio (x) = 0.74957 0.05378
# Poissons Ratio (y) = 0.68696 -0.02946
# Poissons Ratio (z) = 0.06845 -0.04091
#
# Static dielectric constant tensor:
#      x y z
#    x 1.721770 0.000000 0.000000 
#    y 0.000000 1.751550 0.000000 
#    z 0.000000 0.000000 1.858180 
# 
# From -- ./inp_files/2017.got.cif
#   From: 2010.05.17/outbox.cif.g08.bks.cpg/sg47_2_cif.got.tgz:2017.got - 2010.06.03 20:15:42.
