data_PCOD9384783
_publ_section_title
;
Structure prediction by ZEFSAII (Michael W. Deem and Ramdas Pophale) SiO2 
 PCOD9384783
Probable space group: P M M M
;
_chemical_formula_sum "Si O2"
_cell_formula_units_Z 44
_cell_length_a 9.625342
_cell_length_b 29.076921
_cell_length_c 7.510104
_cell_angle_alpha 90.000000
_cell_angle_beta 90.000000
_cell_angle_gamma 90.000000
_cell_volume 2101.892677
_symmetry_space_group_name_H-M "P M M M"
_symmetry_group_IT_number 47
_symmetry_cell_setting 'orthorhombic'
loop_
_space_group_symop_operation_xyz
x,y,z
-x,-y,z
x,-y,-z
-x,y,-z
-x,-y,-z
x,y,-z
-x,y,z
x,-y,z
loop_
_atom_site_type_symbol
_atom_site_label
_atom_site_fract_x
_atom_site_fract_y
_atom_site_fract_z
Si Si1 0.659319 0.000000 0.281686
Si Si2 0.158155 0.914330 0.286615
Si Si3 0.157475 0.363055 0.286203
Si Si4 0.659377 0.552140 0.717214
Si Si5 0.657357 0.273774 0.786518
Si Si6 0.841668 0.810264 0.786910
O O1 0.741422 0.045498 0.222268
O O2 0.500000 0.000000 0.224491
O O3 0.659300 0.000000 0.500000
O O4 0.151543 0.918840 0.500000
O O5 0.205160 0.862406 0.248062
O O6 0.000000 0.919378 0.218132
O O7 0.149501 0.367125 0.500000
O O8 0.235615 0.408790 0.220100
O O9 0.251009 0.318728 0.248387
O O10 0.000000 0.358209 0.218542
O O11 0.660751 0.552471 0.500000
O O12 0.500000 0.562100 0.770567
O O13 0.694029 0.500000 0.772286
O O14 0.500000 0.277990 0.717626
O O15 0.738903 0.228884 0.717784
O O16 0.647960 0.269073 0.000000
O O17 0.000000 0.805244 0.717684
O O18 0.848971 0.804848 0.000000
#
# Coordination Sequence:
#
# PCOD9384783 Si02
#       6
#     4   8   8   8   8   8
#     4   9  17  29  46  69  96 124 154 189 230 276
#     4   9  17  30  49  71  94 122 156 192 230 276
#     4  10  20  32  49  75 103 130 163 204 246 288
#     4   8  14  26  45  69  98 131 163 196 239 290
#     4  10  21  36  53  72  96 130 168 203 245 297
#     4   9  18  33  51  70  94 124 157 195 240 288
#
# _framework density 20.933512
#
# number of rings (size 3 to 8) (size 9 to 14) (size 15 to 20)
#    0.000    2.818    0.000    1.909    0.000    5.091 
#    0.000    4.091    0.000    3.273    0.000    3.818 
#    0.000    0.000    0.000    0.000    0.000    0.000 
#
# Total GULP energy -245649.122547 kJ/mol
# GULP energy per Si atom -5582.934603 kJ/mol
# Density = 2.088587 g / cm^3
# Si number density = 20.933512 Si / 1000 Ang^3
#
#
#
# Elastic Constant Matrix: (Units=GPa)
#
#
# Indices 1 2 3 4 5 6 
#
# 1 185.9101 158.9126 6.7980 0.0000 0.0000 0.0000
# 2 158.9126 215.8669 -0.4283 0.0000 0.0000 0.0000
# 3 6.7980 -0.4283 55.8073 0.0000 0.0000 0.0000
# 4 0.0000 0.0000 0.0000 28.0911 0.0000 0.0000
# 5 0.0000 0.0000 0.0000 0.0000 8.7903 0.0000
# 6 0.0000 0.0000 0.0000 0.0000 0.0000 45.0270
#
#
#
# Elastic Compliance Matrix: (Units=1/GPa)
#
#
# Indices 1 2 3 4 5 6 
#
# 1 0.014702 -0.010827 -0.001874 0.000000 0.000000 0.000000
# 2 -0.010827 0.012605 0.001416 0.000000 0.000000 0.000000
# 3 -0.001874 0.001416 0.018158 0.000000 0.000000 0.000000
# 4 0.000000 0.000000 0.000000 0.035598 0.000000 0.000000
# 5 0.000000 0.000000 0.000000 0.000000 0.113762 0.000000
# 6 0.000000 0.000000 0.000000 0.000000 0.000000 0.022209
#
#
# Mechanical properties :
#
#
# Convention : Reuss Voigt Hill
#
# Bulk Modulus (GPa) = 43.67733 87.57209 65.62471
# Shear Modulus (GPa) = 20.22353 35.86848 28.04601
#
# Velocity S-wave (km/s) = 3.11156 4.14387 3.66425
# Velocity P-wave (km/s) = 5.81543 8.05108 7.02278
#
# Compressibility (1/GPa) = 0.02289517
#
# Stress axis : x y z
#
# Youngs Moduli (GPa) = 68.01825 79.33062 55.07228
#
# Poissons Ratio (x) = 0.85889 0.10320
# Poissons Ratio (y) = 0.73641 -0.07796
# Poissons Ratio (z) = 0.12746 -0.11230
#
# Static dielectric constant tensor:
#      x y z
#    x 1.742800 0.000000 0.000000 
#    y 0.000000 1.712560 0.000000 
#    z 0.000000 0.000000 1.803210 
# 
# From -- ./inp_files/2075.got.cif
#   From: 2010.05.17/outbox.cif.g08.bks.cpg/sg47_2_cif.got.tgz:2075.got - 2010.06.03 20:15:42.
