data_PCOD9384790
_publ_section_title
;
Structure prediction by ZEFSAII (Michael W. Deem and Ramdas Pophale) SiO2 
 PCOD9384790
Probable space group: P M M M
;
_chemical_formula_sum "Si O2"
_cell_formula_units_Z 48
_cell_length_a 7.513943
_cell_length_b 31.322505
_cell_length_c 9.875826
_cell_angle_alpha 90.000000
_cell_angle_beta 90.000000
_cell_angle_gamma 90.000000
_cell_volume 2324.330136
_symmetry_space_group_name_H-M "P M M M"
_symmetry_group_IT_number 47
_symmetry_cell_setting 'orthorhombic'
loop_
_space_group_symop_operation_xyz
x,y,z
-x,-y,z
x,-y,-z
-x,y,-z
-x,-y,-z
x,y,-z
-x,y,z
x,-y,z
loop_
_atom_site_type_symbol
_atom_site_label
_atom_site_fract_x
_atom_site_fract_y
_atom_site_fract_z
Si Si1 0.288851 0.799795 0.347333
Si Si2 0.783120 0.451397 0.654388
Si Si3 0.781930 0.625677 0.844527
Si Si4 0.212931 0.298311 0.346941
Si Si5 0.210047 0.876982 0.848036
Si Si6 0.217328 0.048668 0.654326
O O1 0.216351 0.807573 0.500000
O O2 0.500000 0.804063 0.354488
O O3 0.248118 0.750830 0.310552
O O4 0.226414 0.833810 0.238112
O O5 0.729433 0.440777 0.500000
O O6 0.727228 0.500000 0.684238
O O7 0.725019 0.416273 0.761824
O O8 0.000000 0.451248 0.655072
O O9 0.722153 0.667302 0.761087
O O10 0.000000 0.625726 0.845530
O O11 0.724028 0.625763 0.000000
O O12 0.282222 0.305487 0.500000
O O13 0.000000 0.303525 0.353297
O O14 0.283363 0.916208 0.759529
O O15 0.000000 0.885347 0.860602
O O16 0.283619 0.873508 0.000000
O O17 0.272024 0.058713 0.500000
O O18 0.000000 0.049311 0.654564
O O19 0.270392 0.000000 0.685883
#
# Coordination Sequence:
#
# PCOD9384790 Si02
#       6
#     8   8   8   8   8   8
#     4  10  21  36  53  72  94 123 161 203 245 288
#     4   8  13  21  33  50  76 112 149 181 217 265
#     4   9  16  24  36  57  84 113 146 185 226 268
#     4   9  17  30  48  67  88 117 152 190 233 280
#     4  10  20  32  49  75 104 133 163 195 235 284
#     4   8  14  26  46  72 100 129 161 197 235 274
#
# _framework density 20.651112000000001
#
# number of rings (size 3 to 8) (size 9 to 14) (size 15 to 20)
#    0.000    3.000    0.000    2.500    0.000    5.333 
#    0.000    5.000    0.000    0.500    0.000    3.500 
#    0.000    0.667    0.000    7.667    0.000    9.833 
#
# Total GULP energy -267882.180522 kJ/mol
# GULP energy per Si atom -5580.878761 kJ/mol
# Density = 2.060411 g / cm^3
# Si number density = 20.651112 Si / 1000 Ang^3
#
#
#
# Elastic Constant Matrix: (Units=GPa)
#
#
# Indices 1 2 3 4 5 6 
#
# 1 53.3774 -1.5405 6.8583 0.0000 0.0000 0.0000
# 2 -1.5405 175.9488 165.3609 0.0000 0.0000 0.0000
# 3 6.8583 165.3609 205.7855 0.0000 0.0000 0.0000
# 4 0.0000 0.0000 0.0000 6.7759 0.0000 0.0000
# 5 0.0000 0.0000 0.0000 0.0000 -2.8543 0.0000
# 6 0.0000 0.0000 0.0000 0.0000 0.0000 -55.0794
#
#
#
# Elastic Compliance Matrix: (Units=1/GPa)
#
#
# Indices 1 2 3 4 5 6 
#
# 1 0.019233 0.003149 -0.003171 0.000000 0.000000 0.000000
# 2 0.003149 0.023733 -0.019176 0.000000 0.000000 0.000000
# 3 -0.003171 -0.019176 0.020374 0.000000 0.000000 0.000000
# 4 0.000000 0.000000 0.000000 0.147583 0.000000 0.000000
# 5 0.000000 0.000000 0.000000 0.000000 -0.350343 0.000000
# 6 0.000000 0.000000 0.000000 0.000000 0.000000 -0.018156
#
#
# Mechanical properties :
#
#
# Convention : Reuss Voigt Hill
#
# Bulk Modulus (GPa) = 40.09082 86.27433 63.18257
# Shear Modulus (GPa) = -45.09964 7.39728 -18.85118
#
# Velocity S-wave (km/s) = -4.67827 1.89468 -3.02460
# Velocity P-wave (km/s) = 3.11868 6.83039 4.29698
#
# Compressibility (1/GPa) = 0.02494337
#
# Stress axis : x y z
#
# Youngs Moduli (GPa) = 51.99435 42.13590 49.08251
#
# Poissons Ratio (x) = -0.13268 0.15565
# Poissons Ratio (y) = -0.16372 0.94119
# Poissons Ratio (z) = 0.16488 0.80798
#
# Static dielectric constant tensor:
#      x y z
#    x 1.767770 0.000000 0.000000 
#    y 0.000000 1.707460 0.000000 
#    z 0.000000 0.000000 1.717840 
# 
# From -- ./inp_files/2509.got.cif
#   From: 2010.05.17/outbox.cif.g08.bks.cpg/sg47_2_cif.got.tgz:2509.got - 2010.06.03 20:15:42.
