data_PCOD9384221
_publ_section_title
;
Structure prediction by ZEFSAII (Michael W. Deem and Ramdas Pophale) SiO2 
 PCOD9384221
Probable space group: P M M M
;
_chemical_formula_sum "Si O2"
_cell_formula_units_Z 52
_cell_length_a 12.801226
_cell_length_b 9.116043
_cell_length_c 28.499372
_cell_angle_alpha 90.000000
_cell_angle_beta 90.000000
_cell_angle_gamma 90.000000
_cell_volume 3325.777725
_symmetry_space_group_name_H-M "P M M M"
_symmetry_group_IT_number 47
_symmetry_cell_setting 'orthorhombic'
loop_
_space_group_symop_operation_xyz
x,y,z
-x,-y,z
x,-y,-z
-x,y,-z
-x,-y,-z
x,y,-z
-x,y,z
x,-y,z
loop_
_atom_site_type_symbol
_atom_site_label
_atom_site_fract_x
_atom_site_fract_y
_atom_site_fract_z
Si Si1 0.126699 0.329557 0.947834
Si Si2 0.715097 0.674752 0.327739
Si Si3 0.124061 0.174246 0.147589
Si Si4 0.500000 0.168672 0.214832
Si Si5 0.500000 0.168729 0.328744
Si Si6 0.126714 0.829759 0.500000
Si Si7 0.715211 0.325380 0.216254
Si Si8 0.123450 0.822472 0.603240
O O1 0.156576 0.500000 0.940765
O O2 0.158335 0.232149 0.903724
O O3 0.000000 0.325831 0.948762
O O4 0.162164 0.282967 0.000000
O O5 0.711614 0.500000 0.334388
O O6 0.605281 0.747429 0.342683
O O7 0.729036 0.702733 0.271985
O O8 0.807402 0.746992 0.357391
O O9 0.191177 0.255754 0.186809
O O10 0.000000 0.205513 0.152818
O O11 0.138453 0.000000 0.150888
O O12 0.500000 0.167690 0.271801
O O13 0.605695 0.252111 0.201049
O O14 0.500000 0.000000 0.198853
O O15 0.500000 0.000000 0.344776
O O16 0.157018 0.769110 0.550899
O O17 0.000000 0.829806 0.500000
O O18 0.159688 0.000000 0.500000
O O19 0.710673 0.500000 0.209515
O O20 0.000000 0.791667 0.609153
O O21 0.135005 0.000000 0.604877
#
# Coordination Sequence:
#
# PCOD9384221 Si02
#       8
#     8   8   8   4   4   4   8   8
#     4   8  14  26  44  64  87 118 155 191 228 275
#     4  10  20  32  47  69  96 123 152 189 232 276
#     4  10  20  31  44  66  96 127 158 194 235 274
#     4   9  17  31  51  71  89 111 149 199 237 267
#     4   9  17  31  51  70  88 116 154 191 228 271
#     4   7  12  26  47  68  89 116 153 193 227 263
#     4  10  20  33  48  66  92 126 159 189 226 276
#     4   9  17  30  49  71  94 122 156 191 227 271
#
# _framework density 15.635441
#
# number of rings (size 3 to 8) (size 9 to 14) (size 15 to 20)
#    0.000    2.846    0.000    3.231    0.000    5.846 
#    0.000    5.000    0.000    1.846    0.000    3.769 
#    0.000    4.308    0.000    0.000    0.000    0.000 
#
# Total GULP energy -289583.842424 kJ/mol
# GULP energy per Si atom -5568.920047 kJ/mol
# Density = 1.559985 g / cm^3
# Si number density = 15.635441 Si / 1000 Ang^3
#
#
#
# Elastic Constant Matrix: (Units=GPa)
#
#
# Indices 1 2 3 4 5 6 
#
# 1 83.1952 61.7095 62.9481 0.0000 0.0000 0.0000
# 2 61.7095 82.2231 65.7120 0.0000 0.0000 0.0000
# 3 62.9481 65.7120 90.8817 0.0000 0.0000 0.0000
# 4 0.0000 0.0000 0.0000 23.3975 0.0000 0.0000
# 5 0.0000 0.0000 0.0000 0.0000 -3.4056 0.0000
# 6 0.0000 0.0000 0.0000 0.0000 0.0000 21.9588
#
#
#
# Elastic Compliance Matrix: (Units=1/GPa)
#
#
# Indices 1 2 3 4 5 6 
#
# 1 0.031212 -0.014563 -0.011089 0.000000 0.000000 0.000000
# 2 -0.014563 0.035605 -0.015657 0.000000 0.000000 0.000000
# 3 -0.011089 -0.015657 0.030005 0.000000 0.000000 0.000000
# 4 0.000000 0.000000 0.000000 0.042740 0.000000 0.000000
# 5 0.000000 0.000000 0.000000 0.000000 -0.293635 0.000000
# 6 0.000000 0.000000 0.000000 0.000000 0.000000 0.045540
#
#
# Mechanical properties :
#
#
# Convention : Reuss Voigt Hill
#
# Bulk Modulus (GPa) = 70.40463 70.78214 70.59339
# Shear Modulus (GPa) = -236.06616 12.78550 -111.64033
#
# Velocity S-wave (km/s) = -12.30078 2.86269 -8.45914
# Velocity P-wave (km/s) = 12.51475 7.50302 7.08250
#
# Compressibility (1/GPa) = 0.01420361
#
# Stress axis : x y z
#
# Youngs Moduli (GPa) = 32.03885 28.08607 33.32785
#
# Poissons Ratio (x) = 0.40901 0.36957
# Poissons Ratio (y) = 0.46658 0.52182
# Poissons Ratio (z) = 0.35528 0.43975
#
# Static dielectric constant tensor:
#      x y z
#    x 1.498490 0.000000 0.000000 
#    y 0.000000 1.520240 0.000000 
#    z 0.000000 0.000000 1.529480 
# 
# From -- ./inp_files/33668.got.cif
#   From: 2010.05.17/outbox.cif.g08.bks.cpg/sg47_17_cif.got.tgz:33668.got - 2010.06.03 20:15:42.
