data_PCOD9384848
_publ_section_title
;
Structure prediction by ZEFSAII (Michael W. Deem and Ramdas Pophale) SiO2 
 PCOD9384848
Probable space group: P M M M
;
_chemical_formula_sum "Si O2"
_cell_formula_units_Z 48
_cell_length_a 8.112722
_cell_length_b 34.465443
_cell_length_c 9.322065
_cell_angle_alpha 90.000000
_cell_angle_beta 90.000000
_cell_angle_gamma 90.000000
_cell_volume 2606.529149
_symmetry_space_group_name_H-M "P M M M"
_symmetry_group_IT_number 47
_symmetry_cell_setting 'orthorhombic'
loop_
_space_group_symop_operation_xyz
x,y,z
-x,-y,z
x,-y,-z
-x,y,-z
-x,-y,-z
x,y,-z
-x,y,z
x,-y,z
loop_
_atom_site_type_symbol
_atom_site_label
_atom_site_fract_x
_atom_site_fract_y
_atom_site_fract_z
Si Si1 0.500000 0.044682 0.325095
Si Si2 0.809028 0.902934 0.324496
Si Si3 0.696217 0.265378 0.335765
Si Si4 0.801988 0.817103 0.664091
Si Si5 0.699155 0.415932 0.664445
Si Si6 0.691372 0.500000 0.674955
Si Si7 0.196485 0.659333 0.838391
O O1 0.500000 0.044991 0.500000
O O2 0.332581 0.066975 0.280794
O O3 0.500000 0.000000 0.278523
O O4 0.810685 0.901746 0.500000
O O5 0.760323 0.859391 0.274486
O O6 0.000000 0.911350 0.282215
O O7 0.762385 0.267441 0.500000
O O8 0.500000 0.266847 0.342854
O O9 0.745349 0.223556 0.270821
O O10 0.755420 0.302148 0.247416
O O11 0.736286 0.816656 0.500000
O O12 0.000000 0.816533 0.658074
O O13 0.755369 0.409907 0.500000
O O14 0.500000 0.418658 0.660478
O O15 0.762951 0.458141 0.716912
O O16 0.745058 0.379414 0.759171
O O17 0.500000 0.500000 0.721967
O O18 0.691221 0.500000 0.500000
O O19 0.000000 0.657917 0.844313
O O20 0.263498 0.660870 0.000000
#
# Coordination Sequence:
#
# PCOD9384848 Si02
#       7
#     4   8   8   8   8   4   8
#     4   9  16  22  30  46  70 106 149 191 235 282
#     4   8  14  23  34  49  72 104 142 186 236 284
#     4  10  20  32  50  75  95 115 151 199 246 291
#     4   8  14  25  41  61  84 110 141 184 237 284
#     4   9  17  32  56  81 101 123 156 197 239 283
#     4   7  12  26  50  79 104 122 146 189 240 283
#     4  11  24  38  49  65  95 134 167 194 233 284
#
# _framework density 18.415292999999998
#
# number of rings (size 3 to 8) (size 9 to 14) (size 15 to 20)
#    0.000    3.000    0.000    3.500    1.167    5.000 
#    0.000    2.500    0.000    4.000    0.000    0.000 
#    0.000    0.000    0.000    0.000    0.000    1.667 
#
# Total GULP energy -267256.834096 kJ/mol
# GULP energy per Si atom -5567.850710 kJ/mol
# Density = 1.837338 g / cm^3
# Si number density = 18.415293 Si / 1000 Ang^3
#
#
#
# Elastic Constant Matrix: (Units=GPa)
#
#
# Indices 1 2 3 4 5 6 
#
# 1 52.7320 63.8808 17.0529 0.0000 0.0000 0.0000
# 2 63.8808 217.1094 51.8475 0.0000 0.0000 0.0000
# 3 17.0529 51.8475 37.3614 0.0000 0.0000 0.0000
# 4 0.0000 0.0000 0.0000 -5.1596 0.0000 0.0000
# 5 0.0000 0.0000 0.0000 0.0000 12.0742 0.0000
# 6 0.0000 0.0000 0.0000 0.0000 0.0000 76.2928
#
#
#
# Elastic Compliance Matrix: (Units=1/GPa)
#
#
# Indices 1 2 3 4 5 6 
#
# 1 0.029580 -0.008195 -0.002129 0.000000 0.000000 0.000000
# 2 -0.008195 0.009159 -0.008970 0.000000 0.000000 0.000000
# 3 -0.002129 -0.008970 0.040186 0.000000 0.000000 0.000000
# 4 0.000000 0.000000 0.000000 -0.193812 0.000000 0.000000
# 5 0.000000 0.000000 0.000000 0.000000 0.082821 0.000000
# 6 0.000000 0.000000 0.000000 0.000000 0.000000 0.013107
#
#
# Mechanical properties :
#
#
# Convention : Reuss Voigt Hill
#
# Bulk Modulus (GPa) = 24.79128 63.64058 44.21593
# Shear Modulus (GPa) = 151.17155 28.26959 89.72057
#
# Velocity S-wave (km/s) = 9.07019 3.92230 6.98759
# Velocity P-wave (km/s) = 11.09877 7.42605 9.44270
#
# Compressibility (1/GPa) = 0.04033677
#
# Stress axis : x y z
#
# Youngs Moduli (GPa) = 33.80681 109.17745 24.88455
#
# Poissons Ratio (x) = 0.89471 0.05297
# Poissons Ratio (y) = 0.27705 0.22322
# Poissons Ratio (z) = 0.07196 0.97936
#
# Static dielectric constant tensor:
#      x y z
#    x 1.647940 0.000000 0.000000 
#    y 0.000000 1.667320 0.000000 
#    z 0.000000 0.000000 1.615890 
# 
# From -- ./inp_files/2769.got.cif
#   From: 2010.05.17/outbox.cif.g08.bks.cpg/sg47_2_cif.got.tgz:2769.got - 2010.06.03 20:15:42.
