data_PCOD9384784
_publ_section_title
;
Structure prediction by ZEFSAII (Michael W. Deem and Ramdas Pophale) SiO2 
 PCOD9384784
Probable space group: P M M M
;
_chemical_formula_sum "Si O2"
_cell_formula_units_Z 36
_cell_length_a 7.667778
_cell_length_b 9.503036
_cell_length_c 24.106420
_cell_angle_alpha 90.000000
_cell_angle_beta 90.000000
_cell_angle_gamma 90.000000
_cell_volume 1756.566613
_symmetry_space_group_name_H-M "P M M M"
_symmetry_group_IT_number 47
_symmetry_cell_setting 'orthorhombic'
loop_
_space_group_symop_operation_xyz
x,y,z
-x,-y,z
x,-y,-z
-x,y,-z
-x,-y,-z
x,y,-z
-x,y,z
x,-y,z
loop_
_atom_site_type_symbol
_atom_site_label
_atom_site_fract_x
_atom_site_fract_y
_atom_site_fract_z
Si Si1 0.212848 0.837859 0.562513
Si Si2 0.792573 0.339396 0.000000
Si Si3 0.292067 0.339048 0.120706
Si Si4 0.789924 0.659600 0.332985
Si Si5 0.709719 0.159617 0.775668
O O1 0.267353 0.798817 0.500000
O O2 0.274177 0.736089 0.611187
O O3 0.000000 0.836012 0.562843
O O4 0.264744 0.000000 0.572920
O O5 0.738731 0.277830 0.059180
O O6 0.719977 0.500000 0.000000
O O7 0.000000 0.346091 0.000000
O O8 0.500000 0.348979 0.127840
O O9 0.221877 0.500000 0.122792
O O10 0.222989 0.243370 0.170427
O O11 0.724493 0.500000 0.327417
O O12 0.747790 0.752517 0.279491
O O13 0.000000 0.653309 0.336926
O O14 0.500000 0.151662 0.780815
O O15 0.776721 0.000000 0.772138
#
# Coordination Sequence:
#
# PCOD9384784 Si02
#       5
#     8   4   8   8   8
#     4   8  14  26  45  69  98 132 167 202 243 293
#     4   9  17  29  48  75 102 126 156 197 242 287
#     4   9  17  31  51  72  95 126 163 200 240 289
#     4  10  20  32  49  75 103 131 165 206 252 299
#     4  10  21  36  53  73  98 131 170 209 251 298
#
# _framework density 20.494527999999999
#
# number of rings (size 3 to 8) (size 9 to 14) (size 15 to 20)
#    0.000    2.778    0.000    2.333    0.000    5.333 
#    0.000    5.000    0.000    4.000    0.000    4.667 
#    0.000    0.000    0.000    0.000    0.000    0.000 
#
# Total GULP energy -200856.639308 kJ/mol
# GULP energy per Si atom -5579.351092 kJ/mol
# Density = 2.044788 g / cm^3
# Si number density = 20.494528 Si / 1000 Ang^3
#
#
#
# Elastic Constant Matrix: (Units=GPa)
#
#
# Indices 1 2 3 4 5 6 
#
# 1 37.0889 7.3366 -0.0722 0.0000 0.0000 0.0000
# 2 7.3366 153.8161 130.8957 0.0000 0.0000 0.0000
# 3 -0.0722 130.8957 221.0048 0.0000 0.0000 0.0000
# 4 0.0000 0.0000 0.0000 41.6772 0.0000 0.0000
# 5 0.0000 0.0000 0.0000 0.0000 24.9369 0.0000
# 6 0.0000 0.0000 0.0000 0.0000 0.0000 10.9537
#
#
#
# Elastic Compliance Matrix: (Units=1/GPa)
#
#
# Indices 1 2 3 4 5 6 
#
# 1 0.027491 -0.002659 0.001584 0.000000 0.000000 0.000000
# 2 -0.002659 0.013365 -0.007917 0.000000 0.000000 0.000000
# 3 0.001584 -0.007917 0.009214 0.000000 0.000000 0.000000
# 4 0.000000 0.000000 0.000000 0.023994 0.000000 0.000000
# 5 0.000000 0.000000 0.000000 0.000000 0.040101 0.000000
# 6 0.000000 0.000000 0.000000 0.000000 0.000000 0.091294
#
#
# Mechanical properties :
#
#
# Convention : Reuss Voigt Hill
#
# Bulk Modulus (GPa) = 31.16550 76.47001 53.81775
# Shear Modulus (GPa) = 21.35485 33.76355 27.55920
#
# Velocity S-wave (km/s) = 3.23147 4.06327 3.67101
# Velocity P-wave (km/s) = 5.40027 7.70759 6.65470
#
# Compressibility (1/GPa) = 0.03208677
#
# Stress axis : x y z
#
# Youngs Moduli (GPa) = 36.37510 74.82159 108.52843
#
# Poissons Ratio (x) = 0.19896 -0.17190
# Poissons Ratio (y) = 0.09673 0.85919
# Poissons Ratio (z) = -0.05762 0.59234
#
# Static dielectric constant tensor:
#      x y z
#    x 1.774360 0.000000 0.000000 
#    y 0.000000 1.723250 0.000000 
#    z 0.000000 0.000000 1.717290 
# 
# From -- ./inp_files/1441.got.cif
#   From: 2010.05.17/outbox.cif.g08.bks.cpg/sg47_1_cif.got.tgz:1441.got - 2010.06.03 20:15:42.
