data_PCOD9384889
_publ_section_title
;
Structure prediction by ZEFSAII (Michael W. Deem and Ramdas Pophale) SiO2 
 PCOD9384889
Probable space group: P M M M
;
_chemical_formula_sum "Si O2"
_cell_formula_units_Z 34
_cell_length_a 7.588166
_cell_length_b 10.282183
_cell_length_c 21.444117
_cell_angle_alpha 90.000000
_cell_angle_beta 90.000000
_cell_angle_gamma 90.000000
_cell_volume 1673.132442
_symmetry_space_group_name_H-M "P M M M"
_symmetry_group_IT_number 47
_symmetry_cell_setting 'orthorhombic'
loop_
_space_group_symop_operation_xyz
x,y,z
-x,-y,z
x,-y,-z
-x,y,-z
-x,-y,-z
x,y,-z
-x,y,z
x,-y,z
loop_
_atom_site_type_symbol
_atom_site_label
_atom_site_fract_x
_atom_site_fract_y
_atom_site_fract_z
Si Si1 0.211116 0.351050 0.825665
Si Si2 0.287086 0.000000 0.385856
Si Si3 0.215138 0.852486 0.071704
Si Si4 0.000000 0.000000 0.500000
Si Si5 0.189024 0.500000 0.601975
Si Si6 0.291705 0.264800 0.312904
Si Si7 0.500000 0.500000 0.500000
O O1 0.278841 0.500000 0.826245
O O2 0.277833 0.257718 0.880784
O O3 0.245734 0.284230 0.759180
O O4 0.000000 0.359212 0.832868
O O5 0.251601 0.126111 0.343338
O O6 0.500000 0.000000 0.402166
O O7 0.157171 0.000000 0.445056
O O8 0.000000 0.851591 0.072782
O O9 0.269057 0.000000 0.088978
O O10 0.267750 0.828609 0.000000
O O11 0.201476 0.624665 0.646282
O O12 0.346934 0.500000 0.553924
O O13 0.000000 0.500000 0.570188
O O14 0.500000 0.285499 0.318969
#
# Coordination Sequence:
#
# PCOD9384889 Si02
#       7
#     8   4   8   1   4   8   1
#     4  10  20  32  55  88 121 161 210 263 320 380
#     4  10  27  47  67  96 128 164 213 264 317 395
#     4   8  15  29  49  80 121 164 210 263 317 375
#     4  12  26  48  76  96 128 172 200 258 348 374
#     4  12  25  45  69  98 132 166 217 267 314 395
#     4  11  23  45  65  90 129 168 211 269 324 383
#     4  12  26  48  68 104 128 180 208 258 340 374
#
# _framework density 20.321164
#
# number of rings (size 3 to 8) (size 9 to 14) (size 15 to 20)
#    0.000    1.882    2.353    1.765    4.941    1.412 
#    0.000    2.353    0.000    0.706    0.000    3.294 
#    0.000    0.000    0.000    0.000    0.000    0.000 
#
# Total GULP energy -189352.241357 kJ/mol
# GULP energy per Si atom -5569.183569 kJ/mol
# Density = 2.027491 g / cm^3
# Si number density = 20.321164 Si / 1000 Ang^3
#
#
#
# Elastic Constant Matrix: (Units=GPa)
#
#
# Indices 1 2 3 4 5 6 
#
# 1 93.3646 48.9100 46.2878 0.0000 0.0000 0.0000
# 2 48.9100 177.0006 115.3919 0.0000 0.0000 0.0000
# 3 46.2878 115.3919 185.0206 0.0000 0.0000 0.0000
# 4 0.0000 0.0000 0.0000 26.2695 0.0000 0.0000
# 5 0.0000 0.0000 0.0000 0.0000 15.0753 0.0000
# 6 0.0000 0.0000 0.0000 0.0000 0.0000 94.9018
#
#
#
# Elastic Compliance Matrix: (Units=1/GPa)
#
#
# Indices 1 2 3 4 5 6 
#
# 1 0.012827 -0.002448 -0.001683 0.000000 0.000000 0.000000
# 2 -0.002448 0.009988 -0.005617 0.000000 0.000000 0.000000
# 3 -0.001683 -0.005617 0.009329 0.000000 0.000000 0.000000
# 4 0.000000 0.000000 0.000000 0.038067 0.000000 0.000000
# 5 0.000000 0.000000 0.000000 0.000000 0.066334 0.000000
# 6 0.000000 0.000000 0.000000 0.000000 0.000000 0.010537
#
#
# Mechanical properties :
#
#
# Convention : Reuss Voigt Hill
#
# Bulk Modulus (GPa) = 79.05251 97.39613 88.22432
# Shear Modulus (GPa) = 29.27546 43.56908 36.42227
#
# Velocity S-wave (km/s) = 3.79969 4.63538 4.23819
# Velocity P-wave (km/s) = 7.63127 8.75680 8.21334
#
# Compressibility (1/GPa) = 0.01264982
#
# Stress axis : x y z
#
# Youngs Moduli (GPa) = 77.96038 100.12284 107.19565
#
# Poissons Ratio (x) = 0.24505 0.18036
# Poissons Ratio (y) = 0.19081 0.60209
# Poissons Ratio (z) = 0.13117 0.56236
#
# Static dielectric constant tensor:
#      x y z
#    x 1.766960 0.000000 0.000000 
#    y 0.000000 1.727320 0.000000 
#    z 0.000000 0.000000 1.674710 
# 
# From -- ./inp_files/29190.got.cif
#   From: 2010.05.17/outbox.cif.g08.bks.cpg/sg47_15_cif.got.tgz:29190.got - 2010.06.03 20:15:42.
