data_PCOD9384579
_publ_section_title
;
Structure prediction by ZEFSAII (Michael W. Deem and Ramdas Pophale) SiO2 
 PCOD9384579
Probable space group: P M M M
;
_chemical_formula_sum "Si O2"
_cell_formula_units_Z 40
_cell_length_a 26.393519
_cell_length_b 9.543656
_cell_length_c 7.370827
_cell_angle_alpha 90.000000
_cell_angle_beta 90.000000
_cell_angle_gamma 90.000000
_cell_volume 1856.642522
_symmetry_space_group_name_H-M "P M M M"
_symmetry_group_IT_number 47
_symmetry_cell_setting 'orthorhombic'
loop_
_space_group_symop_operation_xyz
x,y,z
-x,-y,z
x,-y,-z
-x,y,-z
-x,-y,-z
x,y,-z
-x,y,z
x,-y,z
loop_
_atom_site_type_symbol
_atom_site_label
_atom_site_fract_x
_atom_site_fract_y
_atom_site_fract_z
Si Si1 0.654258 0.842428 0.286113
Si Si2 0.557144 0.658744 0.218227
Si Si3 0.057160 0.338758 0.720918
Si Si4 0.846811 0.839052 0.721448
Si Si5 0.251155 0.661091 0.721811
O O1 0.664496 0.854437 0.500000
O O2 0.600110 0.768144 0.268328
O O3 0.698614 0.742134 0.214801
O O4 0.654677 0.000000 0.210847
O O5 0.500000 0.693232 0.280120
O O6 0.569460 0.500000 0.280292
O O7 0.555826 0.654969 0.000000
O O8 0.057329 0.337389 0.500000
O O9 0.067240 0.500000 0.774627
O O10 0.101295 0.235258 0.780724
O O11 0.000000 0.301309 0.777848
O O12 0.846997 0.839576 0.500000
O O13 0.798549 0.747163 0.776943
O O14 0.842989 0.000000 0.779745
O O15 0.251433 0.658604 0.500000
O O16 0.250121 0.500000 0.781024
#
# Coordination Sequence:
#
# PCOD9384579 Si02
#       5
#     8   8   8   8   8
#     4  10  20  32  47  70  98 123 150 188 231 273
#     4   9  19  36  55  73  94 122 156 190 223 265
#     4   8  13  20  28  38  55  83 122 166 208 252
#     4   9  15  21  30  45  66  92 124 166 215 262
#     4   9  16  26  40  56  76 105 140 176 216 263
#
# _framework density 21.544266
#
# number of rings (size 3 to 8) (size 9 to 14) (size 15 to 20)
#    0.000    3.000    0.000    3.000    0.000    7.600 
#    0.000    5.000    0.000    0.000    0.000    0.000 
#    0.000    0.000    0.000    0.000    0.000    1.000 
#
# Total GULP energy -223393.882273 kJ/mol
# GULP energy per Si atom -5584.847057 kJ/mol
# Density = 2.149523 g / cm^3
# Si number density = 21.544266 Si / 1000 Ang^3
#
#
#
# Elastic Constant Matrix: (Units=GPa)
#
#
# Indices 1 2 3 4 5 6 
#
# 1 189.6975 159.6443 -0.1478 0.0000 0.0000 0.0000
# 2 159.6443 234.4002 6.6419 0.0000 0.0000 0.0000
# 3 -0.1478 6.6419 75.5557 0.0000 0.0000 0.0000
# 4 0.0000 0.0000 0.0000 -19.8183 0.0000 0.0000
# 5 0.0000 0.0000 0.0000 0.0000 107.4046 0.0000
# 6 0.0000 0.0000 0.0000 0.0000 0.0000 -27.0951
#
#
#
# Elastic Compliance Matrix: (Units=1/GPa)
#
#
# Indices 1 2 3 4 5 6 
#
# 1 0.012395 -0.008464 0.000768 0.000000 0.000000 0.000000
# 2 -0.008464 0.010056 -0.000901 0.000000 0.000000 0.000000
# 3 0.000768 -0.000901 0.013316 0.000000 0.000000 0.000000
# 4 0.000000 0.000000 0.000000 -0.050459 0.000000 0.000000
# 5 0.000000 0.000000 0.000000 0.000000 0.009311 0.000000
# 6 0.000000 0.000000 0.000000 0.000000 0.000000 -0.036907
#
#
# Mechanical properties :
#
#
# Convention : Reuss Voigt Hill
#
# Bulk Modulus (GPa) = 53.83558 92.43670 73.13614
# Shear Modulus (GPa) = -264.48910 34.33258 -115.07826
#
# Velocity S-wave (km/s) = -11.09198 3.99630 -7.31647
# Velocity P-wave (km/s) = 11.78983 8.01826 6.11177
#
# Compressibility (1/GPa) = 0.01857508
#
# Stress axis : x y z
#
# Youngs Moduli (GPa) = 80.67800 99.44182 75.09798
#
# Poissons Ratio (x) = 0.84164 -0.05770
# Poissons Ratio (y) = 0.68283 0.06763
# Poissons Ratio (z) = -0.06198 0.08955
#
# Static dielectric constant tensor:
#      x y z
#    x 1.737920 0.000000 0.000000 
#    y 0.000000 1.734650 0.000000 
#    z 0.000000 0.000000 1.857380 
# 
# From -- ./inp_files/1410.got.cif
#   From: 2010.05.17/outbox.cif.g08.bks.cpg/sg47_1_cif.got.tgz:1410.got - 2010.06.03 20:15:42.
