data_PCOD9384548
_publ_section_title
;
Structure prediction by ZEFSAII (Michael W. Deem and Ramdas Pophale) SiO2 
 PCOD9384548
Probable space group: P M M M
;
_chemical_formula_sum "Si O2"
_cell_formula_units_Z 48
_cell_length_a 9.668200
_cell_length_b 32.438128
_cell_length_c 8.171254
_cell_angle_alpha 90.000000
_cell_angle_beta 90.000000
_cell_angle_gamma 90.000000
_cell_volume 2562.654863
_symmetry_space_group_name_H-M "P M M M"
_symmetry_group_IT_number 47
_symmetry_cell_setting 'orthorhombic'
loop_
_space_group_symop_operation_xyz
x,y,z
-x,-y,z
x,-y,-z
-x,y,-z
-x,-y,-z
x,y,-z
-x,y,z
x,-y,z
loop_
_atom_site_type_symbol
_atom_site_label
_atom_site_fract_x
_atom_site_fract_y
_atom_site_fract_z
Si Si1 0.657730 0.377595 0.694944
Si Si2 0.157293 0.788501 0.696614
Si Si3 0.839951 0.454189 0.802502
Si Si4 0.660889 0.865529 0.700652
Si Si5 0.332489 0.044304 0.305750
Si Si6 0.658737 0.287502 0.805545
O O1 0.655393 0.373798 0.500000
O O2 0.500000 0.383670 0.754818
O O3 0.749110 0.416589 0.741454
O O4 0.707053 0.333796 0.764746
O O5 0.150845 0.792135 0.500000
O O6 0.243313 0.828170 0.756843
O O7 0.241821 0.747308 0.735908
O O8 0.000000 0.787234 0.759316
O O9 0.792821 0.500000 0.748821
O O10 0.000000 0.449363 0.751684
O O11 0.837202 0.453847 0.000000
O O12 0.661891 0.866308 0.500000
O O13 0.500000 0.859391 0.748218
O O14 0.710997 0.910854 0.757981
O O15 0.300030 0.043731 0.500000
O O16 0.500000 0.044746 0.293887
O O17 0.284860 0.000000 0.236283
O O18 0.500000 0.283224 0.742138
O O19 0.654711 0.282821 0.000000
#
# Coordination Sequence:
#
# PCOD9384548 Si02
#       6
#     8   8   8   8   8   8
#     4  10  21  36  55  80 107 133 163 202 248 296
#     4  10  20  32  47  69  97 128 161 197 239 289
#     4   9  19  36  56  78 106 141 178 211 243 282
#     4   8  13  22  38  59  84 118 157 195 236 280
#     4   7   9  14  27  50  79 110 147 190 232 274
#     4  10  21  37  56  75  95 123 161 203 247 295
#
# _framework density 18.730575000000002
#
# number of rings (size 3 to 8) (size 9 to 14) (size 15 to 20)
#    0.000    3.000    0.000    3.500    0.000    4.667 
#    0.000    2.500    0.000    0.500    0.000    3.500 
#    0.000    0.667    0.000    7.667    0.000    8.833 
#
# Total GULP energy -267443.365594 kJ/mol
# GULP energy per Si atom -5571.736783 kJ/mol
# Density = 1.868794 g / cm^3
# Si number density = 18.730575 Si / 1000 Ang^3
#
#
#
# Elastic Constant Matrix: (Units=GPa)
#
#
# Indices 1 2 3 4 5 6 
#
# 1 78.9948 94.7325 9.3272 0.0000 0.0000 0.0000
# 2 94.7325 200.4392 8.4535 0.0000 0.0000 0.0000
# 3 9.3272 8.4535 9.5134 0.0000 0.0000 0.0000
# 4 0.0000 0.0000 0.0000 388.6097 0.0000 0.0000
# 5 0.0000 0.0000 0.0000 0.0000 15.9442 0.0000
# 6 0.0000 0.0000 0.0000 0.0000 0.0000 -31.1713
#
#
#
# Elastic Compliance Matrix: (Units=1/GPa)
#
#
# Indices 1 2 3 4 5 6 
#
# 1 0.032137 -0.014399 -0.018712 0.000000 0.000000 0.000000
# 2 -0.014399 0.011635 0.003779 0.000000 0.000000 0.000000
# 3 -0.018712 0.003779 0.120103 0.000000 0.000000 0.000000
# 4 0.000000 0.000000 0.000000 0.002573 0.000000 0.000000
# 5 0.000000 0.000000 0.000000 0.000000 0.062719 0.000000
# 6 0.000000 0.000000 0.000000 0.000000 0.000000 -0.032081
#
#
# Mechanical properties :
#
#
# Convention : Reuss Voigt Hill
#
# Bulk Modulus (GPa) = 9.50494 57.10822 33.30658
# Shear Modulus (GPa) = 17.19265 86.43878 51.81572
#
# Velocity S-wave (km/s) = 3.03296 6.80064 5.26534
# Velocity P-wave (km/s) = 4.16542 9.60314 7.40173
#
# Compressibility (1/GPa) = 0.10520844
#
# Stress axis : x y z
#
# Youngs Moduli (GPa) = 31.11720 85.94632 8.32618
#
# Poissons Ratio (x) = 1.23757 0.15580
# Poissons Ratio (y) = 0.44807 -0.03146
# Poissons Ratio (z) = 0.58228 -0.32476
#
# Static dielectric constant tensor:
#      x y z
#    x 1.635310 0.000000 0.000000 
#    y 0.000000 1.665220 0.000000 
#    z 0.000000 0.000000 1.668520 
# 
# From -- ./inp_files/2445.got.cif
#   From: 2010.05.17/outbox.cif.g08.bks.cpg/sg47_2_cif.got.tgz:2445.got - 2010.06.03 20:15:42.
