data_PCOD9384724
_publ_section_title
;
Structure prediction by ZEFSAII (Michael W. Deem and Ramdas Pophale) SiO2 
 PCOD9384724
Probable space group: P M M M
;
_chemical_formula_sum "Si O2"
_cell_formula_units_Z 52
_cell_length_a 7.474511
_cell_length_b 34.452179
_cell_length_c 9.356782
_cell_angle_alpha 90.000000
_cell_angle_beta 90.000000
_cell_angle_gamma 90.000000
_cell_volume 2409.494789
_symmetry_space_group_name_H-M "P M M M"
_symmetry_group_IT_number 47
_symmetry_cell_setting 'orthorhombic'
loop_
_space_group_symop_operation_xyz
x,y,z
-x,-y,z
x,-y,-z
-x,y,-z
-x,-y,-z
x,y,-z
-x,y,z
x,-y,z
loop_
_atom_site_type_symbol
_atom_site_label
_atom_site_fract_x
_atom_site_fract_y
_atom_site_fract_z
Si Si1 0.714307 0.153943 0.162617
Si Si2 0.219069 0.000000 0.165176
Si Si3 0.215393 0.543405 0.837033
Si Si4 0.288031 0.380298 0.339575
Si Si5 0.281308 0.229470 0.664764
Si Si6 0.785776 0.075757 0.662735
Si Si7 0.281142 0.306214 0.835930
O O1 0.500000 0.157962 0.153625
O O2 0.779772 0.191669 0.248167
O O3 0.750021 0.115046 0.251141
O O4 0.782965 0.151686 0.000000
O O5 0.279046 0.961574 0.249084
O O6 0.000000 0.000000 0.164434
O O7 0.275677 0.000000 0.000000
O O8 0.276391 0.500000 0.795531
O O9 0.266131 0.577946 0.732903
O O10 0.000000 0.542448 0.840457
O O11 0.276859 0.551033 0.000000
O O12 0.213749 0.379342 0.500000
O O13 0.500000 0.373350 0.350474
O O14 0.218586 0.345751 0.239496
O O15 0.223811 0.228564 0.500000
O O16 0.500000 0.229114 0.663937
O O17 0.226597 0.268745 0.744854
O O18 0.716902 0.077291 0.500000
O O19 0.000000 0.071696 0.653723
O O20 0.500000 0.306380 0.837866
O O21 0.222844 0.303839 0.000000
#
# Coordination Sequence:
#
# PCOD9384724 Si02
#       7
#     8   4   8   8   8   8   8
#     4  10  20  33  50  74 103 134 169 207 246 291
#     4   9  17  31  52  75  98 127 164 204 246 295
#     4   9  19  36  55  73  95 127 167 206 244 292
#     4  10  20  32  48  74 105 132 161 201 247 292
#     4   9  16  27  45  69  98 131 165 202 244 290
#     4  10  20  34  53  76 101 130 165 205 249 297
#     4   9  16  27  45  69  97 129 165 203 242 286
#
# _framework density 21.581285999999999
#
# number of rings (size 3 to 8) (size 9 to 14) (size 15 to 20)
#    0.000    2.538    0.000    3.000    0.000    8.308 
#    0.000    2.692    0.000    3.231    0.000    0.000 
#    0.000    0.000    0.000    0.000    0.000    0.000 
#
# Total GULP energy -290563.639943 kJ/mol
# GULP energy per Si atom -5587.762307 kJ/mol
# Density = 2.153217 g / cm^3
# Si number density = 21.581286 Si / 1000 Ang^3
#
#
#
# Elastic Constant Matrix: (Units=GPa)
#
#
# Indices 1 2 3 4 5 6 
#
# 1 60.7022 -2.0701 7.1318 0.0000 0.0000 0.0000
# 2 -2.0701 212.8648 151.2409 0.0000 0.0000 0.0000
# 3 7.1318 151.2409 251.6210 0.0000 0.0000 0.0000
# 4 0.0000 0.0000 0.0000 47.6348 0.0000 0.0000
# 5 0.0000 0.0000 0.0000 0.0000 3.4316 0.0000
# 6 0.0000 0.0000 0.0000 0.0000 0.0000 25.2570
#
#
#
# Elastic Compliance Matrix: (Units=1/GPa)
#
#
# Indices 1 2 3 4 5 6 
#
# 1 0.016620 0.000866 -0.000992 0.000000 0.000000 0.000000
# 2 0.000866 0.008245 -0.004980 0.000000 0.000000 0.000000
# 3 -0.000992 -0.004980 0.006996 0.000000 0.000000 0.000000
# 4 0.000000 0.000000 0.000000 0.020993 0.000000 0.000000
# 5 0.000000 0.000000 0.000000 0.000000 0.291406 0.000000
# 6 0.000000 0.000000 0.000000 0.000000 0.000000 0.039593
#
#
# Mechanical properties :
#
#
# Convention : Reuss Voigt Hill
#
# Bulk Modulus (GPa) = 46.19138 93.08813 69.63976
# Shear Modulus (GPa) = 12.46013 39.85704 26.15858
#
# Velocity S-wave (km/s) = 2.40543 4.30214 3.48529
# Velocity P-wave (km/s) = 5.40044 8.24047 6.96671
#
# Compressibility (1/GPa) = 0.02164906
#
# Stress axis : x y z
#
# Youngs Moduli (GPa) = 60.16877 121.29108 142.94443
#
# Poissons Ratio (x) = -0.10507 0.14177
# Poissons Ratio (y) = -0.05212 0.71188
# Poissons Ratio (z) = 0.05967 0.60404
#
# Static dielectric constant tensor:
#      x y z
#    x 1.851150 0.000000 0.000000 
#    y 0.000000 1.728800 0.000000 
#    z 0.000000 0.000000 1.751580 
# 
# From -- ./inp_files/4556.got.cif
#   From: 2010.05.17/outbox.cif.g08.bks.cpg/sg47_3_cif.got.tgz:4556.got - 2010.06.03 20:15:42.
