data_PCOD9384401
_publ_section_title
;
Structure prediction by ZEFSAII (Michael W. Deem and Ramdas Pophale) SiO2 
 PCOD9384401
Probable space group: P M M M
;
_chemical_formula_sum "Si O2"
_cell_formula_units_Z 56
_cell_length_a 8.618179
_cell_length_b 20.364398
_cell_length_c 17.446954
_cell_angle_alpha 90.000000
_cell_angle_beta 90.000000
_cell_angle_gamma 90.000000
_cell_volume 3062.010689
_symmetry_space_group_name_H-M "P M M M"
_symmetry_group_IT_number 47
_symmetry_cell_setting 'orthorhombic'
loop_
_space_group_symop_operation_xyz
x,y,z
-x,-y,z
x,-y,-z
-x,y,-z
-x,-y,-z
x,y,-z
-x,y,z
x,-y,z
loop_
_atom_site_type_symbol
_atom_site_label
_atom_site_fract_x
_atom_site_fract_y
_atom_site_fract_z
Si Si1 0.314120 0.833417 0.588096
Si Si2 0.677100 0.201496 0.000000
Si Si3 0.678210 0.574875 0.119490
Si Si4 0.187091 0.280715 0.304842
Si Si5 0.812683 0.925244 0.285464
Si Si6 0.187000 0.427832 0.288834
Si Si7 0.826518 0.335819 0.000000
Si Si8 0.813488 0.188655 0.167883
O O1 0.261865 0.833584 0.500000
O O2 0.500000 0.834302 0.589801
O O3 0.255295 0.769199 0.633234
O O4 0.250895 0.895188 0.635844
O O5 0.699453 0.279683 0.000000
O O6 0.751820 0.182641 0.081708
O O7 0.500000 0.180728 0.000000
O O8 0.500000 0.597053 0.110194
O O9 0.686817 0.500000 0.091047
O O10 0.727359 0.573206 0.207510
O O11 0.796233 0.619588 0.073402
O O12 0.228970 0.356391 0.322667
O O13 0.234442 0.252344 0.220048
O O14 0.000000 0.275633 0.306984
O O15 0.766258 0.874597 0.218359
O O16 0.000000 0.923934 0.288362
O O17 0.762310 0.000000 0.272632
O O18 0.222540 0.500000 0.325070
O O19 0.000000 0.426561 0.277793
O O20 0.000000 0.307688 0.000000
O O21 0.000000 0.190994 0.163424
#
# Coordination Sequence:
#
# PCOD9384401 Si02
#       8
#     8   4   8   8   8   8   4   8
#     4  10  21  35  53  81 114 145 175 208 252 307
#     4  12  24  35  50  73 100 132 175 222 263 306
#     4  10  20  32  45  64  91 121 157 204 258 317
#     4   9  18  33  54  77 102 137 179 221 264 312
#     4   9  19  37  61  86 110 139 174 209 249 302
#     4   9  17  30  49  73  99 128 167 214 263 315
#     4  12  23  33  46  62  85 122 165 209 263 316
#     4   9  18  34  54  76 104 137 175 217 259 305
#
# _framework density 18.288637000000001
#
# number of rings (size 3 to 8) (size 9 to 14) (size 15 to 20)
#    0.000    2.286    0.000    4.071    0.000    7.429 
#    0.000    1.786    0.000    2.571    0.000    3.000 
#    0.000    0.000    0.000    0.000    0.000    0.000 
#
# Total GULP energy -312106.392323 kJ/mol
# GULP energy per Si atom -5573.328434 kJ/mol
# Density = 1.824701 g / cm^3
# Si number density = 18.288637 Si / 1000 Ang^3
#
#
#
# Elastic Constant Matrix: (Units=GPa)
#
#
# Indices 1 2 3 4 5 6 
#
# 1 10.3512 17.5258 14.3289 0.0000 0.0000 0.0000
# 2 17.5258 125.6613 38.5291 0.0000 0.0000 0.0000
# 3 14.3289 38.5291 99.7621 0.0000 0.0000 0.0000
# 4 0.0000 0.0000 0.0000 13.7216 0.0000 0.0000
# 5 0.0000 0.0000 0.0000 0.0000 29.7966 0.0000
# 6 0.0000 0.0000 0.0000 0.0000 0.0000 13.4218
#
#
#
# Elastic Compliance Matrix: (Units=1/GPa)
#
#
# Indices 1 2 3 4 5 6 
#
# 1 0.142958 -0.015475 -0.014557 0.000000 0.000000 0.000000
# 2 -0.015475 0.010702 -0.001911 0.000000 0.000000 0.000000
# 3 -0.014557 -0.001911 0.012852 0.000000 0.000000 0.000000
# 4 0.000000 0.000000 0.000000 0.072878 0.000000 0.000000
# 5 0.000000 0.000000 0.000000 0.000000 0.033561 0.000000
# 6 0.000000 0.000000 0.000000 0.000000 0.000000 0.074505
#
#
# Mechanical properties :
#
#
# Convention : Reuss Voigt Hill
#
# Bulk Modulus (GPa) = 9.74391 41.83803 25.79097
# Shear Modulus (GPa) = 11.22210 22.41408 16.81809
#
# Velocity S-wave (km/s) = 2.47980 3.50462 3.03577
# Velocity P-wave (km/s) = 3.67949 6.26918 5.14010
#
# Compressibility (1/GPa) = 0.10262823
#
# Stress axis : x y z
#
# Youngs Moduli (GPa) = 6.99507 93.44089 77.80601
#
# Poissons Ratio (x) = 1.44599 1.13259
# Poissons Ratio (y) = 0.10825 0.14865
# Poissons Ratio (z) = 0.10182 0.17852
#
# Static dielectric constant tensor:
#      x y z
#    x 1.618330 0.000000 0.000000 
#    y 0.000000 1.661360 0.000000 
#    z 0.000000 0.000000 1.618580 
# 
# From -- ./inp_files/21655.got.cif
#   From: 2010.05.17/outbox.cif.g08.bks.cpg/sg47_11_cif.got.tgz:21655.got - 2010.06.03 20:15:42.
