data_PCOD9384625
_publ_section_title
;
Structure prediction by ZEFSAII (Michael W. Deem and Ramdas Pophale) SiO2 
 PCOD9384625
Probable space group: P M M M
;
_chemical_formula_sum "Si O2"
_cell_formula_units_Z 64
_cell_length_a 29.700169
_cell_length_b 15.166940
_cell_length_c 7.514054
_cell_angle_alpha 90.000000
_cell_angle_beta 90.000000
_cell_angle_gamma 90.000000
_cell_volume 3384.785884
_symmetry_space_group_name_H-M "P M M M"
_symmetry_group_IT_number 47
_symmetry_cell_setting 'orthorhombic'
loop_
_space_group_symop_operation_xyz
x,y,z
-x,-y,z
x,-y,-z
-x,y,-z
-x,-y,-z
x,y,-z
-x,y,z
x,-y,z
loop_
_atom_site_type_symbol
_atom_site_label
_atom_site_fract_x
_atom_site_fract_y
_atom_site_fract_z
Si Si1 0.187035 0.899836 0.285126
Si Si2 0.131509 0.398348 0.716371
Si Si3 0.234089 0.599583 0.717304
Si Si4 0.270434 0.219369 0.281981
Si Si5 0.048894 0.714909 0.293512
Si Si6 0.451596 0.897360 0.785935
Si Si7 0.082831 0.901351 0.793207
Si Si8 0.352460 0.899277 0.710608
O O1 0.185067 0.896003 0.500000
O O2 0.225172 0.832228 0.227043
O O3 0.136421 0.883551 0.220859
O O4 0.199565 0.000000 0.234439
O O5 0.132865 0.391580 0.500000
O O6 0.121345 0.500000 0.760497
O O7 0.182647 0.379513 0.773884
O O8 0.092467 0.334230 0.783875
O O9 0.234015 0.598524 0.500000
O O10 0.245172 0.500000 0.774845
O O11 0.266058 0.679181 0.774288
O O12 0.270993 0.218990 0.500000
O O13 0.313818 0.165029 0.219257
O O14 0.047119 0.687448 0.500000
O O15 0.057333 0.819455 0.290003
O O16 0.000000 0.694733 0.213508
O O17 0.500000 0.859470 0.725539
O O18 0.402966 0.861836 0.732356
O O19 0.451097 0.000000 0.727277
O O20 0.452169 0.896934 0.000000
O O21 0.075035 0.000000 0.719194
O O22 0.070353 0.902957 0.000000
O O23 0.344454 0.906986 0.500000
O O24 0.350581 0.000000 0.783653
#
# Coordination Sequence:
#
# PCOD9384625 Si02
#       8
#     8   8   8   8   8   8   8   8
#     4   9  16  27  45  65  83 107 139 171 203 242
#     4   8  14  26  45  69  93 111 130 163 206 248
#     4   8  13  21  35  56  81 109 137 161 190 234
#     4   9  15  23  37  58  86 114 136 164 203 243
#     4  10  20  32  48  70  90 108 134 168 206 249
#     4   8  14  25  39  53  73 106 145 179 209 241
#     4  10  21  35  48  62  83 112 144 176 209 244
#     4   9  16  24  35  55  83 112 141 171 204 242
#
# _framework density 18.908138000000001
#
# number of rings (size 3 to 8) (size 9 to 14) (size 15 to 20)
#    0.000    3.125    0.000    2.625    0.000    5.250 
#    0.000    4.375    0.000    3.375    0.000    0.875 
#    0.000    2.000    0.000    6.250    0.000    1.250 
#
# Total GULP energy -356749.242436 kJ/mol
# GULP energy per Si atom -5574.206913 kJ/mol
# Density = 1.886510 g / cm^3
# Si number density = 18.908138 Si / 1000 Ang^3
#
#
#
# Elastic Constant Matrix: (Units=GPa)
#
#
# Indices 1 2 3 4 5 6 
#
# 1 79.9932 66.7969 0.4821 0.0000 0.0000 0.0000
# 2 66.7969 88.9906 2.8066 0.0000 0.0000 0.0000
# 3 0.4821 2.8066 46.1854 0.0000 0.0000 0.0000
# 4 0.0000 0.0000 0.0000 -14.1814 0.0000 0.0000
# 5 0.0000 0.0000 0.0000 0.0000 22.1048 0.0000
# 6 0.0000 0.0000 0.0000 0.0000 0.0000 14.7659
#
#
#
# Elastic Compliance Matrix: (Units=1/GPa)
#
#
# Indices 1 2 3 4 5 6 
#
# 1 0.033560 -0.025227 0.001183 0.000000 0.000000 0.000000
# 2 -0.025227 0.030223 -0.001573 0.000000 0.000000 0.000000
# 3 0.001183 -0.001573 0.021735 0.000000 0.000000 0.000000
# 4 0.000000 0.000000 0.000000 -0.070515 0.000000 0.000000
# 5 0.000000 0.000000 0.000000 0.000000 0.045239 0.000000
# 6 0.000000 0.000000 0.000000 0.000000 0.000000 0.067723
#
#
# Mechanical properties :
#
#
# Convention : Reuss Voigt Hill
#
# Bulk Modulus (GPa) = 29.17022 39.48226 34.32624
# Shear Modulus (GPa) = 26.22918 14.21011 20.21965
#
# Velocity S-wave (km/s) = 3.72854 2.74439 3.27366
# Velocity P-wave (km/s) = 5.83068 5.56495 5.69936
#
# Compressibility (1/GPa) = 0.03428154
#
# Stress axis : x y z
#
# Youngs Moduli (GPa) = 29.79781 33.08793 46.00849
#
# Poissons Ratio (x) = 0.83472 -0.05441
# Poissons Ratio (y) = 0.75172 0.07238
# Poissons Ratio (z) = -0.03524 0.05205
#
# Static dielectric constant tensor:
#      x y z
#    x 1.671620 0.000000 0.000000 
#    y 0.000000 1.650670 0.000000 
#    z 0.000000 0.000000 1.731390 
# 
# From -- ./inp_files/8252.got.cif
#   From: 2010.05.17/outbox.cif.g08.bks.cpg/sg47_5_cif.got.tgz:8252.got - 2010.06.03 20:15:42.
