data_PCOD9384979
_publ_section_title
;
Structure prediction by ZEFSAII (Michael W. Deem and Ramdas Pophale) SiO2 
 PCOD9384979
Probable space group: P M M M
;
_chemical_formula_sum "Si O2"
_cell_formula_units_Z 64
_cell_length_a 20.924696
_cell_length_b 7.695166
_cell_length_c 20.817708
_cell_angle_alpha 90.000000
_cell_angle_beta 90.000000
_cell_angle_gamma 90.000000
_cell_volume 3352.046716
_symmetry_space_group_name_H-M "P M M M"
_symmetry_group_IT_number 47
_symmetry_cell_setting 'orthorhombic'
loop_
_space_group_symop_operation_xyz
x,y,z
-x,-y,z
x,-y,-z
-x,y,-z
-x,-y,-z
x,y,-z
-x,y,z
x,-y,z
loop_
_atom_site_type_symbol
_atom_site_label
_atom_site_fract_x
_atom_site_fract_y
_atom_site_fract_z
Si Si1 0.389557 0.713120 0.789904
Si Si2 0.397975 0.706071 0.930144
Si Si3 0.757085 0.706581 0.931561
Si Si4 0.569133 0.709990 0.349894
Si Si5 0.927142 0.709413 0.572115
Si Si6 0.809910 0.795337 0.339458
Si Si7 0.242467 0.706584 0.794483
Si Si8 0.304143 0.207075 0.572431
O O1 0.391267 0.500000 0.791934
O O2 0.416617 0.772720 0.859258
O O3 0.423140 0.767170 0.724267
O O4 0.315221 0.769209 0.782941
O O5 0.413540 0.500000 0.931098
O O6 0.320426 0.719998 0.929471
O O7 0.419414 0.777330 0.000000
O O8 0.771359 0.500000 0.933599
O O9 0.780641 0.777512 0.863372
O O10 0.778347 0.782108 0.000000
O O11 0.500000 0.767613 0.374720
O O12 0.570178 0.500000 0.349220
O O13 0.628728 0.766172 0.392338
O O14 0.908080 0.768928 0.500000
O O15 0.928231 0.500000 0.570722
O O16 0.876575 0.762117 0.625460
O O17 0.000000 0.768480 0.583958
O O18 0.801592 0.733777 0.266742
O O19 0.752885 0.719357 0.383552
O O20 0.800074 0.000000 0.336250
O O21 0.249153 0.500000 0.802741
O O22 0.303749 0.277947 0.500000
O O23 0.293967 0.000000 0.567704
#
# Coordination Sequence:
#
# PCOD9384979 Si02
#       8
#     8   8   8   8   8   8   8   8
#     4   8  13  23  39  59  85 115 147 185 230 278
#     4   7   9  14  28  52  80 110 142 175 216 268
#     4   7  10  17  32  58  88 116 151 194 234 273
#     4  10  20  33  49  68  89 114 149 195 244 292
#     4   9  19  36  56  77 101 130 163 195 228 272
#     4  11  21  32  49  74 103 130 158 194 234 279
#     4   9  15  25  44  66  91 125 161 196 237 282
#     4  10  22  38  52  67  89 118 152 191 236 285
#
# _framework density 19.092813
#
# number of rings (size 3 to 8) (size 9 to 14) (size 15 to 20)
#    0.000    3.125    1.250    3.375    0.000    2.250 
#    0.000    1.875    0.000    0.750    0.000    2.625 
#    0.000    1.000    0.000    6.875    0.000    3.125 
#
# Total GULP energy -356529.278644 kJ/mol
# GULP energy per Si atom -5570.769979 kJ/mol
# Density = 1.904936 g / cm^3
# Si number density = 19.092813 Si / 1000 Ang^3
#
#
#
# Elastic Constant Matrix: (Units=GPa)
#
#
# Indices 1 2 3 4 5 6 
#
# 1 57.7739 -6.0497 53.4344 0.0000 0.0000 0.0000
# 2 -6.0497 26.9581 4.1343 0.0000 0.0000 0.0000
# 3 53.4344 4.1343 173.4416 0.0000 0.0000 0.0000
# 4 0.0000 0.0000 0.0000 -34.7917 0.0000 0.0000
# 5 0.0000 0.0000 0.0000 0.0000 48.8100 0.0000
# 6 0.0000 0.0000 0.0000 0.0000 0.0000 0.7806
#
#
#
# Elastic Compliance Matrix: (Units=1/GPa)
#
#
# Indices 1 2 3 4 5 6 
#
# 1 0.025436 0.006935 -0.008002 0.000000 0.000000 0.000000
# 2 0.006935 0.039122 -0.003069 0.000000 0.000000 0.000000
# 3 -0.008002 -0.003069 0.008304 0.000000 0.000000 0.000000
# 4 0.000000 0.000000 0.000000 -0.028742 0.000000 0.000000
# 5 0.000000 0.000000 0.000000 0.000000 0.020488 0.000000
# 6 0.000000 0.000000 0.000000 0.000000 0.000000 1.281078
#
#
# Mechanical properties :
#
#
# Convention : Reuss Voigt Hill
#
# Bulk Modulus (GPa) = 15.48227 40.13464 27.80846
# Shear Modulus (GPa) = 3.63508 16.73677 10.18592
#
# Velocity S-wave (km/s) = 1.38132 2.96396 2.31226
# Velocity P-wave (km/s) = 3.26659 5.72537 4.66103
#
# Compressibility (1/GPa) = 0.06459000
#
# Stress axis : x y z
#
# Youngs Moduli (GPa) = 39.31492 25.56135 120.42469
#
# Poissons Ratio (x) = -0.17727 0.96359
# Poissons Ratio (y) = -0.27266 0.36960
# Poissons Ratio (z) = 0.31458 0.07845
#
# Static dielectric constant tensor:
#      x y z
#    x 1.633680 0.000000 0.000000 
#    y 0.000000 1.727550 0.000000 
#    z 0.000000 0.000000 1.742460 
# 
# From -- ./inp_files/11900.got.cif
#   From: 2010.05.17/outbox.cif.g08.bks.cpg/sg47_6_cif.got.tgz:11900.got - 2010.06.03 20:15:42.
