data_PCOD9384034
_publ_section_title
;
Structure prediction by ZEFSAII (Michael W. Deem and Ramdas Pophale) SiO2 
 PCOD9384034
Probable space group: P M M M
;
_chemical_formula_sum "Si O2"
_cell_formula_units_Z 48
_cell_length_a 18.129074
_cell_length_b 16.425893
_cell_length_c 8.031375
_cell_angle_alpha 90.000000
_cell_angle_beta 90.000000
_cell_angle_gamma 90.000000
_cell_volume 2391.632881
_symmetry_space_group_name_H-M "P M M M"
_symmetry_group_IT_number 47
_symmetry_cell_setting 'orthorhombic'
loop_
_space_group_symop_operation_xyz
x,y,z
-x,-y,z
x,-y,-z
-x,y,-z
-x,-y,-z
x,y,-z
-x,y,z
x,-y,z
loop_
_atom_site_type_symbol
_atom_site_label
_atom_site_fract_x
_atom_site_fract_y
_atom_site_fract_z
Si Si1 0.321875 0.000000 0.686191
Si Si2 0.085859 0.165281 0.203746
Si Si3 0.083618 0.500000 0.302129
Si Si4 0.161020 0.668076 0.800699
Si Si5 0.417177 0.596435 0.500000
Si Si6 0.415051 0.150965 0.197154
Si Si7 0.838897 0.000000 0.193364
Si Si8 0.665442 0.676637 0.196141
O O1 0.372612 0.921819 0.715166
O O2 0.249400 0.000000 0.799140
O O3 0.292274 0.000000 0.500000
O O4 0.120249 0.250708 0.263860
O O5 0.128873 0.084611 0.263497
O O6 0.000000 0.159852 0.247763
O O7 0.090670 0.166820 0.000000
O O8 0.078446 0.500000 0.500000
O O9 0.125933 0.417278 0.254222
O O10 0.000000 0.500000 0.231767
O O11 0.247840 0.674196 0.763680
O O12 0.154311 0.669635 0.000000
O O13 0.421205 0.500000 0.500000
O O14 0.500000 0.631353 0.500000
O O15 0.376153 0.623040 0.668024
O O16 0.500000 0.160228 0.252795
O O17 0.368987 0.233594 0.215877
O O18 0.416588 0.131935 0.000000
O O19 0.862178 0.000000 0.000000
O O20 0.655673 0.653258 0.000000
#
# Coordination Sequence:
#
# PCOD9384034 Si02
#       8
#     4   8   4   8   4   8   4   8
#     4  12  25  36  53  86 123 160 205 252 304 367
#     4   9  17  32  58  90 118 149 197 252 302 360
#     4  11  25  41  59  87 123 164 207 256 316 376
#     4  10  21  37  61  90 121 159 203 254 313 372
#     4  11  26  44  66  95 127 169 210 258 324 380
#     4  10  21  40  64  87 117 158 201 252 313 373
#     4  10  19  35  59  84 117 157 199 246 297 358
#     4  10  23  42  67  97 127 165 213 261 317 379
#
# _framework density 20.069969
#
# number of rings (size 3 to 8) (size 9 to 14) (size 15 to 20)
#    0.000    1.833    0.000    3.500    3.500    7.667 
#    0.000    1.667    0.000    2.000    0.000    0.000 
#    0.000    0.000    0.000    0.000    0.000    0.000 
#
# Total GULP energy -268073.142557 kJ/mol
# GULP energy per Si atom -5584.857137 kJ/mol
# Density = 2.002429 g / cm^3
# Si number density = 20.069969 Si / 1000 Ang^3
#
#
#
# Elastic Constant Matrix: (Units=GPa)
#
#
# Indices 1 2 3 4 5 6 
#
# 1 167.0289 88.9203 38.3491 0.0000 0.0000 0.0000
# 2 88.9203 146.9613 37.4037 0.0000 0.0000 0.0000
# 3 38.3491 37.4037 34.3854 0.0000 0.0000 0.0000
# 4 0.0000 0.0000 0.0000 12.5980 0.0000 0.0000
# 5 0.0000 0.0000 0.0000 0.0000 12.8756 0.0000
# 6 0.0000 0.0000 0.0000 0.0000 0.0000 40.9273
#
#
#
# Elastic Compliance Matrix: (Units=1/GPa)
#
#
# Indices 1 2 3 4 5 6 
#
# 1 0.009681 -0.004300 -0.006120 0.000000 0.000000 0.000000
# 2 -0.004300 0.011320 -0.007517 0.000000 0.000000 0.000000
# 3 -0.006120 -0.007517 0.044084 0.000000 0.000000 0.000000
# 4 0.000000 0.000000 0.000000 0.079378 0.000000 0.000000
# 5 0.000000 0.000000 0.000000 0.000000 0.077666 0.000000
# 6 0.000000 0.000000 0.000000 0.000000 0.000000 0.024434
#
#
# Mechanical properties :
#
#
# Convention : Reuss Voigt Hill
#
# Bulk Modulus (GPa) = 34.23373 75.30241 54.76807
# Shear Modulus (GPa) = 17.11307 25.52702 21.32004
#
# Velocity S-wave (km/s) = 2.92322 3.57024 3.26281
# Velocity P-wave (km/s) = 5.33740 7.38897 6.44534
#
# Compressibility (1/GPa) = 0.02921095
#
# Stress axis : x y z
#
# Youngs Moduli (GPa) = 103.29170 88.34168 22.68379
#
# Poissons Ratio (x) = 0.37989 0.13882
# Poissons Ratio (y) = 0.44418 0.17052
# Poissons Ratio (z) = 0.63210 0.66410
#
# Static dielectric constant tensor:
#      x y z
#    x 1.696750 0.000000 0.000000 
#    y 0.000000 1.692530 0.000000 
#    z 0.000000 0.000000 1.710550 
# 
# From -- ./inp_files/9261.got.cif
#   From: 2010.05.17/outbox.cif.g08.bks.cpg/sg47_5_cif.got.tgz:9261.got - 2010.06.03 20:15:42.
