data_PCOD9384684
_publ_section_title
;
Structure prediction by ZEFSAII (Michael W. Deem and Ramdas Pophale) SiO2 
 PCOD9384684
Probable space group: P M M M
;
_chemical_formula_sum "Si O2"
_cell_formula_units_Z 64
_cell_length_a 9.692917
_cell_length_b 14.117215
_cell_length_c 25.286941
_cell_angle_alpha 90.000000
_cell_angle_beta 90.000000
_cell_angle_gamma 90.000000
_cell_volume 3460.188975
_symmetry_space_group_name_H-M "P M M M"
_symmetry_group_IT_number 47
_symmetry_cell_setting 'orthorhombic'
loop_
_space_group_symop_operation_xyz
x,y,z
-x,-y,z
x,-y,-z
-x,y,-z
-x,-y,-z
x,y,-z
-x,y,z
x,-y,z
loop_
_atom_site_type_symbol
_atom_site_label
_atom_site_fract_x
_atom_site_fract_y
_atom_site_fract_z
Si Si1 0.348568 0.615236 0.060643
Si Si2 0.840303 0.115332 0.940482
Si Si3 0.665752 0.286739 0.438918
Si Si4 0.332706 0.394238 0.336905
Si Si5 0.158130 0.105779 0.435835
Si Si6 0.845318 0.613833 0.151971
Si Si7 0.335530 0.110550 0.837702
Si Si8 0.334478 0.281171 0.763973
O O1 0.500000 0.646336 0.080792
O O2 0.350297 0.500000 0.061164
O O3 0.222684 0.644941 0.096830
O O4 0.334902 0.644152 0.000000
O O5 0.744918 0.141416 0.890794
O O6 0.000000 0.144266 0.932706
O O7 0.838748 0.000000 0.941182
O O8 0.796413 0.145271 0.000000
O O9 0.703477 0.307824 0.500000
O O10 0.500000 0.275953 0.437238
O O11 0.706884 0.365573 0.396335
O O12 0.738164 0.189106 0.421737
O O13 0.500000 0.397099 0.336004
O O14 0.283550 0.500000 0.322570
O O15 0.292264 0.313363 0.294873
O O16 0.157787 0.103145 0.500000
O O17 0.000000 0.124860 0.419377
O O18 0.197253 0.000000 0.417613
O O19 0.850499 0.500000 0.151900
O O20 0.742593 0.647353 0.197124
O O21 0.000000 0.650484 0.159179
O O22 0.500000 0.117848 0.847105
O O23 0.301158 0.177795 0.787901
O O24 0.303534 0.000000 0.827338
O O25 0.500000 0.292081 0.767541
#
# Coordination Sequence:
#
# PCOD9384684 Si02
#       8
#     8   8   8   8   8   8   8   8
#     4   8  14  26  45  68  94 126 163 200 240 290
#     4   8  14  26  46  72 100 130 163 197 239 296
#     4   9  17  29  48  77 108 134 166 212 262 308
#     4   9  18  33  53  76 101 131 168 208 252 306
#     4   8  14  26  45  69 100 140 178 205 235 283
#     4  10  20  32  48  72  99 125 157 202 252 294
#     4   9  18  32  50  73  99 126 161 208 255 293
#     4  10  20  35  54  72  93 127 169 206 242 294
#
# _framework density 18.496099999999998
#
# number of rings (size 3 to 8) (size 9 to 14) (size 15 to 20)
#    0.000    3.125    0.000    1.875    0.000    2.750 
#    0.000    6.875    0.000    4.125    0.000    3.500 
#    0.000    0.000    0.000    0.000    0.000    0.000 
#
# Total GULP energy -356457.459100 kJ/mol
# GULP energy per Si atom -5569.647798 kJ/mol
# Density = 1.845400 g / cm^3
# Si number density = 18.496100 Si / 1000 Ang^3
#
#
#
# Elastic Constant Matrix: (Units=GPa)
#
#
# Indices 1 2 3 4 5 6 
#
# 1 22.6810 23.7755 26.5584 0.0000 0.0000 0.0000
# 2 23.7755 88.4423 46.0523 0.0000 0.0000 0.0000
# 3 26.5584 46.0523 102.9092 0.0000 0.0000 0.0000
# 4 0.0000 0.0000 0.0000 38.0912 0.0000 0.0000
# 5 0.0000 0.0000 0.0000 0.0000 1.6006 0.0000
# 6 0.0000 0.0000 0.0000 0.0000 0.0000 14.9623
#
#
#
# Elastic Compliance Matrix: (Units=1/GPa)
#
#
# Indices 1 2 3 4 5 6 
#
# 1 0.072766 -0.012755 -0.013071 0.000000 0.000000 0.000000
# 2 -0.012755 0.016978 -0.004306 0.000000 0.000000 0.000000
# 3 -0.013071 -0.004306 0.015018 0.000000 0.000000 0.000000
# 4 0.000000 0.000000 0.000000 0.026253 0.000000 0.000000
# 5 0.000000 0.000000 0.000000 0.000000 0.624784 0.000000
# 6 0.000000 0.000000 0.000000 0.000000 0.000000 0.066835
#
#
# Mechanical properties :
#
#
# Convention : Reuss Voigt Hill
#
# Bulk Modulus (GPa) = 22.47336 45.20056 33.83696
# Shear Modulus (GPa) = 5.56961 18.77390 12.17175
#
# Velocity S-wave (km/s) = 1.73717 3.18939 2.56807
# Velocity P-wave (km/s) = 4.02497 6.16878 5.20837
#
# Compressibility (1/GPa) = 0.04449713
#
# Stress axis : x y z
#
# Youngs Moduli (GPa) = 13.74263 58.90050 66.58868
#
# Poissons Ratio (x) = 0.75128 0.87040
# Poissons Ratio (y) = 0.17529 0.28672
# Poissons Ratio (z) = 0.17963 0.25362
#
# Static dielectric constant tensor:
#      x y z
#    x 1.622870 0.000000 0.000000 
#    y 0.000000 1.686010 0.000000 
#    z 0.000000 0.000000 1.638700 
# 
# From -- ./inp_files/32143.got.cif
#   From: 2010.05.17/outbox.cif.g08.bks.cpg/sg47_17_cif.got.tgz:32143.got - 2010.06.03 20:15:42.
