data_PCOD9384607
_publ_section_title
;
Structure prediction by ZEFSAII (Michael W. Deem and Ramdas Pophale) SiO2 
 PCOD9384607
Probable space group: P M M M
;
_chemical_formula_sum "Si O2"
_cell_formula_units_Z 40
_cell_length_a 9.599687
_cell_length_b 8.426965
_cell_length_c 26.708802
_cell_angle_alpha 90.000000
_cell_angle_beta 90.000000
_cell_angle_gamma 90.000000
_cell_volume 2160.641292
_symmetry_space_group_name_H-M "P M M M"
_symmetry_group_IT_number 47
_symmetry_cell_setting 'orthorhombic'
loop_
_space_group_symop_operation_xyz
x,y,z
-x,-y,z
x,-y,-z
-x,y,-z
-x,-y,-z
x,y,-z
-x,y,z
x,-y,z
loop_
_atom_site_type_symbol
_atom_site_label
_atom_site_fract_x
_atom_site_fract_y
_atom_site_fract_z
Si Si1 0.330507 0.683429 0.000000
Si Si2 0.338527 0.305614 0.109301
Si Si3 0.840122 0.308124 0.204588
Si Si4 0.339314 0.690049 0.592668
Si Si5 0.660603 0.810012 0.702650
Si Si6 0.159618 0.810076 0.500000
O O1 0.291419 0.752151 0.945878
O O2 0.282709 0.500000 0.000000
O O3 0.500000 0.680719 0.000000
O O4 0.500000 0.259793 0.117556
O O5 0.336905 0.500000 0.107580
O O6 0.242022 0.254127 0.154907
O O7 0.839891 0.500000 0.203942
O O8 0.758585 0.253084 0.253699
O O9 0.000000 0.253965 0.204695
O O10 0.500000 0.742637 0.584128
O O11 0.337482 0.500000 0.592289
O O12 0.297329 0.749641 0.647689
O O13 0.240995 0.752247 0.549039
O O14 0.500000 0.757077 0.711173
O O15 0.662952 0.000000 0.702649
O O16 0.000000 0.752622 0.500000
O O17 0.158618 0.000000 0.500000
#
# Coordination Sequence:
#
# PCOD9384607 Si02
#       6
#     4   8   8   8   8   4
#     4   7  10  18  35  61  90 121 160 205 252 298
#     4   8  13  23  41  64  92 127 166 208 252 299
#     4  10  20  32  47  71 103 137 171 207 252 307
#     4  10  21  38  61  86 109 136 173 216 261 307
#     4  10  21  37  57  79 101 130 171 216 261 308
#     4  11  24  39  56  82 116 151 182 211 248 296
#
# _framework density 18.513021999999999
#
# number of rings (size 3 to 8) (size 9 to 14) (size 15 to 20)
#    0.000    2.600    0.000    3.600    0.000    6.400 
#    0.000    0.500    0.000    3.000    0.000    0.700 
#    0.000    5.600    0.000    0.000    0.000    0.000 
#
# Total GULP energy -223126.274324 kJ/mol
# GULP energy per Si atom -5578.156858 kJ/mol
# Density = 1.847089 g / cm^3
# Si number density = 18.513022 Si / 1000 Ang^3
#
#
#
# Elastic Constant Matrix: (Units=GPa)
#
#
# Indices 1 2 3 4 5 6 
#
# 1 117.4147 21.5262 129.4367 0.0000 0.0000 0.0000
# 2 21.5262 16.2324 26.6938 0.0000 0.0000 0.0000
# 3 129.4367 26.6938 223.3063 0.0000 0.0000 0.0000
# 4 0.0000 0.0000 0.0000 -58.4170 0.0000 0.0000
# 5 0.0000 0.0000 0.0000 0.0000 -5.1088 0.0000
# 6 0.0000 0.0000 0.0000 0.0000 0.0000 18.6472
#
#
#
# Elastic Compliance Matrix: (Units=1/GPa)
#
#
# Indices 1 2 3 4 5 6 
#
# 1 0.025266 -0.011728 -0.013243 0.000000 0.000000 0.000000
# 2 -0.011728 0.082122 -0.003019 0.000000 0.000000 0.000000
# 3 -0.013243 -0.003019 0.012515 0.000000 0.000000 0.000000
# 4 0.000000 0.000000 0.000000 -0.017118 0.000000 0.000000
# 5 0.000000 0.000000 0.000000 0.000000 -0.195741 0.000000
# 6 0.000000 0.000000 0.000000 0.000000 0.000000 0.053627
#
#
# Mechanical properties :
#
#
# Convention : Reuss Voigt Hill
#
# Bulk Modulus (GPa) = 15.64369 79.14076 47.39223
# Shear Modulus (GPa) = 131.71702 2.97739 67.34721
#
# Velocity S-wave (km/s) = 8.44410 1.26955 6.03798
# Velocity P-wave (km/s) = 10.17540 6.70750 8.61769
#
# Compressibility (1/GPa) = 0.06392355
#
# Stress axis : x y z
#
# Youngs Moduli (GPa) = 39.57842 12.17699 79.90180
#
# Poissons Ratio (x) = 0.14281 1.05817
# Poissons Ratio (y) = 0.46417 0.24121
# Poissons Ratio (z) = 0.52415 0.03676
#
# Static dielectric constant tensor:
#      x y z
#    x 1.624060 0.000000 0.000000 
#    y 0.000000 1.635870 0.000000 
#    z 0.000000 0.000000 1.629990 
# 
# From -- ./inp_files/1700.got.cif
#   From: 2010.05.17/outbox.cif.g08.bks.cpg/sg47_1_cif.got.tgz:1700.got - 2010.06.03 20:15:42.
