data_PCOD9384328
_publ_section_title
;
Structure prediction by ZEFSAII (Michael W. Deem and Ramdas Pophale) SiO2 
 PCOD9384328
Probable space group: P M M M
;
_chemical_formula_sum "Si O2"
_cell_formula_units_Z 48
_cell_length_a 7.814067
_cell_length_b 8.910512
_cell_length_c 35.550521
_cell_angle_alpha 90.000000
_cell_angle_beta 90.000000
_cell_angle_gamma 90.000000
_cell_volume 2475.288134
_symmetry_space_group_name_H-M "P M M M"
_symmetry_group_IT_number 47
_symmetry_cell_setting 'orthorhombic'
loop_
_space_group_symop_operation_xyz
x,y,z
-x,-y,z
x,-y,-z
-x,y,-z
-x,-y,-z
x,y,-z
-x,y,z
x,-y,z
loop_
_atom_site_type_symbol
_atom_site_label
_atom_site_fract_x
_atom_site_fract_y
_atom_site_fract_z
Si Si1 0.000000 0.179394 0.825224
Si Si2 0.000000 0.321688 0.092297
Si Si3 0.704212 0.168002 0.301849
Si Si4 0.297006 0.321090 0.775405
Si Si5 0.705678 0.675174 0.459540
Si Si6 0.301239 0.820964 0.044481
Si Si7 0.202542 0.329842 0.621521
O O1 0.169181 0.240529 0.804055
O O2 0.000000 0.241253 0.867475
O O3 0.000000 0.000000 0.824715
O O4 0.166547 0.269077 0.069072
O O5 0.000000 0.500000 0.097113
O O6 0.500000 0.158155 0.298879
O O7 0.757186 0.269629 0.266600
O O8 0.740676 0.238066 0.342350
O O9 0.776611 0.000000 0.298674
O O10 0.500000 0.283876 0.780948
O O11 0.280176 0.500000 0.778812
O O12 0.764713 0.738891 0.500000
O O13 0.500000 0.675182 0.460249
O O14 0.763019 0.500000 0.458783
O O15 0.756802 0.740349 0.419305
O O16 0.500000 0.786434 0.053266
O O17 0.276436 0.000000 0.050253
O O18 0.274858 0.792031 0.000000
O O19 0.276893 0.500000 0.622857
O O20 0.000000 0.341993 0.623625
#
# Coordination Sequence:
#
# PCOD9384328 Si02
#       7
#     4   4   8   8   8   8   8
#     4  12  26  43  65  90 122 165 207 251 302 364
#     4  12  25  39  58  89 128 168 210 259 313 368
#     4  10  21  37  57  80 106 139 180 224 273 333
#     4  10  22  42  67  92 119 152 193 246 304 360
#     4   8  14  26  45  68  95 130 172 216 262 315
#     4   9  19  38  64  92 124 166 215 265 317 373
#     4  10  20  31  47  75 107 138 171 213 267 326
#
# _framework density 19.391680999999998
#
# number of rings (size 3 to 8) (size 9 to 14) (size 15 to 20)
#    0.000    2.167    0.000    4.250    1.167    5.667 
#    0.000    2.500    0.000    0.500    0.000    3.500 
#    0.000    0.000    0.000    0.000    0.000    0.000 
#
# Total GULP energy -267832.447762 kJ/mol
# GULP energy per Si atom -5579.842662 kJ/mol
# Density = 1.934754 g / cm^3
# Si number density = 19.391681 Si / 1000 Ang^3
#
#
#
# Elastic Constant Matrix: (Units=GPa)
#
#
# Indices 1 2 3 4 5 6 
#
# 1 77.5181 58.1137 69.1997 0.0000 0.0000 0.0000
# 2 58.1137 100.7211 75.6692 0.0000 0.0000 0.0000
# 3 69.1997 75.6692 148.7931 0.0000 0.0000 0.0000
# 4 0.0000 0.0000 0.0000 31.9719 0.0000 0.0000
# 5 0.0000 0.0000 0.0000 0.0000 -36.7913 0.0000
# 6 0.0000 0.0000 0.0000 0.0000 0.0000 23.4656
#
#
#
# Elastic Compliance Matrix: (Units=1/GPa)
#
#
# Indices 1 2 3 4 5 6 
#
# 1 0.027105 -0.009983 -0.007529 0.000000 0.000000 0.000000
# 2 -0.009983 0.019743 -0.005398 0.000000 0.000000 0.000000
# 3 -0.007529 -0.005398 0.012968 0.000000 0.000000 0.000000
# 4 0.000000 0.000000 0.000000 0.031277 0.000000 0.000000
# 5 0.000000 0.000000 0.000000 0.000000 -0.027180 0.000000
# 6 0.000000 0.000000 0.000000 0.000000 0.000000 0.042616
#
#
# Mechanical properties :
#
#
# Convention : Reuss Voigt Hill
#
# Bulk Modulus (GPa) = 71.44557 81.44418 76.44488
# Shear Modulus (GPa) = 31.84426 11.99921 21.92174
#
# Velocity S-wave (km/s) = 4.05675 2.49023 3.36590
# Velocity P-wave (km/s) = 7.67244 7.09641 7.39004
#
# Compressibility (1/GPa) = 0.01399667
#
# Stress axis : x y z
#
# Youngs Moduli (GPa) = 36.89323 50.64965 77.11537
#
# Poissons Ratio (x) = 0.50561 0.58062
# Poissons Ratio (y) = 0.36829 0.41627
# Poissons Ratio (z) = 0.27778 0.27341
#
# Static dielectric constant tensor:
#      x y z
#    x 1.677040 0.000000 0.000000 
#    y 0.000000 1.689800 0.000000 
#    z 0.000000 0.000000 1.684710 
# 
# From -- ./inp_files/34131.got.cif
#   From: 2010.05.17/outbox.cif.g08.bks.cpg/sg47_18_cif.got.tgz:34131.got - 2010.06.03 20:15:42.
