data_PCOD9384341
_publ_section_title
;
Structure prediction by ZEFSAII (Michael W. Deem and Ramdas Pophale) SiO2 
 PCOD9384341
Probable space group: P M M M
;
_chemical_formula_sum "Si O2"
_cell_formula_units_Z 29
_cell_length_a 12.533184
_cell_length_b 10.432008
_cell_length_c 13.068725
_cell_angle_alpha 90.000000
_cell_angle_beta 90.000000
_cell_angle_gamma 90.000000
_cell_volume 1708.687123
_symmetry_space_group_name_H-M "P M M M"
_symmetry_group_IT_number 47
_symmetry_cell_setting 'orthorhombic'
loop_
_space_group_symop_operation_xyz
x,y,z
-x,-y,z
x,-y,-z
-x,y,-z
-x,-y,-z
x,y,-z
-x,y,z
x,-y,z
loop_
_atom_site_type_symbol
_atom_site_label
_atom_site_fract_x
_atom_site_fract_y
_atom_site_fract_z
Si Si1 0.872776 0.152103 0.617890
Si Si2 0.500000 0.236064 0.611849
Si Si3 0.500000 0.500000 0.500000
Si Si4 0.696234 0.241728 0.238705
Si Si5 0.624057 0.000000 0.878860
Si Si6 0.629034 0.500000 0.122200
O O1 0.844115 0.184810 0.500000
O O2 0.806303 0.233234 0.699169
O O3 0.000000 0.168373 0.628530
O O4 0.849525 0.000000 0.632046
O O5 0.500000 0.170838 0.500000
O O6 0.500000 0.387082 0.586669
O O7 0.395078 0.212060 0.677234
O O8 0.684050 0.125663 0.159847
O O9 0.672814 0.374043 0.180191
O O10 0.500000 0.000000 0.842319
O O11 0.620337 0.000000 0.000000
O O12 0.500000 0.500000 0.129824
O O13 0.654785 0.500000 0.000000
#
# Coordination Sequence:
#
# PCOD9384341 Si02
#       6
#     8   4   1   8   4   4
#     4   9  19  37  60  86 116 153 192 230 280 346
#     4  10  20  31  51  82 114 149 179 227 278 340
#     4   8  20  36  44  70 124 152 184 202 280 334
#     4  12  20  37  58  85 114 149 191 233 289 336
#     4  11  22  36  55  82 117 147 186 240 290 342
#     4  11  23  39  59  83 115 156 201 232 277 349
#
# _framework density 16.972096000000001
#
# number of rings (size 3 to 8) (size 9 to 14) (size 15 to 20)
#    0.414    1.103    4.138    3.310    0.000    2.207 
#    0.000    1.379    0.000    6.621    0.000    0.000 
#    0.000    0.000    0.000    0.000    0.000    0.000 
#
# Total GULP energy -161477.380823 kJ/mol
# GULP energy per Si atom -5568.185546 kJ/mol
# Density = 1.693347 g / cm^3
# Si number density = 16.972096 Si / 1000 Ang^3
#
#
#
# Elastic Constant Matrix: (Units=GPa)
#
#
# Indices 1 2 3 4 5 6 
#
# 1 61.1696 31.9204 51.2107 0.0000 0.0000 0.0000
# 2 31.9204 107.4279 59.5693 0.0000 0.0000 0.0000
# 3 51.2107 59.5693 127.2034 0.0000 0.0000 0.0000
# 4 0.0000 0.0000 0.0000 15.6295 0.0000 0.0000
# 5 0.0000 0.0000 0.0000 0.0000 32.4262 0.0000
# 6 0.0000 0.0000 0.0000 0.0000 0.0000 17.7761
#
#
#
# Elastic Compliance Matrix: (Units=1/GPa)
#
#
# Indices 1 2 3 4 5 6 
#
# 1 0.025151 -0.002510 -0.008950 0.000000 0.000000 0.000000
# 2 -0.002510 0.012824 -0.004995 0.000000 0.000000 0.000000
# 3 -0.008950 -0.004995 0.013804 0.000000 0.000000 0.000000
# 4 0.000000 0.000000 0.000000 0.063982 0.000000 0.000000
# 5 0.000000 0.000000 0.000000 0.000000 0.030839 0.000000
# 6 0.000000 0.000000 0.000000 0.000000 0.000000 0.056255
#
#
# Mechanical properties :
#
#
# Convention : Reuss Voigt Hill
#
# Bulk Modulus (GPa) = 52.99888 64.57798 58.78843
# Shear Modulus (GPa) = 20.65654 23.37307 22.01481
#
# Velocity S-wave (km/s) = 3.49246 3.71502 3.60546
# Velocity P-wave (km/s) = 6.89623 7.51890 7.21429
#
# Compressibility (1/GPa) = 0.01886832
#
# Stress axis : x y z
#
# Youngs Moduli (GPa) = 39.76039 77.97759 72.44482
#
# Poissons Ratio (x) = 0.19576 0.64836
# Poissons Ratio (y) = 0.09981 0.36185
# Poissons Ratio (z) = 0.35585 0.38949
#
# Static dielectric constant tensor:
#      x y z
#    x 1.572270 0.000000 0.000000 
#    y 0.000000 1.556800 0.000000 
#    z 0.000000 0.000000 1.614880 
# 
# From -- ./inp_files/22318.got.cif
#   From: 2010.05.17/outbox.cif.g08.bks.cpg/sg47_12_cif.got.tgz:22318.got - 2010.06.03 20:15:42.
