data_PCOD9384030
_publ_section_title
;
Structure prediction by ZEFSAII (Michael W. Deem and Ramdas Pophale) SiO2 
 PCOD9384030
Probable space group: P M M M
;
_chemical_formula_sum "Si O2"
_cell_formula_units_Z 44
_cell_length_a 8.397527
_cell_length_b 27.873480
_cell_length_c 10.422474
_cell_angle_alpha 90.000000
_cell_angle_beta 90.000000
_cell_angle_gamma 90.000000
_cell_volume 2439.570780
_symmetry_space_group_name_H-M "P M M M"
_symmetry_group_IT_number 47
_symmetry_cell_setting 'orthorhombic'
loop_
_space_group_symop_operation_xyz
x,y,z
-x,-y,z
x,-y,-z
-x,y,-z
-x,-y,-z
x,y,-z
-x,y,z
x,-y,z
loop_
_atom_site_type_symbol
_atom_site_label
_atom_site_fract_x
_atom_site_fract_y
_atom_site_fract_z
Si Si1 0.692797 0.604933 0.352055
Si Si2 0.305663 0.945056 0.000000
Si Si3 0.809773 0.055150 0.500000
Si Si4 0.317325 0.500000 0.655591
Si Si5 0.691654 0.212155 0.850240
Si Si6 0.307254 0.111994 0.252869
Si Si7 0.810141 0.681747 0.147135
O O1 0.743815 0.614563 0.500000
O O2 0.500000 0.602342 0.354694
O O3 0.753995 0.551802 0.311091
O O4 0.742666 0.644863 0.250785
O O5 0.255095 0.917089 0.126837
O O6 0.500000 0.945134 0.000000
O O7 0.252238 0.000000 0.000000
O O8 0.752566 0.084238 0.623671
O O9 0.000000 0.053369 0.500000
O O10 0.749383 0.000000 0.500000
O O11 0.500000 0.500000 0.703515
O O12 0.323947 0.500000 0.500000
O O13 0.500000 0.215927 0.841329
O O14 0.744488 0.167246 0.764347
O O15 0.763968 0.263671 0.818447
O O16 0.729165 0.201433 0.000000
O O17 0.500000 0.112228 0.254861
O O18 0.000000 0.677544 0.146082
O O19 0.751809 0.673233 0.000000
#
# Coordination Sequence:
#
# PCOD9384030 Si02
#       7
#     8   4   4   4   8   8   8
#     4   9  17  32  55  81 105 134 175 222 268 311
#     4   9  16  28  53  87 111 125 157 214 267 308
#     4  11  25  41  53  73 111 151 179 206 249 308
#     4   7  12  26  50  77 104 132 168 217 268 313
#     4   9  17  33  57  82 105 130 169 220 268 312
#     4  10  19  35  59  84 105 132 172 217 263 311
#     4  10  21  35  51  74 107 145 180 212 256 313
#
# _framework density 18.035959999999999
#
# number of rings (size 3 to 8) (size 9 to 14) (size 15 to 20)
#    0.000    2.636    0.909    2.455    0.000    3.636 
#    1.636    1.364    0.000    6.000    0.000    0.000 
#    0.000    0.000    0.000    0.000    0.000    0.000 
#
# Total GULP energy -245271.056801 kJ/mol
# GULP energy per Si atom -5574.342200 kJ/mol
# Density = 1.799491 g / cm^3
# Si number density = 18.035960 Si / 1000 Ang^3
#
#
#
# Elastic Constant Matrix: (Units=GPa)
#
#
# Indices 1 2 3 4 5 6 
#
# 1 13.7507 27.9765 20.9378 0.0000 0.0000 0.0000
# 2 27.9765 187.0604 105.6851 0.0000 0.0000 0.0000
# 3 20.9378 105.6851 130.9233 0.0000 0.0000 0.0000
# 4 0.0000 0.0000 0.0000 29.3104 0.0000 0.0000
# 5 0.0000 0.0000 0.0000 0.0000 7.7061 0.0000
# 6 0.0000 0.0000 0.0000 0.0000 0.0000 -7.6884
#
#
#
# Elastic Compliance Matrix: (Units=1/GPa)
#
#
# Indices 1 2 3 4 5 6 
#
# 1 0.108733 -0.011835 -0.007835 0.000000 0.000000 0.000000
# 2 -0.011835 0.011116 -0.007081 0.000000 0.000000 0.000000
# 3 -0.007835 -0.007081 0.014607 0.000000 0.000000 0.000000
# 4 0.000000 0.000000 0.000000 0.034118 0.000000 0.000000
# 5 0.000000 0.000000 0.000000 0.000000 0.129768 0.000000
# 6 0.000000 0.000000 0.000000 0.000000 0.000000 -0.130066
#
#
# Mechanical properties :
#
#
# Convention : Reuss Voigt Hill
#
# Bulk Modulus (GPa) = 12.35272 71.21480 41.78376
# Shear Modulus (GPa) = 20.09948 17.67462 18.88705
#
# Velocity S-wave (km/s) = 3.34190 3.13384 3.23954
# Velocity P-wave (km/s) = 4.66421 7.25708 6.10000
#
# Compressibility (1/GPa) = 0.08095386
#
# Stress axis : x y z
#
# Youngs Moduli (GPa) = 9.19683 89.95736 68.46086
#
# Poissons Ratio (x) = 1.06466 0.53641
# Poissons Ratio (y) = 0.10885 0.48475
# Poissons Ratio (z) = 0.07206 0.63696
#
# Static dielectric constant tensor:
#      x y z
#    x 1.624500 0.000000 0.000000 
#    y 0.000000 1.628610 0.000000 
#    z 0.000000 0.000000 1.598730 
# 
# From -- ./inp_files/2391.got.cif
#   From: 2010.05.17/outbox.cif.g08.bks.cpg/sg47_2_cif.got.tgz:2391.got - 2010.06.03 20:15:42.
