data_PCOD9384317
_publ_section_title
;
Structure prediction by ZEFSAII (Michael W. Deem and Ramdas Pophale) SiO2 
 PCOD9384317
Probable space group: P M M M
;
_chemical_formula_sum "Si O2"
_cell_formula_units_Z 52
_cell_length_a 14.737015
_cell_length_b 23.389639
_cell_length_c 9.112226
_cell_angle_alpha 90.000000
_cell_angle_beta 90.000000
_cell_angle_gamma 90.000000
_cell_volume 3140.924715
_symmetry_space_group_name_H-M "P M M M"
_symmetry_group_IT_number 47
_symmetry_cell_setting 'orthorhombic'
loop_
_space_group_symop_operation_xyz
x,y,z
-x,-y,z
x,-y,-z
-x,y,-z
-x,-y,-z
x,y,-z
-x,y,z
x,-y,z
loop_
_atom_site_type_symbol
_atom_site_label
_atom_site_fract_x
_atom_site_fract_y
_atom_site_fract_z
Si Si1 0.392184 0.291700 0.676437
Si Si2 0.391318 0.161301 0.332616
Si Si3 0.608927 0.500000 0.324502
Si Si4 0.717592 0.934387 0.825695
Si Si5 0.900285 0.069298 0.669201
Si Si6 0.104461 0.431350 0.674254
Si Si7 0.286511 0.605824 0.824010
O O1 0.380813 0.299331 0.500000
O O2 0.500000 0.300006 0.706540
O O3 0.367245 0.226027 0.712437
O O4 0.331826 0.336107 0.765139
O O5 0.359231 0.152676 0.500000
O O6 0.500000 0.159499 0.333559
O O7 0.353282 0.110848 0.234818
O O8 0.500000 0.500000 0.304000
O O9 0.626866 0.500000 0.500000
O O10 0.654981 0.554942 0.250081
O O11 0.886355 0.913271 0.500000
O O12 0.816019 0.914745 0.768417
O O13 0.701444 0.000000 0.773302
O O14 0.000000 0.089277 0.717598
O O15 0.902791 0.000000 0.670245
O O16 0.716497 0.064618 0.000000
O O17 0.117336 0.420342 0.500000
O O18 0.113190 0.500000 0.694904
O O19 0.183444 0.401473 0.766301
O O20 0.000000 0.415931 0.711786
O O21 0.289912 0.601981 0.000000
#
# Coordination Sequence:
#
# PCOD9384317 Si02
#       7
#     8   8   4   8   8   8   8
#     4   9  19  37  58  76  97 132 176 215 253 305
#     4   9  19  36  56  75  95 127 175 221 255 295
#     4  11  23  37  52  71 102 143 179 212 250 293
#     4  10  20  31  46  73 107 138 165 200 255 316
#     4   8  14  26  45  68  94 126 164 203 241 286
#     4   9  18  34  56  78 102 138 181 217 251 300
#     4  12  23  33  51  81 111 137 166 208 262 311
#
# _framework density 16.555633
#
# number of rings (size 3 to 8) (size 9 to 14) (size 15 to 20)
#    0.000    2.385    0.769    4.385    0.000    5.538 
#    0.000    5.385    0.000    0.923    0.000    6.462 
#    0.000    0.000    0.000    0.000    0.000    0.000 
#
# Total GULP energy -289912.610087 kJ/mol
# GULP energy per Si atom -5575.242502 kJ/mol
# Density = 1.651795 g / cm^3
# Si number density = 16.555633 Si / 1000 Ang^3
#
#
#
# Elastic Constant Matrix: (Units=GPa)
#
#
# Indices 1 2 3 4 5 6 
#
# 1 89.4440 58.4462 56.6920 0.0000 0.0000 0.0000
# 2 58.4462 87.6145 57.1557 0.0000 0.0000 0.0000
# 3 56.6920 57.1557 78.6358 0.0000 0.0000 0.0000
# 4 0.0000 0.0000 0.0000 16.3516 0.0000 0.0000
# 5 0.0000 0.0000 0.0000 0.0000 8333.2544 0.0000
# 6 0.0000 0.0000 0.0000 0.0000 0.0000 -3.7599
#
#
#
# Elastic Compliance Matrix: (Units=1/GPa)
#
#
# Indices 1 2 3 4 5 6 
#
# 1 0.023741 -0.008884 -0.010659 0.000000 0.000000 0.000000
# 2 -0.008884 0.025030 -0.011788 0.000000 0.000000 0.000000
# 3 -0.010659 -0.011788 0.028969 0.000000 0.000000 0.000000
# 4 0.000000 0.000000 0.000000 0.061156 0.000000 0.000000
# 5 0.000000 0.000000 0.000000 0.000000 0.000120 0.000000
# 6 0.000000 0.000000 0.000000 0.000000 0.000000 -0.265962
#
#
# Mechanical properties :
#
#
# Convention : Reuss Voigt Hill
#
# Bulk Modulus (GPa) = 66.31800 66.69800 66.50800
# Shear Modulus (GPa) = -84.37587 1674.72925 795.17669
#
# Velocity S-wave (km/s) = -7.14673 31.83980 21.93966
# Velocity P-wave (km/s) = 5.28737 37.31048 26.11623
#
# Compressibility (1/GPa) = 0.01507886
#
# Stress axis : x y z
#
# Youngs Moduli (GPa) = 42.12094 39.95226 34.51954
#
# Poissons Ratio (x) = 0.35494 0.36794
# Poissons Ratio (y) = 0.37420 0.40691
# Poissons Ratio (z) = 0.44896 0.47095
#
# Static dielectric constant tensor:
#      x y z
#    x 1.564430 0.000000 0.000000 
#    y 0.000000 1.544070 0.000000 
#    z 0.000000 0.000000 1.550930 
# 
# From -- ./inp_files/7078.got.cif
#   From: 2010.05.17/outbox.cif.g08.bks.cpg/sg47_4_cif.got.tgz:7078.got - 2010.06.03 20:15:42.
