data_PCOD9384233
_publ_section_title
;
Structure prediction by ZEFSAII (Michael W. Deem and Ramdas Pophale) SiO2 
 PCOD9384233
Probable space group: P M M M
;
_chemical_formula_sum "Si O2"
_cell_formula_units_Z 44
_cell_length_a 29.690122
_cell_length_b 9.671254
_cell_length_c 7.646925
_cell_angle_alpha 90.000000
_cell_angle_beta 90.000000
_cell_angle_gamma 90.000000
_cell_volume 2195.743483
_symmetry_space_group_name_H-M "P M M M"
_symmetry_group_IT_number 47
_symmetry_cell_setting 'orthorhombic'
loop_
_space_group_symop_operation_xyz
x,y,z
-x,-y,z
x,-y,-z
-x,y,-z
-x,-y,-z
x,y,-z
-x,y,z
x,-y,z
loop_
_atom_site_type_symbol
_atom_site_label
_atom_site_fract_x
_atom_site_fract_y
_atom_site_fract_z
Si Si1 0.949139 0.658907 0.713503
Si Si2 0.500000 0.844525 0.292421
Si Si3 0.219178 0.657936 0.788882
Si Si4 0.682922 0.668338 0.201763
Si Si5 0.133362 0.843812 0.290305
Si Si6 0.585405 0.657178 0.789992
O O1 0.948718 0.660189 0.500000
O O2 0.940500 0.500000 0.766323
O O3 0.910046 0.759880 0.776458
O O4 0.000000 0.696844 0.767185
O O5 0.500000 0.855231 0.500000
O O6 0.455628 0.758492 0.244116
O O7 0.500000 0.000000 0.217934
O O8 0.210591 0.500000 0.728246
O O9 0.268415 0.705963 0.721392
O O10 0.178512 0.757957 0.744337
O O11 0.222655 0.652187 0.000000
O O12 0.682831 0.500000 0.199299
O O13 0.634318 0.706265 0.279488
O O14 0.683078 0.717077 0.000000
O O15 0.128429 0.851500 0.500000
O O16 0.135827 0.000000 0.222055
O O17 0.576231 0.500000 0.726854
O O18 0.590281 0.647930 0.000000
#
# Coordination Sequence:
#
# PCOD9384233 Si02
#       6
#     8   4   8   8   8   8
#     4   8  14  26  45  67  89 116 154 199 242 281
#     4  11  24  37  46  64 100 139 166 189 226 278
#     4   9  17  31  52  74  95 123 158 194 235 282
#     4   7  12  26  49  75  97 115 145 194 242 280
#     4  10  20  31  44  67  99 131 160 191 231 280
#     4   9  17  32  56  80  96 115 152 201 245 282
#
# _framework density 20.038771000000001
#
# number of rings (size 3 to 8) (size 9 to 14) (size 15 to 20)
#    0.000    3.182    0.000    3.818    0.000    4.000 
#    0.000    3.636    0.000    9.273    0.000    3.818 
#    0.000    0.000    0.000    0.000    0.000    0.000 
#
# Total GULP energy -245209.694702 kJ/mol
# GULP energy per Si atom -5572.947607 kJ/mol
# Density = 1.999316 g / cm^3
# Si number density = 20.038771 Si / 1000 Ang^3
#
#
#
# Elastic Constant Matrix: (Units=GPa)
#
#
# Indices 1 2 3 4 5 6 
#
# 1 240.4851 131.3232 5.4663 0.0000 0.0000 0.0000
# 2 131.3232 127.4471 6.2106 0.0000 0.0000 0.0000
# 3 5.4663 6.2106 39.0030 0.0000 0.0000 0.0000
# 4 0.0000 0.0000 0.0000 13.9767 0.0000 0.0000
# 5 0.0000 0.0000 0.0000 0.0000 19.2521 0.0000
# 6 0.0000 0.0000 0.0000 0.0000 0.0000 -7.9496
#
#
#
# Elastic Compliance Matrix: (Units=1/GPa)
#
#
# Indices 1 2 3 4 5 6 
#
# 1 0.009511 -0.009811 0.000229 0.000000 0.000000 0.000000
# 2 -0.009811 0.018029 -0.001496 0.000000 0.000000 0.000000
# 3 0.000229 -0.001496 0.025845 0.000000 0.000000 0.000000
# 4 0.000000 0.000000 0.000000 0.071548 0.000000 0.000000
# 5 0.000000 0.000000 0.000000 0.000000 0.051942 0.000000
# 6 0.000000 0.000000 0.000000 0.000000 0.000000 -0.125792
#
#
# Mechanical properties :
#
#
# Convention : Reuss Voigt Hill
#
# Bulk Modulus (GPa) = 32.02104 76.99281 54.50692
# Shear Modulus (GPa) = 59.77484 22.65151 41.21318
#
# Velocity S-wave (km/s) = 5.46757 3.36577 4.53997
# Velocity P-wave (km/s) = 7.47485 7.32187 7.39876
#
# Compressibility (1/GPa) = 0.03122947
#
# Stress axis : x y z
#
# Youngs Moduli (GPa) = 105.14547 55.46702 38.69209
#
# Poissons Ratio (x) = 0.54419 -0.00887
# Poissons Ratio (y) = 1.03159 0.05787
# Poissons Ratio (z) = -0.02411 0.08296
#
# Static dielectric constant tensor:
#      x y z
#    x 1.740120 0.000000 0.000000 
#    y 0.000000 1.679570 0.000000 
#    z 0.000000 0.000000 1.778610 
# 
# From -- ./inp_files/2303.got.cif
#   From: 2010.05.17/outbox.cif.g08.bks.cpg/sg47_2_cif.got.tgz:2303.got - 2010.06.03 20:15:42.
