data_PCOD9384455
_publ_section_title
;
Structure prediction by ZEFSAII (Michael W. Deem and Ramdas Pophale) SiO2 
 PCOD9384455
Probable space group: P M M M
;
_chemical_formula_sum "Si O2"
_cell_formula_units_Z 64
_cell_length_a 9.000315
_cell_length_b 14.455114
_cell_length_c 31.615769
_cell_angle_alpha 90.000000
_cell_angle_beta 90.000000
_cell_angle_gamma 90.000000
_cell_volume 4113.229864
_symmetry_space_group_name_H-M "P M M M"
_symmetry_group_IT_number 47
_symmetry_cell_setting 'orthorhombic'
loop_
_space_group_symop_operation_xyz
x,y,z
-x,-y,z
x,-y,-z
-x,y,-z
-x,-y,-z
x,y,-z
-x,y,z
x,-y,z
loop_
_atom_site_type_symbol
_atom_site_label
_atom_site_fract_x
_atom_site_fract_y
_atom_site_fract_z
Si Si1 0.677528 0.109102 0.790169
Si Si2 0.823811 0.606692 0.836488
Si Si3 0.826784 0.112186 0.453074
Si Si4 0.822032 0.891443 0.951110
Si Si5 0.323032 0.393258 0.744180
Si Si6 0.177042 0.214840 0.711480
Si Si7 0.324575 0.889211 0.633599
Si Si8 0.322804 0.779021 0.876013
O O1 0.500000 0.119263 0.782675
O O2 0.763561 0.158788 0.752320
O O3 0.711852 0.157733 0.834811
O O4 0.711281 0.000000 0.791683
O O5 0.800944 0.500000 0.849614
O O6 0.743422 0.618942 0.791267
O O7 0.755304 0.680959 0.868117
O O8 0.000000 0.621888 0.831216
O O9 0.778320 0.143601 0.500000
O O10 0.730506 0.140925 0.412911
O O11 0.000000 0.137704 0.447279
O O12 0.821652 0.000000 0.453773
O O13 0.737476 0.829249 0.917529
O O14 0.000000 0.880588 0.946122
O O15 0.787625 0.000000 0.944050
O O16 0.785397 0.869797 0.000000
O O17 0.500000 0.377924 0.745580
O O18 0.295622 0.500000 0.731703
O O19 0.245769 0.317289 0.715107
O O20 0.235794 0.163175 0.669954
O O21 0.000000 0.218576 0.712075
O O22 0.500000 0.873233 0.638450
O O23 0.298776 0.000000 0.637487
O O24 0.500000 0.768017 0.877890
#
# Coordination Sequence:
#
# PCOD9384455 Si02
#       8
#     8   8   8   8   8   8   8   8
#     4  10  21  35  48  66  97 134 168 201 238 283
#     4  10  20  34  53  77 102 128 162 202 243 289
#     4   8  14  26  44  65  90 121 160 207 253 295
#     4   9  19  36  56  77 103 135 168 203 244 290
#     4  10  20  35  54  73  95 125 161 202 248 294
#     4  12  23  33  48  69  96 131 168 204 245 293
#     4  10  20  32  46  65  94 133 172 209 248 293
#     4  11  21  33  53  78 103 132 165 202 246 292
#
# _framework density 15.559549000000001
#
# number of rings (size 3 to 8) (size 9 to 14) (size 15 to 20)
#    0.000    2.000    1.250    4.125    0.000    5.750 
#    0.000    1.875    0.000    0.375    0.000    2.625 
#    0.000    0.500    0.000    5.250    0.000    2.500 
#
# Total GULP energy -357186.120634 kJ/mol
# GULP energy per Si atom -5581.033135 kJ/mol
# Density = 1.552414 g / cm^3
# Si number density = 15.559549 Si / 1000 Ang^3
#
#
#
# Elastic Constant Matrix: (Units=GPa)
#
#
# Indices 1 2 3 4 5 6 
#
# 1 85.1732 62.2456 63.7765 0.0000 0.0000 0.0000
# 2 62.2456 86.8438 56.4809 0.0000 0.0000 0.0000
# 3 63.7765 56.4809 103.2471 0.0000 0.0000 0.0000
# 4 0.0000 0.0000 0.0000 6.0424 0.0000 0.0000
# 5 0.0000 0.0000 0.0000 0.0000 33.3487 0.0000
# 6 0.0000 0.0000 0.0000 0.0000 0.0000 22.9289
#
#
#
# Elastic Compliance Matrix: (Units=1/GPa)
#
#
# Indices 1 2 3 4 5 6 
#
# 1 0.030863 -0.015092 -0.010809 0.000000 0.000000 0.000000
# 2 -0.015092 0.025254 -0.004493 0.000000 0.000000 0.000000
# 3 -0.010809 -0.004493 0.018820 0.000000 0.000000 0.000000
# 4 0.000000 0.000000 0.000000 0.165497 0.000000 0.000000
# 5 0.000000 0.000000 0.000000 0.000000 0.029986 0.000000
# 6 0.000000 0.000000 0.000000 0.000000 0.000000 0.043613
#
#
# Mechanical properties :
#
#
# Convention : Reuss Voigt Hill
#
# Bulk Modulus (GPa) = 70.66742 71.14115 70.90428
# Shear Modulus (GPa) = 13.17394 18.64807 15.91100
#
# Velocity S-wave (km/s) = 2.91293 3.46569 3.20126
# Velocity P-wave (km/s) = 7.53854 7.86357 7.70277
#
# Compressibility (1/GPa) = 0.01415079
#
# Stress axis : x y z
#
# Youngs Moduli (GPa) = 32.40075 39.59763 53.13533
#
# Poissons Ratio (x) = 0.59760 0.57432
# Poissons Ratio (y) = 0.48899 0.23873
# Poissons Ratio (z) = 0.35021 0.17790
#
# Static dielectric constant tensor:
#      x y z
#    x 1.516620 0.000000 0.000000 
#    y 0.000000 1.512740 0.000000 
#    z 0.000000 0.000000 1.502390 
# 
# From -- ./inp_files/8342.got.cif
#   From: 2010.05.17/outbox.cif.g08.bks.cpg/sg47_5_cif.got.tgz:8342.got - 2010.06.03 20:15:42.
