data_PCOD9384562
_publ_section_title
;
Structure prediction by ZEFSAII (Michael W. Deem and Ramdas Pophale) SiO2 
 PCOD9384562
Probable space group: P M M M
;
_chemical_formula_sum "Si O2"
_cell_formula_units_Z 52
_cell_length_a 23.174975
_cell_length_b 16.203581
_cell_length_c 8.448296
_cell_angle_alpha 90.000000
_cell_angle_beta 90.000000
_cell_angle_gamma 90.000000
_cell_volume 3172.483708
_symmetry_space_group_name_H-M "P M M M"
_symmetry_group_IT_number 47
_symmetry_cell_setting 'orthorhombic'
loop_
_space_group_symop_operation_xyz
x,y,z
-x,-y,z
x,-y,-z
-x,y,-z
-x,-y,-z
x,y,-z
-x,y,z
x,-y,z
loop_
_atom_site_type_symbol
_atom_site_label
_atom_site_fract_x
_atom_site_fract_y
_atom_site_fract_z
Si Si1 0.000000 0.903017 0.319904
Si Si2 0.312737 0.096113 0.187592
Si Si3 0.779653 0.772949 0.310249
Si Si4 0.937148 0.378733 0.312686
Si Si5 0.563066 0.099748 0.315250
Si Si6 0.192715 0.410629 0.307083
Si Si7 0.905288 0.794603 0.185091
O O1 0.056137 0.871936 0.228791
O O2 0.000000 0.870236 0.500000
O O3 0.000000 0.000000 0.327226
O O4 0.270689 0.164413 0.261669
O O5 0.378835 0.121574 0.224211
O O6 0.304421 0.000000 0.244729
O O7 0.303569 0.095122 0.000000
O O8 0.784647 0.773220 0.500000
O O9 0.776837 0.675545 0.259385
O O10 0.839351 0.804535 0.235718
O O11 0.937771 0.396800 0.500000
O O12 0.874638 0.408823 0.252726
O O13 0.931860 0.281352 0.282983
O O14 0.000000 0.405770 0.248553
O O15 0.568651 0.123422 0.500000
O O16 0.500000 0.129057 0.256865
O O17 0.561083 0.000000 0.310481
O O18 0.191788 0.409341 0.500000
O O19 0.217452 0.500000 0.258512
O O20 0.909262 0.775139 0.000000
#
# Coordination Sequence:
#
# PCOD9384562 Si02
#       7
#     4   8   8   8   8   8   8
#     4  11  23  37  51  65  82 107 144 189 235 286
#     4  10  20  32  47  70 100 132 166 203 237 272
#     4  10  20  34  52  70  92 126 160 195 239 284
#     4   9  16  27  46  67  89 115 141 172 216 278
#     4   8  14  26  45  69  98 132 166 197 230 271
#     4   8  15  28  46  70  94 116 150 194 236 281
#     4  11  21  33  49  66  86 113 144 185 234 281
#
# _framework density 16.390944000000001
#
# number of rings (size 3 to 8) (size 9 to 14) (size 15 to 20)
#    0.000    2.538    0.769    3.923    0.000    2.769 
#    0.000    3.077    0.000   11.538    0.000    4.308 
#    0.000    0.615    0.000    7.077    0.000    2.308 
#
# Total GULP energy -289477.490507 kJ/mol
# GULP energy per Si atom -5566.874817 kJ/mol
# Density = 1.635364 g / cm^3
# Si number density = 16.390944 Si / 1000 Ang^3
#
#
#
# Elastic Constant Matrix: (Units=GPa)
#
#
# Indices 1 2 3 4 5 6 
#
# 1 85.0043 50.1855 11.1514 0.0000 0.0000 0.0000
# 2 50.1855 97.6649 15.6637 0.0000 0.0000 0.0000
# 3 11.1514 15.6637 21.8919 0.0000 0.0000 0.0000
# 4 0.0000 0.0000 0.0000 -0.4722 0.0000 0.0000
# 5 0.0000 0.0000 0.0000 0.0000 -26.9494 0.0000
# 6 0.0000 0.0000 0.0000 0.0000 0.0000 39.5273
#
#
#
# Elastic Compliance Matrix: (Units=1/GPa)
#
#
# Indices 1 2 3 4 5 6 
#
# 1 0.017030 -0.008314 -0.002726 0.000000 0.000000 0.000000
# 2 -0.008314 0.015625 -0.006945 0.000000 0.000000 0.000000
# 3 -0.002726 -0.006945 0.052037 0.000000 0.000000 0.000000
# 4 0.000000 0.000000 0.000000 -2.117756 0.000000 0.000000
# 5 0.000000 0.000000 0.000000 0.000000 -0.037107 0.000000
# 6 0.000000 0.000000 0.000000 0.000000 0.000000 0.025299
#
#
# Mechanical properties :
#
#
# Convention : Reuss Voigt Hill
#
# Bulk Modulus (GPa) = 20.52460 39.84026 30.18243
# Shear Modulus (GPa) = -2.50921 10.92517 4.20798
#
# Velocity S-wave (km/s) = -1.23862 2.58454 1.60401
# Velocity P-wave (km/s) = 3.24092 5.76762 4.67809
#
# Compressibility (1/GPa) = 0.04872203
#
# Stress axis : x y z
#
# Youngs Moduli (GPa) = 58.71967 64.00028 19.21716
#
# Poissons Ratio (x) = 0.53208 0.05239
# Poissons Ratio (y) = 0.48818 0.13346
# Poissons Ratio (z) = 0.16009 0.44447
#
# Static dielectric constant tensor:
#      x y z
#    x 1.557130 0.000000 0.000000 
#    y 0.000000 1.578450 0.000000 
#    z 0.000000 0.000000 1.572680 
# 
# From -- ./inp_files/11085.got.cif
#   From: 2010.05.17/outbox.cif.g08.bks.cpg/sg47_6_cif.got.tgz:11085.got - 2010.06.03 20:15:42.
