data_PCOD9384569
_publ_section_title
;
Structure prediction by ZEFSAII (Michael W. Deem and Ramdas Pophale) SiO2 
 PCOD9384569
Probable space group: P M M M
;
_chemical_formula_sum "Si O2"
_cell_formula_units_Z 52
_cell_length_a 28.901807
_cell_length_b 8.868806
_cell_length_c 12.254184
_cell_angle_alpha 90.000000
_cell_angle_beta 90.000000
_cell_angle_gamma 90.000000
_cell_volume 3141.047824
_symmetry_space_group_name_H-M "P M M M"
_symmetry_group_IT_number 47
_symmetry_cell_setting 'orthorhombic'
loop_
_space_group_symop_operation_xyz
x,y,z
-x,-y,z
x,-y,-z
-x,y,-z
-x,-y,-z
x,y,-z
-x,y,z
x,-y,z
loop_
_atom_site_type_symbol
_atom_site_label
_atom_site_fract_x
_atom_site_fract_y
_atom_site_fract_z
Si Si1 0.055096 0.681344 0.500000
Si Si2 0.555912 0.829188 0.500000
Si Si3 0.168617 0.320280 0.128173
Si Si4 0.553495 0.680108 0.272490
Si Si5 0.912256 0.818327 0.271604
Si Si6 0.367233 0.818294 0.127423
Si Si7 0.265399 0.173605 0.867775
Si Si8 0.000000 0.182953 0.124726
O O1 0.059019 0.500000 0.500000
O O2 0.078268 0.748296 0.609386
O O3 0.000000 0.720013 0.500000
O O4 0.500000 0.836212 0.500000
O O5 0.568184 0.741742 0.390665
O O6 0.573821 0.000000 0.500000
O O7 0.163140 0.500000 0.134518
O O8 0.133301 0.239786 0.209856
O O9 0.220969 0.273125 0.158329
O O10 0.160857 0.275316 0.000000
O O11 0.500000 0.727994 0.251668
O O12 0.554301 0.500000 0.271980
O O13 0.589845 0.745672 0.187915
O O14 0.954903 0.772492 0.192837
O O15 0.911509 0.000000 0.280317
O O16 0.316097 0.772992 0.170160
O O17 0.369247 0.000000 0.136389
O O18 0.369836 0.778908 0.000000
O O19 0.258030 0.000000 0.832465
O O20 0.268495 0.170499 0.000000
O O21 0.000000 0.000000 0.120228
O O22 0.000000 0.238529 0.000000
#
# Coordination Sequence:
#
# PCOD9384569 Si02
#       8
#     4   4   8   8   8   8   8   4
#     4  11  23  39  57  76 105 140 177 217 260 306
#     4   9  17  31  51  70  89 120 165 211 251 293
#     4  10  20  33  51  79 111 138 167 207 260 313
#     4  10  20  32  47  70 101 134 168 209 257 309
#     4  11  21  35  56  78 104 137 178 217 249 295
#     4   9  18  32  50  73 101 134 173 213 252 299
#     4   8  15  30  51  73  98 131 171 212 253 301
#     4   9  18  31  49  76 106 133 164 205 248 287
#
# _framework density 16.554984999999999
#
# number of rings (size 3 to 8) (size 9 to 14) (size 15 to 20)
#    0.000    2.385    0.769    3.231    0.000    4.923 
#    0.000    3.077    0.000    2.769    0.000    1.077 
#    0.000    0.000    0.000    0.000    0.000    0.000 
#
# Total GULP energy -289876.283359 kJ/mol
# GULP energy per Si atom -5574.543911 kJ/mol
# Density = 1.651731 g / cm^3
# Si number density = 16.554985 Si / 1000 Ang^3
#
#
#
# Elastic Constant Matrix: (Units=GPa)
#
#
# Indices 1 2 3 4 5 6 
#
# 1 131.9144 47.6349 74.2871 0.0000 0.0000 0.0000
# 2 47.6349 47.6251 46.4691 0.0000 0.0000 0.0000
# 3 74.2871 46.4691 112.8651 0.0000 0.0000 0.0000
# 4 0.0000 0.0000 0.0000 -15.8339 0.0000 0.0000
# 5 0.0000 0.0000 0.0000 0.0000 -4.6564 0.0000
# 6 0.0000 0.0000 0.0000 0.0000 0.0000 23.6748
#
#
#
# Elastic Compliance Matrix: (Units=1/GPa)
#
#
# Indices 1 2 3 4 5 6 
#
# 1 0.013733 -0.008217 -0.005656 0.000000 0.000000 0.000000
# 2 -0.008217 0.040014 -0.011066 0.000000 0.000000 0.000000
# 3 -0.005656 -0.011066 0.017139 0.000000 0.000000 0.000000
# 4 0.000000 0.000000 0.000000 -0.063156 0.000000 0.000000
# 5 0.000000 0.000000 0.000000 0.000000 -0.214757 0.000000
# 6 0.000000 0.000000 0.000000 0.000000 0.000000 0.042239
#
#
# Mechanical properties :
#
#
# Convention : Reuss Voigt Hill
#
# Bulk Modulus (GPa) = 47.60206 69.90964 58.75585
# Shear Modulus (GPa) = -46.33583 8.90446 -18.71569
#
# Velocity S-wave (km/s) = -5.29621 2.32172 -3.36596
# Velocity P-wave (km/s) = 2.92975 7.03617 4.52351
#
# Compressibility (1/GPa) = 0.02100749
#
# Stress axis : x y z
#
# Youngs Moduli (GPa) = 72.81724 24.99140 58.34738
#
# Poissons Ratio (x) = 0.20537 0.32999
# Poissons Ratio (y) = 0.59837 0.64566
# Poissons Ratio (z) = 0.41183 0.27655
#
# Static dielectric constant tensor:
#      x y z
#    x 1.559540 0.000000 0.000000 
#    y 0.000000 1.555090 0.000000 
#    z 0.000000 0.000000 1.539320 
# 
# From -- ./inp_files/19859.got.cif
#   From: 2010.05.17/outbox.cif.g08.bks.cpg/sg47_10_cif.got.tgz:19859.got - 2010.06.03 20:15:42.
