data_PCOD9384965
_publ_section_title
;
Structure prediction by ZEFSAII (Michael W. Deem and Ramdas Pophale) SiO2 
 PCOD9384965
Probable space group: P M M M
;
_chemical_formula_sum "Si O2"
_cell_formula_units_Z 48
_cell_length_a 7.498249
_cell_length_b 19.421668
_cell_length_c 15.959060
_cell_angle_alpha 90.000000
_cell_angle_beta 90.000000
_cell_angle_gamma 90.000000
_cell_volume 2324.094012
_symmetry_space_group_name_H-M "P M M M"
_symmetry_group_IT_number 47
_symmetry_cell_setting 'orthorhombic'
loop_
_space_group_symop_operation_xyz
x,y,z
-x,-y,z
x,-y,-z
-x,y,-z
-x,-y,-z
x,y,-z
-x,y,z
x,-y,z
loop_
_atom_site_type_symbol
_atom_site_label
_atom_site_fract_x
_atom_site_fract_y
_atom_site_fract_z
Si Si1 0.797632 0.789897 0.734566
Si Si2 0.790209 0.647359 0.323928
Si Si3 0.205241 0.083768 0.000000
Si Si4 0.283002 0.278486 0.907660
Si Si5 0.292884 0.575890 0.846401
Si Si6 0.713097 0.421800 0.500000
Si Si7 0.219526 0.079196 0.184263
O O1 0.715707 0.725201 0.685174
O O2 0.797482 0.762246 0.830252
O O3 0.719192 0.865917 0.746524
O O4 0.000000 0.798640 0.703350
O O5 0.713811 0.598215 0.251472
O O6 0.767950 0.616786 0.415572
O O7 0.000000 0.651923 0.304547
O O8 0.284213 0.100810 0.909171
O O9 0.000000 0.107341 0.000000
O O10 0.201010 0.000000 0.000000
O O11 0.500000 0.276611 0.899611
O O12 0.222738 0.357947 0.896061
O O13 0.235914 0.253000 0.000000
O O14 0.500000 0.571253 0.870608
O O15 0.213087 0.500000 0.858121
O O16 0.782561 0.500000 0.500000
O O17 0.500000 0.424738 0.500000
O O18 0.000000 0.081073 0.181754
O O19 0.269708 0.000000 0.199423
#
# Coordination Sequence:
#
# PCOD9384965 Si02
#       7
#     8   8   4   8   8   4   8
#     4   9  18  30  46  68  93 122 154 189 229 274
#     4  10  20  33  48  71 100 123 144 176 227 283
#     4   7  10  16  28  52  85 115 146 187 228 258
#     4   9  18  30  42  59  85 119 158 196 234 272
#     4   9  17  30  47  64  85 116 154 194 229 265
#     4  11  23  37  55  77  96 117 150 186 219 267
#     4   8  13  22  38  63  92 120 154 195 233 266
#
# _framework density 20.653210000000001
#
# number of rings (size 3 to 8) (size 9 to 14) (size 15 to 20)
#    0.000    3.000    0.000    2.250    1.167    4.333 
#    0.000    1.667    0.000    0.500    0.000    6.417 
#    0.000    4.667    0.000    0.000    0.000    0.000 
#
# Total GULP energy -267627.099661 kJ/mol
# GULP energy per Si atom -5575.564576 kJ/mol
# Density = 2.060620 g / cm^3
# Si number density = 20.653210 Si / 1000 Ang^3
#
#
#
# Elastic Constant Matrix: (Units=GPa)
#
#
# Indices 1 2 3 4 5 6 
#
# 1 63.9331 -1.3341 -9.5309 0.0000 0.0000 0.0000
# 2 -1.3341 135.7221 20.1268 0.0000 0.0000 0.0000
# 3 -9.5309 20.1268 63.8967 0.0000 0.0000 0.0000
# 4 0.0000 0.0000 0.0000 72.6345 0.0000 0.0000
# 5 0.0000 0.0000 0.0000 0.0000 15.0183 0.0000
# 6 0.0000 0.0000 0.0000 0.0000 0.0000 19.6502
#
#
#
# Elastic Compliance Matrix: (Units=1/GPa)
#
#
# Indices 1 2 3 4 5 6 
#
# 1 0.016003 -0.000206 0.002452 0.000000 0.000000 0.000000
# 2 -0.000206 0.007732 -0.002466 0.000000 0.000000 0.000000
# 3 0.002452 -0.002466 0.016793 0.000000 0.000000 0.000000
# 4 0.000000 0.000000 0.000000 0.013768 0.000000 0.000000
# 5 0.000000 0.000000 0.000000 0.000000 0.066585 0.000000
# 6 0.000000 0.000000 0.000000 0.000000 0.000000 0.050890
#
#
# Mechanical properties :
#
#
# Convention : Reuss Voigt Hill
#
# Bulk Modulus (GPa) = 24.94638 31.34173 28.14405
# Shear Modulus (GPa) = 26.94355 38.41328 32.67842
#
# Velocity S-wave (km/s) = 3.61580 4.31736 3.98206
# Velocity P-wave (km/s) = 5.43479 6.32937 5.89906
#
# Compressibility (1/GPa) = 0.04008598
#
# Stress axis : x y z
#
# Youngs Moduli (GPa) = 62.48997 129.33792 59.54932
#
# Poissons Ratio (x) = 0.02668 -0.14601
# Poissons Ratio (y) = 0.01289 0.14686
# Poissons Ratio (z) = -0.15322 0.31897
#
# Static dielectric constant tensor:
#      x y z
#    x 1.821100 0.000000 0.000000 
#    y 0.000000 1.814980 0.000000 
#    z 0.000000 0.000000 1.688760 
# 
# From -- ./inp_files/21131.got.cif
#   From: 2010.05.17/outbox.cif.g08.bks.cpg/sg47_11_cif.got.tgz:21131.got - 2010.06.03 20:15:42.
