data_PCOD9384307
_publ_section_title
;
Structure prediction by ZEFSAII (Michael W. Deem and Ramdas Pophale) SiO2 
 PCOD9384307
Probable space group: P M M M
;
_chemical_formula_sum "Si O2"
_cell_formula_units_Z 48
_cell_length_a 32.133849
_cell_length_b 7.606120
_cell_length_c 9.916335
_cell_angle_alpha 90.000000
_cell_angle_beta 90.000000
_cell_angle_gamma 90.000000
_cell_volume 2423.690226
_symmetry_space_group_name_H-M "P M M M"
_symmetry_group_IT_number 47
_symmetry_cell_setting 'orthorhombic'
loop_
_space_group_symop_operation_xyz
x,y,z
-x,-y,z
x,-y,-z
-x,y,-z
-x,-y,-z
x,y,-z
-x,y,z
x,-y,z
loop_
_atom_site_type_symbol
_atom_site_label
_atom_site_fract_x
_atom_site_fract_y
_atom_site_fract_z
Si Si1 0.710424 0.288833 0.651856
Si Si2 0.804065 0.712048 0.653649
Si Si3 0.544793 0.209020 0.163387
Si Si4 0.952440 0.214705 0.653480
Si Si5 0.120002 0.790745 0.152202
Si Si6 0.365372 0.789310 0.153012
O O1 0.701202 0.225380 0.500000
O O2 0.712540 0.500000 0.646746
O O3 0.757111 0.227601 0.688151
O O4 0.674026 0.244578 0.754260
O O5 0.813755 0.771608 0.500000
O O6 0.803738 0.500000 0.650751
O O7 0.838291 0.765351 0.761442
O O8 0.500000 0.282715 0.209426
O O9 0.589909 0.278610 0.207817
O O10 0.543746 0.000000 0.193549
O O11 0.545615 0.224811 0.000000
O O12 0.942050 0.268654 0.500000
O O13 0.918789 0.279129 0.760583
O O14 0.000000 0.267485 0.682735
O O15 0.951841 0.000000 0.654139
O O16 0.113599 0.000000 0.141642
O O17 0.122750 0.720040 0.000000
O O18 0.369904 0.000000 0.144273
O O19 0.358928 0.723269 0.000000
#
# Coordination Sequence:
#
# PCOD9384307 Si02
#       6
#     8   8   8   8   8   8
#     4   9  19  35  51  66  87 119 158 194 229 275
#     4   9  19  36  54  68  85 117 161 200 232 272
#     4   7  10  19  37  61  89 119 148 179 218 264
#     4   8  14  26  45  68  94 126 162 194 223 261
#     4  10  20  31  46  73 104 128 151 185 232 280
#     4   9  17  28  45  72  99 119 146 188 233 274
#
# _framework density 19.804513
#
# number of rings (size 3 to 8) (size 9 to 14) (size 15 to 20)
#    0.000    3.333    0.000    3.500    0.000    3.667 
#    0.000    6.667    0.000    1.500    0.000    9.333 
#    0.000    0.000    0.000    0.000    0.000    0.000 
#
# Total GULP energy -267407.146889 kJ/mol
# GULP energy per Si atom -5570.982227 kJ/mol
# Density = 1.975944 g / cm^3
# Si number density = 19.804513 Si / 1000 Ang^3
#
#
#
# Elastic Constant Matrix: (Units=GPa)
#
#
# Indices 1 2 3 4 5 6 
#
# 1 205.3885 4.1800 135.2614 0.0000 0.0000 0.0000
# 2 4.1800 39.2293 6.1110 0.0000 0.0000 0.0000
# 3 135.2614 6.1110 130.8308 0.0000 0.0000 0.0000
# 4 0.0000 0.0000 0.0000 16.0886 0.0000 0.0000
# 5 0.0000 0.0000 0.0000 0.0000 34.0467 0.0000
# 6 0.0000 0.0000 0.0000 0.0000 0.0000 47.9230
#
#
#
# Elastic Compliance Matrix: (Units=1/GPa)
#
#
# Indices 1 2 3 4 5 6 
#
# 1 0.015284 0.000839 -0.015840 0.000000 0.000000 0.000000
# 2 0.000839 0.025724 -0.002069 0.000000 0.000000 0.000000
# 3 -0.015840 -0.002069 0.024117 0.000000 0.000000 0.000000
# 4 0.000000 0.000000 0.000000 0.062156 0.000000 0.000000
# 5 0.000000 0.000000 0.000000 0.000000 0.029371 0.000000
# 6 0.000000 0.000000 0.000000 0.000000 0.000000 0.020867
#
#
# Mechanical properties :
#
#
# Convention : Reuss Voigt Hill
#
# Bulk Modulus (GPa) = 32.27483 74.06148 53.16816
# Shear Modulus (GPa) = 22.52379 34.93809 28.73094
#
# Velocity S-wave (km/s) = 3.37606 4.20473 3.81297
# Velocity P-wave (km/s) = 5.61508 7.81348 6.80366
#
# Compressibility (1/GPa) = 0.03098389
#
# Stress axis : x y z
#
# Youngs Moduli (GPa) = 65.42920 38.87411 41.46453
#
# Poissons Ratio (x) = -0.03262 0.65682
# Poissons Ratio (y) = -0.05490 0.08579
# Poissons Ratio (z) = 1.03643 0.08043
#
# Static dielectric constant tensor:
#      x y z
#    x 1.723900 0.000000 0.000000 
#    y 0.000000 1.756490 0.000000 
#    z 0.000000 0.000000 1.676830 
# 
# From -- ./inp_files/13179.got.cif
#   From: 2010.05.17/outbox.cif.g08.bks.cpg/sg47_7_cif.got.tgz:13179.got - 2010.06.03 20:15:42.
