data_PCOD9384772
_publ_section_title
;
Structure prediction by ZEFSAII (Michael W. Deem and Ramdas Pophale) SiO2 
 PCOD9384772
Probable space group: P M M M
;
_chemical_formula_sum "Si O2"
_cell_formula_units_Z 52
_cell_length_a 36.993560
_cell_length_b 8.071887
_cell_length_c 9.711738
_cell_angle_alpha 90.000000
_cell_angle_beta 90.000000
_cell_angle_gamma 90.000000
_cell_volume 2900.001068
_symmetry_space_group_name_H-M "P M M M"
_symmetry_group_IT_number 47
_symmetry_cell_setting 'orthorhombic'
loop_
_space_group_symop_operation_xyz
x,y,z
-x,-y,z
x,-y,-z
-x,y,-z
-x,-y,-z
x,y,-z
-x,y,z
x,-y,z
loop_
_atom_site_type_symbol
_atom_site_label
_atom_site_fract_x
_atom_site_fract_y
_atom_site_fract_z
Si Si1 0.458308 0.500000 0.168004
Si Si2 0.960997 0.300663 0.838138
Si Si3 0.737829 0.199108 0.657051
Si Si4 0.816518 0.302912 0.656873
Si Si5 0.671907 0.201863 0.842712
Si Si6 0.116740 0.803261 0.842751
Si Si7 0.590533 0.809190 0.167853
O O1 0.500000 0.500000 0.211729
O O2 0.437435 0.332563 0.211544
O O3 0.457849 0.500000 0.000000
O O4 0.960752 0.500000 0.832963
O O5 0.922728 0.240688 0.781838
O O6 0.000000 0.244207 0.780214
O O7 0.960895 0.251494 0.000000
O O8 0.735634 0.262379 0.500000
O O9 0.777820 0.240165 0.710879
O O10 0.704745 0.261676 0.748897
O O11 0.734876 0.000000 0.652433
O O12 0.820993 0.237495 0.500000
O O13 0.814478 0.500000 0.650064
O O14 0.850238 0.256849 0.750927
O O15 0.631455 0.240233 0.791619
O O16 0.673190 0.000000 0.846248
O O17 0.675823 0.260262 0.000000
O O18 0.118865 0.000000 0.851085
O O19 0.118913 0.735202 0.000000
O O20 0.583016 0.000000 0.211702
O O21 0.590661 0.812393 0.000000
#
# Coordination Sequence:
#
# PCOD9384772 Si02
#       7
#     4   8   8   8   8   8   8
#     4   9  16  24  36  58  87 119 155 191 229 279
#     4   8  14  26  45  69  97 127 155 185 227 277
#     4   9  17  30  48  68  90 117 151 193 236 278
#     4  10  21  36  51  67  92 127 162 195 236 286
#     4   8  14  26  44  64  88 119 150 182 228 282
#     4  10  20  32  49  74  99 124 157 197 237 277
#     4   8  14  25  39  56  83 118 152 188 231 277
#
# _framework density 17.93103
#
# number of rings (size 3 to 8) (size 9 to 14) (size 15 to 20)
#    0.000    3.154    0.000    2.308    0.000    3.077 
#    1.385    4.615    0.000    0.462    0.000    3.231 
#    0.000    1.231    0.000    6.000    0.000    6.154 
#
# Total GULP energy -289506.678056 kJ/mol
# GULP energy per Si atom -5567.436116 kJ/mol
# Density = 1.789022 g / cm^3
# Si number density = 17.931030 Si / 1000 Ang^3
#
#
#
# Elastic Constant Matrix: (Units=GPa)
#
#
# Indices 1 2 3 4 5 6 
#
# 1 200.9012 50.2606 52.6872 0.0000 0.0000 0.0000
# 2 50.2606 45.8504 13.5090 0.0000 0.0000 0.0000
# 3 52.6872 13.5090 26.5983 0.0000 0.0000 0.0000
# 4 0.0000 0.0000 0.0000 10.4590 0.0000 0.0000
# 5 0.0000 0.0000 0.0000 0.0000 -11.0921 0.0000
# 6 0.0000 0.0000 0.0000 0.0000 0.0000 32.8676
#
#
#
# Elastic Compliance Matrix: (Units=1/GPa)
#
#
# Indices 1 2 3 4 5 6 
#
# 1 0.012140 -0.007318 -0.020331 0.000000 0.000000 0.000000
# 2 -0.007318 0.030059 -0.000771 0.000000 0.000000 0.000000
# 3 -0.020331 -0.000771 0.078261 0.000000 0.000000 0.000000
# 4 0.000000 0.000000 0.000000 0.095612 0.000000 0.000000
# 5 0.000000 0.000000 0.000000 0.000000 -0.090154 0.000000
# 6 0.000000 0.000000 0.000000 0.000000 0.000000 0.030425
#
#
# Mechanical properties :
#
#
# Convention : Reuss Voigt Hill
#
# Bulk Modulus (GPa) = 15.71841 56.25151 35.98496
# Shear Modulus (GPa) = 21.33190 16.90642 19.11916
#
# Velocity S-wave (km/s) = 3.45289 3.07393 3.26891
# Velocity P-wave (km/s) = 4.96807 6.63610 5.86172
#
# Compressibility (1/GPa) = 0.06361967
#
# Stress axis : x y z
#
# Youngs Moduli (GPa) = 82.37036 33.26796 12.77769
#
# Poissons Ratio (x) = 0.24345 0.25979
# Poissons Ratio (y) = 0.60276 0.00986
# Poissons Ratio (z) = 1.67471 0.02566
#
# Static dielectric constant tensor:
#      x y z
#    x 1.630180 0.000000 0.000000 
#    y 0.000000 1.631190 0.000000 
#    z 0.000000 0.000000 1.617200 
# 
# From -- ./inp_files/20046.got.cif
#   From: 2010.05.17/outbox.cif.g08.bks.cpg/sg47_11_cif.got.tgz:20046.got - 2010.06.03 20:15:42.
