data_PCOD9384445
_publ_section_title
;
Structure prediction by ZEFSAII (Michael W. Deem and Ramdas Pophale) SiO2 
 PCOD9384445
Probable space group: P M M M
;
_chemical_formula_sum "Si O2"
_cell_formula_units_Z 64
_cell_length_a 29.537398
_cell_length_b 7.658549
_cell_length_c 14.498359
_cell_angle_alpha 90.000000
_cell_angle_beta 90.000000
_cell_angle_gamma 90.000000
_cell_volume 3279.726127
_symmetry_space_group_name_H-M "P M M M"
_symmetry_group_IT_number 47
_symmetry_cell_setting 'orthorhombic'
loop_
_space_group_symop_operation_xyz
x,y,z
-x,-y,z
x,-y,-z
-x,y,-z
-x,-y,-z
x,y,-z
-x,y,z
x,-y,z
loop_
_atom_site_type_symbol
_atom_site_label
_atom_site_fract_x
_atom_site_fract_y
_atom_site_fract_z
Si Si1 0.445192 0.293533 0.097919
Si Si2 0.948344 0.213169 0.105438
Si Si3 0.361245 0.706685 0.599701
Si Si4 0.864084 0.210688 0.222206
Si Si5 0.551918 0.714769 0.700151
Si Si6 0.776365 0.214057 0.105400
Si Si7 0.279139 0.798801 0.726071
Si Si8 0.192573 0.706639 0.394670
O O1 0.500000 0.281997 0.097734
O O2 0.434158 0.500000 0.097140
O O3 0.432210 0.224833 0.197888
O O4 0.428983 0.218214 0.000000
O O5 0.911470 0.272666 0.179691
O O6 0.000000 0.268335 0.123889
O O7 0.948075 0.000000 0.106310
O O8 0.936450 0.264258 0.000000
O O9 0.346289 0.776747 0.500000
O O10 0.367330 0.500000 0.591200
O O11 0.410267 0.775954 0.629253
O O12 0.323133 0.727364 0.676555
O O13 0.823876 0.265725 0.152551
O O14 0.849367 0.263673 0.325134
O O15 0.864656 0.000000 0.221770
O O16 0.500000 0.768603 0.683047
O O17 0.551170 0.500000 0.701810
O O18 0.737840 0.277029 0.176471
O O19 0.775860 0.000000 0.105311
O O20 0.772108 0.271363 0.000000
O O21 0.236412 0.785312 0.656351
O O22 0.288711 0.000000 0.743187
O O23 0.186544 0.769918 0.500000
O O24 0.200807 0.500000 0.398797
#
# Coordination Sequence:
#
# PCOD9384445 Si02
#       8
#     8   8   8   8   8   8   8   8
#     4   7   9  15  30  52  77 104 132 164 205 248
#     4   8  13  22  40  69 102 132 163 200 239 279
#     4  10  20  32  46  65  91 121 149 183 229 271
#     4   9  16  26  45  72  97 124 159 196 232 273
#     4   8  14  25  41  61  84 111 146 183 214 254
#     4   8  14  26  45  68  92 117 146 180 219 267
#     4  10  20  33  51  72  91 116 150 184 219 267
#     4  10  20  33  49  68  91 119 151 192 241 284
#
# _framework density 19.513825000000001
#
# number of rings (size 3 to 8) (size 9 to 14) (size 15 to 20)
#    0.000    3.250    0.000    3.750    0.000    4.500 
#    0.000    1.875    0.000   14.625    0.000    4.375 
#    0.000    0.000    0.000    6.250    0.000    2.500 
#
# Total GULP energy -356459.814003 kJ/mol
# GULP energy per Si atom -5569.684594 kJ/mol
# Density = 1.946941 g / cm^3
# Si number density = 19.513825 Si / 1000 Ang^3
#
#
#
# Elastic Constant Matrix: (Units=GPa)
#
#
# Indices 1 2 3 4 5 6 
#
# 1 85.7442 -2.9079 58.0037 0.0000 0.0000 0.0000
# 2 -2.9079 31.3619 0.9981 0.0000 0.0000 0.0000
# 3 58.0037 0.9981 148.0543 0.0000 0.0000 0.0000
# 4 0.0000 0.0000 0.0000 27.9987 0.0000 0.0000
# 5 0.0000 0.0000 0.0000 0.0000 21.1926 0.0000
# 6 0.0000 0.0000 0.0000 0.0000 0.0000 6.8331
#
#
#
# Elastic Compliance Matrix: (Units=1/GPa)
#
#
# Indices 1 2 3 4 5 6 
#
# 1 0.015956 0.001679 -0.006262 0.000000 0.000000 0.000000
# 2 0.001679 0.032069 -0.000874 0.000000 0.000000 0.000000
# 3 -0.006262 -0.000874 0.009214 0.000000 0.000000 0.000000
# 4 0.000000 0.000000 0.000000 0.035716 0.000000 0.000000
# 5 0.000000 0.000000 0.000000 0.000000 0.047186 0.000000
# 6 0.000000 0.000000 0.000000 0.000000 0.000000 0.146347
#
#
# Mechanical properties :
#
#
# Convention : Reuss Voigt Hill
#
# Bulk Modulus (GPa) = 21.58725 41.92759 31.75742
# Shear Modulus (GPa) = 15.98241 25.14266 20.56253
#
# Velocity S-wave (km/s) = 2.86497 3.59340 3.24966
# Velocity P-wave (km/s) = 4.69368 6.22490 5.51272
#
# Compressibility (1/GPa) = 0.04632363
#
# Stress axis : x y z
#
# Youngs Moduli (GPa) = 62.67279 31.18253 108.53508
#
# Poissons Ratio (x) = -0.05235 0.67969
# Poissons Ratio (y) = -0.10521 0.09484
# Poissons Ratio (z) = 0.39248 0.02725
#
# Static dielectric constant tensor:
#      x y z
#    x 1.664560 0.000000 0.000000 
#    y 0.000000 1.768450 0.000000 
#    z 0.000000 0.000000 1.732250 
# 
# From -- ./inp_files/25845.got.cif
#   From: 2010.05.17/outbox.cif.g08.bks.cpg/sg47_13_cif.got.tgz:25845.got - 2010.06.03 20:15:42.
