data_PCOD9384036
_publ_section_title
;
Structure prediction by ZEFSAII (Michael W. Deem and Ramdas Pophale) SiO2 
 PCOD9384036
Probable space group: P M M M
;
_chemical_formula_sum "Si O2"
_cell_formula_units_Z 44
_cell_length_a 14.166384
_cell_length_b 7.571764
_cell_length_c 18.806691
_cell_angle_alpha 90.000000
_cell_angle_beta 90.000000
_cell_angle_gamma 90.000000
_cell_volume 2017.290615
_symmetry_space_group_name_H-M "P M M M"
_symmetry_group_IT_number 47
_symmetry_cell_setting 'orthorhombic'
loop_
_space_group_symop_operation_xyz
x,y,z
-x,-y,z
x,-y,-z
-x,y,-z
-x,-y,-z
x,y,-z
-x,y,z
x,-y,z
loop_
_atom_site_type_symbol
_atom_site_label
_atom_site_fract_x
_atom_site_fract_y
_atom_site_fract_z
Si Si1 0.396111 0.296428 0.355936
Si Si2 0.000000 0.789012 0.580230
Si Si3 0.394418 0.212290 0.809144
Si Si4 0.804249 0.710393 0.658708
Si Si5 0.759883 0.210181 0.079955
Si Si6 0.105999 0.287306 0.800584
O O1 0.500000 0.217929 0.374073
O O2 0.399319 0.500000 0.380503
O O3 0.389738 0.292097 0.269709
O O4 0.293066 0.218655 0.375860
O O5 0.902621 0.734980 0.617883
O O6 0.000000 0.720178 0.500000
O O7 0.000000 0.000000 0.579068
O O8 0.500000 0.244052 0.836687
O O9 0.319160 0.280831 0.865793
O O10 0.383071 0.000000 0.800405
O O11 0.789224 0.500000 0.664159
O O12 0.824978 0.780593 0.738355
O O13 0.856947 0.239215 0.121916
O O14 0.743992 0.000000 0.075331
O O15 0.758034 0.281258 0.000000
O O16 0.104991 0.500000 0.795296
O O17 0.000000 0.223564 0.787422
#
# Coordination Sequence:
#
# PCOD9384036 Si02
#       6
#     8   4   8   8   8   8
#     4   9  17  30  52  82 112 140 175 223 271 315
#     4  11  25  41  59  89 122 147 176 215 259 310
#     4   9  17  29  46  69  98 133 174 219 268 321
#     4  10  19  35  59  85 113 146 182 219 264 320
#     4  10  21  34  47  67  97 134 178 226 274 323
#     4  10  20  35  53  74  99 129 173 221 266 322
#
# _framework density 21.811433999999998
#
# number of rings (size 3 to 8) (size 9 to 14) (size 15 to 20)
#    0.000    2.273    2.727    0.273    0.000    3.636 
#    0.000    3.636    0.000    0.545    0.000    7.636 
#    0.000    0.000    0.000    0.000    0.000    0.000 
#
# Total GULP energy -245374.930024 kJ/mol
# GULP energy per Si atom -5576.702955 kJ/mol
# Density = 2.176179 g / cm^3
# Si number density = 21.811434 Si / 1000 Ang^3
#
#
#
# Elastic Constant Matrix: (Units=GPa)
#
#
# Indices 1 2 3 4 5 6 
#
# 1 169.5284 0.9642 13.1961 0.0000 0.0000 0.0000
# 2 0.9642 53.5922 -9.7424 0.0000 0.0000 0.0000
# 3 13.1961 -9.7424 41.2330 0.0000 0.0000 0.0000
# 4 0.0000 0.0000 0.0000 17.9988 0.0000 0.0000
# 5 0.0000 0.0000 0.0000 0.0000 8.4073 0.0000
# 6 0.0000 0.0000 0.0000 0.0000 0.0000 11.4788
#
#
#
# Elastic Compliance Matrix: (Units=1/GPa)
#
#
# Indices 1 2 3 4 5 6 
#
# 1 0.006061 -0.000482 -0.002054 0.000000 0.000000 0.000000
# 2 -0.000482 0.019535 0.004770 0.000000 0.000000 0.000000
# 3 -0.002054 0.004770 0.026037 0.000000 0.000000 0.000000
# 4 0.000000 0.000000 0.000000 0.055559 0.000000 0.000000
# 5 0.000000 0.000000 0.000000 0.000000 0.118945 0.000000
# 6 0.000000 0.000000 0.000000 0.000000 0.000000 0.087117
#
#
# Mechanical properties :
#
#
# Convention : Reuss Voigt Hill
#
# Bulk Modulus (GPa) = 17.82494 30.35437 24.08966
# Shear Modulus (GPa) = 15.26776 24.90601 20.08688
#
# Velocity S-wave (km/s) = 2.64860 3.38284 3.03798
# Velocity P-wave (km/s) = 4.18849 5.40417 4.83469
#
# Compressibility (1/GPa) = 0.05610117
#
# Stress axis : x y z
#
# Youngs Moduli (GPa) = 164.98019 51.18946 38.40716
#
# Poissons Ratio (x) = 0.02469 0.07888
# Poissons Ratio (y) = 0.07959 -0.18321
# Poissons Ratio (z) = 0.33884 -0.24418
#
# Static dielectric constant tensor:
#      x y z
#    x 1.884360 0.000000 0.000000 
#    y 0.000000 1.841800 0.000000 
#    z 0.000000 0.000000 1.764480 
# 
# From -- ./inp_files/6146.got.cif
#   From: 2010.05.17/outbox.cif.g08.bks.cpg/sg47_4_cif.got.tgz:6146.got - 2010.06.03 20:15:42.
