data_PCOD9384987
_publ_section_title
;
Structure prediction by ZEFSAII (Michael W. Deem and Ramdas Pophale) SiO2 
 PCOD9384987
Probable space group: P M M M
;
_chemical_formula_sum "Si O2"
_cell_formula_units_Z 48
_cell_length_a 9.407353
_cell_length_b 7.556911
_cell_length_c 32.936399
_cell_angle_alpha 90.000000
_cell_angle_beta 90.000000
_cell_angle_gamma 90.000000
_cell_volume 2341.466040
_symmetry_space_group_name_H-M "P M M M"
_symmetry_group_IT_number 47
_symmetry_cell_setting 'orthorhombic'
loop_
_space_group_symop_operation_xyz
x,y,z
-x,-y,z
x,-y,-z
-x,y,-z
-x,-y,-z
x,y,-z
-x,y,z
x,-y,z
loop_
_atom_site_type_symbol
_atom_site_label
_atom_site_fract_x
_atom_site_fract_y
_atom_site_fract_z
Si Si1 0.334409 0.212708 0.456364
Si Si2 0.339622 0.288739 0.787940
Si Si3 0.337974 0.710120 0.632340
Si Si4 0.836942 0.213315 0.868201
Si Si5 0.836757 0.282892 0.710009
Si Si6 0.828044 0.210886 0.956332
O O1 0.273599 0.273233 0.500000
O O2 0.500000 0.272165 0.455622
O O3 0.274121 0.264043 0.412691
O O4 0.334715 0.000000 0.457128
O O5 0.500000 0.217769 0.788184
O O6 0.348888 0.500000 0.782625
O O7 0.260228 0.257846 0.830250
O O8 0.247890 0.222624 0.749898
O O9 0.500000 0.782705 0.633228
O O10 0.349468 0.500000 0.638211
O O11 0.243029 0.777439 0.669227
O O12 0.781634 0.279162 0.912221
O O13 0.000000 0.275392 0.861935
O O14 0.842966 0.000000 0.870997
O O15 0.837100 0.500000 0.709993
O O16 0.000000 0.226385 0.711080
O O17 0.000000 0.229143 0.955780
O O18 0.798388 0.000000 0.957077
O O19 0.777874 0.283525 0.000000
#
# Coordination Sequence:
#
# PCOD9384987 Si02
#       6
#     8   8   8   8   8   8
#     4   8  14  25  41  62  89 119 147 174 208 253
#     4  10  20  33  49  68  91 122 159 193 227 274
#     4   9  16  26  43  67  90 110 139 182 223 256
#     4   9  17  29  47  72  98 121 149 189 234 276
#     4   9  17  30  48  67  87 114 148 185 226 271
#     4   7  10  19  38  64  91 117 146 182 224 268
#
# _framework density 20.499977000000001
#
# number of rings (size 3 to 8) (size 9 to 14) (size 15 to 20)
#    0.000    3.333    0.000    3.000    0.000    3.667 
#    0.000    2.500    0.000    5.000    0.000    9.333 
#    0.000    0.000    0.000    0.000    0.000    0.000 
#
# Total GULP energy -267365.378857 kJ/mol
# GULP energy per Si atom -5570.112060 kJ/mol
# Density = 2.045332 g / cm^3
# Si number density = 20.499977 Si / 1000 Ang^3
#
#
#
# Elastic Constant Matrix: (Units=GPa)
#
#
# Indices 1 2 3 4 5 6 
#
# 1 97.7273 5.7360 102.8713 0.0000 0.0000 0.0000
# 2 5.7360 45.4029 3.4188 0.0000 0.0000 0.0000
# 3 102.8713 3.4188 265.0372 0.0000 0.0000 0.0000
# 4 0.0000 0.0000 0.0000 20.5091 0.0000 0.0000
# 5 0.0000 0.0000 0.0000 0.0000 25.3887 0.0000
# 6 0.0000 0.0000 0.0000 0.0000 0.0000 9.0449
#
#
#
# Elastic Compliance Matrix: (Units=1/GPa)
#
#
# Indices 1 2 3 4 5 6 
#
# 1 0.017431 -0.001694 -0.006744 0.000000 0.000000 0.000000
# 2 -0.001694 0.022211 0.000371 0.000000 0.000000 0.000000
# 3 -0.006744 0.000371 0.006386 0.000000 0.000000 0.000000
# 4 0.000000 0.000000 0.000000 0.048759 0.000000 0.000000
# 5 0.000000 0.000000 0.000000 0.000000 0.039388 0.000000
# 6 0.000000 0.000000 0.000000 0.000000 0.000000 0.110560
#
#
# Mechanical properties :
#
#
# Convention : Reuss Voigt Hill
#
# Bulk Modulus (GPa) = 33.45173 70.24661 51.84917
# Shear Modulus (GPa) = 18.46162 30.73128 24.59645
#
# Velocity S-wave (km/s) = 3.00420 3.87601 3.46761
# Velocity P-wave (km/s) = 5.32795 7.37376 6.43270
#
# Compressibility (1/GPa) = 0.02989382
#
# Stress axis : x y z
#
# Youngs Moduli (GPa) = 57.37034 45.02247 156.59887
#
# Poissons Ratio (x) = 0.07628 1.05605
# Poissons Ratio (y) = 0.09720 -0.05812
# Poissons Ratio (z) = 0.38689 -0.01671
#
# Static dielectric constant tensor:
#      x y z
#    x 1.699920 0.000000 0.000000 
#    y 0.000000 1.792810 0.000000 
#    z 0.000000 0.000000 1.774440 
# 
# From -- ./inp_files/2524.got.cif
#   From: 2010.05.17/outbox.cif.g08.bks.cpg/sg47_2_cif.got.tgz:2524.got - 2010.06.03 20:15:42.
