data_PCOD9384456
_publ_section_title
;
Structure prediction by ZEFSAII (Michael W. Deem and Ramdas Pophale) SiO2 
 PCOD9384456
Probable space group: P M M M
;
_chemical_formula_sum "Si O2"
_cell_formula_units_Z 52
_cell_length_a 25.125299
_cell_length_b 7.763029
_cell_length_c 14.216450
_cell_angle_alpha 90.000000
_cell_angle_beta 90.000000
_cell_angle_gamma 90.000000
_cell_volume 2772.896178
_symmetry_space_group_name_H-M "P M M M"
_symmetry_group_IT_number 47
_symmetry_cell_setting 'orthorhombic'
loop_
_space_group_symop_operation_xyz
x,y,z
-x,-y,z
x,-y,-z
-x,y,-z
-x,-y,-z
x,y,-z
-x,y,z
x,-y,z
loop_
_atom_site_type_symbol
_atom_site_label
_atom_site_fract_x
_atom_site_fract_y
_atom_site_fract_z
Si Si1 0.057336 0.707122 0.109450
Si Si2 0.827448 0.793632 0.892583
Si Si3 0.615225 0.793398 0.891710
Si Si4 0.500000 0.295761 0.107803
Si Si5 0.556999 0.297529 0.614848
Si Si6 0.327670 0.292004 0.606611
Si Si7 0.721960 0.793977 0.791226
O O1 0.056470 0.500000 0.108763
O O2 0.114304 0.758630 0.150390
O O3 0.000000 0.765877 0.149322
O O4 0.058379 0.765998 0.000000
O O5 0.776337 0.726691 0.836515
O O6 0.822583 0.000000 0.897817
O O7 0.826283 0.725883 0.000000
O O8 0.557052 0.752982 0.849160
O O9 0.667755 0.725568 0.839776
O O10 0.618980 0.000000 0.894509
O O11 0.615309 0.729417 0.000000
O O12 0.500000 0.500000 0.102135
O O13 0.500000 0.222239 0.000000
O O14 0.557856 0.294368 0.500000
O O15 0.500000 0.221102 0.644072
O O16 0.556178 0.500000 0.641914
O O17 0.614418 0.223504 0.641216
O O18 0.318217 0.233254 0.500000
O O19 0.331688 0.500000 0.604374
O O20 0.283672 0.241776 0.681211
O O21 0.721670 0.000000 0.804893
#
# Coordination Sequence:
#
# PCOD9384456 Si02
#       7
#     8   8   8   4   8   8   8
#     4   8  14  25  41  63  93 127 158 185 216 255
#     4   9  17  29  45  66  93 124 158 192 221 254
#     4   9  17  31  49  64  83 116 151 180 219 273
#     4   9  17  29  45  65  86 107 140 189 233 264
#     4   7  10  20  40  61  77  95 123 161 207 262
#     4   9  18  32  48  65  86 113 146 183 225 277
#     4  10  20  32  46  66  90 117 150 188 227 267
#
# _framework density 18.752955
#
# number of rings (size 3 to 8) (size 9 to 14) (size 15 to 20)
#    0.000    3.308    0.000    2.538    0.000    4.615 
#    1.385    1.538    0.000    4.615    0.000    2.154 
#    0.000    0.615    0.000    6.769    0.000    5.231 
#
# Total GULP energy -289700.383940 kJ/mol
# GULP energy per Si atom -5571.161230 kJ/mol
# Density = 1.871027 g / cm^3
# Si number density = 18.752955 Si / 1000 Ang^3
#
#
#
# Elastic Constant Matrix: (Units=GPa)
#
#
# Indices 1 2 3 4 5 6 
#
# 1 193.8243 10.4833 66.2740 0.0000 0.0000 0.0000
# 2 10.4833 27.7452 0.2254 0.0000 0.0000 0.0000
# 3 66.2740 0.2254 56.8534 0.0000 0.0000 0.0000
# 4 0.0000 0.0000 0.0000 9.6897 0.0000 0.0000
# 5 0.0000 0.0000 0.0000 0.0000 14.9350 0.0000
# 6 0.0000 0.0000 0.0000 0.0000 0.0000 -15.9024
#
#
#
# Elastic Compliance Matrix: (Units=1/GPa)
#
#
# Indices 1 2 3 4 5 6 
#
# 1 0.008865 -0.003266 -0.010321 0.000000 0.000000 0.000000
# 2 -0.003266 0.037246 0.003659 0.000000 0.000000 0.000000
# 3 -0.010321 0.003659 0.029606 0.000000 0.000000 0.000000
# 4 0.000000 0.000000 0.000000 0.103203 0.000000 0.000000
# 5 0.000000 0.000000 0.000000 0.000000 0.066957 0.000000
# 6 0.000000 0.000000 0.000000 0.000000 0.000000 -0.062884
#
#
# Mechanical properties :
#
#
# Convention : Reuss Voigt Hill
#
# Bulk Modulus (GPa) = 17.90121 48.04314 32.97218
# Shear Modulus (GPa) = 22.57654 15.17380 18.87517
#
# Velocity S-wave (km/s) = 3.47348 2.84763 3.17601
# Velocity P-wave (km/s) = 5.06491 6.04041 5.57404
#
# Compressibility (1/GPa) = 0.05586214
#
# Stress axis : x y z
#
# Youngs Moduli (GPa) = 112.80365 26.84823 33.77725
#
# Poissons Ratio (x) = 0.08768 0.34861
# Poissons Ratio (y) = 0.36838 -0.12360
# Poissons Ratio (z) = 1.16424 -0.09824
#
# Static dielectric constant tensor:
#      x y z
#    x 1.703420 0.000000 0.000000 
#    y 0.000000 1.689800 0.000000 
#    z 0.000000 0.000000 1.676800 
# 
# From -- ./inp_files/25055.got.cif
#   From: 2010.05.17/outbox.cif.g08.bks.cpg/sg47_13_cif.got.tgz:25055.got - 2010.06.03 20:15:42.
