data_PCOD9384513
_publ_section_title
;
Structure prediction by ZEFSAII (Michael W. Deem and Ramdas Pophale) SiO2 
 PCOD9384513
Probable space group: P M M M
;
_chemical_formula_sum "Si O2"
_cell_formula_units_Z 64
_cell_length_a 30.845381
_cell_length_b 13.983664
_cell_length_c 7.691332
_cell_angle_alpha 90.000000
_cell_angle_beta 90.000000
_cell_angle_gamma 90.000000
_cell_volume 3317.513337
_symmetry_space_group_name_H-M "P M M M"
_symmetry_group_IT_number 47
_symmetry_cell_setting 'orthorhombic'
loop_
_space_group_symop_operation_xyz
x,y,z
-x,-y,z
x,-y,-z
-x,y,-z
-x,-y,-z
x,y,-z
-x,y,z
x,-y,z
loop_
_atom_site_type_symbol
_atom_site_label
_atom_site_fract_x
_atom_site_fract_y
_atom_site_fract_z
Si Si1 0.453304 0.888854 0.791020
Si Si2 0.729428 0.799781 0.713287
Si Si3 0.640503 0.108812 0.292248
Si Si4 0.048246 0.684197 0.801169
Si Si5 0.051940 0.103409 0.698658
Si Si6 0.768213 0.395370 0.705235
Si Si7 0.140278 0.308853 0.792887
Si Si8 0.819459 0.893273 0.290366
O O1 0.500000 0.848249 0.731821
O O2 0.406885 0.846583 0.740451
O O3 0.452411 0.000000 0.730663
O O4 0.454114 0.890024 0.000000
O O5 0.729498 0.799437 0.500000
O O6 0.682907 0.836765 0.773165
O O7 0.740622 0.693216 0.775754
O O8 0.770348 0.865725 0.764188
O O9 0.645116 0.102853 0.500000
O O10 0.640494 0.000000 0.222271
O O11 0.056219 0.799062 0.802804
O O12 0.094100 0.653340 0.720725
O O13 0.000000 0.667323 0.723276
O O14 0.046158 0.649643 0.000000
O O15 0.068564 0.115575 0.500000
O O16 0.000000 0.095108 0.685505
O O17 0.067705 0.000000 0.765236
O O18 0.758728 0.399937 0.500000
O O19 0.760694 0.500000 0.781704
O O20 0.818385 0.365325 0.722901
O O21 0.150247 0.196073 0.760031
O O22 0.139015 0.321633 0.000000
O O23 0.819818 0.895433 0.500000
O O24 0.830670 0.000000 0.228245
#
# Coordination Sequence:
#
# PCOD9384513 Si02
#       8
#     8   8   8   8   8   8   8   8
#     4   8  14  24  35  48  74 116 160 194 221 249
#     4   8  14  26  44  66  89 111 140 177 217 262
#     4   9  15  22  36  59  86 116 148 181 215 251
#     4   9  18  31  44  58  79 108 138 166 200 245
#     4   8  14  24  37  54  76 102 134 170 202 230
#     4   9  18  34  55  73  88 110 140 173 212 265
#     4  10  20  32  47  68  91 113 140 176 215 254
#     4   9  17  30  47  64  87 122 156 181 209 253
#
# _framework density 19.291557000000001
#
# number of rings (size 3 to 8) (size 9 to 14) (size 15 to 20)
#    0.000    3.250    0.000    2.250    0.000    4.000 
#    0.000    7.500    0.000    3.375    0.000    2.625 
#    0.000    0.500    0.000    6.250    0.000    1.250 
#
# Total GULP energy -356281.965503 kJ/mol
# GULP energy per Si atom -5566.905711 kJ/mol
# Density = 1.924765 g / cm^3
# Si number density = 19.291557 Si / 1000 Ang^3
#
#
#
# Elastic Constant Matrix: (Units=GPa)
#
#
# Indices 1 2 3 4 5 6 
#
# 1 185.5076 32.7567 -1.6011 0.0000 0.0000 0.0000
# 2 32.7567 50.2492 -1.5680 0.0000 0.0000 0.0000
# 3 -1.6011 -1.5680 33.0055 0.0000 0.0000 0.0000
# 4 0.0000 0.0000 0.0000 3.3988 0.0000 0.0000
# 5 0.0000 0.0000 0.0000 0.0000 17.2779 0.0000
# 6 0.0000 0.0000 0.0000 0.0000 0.0000 -4.6452
#
#
#
# Elastic Compliance Matrix: (Units=1/GPa)
#
#
# Indices 1 2 3 4 5 6 
#
# 1 0.006092 -0.003968 0.000107 0.000000 0.000000 0.000000
# 2 -0.003968 0.022515 0.000877 0.000000 0.000000 0.000000
# 3 0.000107 0.000877 0.030345 0.000000 0.000000 0.000000
# 4 0.000000 0.000000 0.000000 0.294218 0.000000 0.000000
# 5 0.000000 0.000000 0.000000 0.000000 0.057877 0.000000
# 6 0.000000 0.000000 0.000000 0.000000 0.000000 -0.215274
#
#
# Mechanical properties :
#
#
# Convention : Reuss Voigt Hill
#
# Bulk Modulus (GPa) = 18.87360 36.43753 27.65556
# Shear Modulus (GPa) = 22.78922 19.15129 20.97025
#
# Velocity S-wave (km/s) = 3.44074 3.15418 3.30057
# Velocity P-wave (km/s) = 5.05861 5.67397 5.37510
#
# Compressibility (1/GPa) = 0.05298407
#
# Stress axis : x y z
#
# Youngs Moduli (GPa) = 164.14382 44.41498 32.95455
#
# Poissons Ratio (x) = 0.17624 -0.00353
# Poissons Ratio (y) = 0.65134 -0.02891
# Poissons Ratio (z) = -0.01757 -0.03896
#
# Static dielectric constant tensor:
#      x y z
#    x 1.727280 0.000000 0.000000 
#    y 0.000000 1.718710 0.000000 
#    z 0.000000 0.000000 1.724670 
# 
# From -- ./inp_files/14340.got.cif
#   From: 2010.05.17/outbox.cif.g08.bks.cpg/sg47_8_cif.got.tgz:14340.got - 2010.06.03 20:15:42.
