data_PCOD9384659
_publ_section_title
;
Structure prediction by ZEFSAII (Michael W. Deem and Ramdas Pophale) SiO2 
 PCOD9384659
Probable space group: P M M M
;
_chemical_formula_sum "Si O2"
_cell_formula_units_Z 44
_cell_length_a 9.335035
_cell_length_b 31.418903
_cell_length_c 8.110765
_cell_angle_alpha 90.000000
_cell_angle_beta 90.000000
_cell_angle_gamma 90.000000
_cell_volume 2378.859467
_symmetry_space_group_name_H-M "P M M M"
_symmetry_group_IT_number 47
_symmetry_cell_setting 'orthorhombic'
loop_
_space_group_symop_operation_xyz
x,y,z
-x,-y,z
x,-y,-z
-x,y,-z
-x,-y,-z
x,y,-z
-x,y,z
x,-y,z
loop_
_atom_site_type_symbol
_atom_site_label
_atom_site_fract_x
_atom_site_fract_y
_atom_site_fract_z
Si Si1 0.168799 0.954037 0.198357
Si Si2 0.825456 0.396206 0.684316
Si Si3 0.825006 0.450844 0.000000
Si Si4 0.836092 0.862780 0.304033
Si Si5 0.168209 0.302961 0.800707
Si Si6 0.662015 0.780397 0.198296
O O1 0.227471 0.909162 0.260116
O O2 0.000000 0.953997 0.245942
O O3 0.228722 0.000000 0.254346
O O4 0.175187 0.953508 0.000000
O O5 0.779989 0.408982 0.500000
O O6 0.778089 0.426201 0.834617
O O7 0.784068 0.347428 0.721666
O O8 0.000000 0.396837 0.686815
O O9 0.780896 0.500000 0.000000
O O10 0.000000 0.449990 0.000000
O O11 0.843134 0.859932 0.500000
O O12 0.745971 0.823271 0.240238
O O13 0.000000 0.860558 0.237534
O O14 0.255726 0.261870 0.743777
O O15 0.000000 0.296617 0.763575
O O16 0.180328 0.307215 0.000000
O O17 0.500000 0.781878 0.261734
O O18 0.657289 0.777352 0.000000
#
# Coordination Sequence:
#
# PCOD9384659 Si02
#       6
#     8   8   4   8   8   8
#     4   8  14  26  46  71  96 122 155 197 242 287
#     4   9  16  26  42  65  93 127 167 207 247 296
#     4   9  16  26  40  62  97 135 167 203 248 297
#     4  10  20  32  48  72 101 132 165 200 242 295
#     4   9  16  29  49  69  93 127 165 206 251 297
#     4  10  21  35  51  72  98 130 167 206 251 301
#
# _framework density 18.496257
#
# number of rings (size 3 to 8) (size 9 to 14) (size 15 to 20)
#    0.000    2.818    0.909    1.636    0.000    3.636 
#    0.000    5.455    0.000    0.545    0.000    3.818 
#    0.000    1.455    0.000    1.636    0.000    1.818 
#
# Total GULP energy -245181.319483 kJ/mol
# GULP energy per Si atom -5572.302716 kJ/mol
# Density = 1.845416 g / cm^3
# Si number density = 18.496257 Si / 1000 Ang^3
#
#
#
# Elastic Constant Matrix: (Units=GPa)
#
#
# Indices 1 2 3 4 5 6 
#
# 1 35.9592 47.6537 21.1901 0.0000 0.0000 0.0000
# 2 47.6537 190.9904 63.5037 0.0000 0.0000 0.0000
# 3 21.1901 63.5037 64.4511 0.0000 0.0000 0.0000
# 4 0.0000 0.0000 0.0000 -7.2031 0.0000 0.0000
# 5 0.0000 0.0000 0.0000 0.0000 7.7115 0.0000
# 6 0.0000 0.0000 0.0000 0.0000 0.0000 -4.9397
#
#
#
# Elastic Compliance Matrix: (Units=1/GPa)
#
#
# Indices 1 2 3 4 5 6 
#
# 1 0.042717 -0.008906 -0.005269 0.000000 0.000000 0.000000
# 2 -0.008906 0.009644 -0.006574 0.000000 0.000000 0.000000
# 3 -0.005269 -0.006574 0.023725 0.000000 0.000000 0.000000
# 4 0.000000 0.000000 0.000000 -0.138829 0.000000 0.000000
# 5 0.000000 0.000000 0.000000 0.000000 0.129676 0.000000
# 6 0.000000 0.000000 0.000000 0.000000 0.000000 -0.202442
#
#
# Mechanical properties :
#
#
# Convention : Reuss Voigt Hill
#
# Bulk Modulus (GPa) = 28.91204 61.78842 45.35023
# Shear Modulus (GPa) = -60.61959 9.71730 -25.45115
#
# Velocity S-wave (km/s) = -5.73107 2.29457 -3.71349
# Velocity P-wave (km/s) = 5.30361 6.36384 2.48699
#
# Compressibility (1/GPa) = 0.03458766
#
# Stress axis : x y z
#
# Youngs Moduli (GPa) = 23.40987 103.69277 42.14921
#
# Poissons Ratio (x) = 0.92352 0.22208
# Poissons Ratio (y) = 0.20850 0.27709
# Poissons Ratio (z) = 0.12335 0.68167
#
# Static dielectric constant tensor:
#      x y z
#    x 1.616460 0.000000 0.000000 
#    y 0.000000 1.641300 0.000000 
#    z 0.000000 0.000000 1.654230 
# 
# From -- ./inp_files/2184.got.cif
#   From: 2010.05.17/outbox.cif.g08.bks.cpg/sg47_2_cif.got.tgz:2184.got - 2010.06.03 20:15:42.
