data_PCOD9384765
_publ_section_title
;
Structure prediction by ZEFSAII (Michael W. Deem and Ramdas Pophale) SiO2 
 PCOD9384765
Probable space group: P M M M
;
_chemical_formula_sum "Si O2"
_cell_formula_units_Z 52
_cell_length_a 11.624813
_cell_length_b 17.849377
_cell_length_c 15.717157
_cell_angle_alpha 90.000000
_cell_angle_beta 90.000000
_cell_angle_gamma 90.000000
_cell_volume 3261.242019
_symmetry_space_group_name_H-M "P M M M"
_symmetry_group_IT_number 47
_symmetry_cell_setting 'orthorhombic'
loop_
_space_group_symop_operation_xyz
x,y,z
-x,-y,z
x,-y,-z
-x,y,-z
-x,-y,-z
x,y,-z
-x,y,z
x,-y,z
loop_
_atom_site_type_symbol
_atom_site_label
_atom_site_fract_x
_atom_site_fract_y
_atom_site_fract_z
Si Si1 0.137661 0.083598 0.832123
Si Si2 0.500000 0.826124 0.396985
Si Si3 0.862893 0.702327 0.724983
Si Si4 0.500000 0.648065 0.601655
Si Si5 0.251135 0.855248 0.667491
Si Si6 0.136629 0.085054 0.500000
Si Si7 0.138587 0.754869 0.906829
Si Si8 0.749647 0.589027 0.600420
O O1 0.208254 0.093628 0.745118
O O2 0.167184 0.157640 0.886859
O O3 0.000000 0.088788 0.814019
O O4 0.157606 0.000000 0.868477
O O5 0.500000 0.836908 0.500000
O O6 0.500000 0.736522 0.380413
O O7 0.614792 0.858683 0.354854
O O8 0.788843 0.771409 0.689698
O O9 0.831440 0.703099 0.825744
O O10 0.832157 0.632080 0.665908
O O11 0.000000 0.718029 0.719381
O O12 0.500000 0.639748 0.500000
O O13 0.619376 0.610155 0.628434
O O14 0.183169 0.876413 0.583408
O O15 0.000000 0.085819 0.500000
O O16 0.178491 0.000000 0.500000
O O17 0.000000 0.752525 0.910903
O O18 0.184098 0.733494 0.000000
O O19 0.765003 0.612139 0.500000
O O20 0.765357 0.500000 0.603728
#
# Coordination Sequence:
#
# PCOD9384765 Si02
#       8
#     8   4   8   4   8   4   8   8
#     4   9  17  30  48  71  99 126 156 199 251 306
#     4  11  20  33  48  67  90 125 174 221 247 276
#     4  10  20  32  49  74 102 132 163 199 245 297
#     4   9  17  32  51  70  94 125 166 211 241 283
#     4  11  20  33  47  66  92 128 170 210 242 285
#     4  11  22  33  47  65  90 128 168 204 244 288
#     4   8  15  29  49  73  99 127 161 201 245 295
#     4  10  20  33  50  74 103 134 167 202 243 288
#
# _framework density 15.944845000000001
#
# number of rings (size 3 to 8) (size 9 to 14) (size 15 to 20)
#    0.000    2.231    2.308    3.000    1.077    3.077 
#    0.000    4.231    0.000    0.462    0.000   15.615 
#    0.000    6.154    0.000    0.000    0.000    0.000 
#
# Total GULP energy -289559.027380 kJ/mol
# GULP energy per Si atom -5568.442834 kJ/mol
# Density = 1.590855 g / cm^3
# Si number density = 15.944845 Si / 1000 Ang^3
#
#
#
# Elastic Constant Matrix: (Units=GPa)
#
#
# Indices 1 2 3 4 5 6 
#
# 1 49.5921 7.5174 23.7261 0.0000 0.0000 0.0000
# 2 7.5174 33.9443 24.8313 0.0000 0.0000 0.0000
# 3 23.7261 24.8313 104.9940 0.0000 0.0000 0.0000
# 4 0.0000 0.0000 0.0000 -24.3254 0.0000 0.0000
# 5 0.0000 0.0000 0.0000 0.0000 -49.4681 0.0000
# 6 0.0000 0.0000 0.0000 0.0000 0.0000 24.0969
#
#
#
# Elastic Compliance Matrix: (Units=1/GPa)
#
#
# Indices 1 2 3 4 5 6 
#
# 1 0.022675 -0.001540 -0.004760 0.000000 0.000000 0.000000
# 2 -0.001540 0.035728 -0.008102 0.000000 0.000000 0.000000
# 3 -0.004760 -0.008102 0.012516 0.000000 0.000000 0.000000
# 4 0.000000 0.000000 0.000000 -0.041109 0.000000 0.000000
# 5 0.000000 0.000000 0.000000 0.000000 -0.020215 0.000000
# 6 0.000000 0.000000 0.000000 0.000000 0.000000 0.041499
#
#
# Mechanical properties :
#
#
# Convention : Reuss Voigt Hill
#
# Bulk Modulus (GPa) = 23.74380 33.40890 28.57635
# Shear Modulus (GPa) = 53.22829 -1.10893 26.05968
#
# Velocity S-wave (km/s) = 5.78405 -0.83486 4.04711
# Velocity P-wave (km/s) = 7.71560 4.47984 6.30870
#
# Compressibility (1/GPa) = 0.04211626
#
# Stress axis : x y z
#
# Youngs Moduli (GPa) = 44.10119 27.98946 79.89734
#
# Poissons Ratio (x) = 0.04309 0.38030
# Poissons Ratio (y) = 0.06790 0.64731
# Poissons Ratio (z) = 0.20992 0.22676
#
# Static dielectric constant tensor:
#      x y z
#    x 1.534970 0.000000 0.000000 
#    y 0.000000 1.549500 0.000000 
#    z 0.000000 0.000000 1.554030 
# 
# From -- ./inp_files/17828.got.cif
#   From: 2010.05.17/outbox.cif.g08.bks.cpg/sg47_9_cif.got.tgz:17828.got - 2010.06.03 20:15:42.
