data_PCOD9384469
_publ_section_title
;
Structure prediction by ZEFSAII (Michael W. Deem and Ramdas Pophale) SiO2 
 PCOD9384469
Probable space group: P M M M
;
_chemical_formula_sum "Si O2"
_cell_formula_units_Z 52
_cell_length_a 9.026739
_cell_length_b 19.019220
_cell_length_c 19.234874
_cell_angle_alpha 90.000000
_cell_angle_beta 90.000000
_cell_angle_gamma 90.000000
_cell_volume 3302.272692
_symmetry_space_group_name_H-M "P M M M"
_symmetry_group_IT_number 47
_symmetry_cell_setting 'orthorhombic'
loop_
_space_group_symop_operation_xyz
x,y,z
-x,-y,z
x,-y,-z
-x,y,-z
-x,-y,-z
x,y,-z
-x,y,z
x,-y,z
loop_
_atom_site_type_symbol
_atom_site_label
_atom_site_fract_x
_atom_site_fract_y
_atom_site_fract_z
Si Si1 0.822970 0.793756 0.339062
Si Si2 0.323497 0.647103 0.081492
Si Si3 0.168857 0.500000 0.084229
Si Si4 0.322009 0.917949 0.420036
Si Si5 0.675644 0.665726 0.579444
Si Si6 0.323850 0.580081 0.712537
Si Si7 0.823432 0.291877 0.793185
O O1 0.754009 0.865823 0.366298
O O2 0.762143 0.731684 0.388578
O O3 0.782954 0.770607 0.260248
O O4 0.000000 0.796131 0.343455
O O5 0.500000 0.643898 0.089197
O O6 0.254693 0.571334 0.102260
O O7 0.254839 0.705152 0.132283
O O8 0.289104 0.658862 0.000000
O O9 0.000000 0.500000 0.110696
O O10 0.162250 0.500000 0.000000
O O11 0.280177 0.899815 0.500000
O O12 0.500000 0.911059 0.415421
O O13 0.285246 0.000000 0.408840
O O14 0.717890 0.651868 0.500000
O O15 0.500000 0.682785 0.581096
O O16 0.696806 0.600437 0.631526
O O17 0.500000 0.588106 0.727997
O O18 0.281216 0.500000 0.726822
O O19 0.232136 0.637442 0.754681
O O20 0.000000 0.293156 0.801400
#
# Coordination Sequence:
#
# PCOD9384469 Si02
#       7
#     8   8   4   8   8   8   8
#     4  10  20  32  46  67  94 123 156 190 225 270
#     4  10  20  33  49  69  91 115 149 193 236 280
#     4   9  17  29  45  65  89 117 146 179 228 285
#     4   9  18  32  50  73 100 129 159 190 227 272
#     4   9  17  29  45  63  83 112 150 190 234 280
#     4   9  18  31  45  61  82 110 147 193 240 280
#     4  10  21  34  47  64  89 122 155 188 230 280
#
# _framework density 15.746731
#
# number of rings (size 3 to 8) (size 9 to 14) (size 15 to 20)
#    0.000    2.538    0.000    2.538    1.077    7.077 
#    0.000    2.308    0.000    0.000    0.000    4.308 
#    0.000    0.615    0.000    6.769    0.000    4.923 
#
# Total GULP energy -290011.224967 kJ/mol
# GULP energy per Si atom -5577.138942 kJ/mol
# Density = 1.571089 g / cm^3
# Si number density = 15.746731 Si / 1000 Ang^3
#
#
#
# Elastic Constant Matrix: (Units=GPa)
#
#
# Indices 1 2 3 4 5 6 
#
# 1 46.5413 33.0471 41.7871 0.0000 0.0000 0.0000
# 2 33.0471 74.1450 43.7811 0.0000 0.0000 0.0000
# 3 41.7871 43.7811 108.1426 0.0000 0.0000 0.0000
# 4 0.0000 0.0000 0.0000 25.0423 0.0000 0.0000
# 5 0.0000 0.0000 0.0000 0.0000 23.3309 0.0000
# 6 0.0000 0.0000 0.0000 0.0000 0.0000 3.1026
#
#
#
# Elastic Compliance Matrix: (Units=1/GPa)
#
#
# Indices 1 2 3 4 5 6 
#
# 1 0.038785 -0.011088 -0.010498 0.000000 0.000000 0.000000
# 2 -0.011088 0.020894 -0.004174 0.000000 0.000000 0.000000
# 3 -0.010498 -0.004174 0.014993 0.000000 0.000000 0.000000
# 4 0.000000 0.000000 0.000000 0.039932 0.000000 0.000000
# 5 0.000000 0.000000 0.000000 0.000000 0.042862 0.000000
# 6 0.000000 0.000000 0.000000 0.000000 0.000000 0.322305
#
#
# Mechanical properties :
#
#
# Convention : Reuss Voigt Hill
#
# Bulk Modulus (GPa) = 43.19290 51.78437 47.48863
# Shear Modulus (GPa) = 9.27627 17.64275 13.45951
#
# Velocity S-wave (km/s) = 2.42975 3.35088 2.92678
# Velocity P-wave (km/s) = 5.94650 6.92303 6.45327
#
# Compressibility (1/GPa) = 0.02315196
#
# Stress axis : x y z
#
# Youngs Moduli (GPa) = 25.78320 47.86067 66.69573
#
# Poissons Ratio (x) = 0.53068 0.70016
# Poissons Ratio (y) = 0.28588 0.27841
# Poissons Ratio (z) = 0.27067 0.19979
#
# Static dielectric constant tensor:
#      x y z
#    x 1.527160 0.000000 0.000000 
#    y 0.000000 1.499330 0.000000 
#    z 0.000000 0.000000 1.561130 
# 
# From -- ./inp_files/29883.got.cif
#   From: 2010.05.17/outbox.cif.g08.bks.cpg/sg47_15_cif.got.tgz:29883.got - 2010.06.03 20:15:42.
