data_PCOD9384660
_publ_section_title
;
Structure prediction by ZEFSAII (Michael W. Deem and Ramdas Pophale) SiO2 
 PCOD9384660
Probable space group: P M M M
;
_chemical_formula_sum "Si O2"
_cell_formula_units_Z 52
_cell_length_a 7.358716
_cell_length_b 18.427804
_cell_length_c 16.706786
_cell_angle_alpha 90.000000
_cell_angle_beta 90.000000
_cell_angle_gamma 90.000000
_cell_volume 2265.523317
_symmetry_space_group_name_H-M "P M M M"
_symmetry_group_IT_number 47
_symmetry_cell_setting 'orthorhombic'
loop_
_space_group_symop_operation_xyz
x,y,z
-x,-y,z
x,-y,-z
-x,y,-z
-x,-y,-z
x,y,-z
-x,y,z
x,-y,z
loop_
_atom_site_type_symbol
_atom_site_label
_atom_site_fract_x
_atom_site_fract_y
_atom_site_fract_z
Si Si1 0.778650 0.917263 0.738800
Si Si2 0.283268 0.351609 0.589187
Si Si3 0.219964 0.581536 0.000000
Si Si4 0.208934 0.578643 0.746365
Si Si5 0.220201 0.307732 0.137095
Si Si6 0.215161 0.817903 0.591145
Si Si7 0.221974 0.146572 0.909293
O O1 0.715600 0.864488 0.666847
O O2 0.721297 0.896942 0.829588
O O3 0.000000 0.912517 0.740058
O O4 0.728462 0.000000 0.721059
O O5 0.216345 0.365511 0.500000
O O6 0.500000 0.357908 0.590164
O O7 0.209763 0.408176 0.652562
O O8 0.238007 0.267629 0.607752
O O9 0.271247 0.629600 0.075225
O O10 0.288374 0.500000 0.000000
O O11 0.000000 0.578058 0.000000
O O12 0.290159 0.500000 0.767248
O O13 0.283578 0.654350 0.781437
O O14 0.000000 0.575376 0.775113
O O15 0.282558 0.229283 0.108892
O O16 0.000000 0.299213 0.138910
O O17 0.286614 0.831888 0.500000
O O18 0.000000 0.832757 0.587342
O O19 0.000000 0.144269 0.910938
O O20 0.279174 0.125271 0.000000
#
# Coordination Sequence:
#
# PCOD9384660 Si02
#       7
#     8   8   4   8   8   8   8
#     4   9  17  27  41  66  99 132 164 198 239 292
#     4  10  21  36  53  72  95 126 165 207 248 293
#     4   9  14  20  34  58  90 124 154 191 241 289
#     4  10  20  32  48  72 101 132 165 203 249 297
#     4   9  15  25  40  62  93 127 162 200 240 285
#     4   9  17  31  52  75  98 126 160 200 247 297
#     4   9  15  23  36  56  88 132 171 198 235 288
#
# _framework density 22.952755
#
# number of rings (size 3 to 8) (size 9 to 14) (size 15 to 20)
#    0.000    2.692    0.769    1.846    0.000    6.462 
#    0.000    4.615    0.000    0.462    0.000    2.692 
#    0.000    1.846    0.000    4.000    0.000    4.615 
#
# Total GULP energy -290030.253979 kJ/mol
# GULP energy per Si atom -5577.504884 kJ/mol
# Density = 2.290051 g / cm^3
# Si number density = 22.952755 Si / 1000 Ang^3
#
#
#
# Elastic Constant Matrix: (Units=GPa)
#
#
# Indices 1 2 3 4 5 6 
#
# 1 82.2149 -3.8205 0.6002 0.0000 0.0000 0.0000
# 2 -3.8205 22.7188 19.7757 0.0000 0.0000 0.0000
# 3 0.6002 19.7757 123.3886 0.0000 0.0000 0.0000
# 4 0.0000 0.0000 0.0000 28.2587 0.0000 0.0000
# 5 0.0000 0.0000 0.0000 0.0000 -220.8124 0.0000
# 6 0.0000 0.0000 0.0000 0.0000 0.0000 -101.8664
#
#
#
# Elastic Compliance Matrix: (Units=1/GPa)
#
#
# Indices 1 2 3 4 5 6 
#
# 1 0.012281 0.002460 -0.000454 0.000000 0.000000 0.000000
# 2 0.002460 0.051646 -0.008289 0.000000 0.000000 0.000000
# 3 -0.000454 -0.008289 0.009435 0.000000 0.000000 0.000000
# 4 0.000000 0.000000 0.000000 0.035387 0.000000 0.000000
# 5 0.000000 0.000000 0.000000 0.000000 -0.004529 0.000000
# 6 0.000000 0.000000 0.000000 0.000000 0.000000 -0.009817
#
#
# Mechanical properties :
#
#
# Convention : Reuss Voigt Hill
#
# Bulk Modulus (GPa) = 16.44845 29.04814 22.74829
# Shear Modulus (GPa) = 39.29739 -44.76624 -2.73442
#
# Velocity S-wave (km/s) = 4.14224 -4.42108 -1.09266
# Velocity P-wave (km/s) = 5.48264 3.65762 2.88800
#
# Compressibility (1/GPa) = 0.06079600
#
# Stress axis : x y z
#
# Youngs Moduli (GPa) = 81.42729 19.36268 105.98577
#
# Poissons Ratio (x) = -0.04764 0.04813
# Poissons Ratio (y) = -0.20035 0.87855
# Poissons Ratio (z) = 0.03698 0.16050
#
# Static dielectric constant tensor:
#      x y z
#    x 1.953460 0.000000 0.000000 
#    y 0.000000 1.802870 0.000000 
#    z 0.000000 0.000000 2.306290 
# 
# From -- ./inp_files/10975.got.cif
#   From: 2010.05.17/outbox.cif.g08.bks.cpg/sg47_6_cif.got.tgz:10975.got - 2010.06.03 20:15:42.
