data_PCOD9384842
_publ_section_title
;
Structure prediction by ZEFSAII (Michael W. Deem and Ramdas Pophale) SiO2 
 PCOD9384842
Probable space group: P M M M
;
_chemical_formula_sum "Si O2"
_cell_formula_units_Z 52
_cell_length_a 11.021403
_cell_length_b 9.124887
_cell_length_c 29.906116
_cell_angle_alpha 90.000000
_cell_angle_beta 90.000000
_cell_angle_gamma 90.000000
_cell_volume 3007.629883
_symmetry_space_group_name_H-M "P M M M"
_symmetry_group_IT_number 47
_symmetry_cell_setting 'orthorhombic'
loop_
_space_group_symop_operation_xyz
x,y,z
-x,-y,z
x,-y,-z
-x,y,-z
-x,-y,-z
x,y,-z
-x,y,z
x,-y,z
loop_
_atom_site_type_symbol
_atom_site_label
_atom_site_fract_x
_atom_site_fract_y
_atom_site_fract_z
Si Si1 0.146500 0.832654 0.198894
Si Si2 0.000000 0.824377 0.447414
Si Si3 0.854641 0.825662 0.298587
Si Si4 0.857409 0.675369 0.106888
Si Si5 0.643595 0.164291 0.550020
Si Si6 0.361873 0.174565 0.053563
Si Si7 0.794007 0.671154 0.388448
O O1 0.187550 0.785457 0.248414
O O2 0.172612 0.729215 0.157208
O O3 0.000000 0.839073 0.202030
O O4 0.188417 0.000000 0.190299
O O5 0.888077 0.756983 0.420256
O O6 0.000000 0.785320 0.500000
O O7 0.000000 0.000000 0.444142
O O8 0.797551 0.736075 0.338843
O O9 0.000000 0.802067 0.301441
O O10 0.834292 0.000000 0.304071
O O11 0.853084 0.500000 0.103784
O O12 0.752709 0.745319 0.076023
O O13 0.000000 0.719462 0.097415
O O14 0.692119 0.196652 0.500000
O O15 0.500000 0.154228 0.546384
O O16 0.671986 0.286412 0.586212
O O17 0.688245 0.000000 0.562671
O O18 0.500000 0.220416 0.067607
O O19 0.352271 0.000000 0.062398
O O20 0.355721 0.195120 0.000000
O O21 0.820625 0.500000 0.387863
#
# Coordination Sequence:
#
# PCOD9384842 Si02
#       7
#     8   4   8   8   8   8   8
#     4   8  15  29  50  74  98 131 174 216 254 295
#     4  11  23  37  51  67  95 135 171 201 236 287
#     4   9  17  31  51  72  98 134 172 206 243 297
#     4  10  20  32  49  78 113 145 176 217 271 325
#     4   9  19  37  58  74  89 119 164 204 239 289
#     4   9  19  36  56  77 103 140 187 233 273 317
#     4  12  23  32  48  76 105 130 156 196 252 303
#
# _framework density 17.289361
#
# number of rings (size 3 to 8) (size 9 to 14) (size 15 to 20)
#    0.000    2.385    0.769    4.385    0.000    5.538 
#    0.000    4.615    0.000    0.923    0.000    6.462 
#    0.000    0.000    0.000    0.000    0.000    0.000 
#
# Total GULP energy -289628.856769 kJ/mol
# GULP energy per Si atom -5569.785707 kJ/mol
# Density = 1.725001 g / cm^3
# Si number density = 17.289361 Si / 1000 Ang^3
#
#
#
# Elastic Constant Matrix: (Units=GPa)
#
#
# Indices 1 2 3 4 5 6 
#
# 1 73.8055 39.5622 49.5722 0.0000 0.0000 0.0000
# 2 39.5622 61.8495 54.7052 0.0000 0.0000 0.0000
# 3 49.5722 54.7052 102.9659 0.0000 0.0000 0.0000
# 4 0.0000 0.0000 0.0000 -16.7044 0.0000 0.0000
# 5 0.0000 0.0000 0.0000 0.0000 -59.3074 0.0000
# 6 0.0000 0.0000 0.0000 0.0000 0.0000 18.8290
#
#
#
# Elastic Compliance Matrix: (Units=1/GPa)
#
#
# Indices 1 2 3 4 5 6 
#
# 1 0.022419 -0.009043 -0.005989 0.000000 0.000000 0.000000
# 2 -0.009043 0.034150 -0.013790 0.000000 0.000000 0.000000
# 3 -0.005989 -0.013790 0.019922 0.000000 0.000000 0.000000
# 4 0.000000 0.000000 0.000000 -0.059865 0.000000 0.000000
# 5 0.000000 0.000000 0.000000 0.000000 -0.016861 0.000000
# 6 0.000000 0.000000 0.000000 0.000000 0.000000 0.053110
#
#
# Mechanical properties :
#
#
# Convention : Reuss Voigt Hill
#
# Bulk Modulus (GPa) = 53.05979 58.47778 55.76879
# Shear Modulus (GPa) = 42.80802 -5.11782 18.84510
#
# Velocity S-wave (km/s) = 4.98131 -1.72236 3.30507
# Velocity P-wave (km/s) = 7.99003 5.47184 6.84769
#
# Compressibility (1/GPa) = 0.01884666
#
# Stress axis : x y z
#
# Youngs Moduli (GPa) = 44.60469 29.28274 50.19678
#
# Poissons Ratio (x) = 0.26482 0.30062
# Poissons Ratio (y) = 0.40338 0.69220
# Poissons Ratio (z) = 0.26713 0.40380
#
# Static dielectric constant tensor:
#      x y z
#    x 1.688750 0.000000 0.000000 
#    y 0.000000 1.584050 0.000000 
#    z 0.000000 0.000000 1.589680 
# 
# From -- ./inp_files/33564.got.cif
#   From: 2010.05.17/outbox.cif.g08.bks.cpg/sg47_17_cif.got.tgz:33564.got - 2010.06.03 20:15:42.
