data_PCOD9384787
_publ_section_title
;
Structure prediction by ZEFSAII (Michael W. Deem and Ramdas Pophale) SiO2 
 PCOD9384787
Probable space group: P M M M
;
_chemical_formula_sum "Si O2"
_cell_formula_units_Z 64
_cell_length_a 7.492341
_cell_length_b 20.766165
_cell_length_c 19.203656
_cell_angle_alpha 90.000000
_cell_angle_beta 90.000000
_cell_angle_gamma 90.000000
_cell_volume 2987.842864
_symmetry_space_group_name_H-M "P M M M"
_symmetry_group_IT_number 47
_symmetry_cell_setting 'orthorhombic'
loop_
_space_group_symop_operation_xyz
x,y,z
-x,-y,z
x,-y,-z
-x,y,-z
-x,-y,-z
x,y,-z
-x,y,z
x,-y,z
loop_
_atom_site_type_symbol
_atom_site_label
_atom_site_fract_x
_atom_site_fract_y
_atom_site_fract_z
Si Si1 0.791701 0.178396 0.421986
Si Si2 0.717846 0.425978 0.921173
Si Si3 0.782240 0.073345 0.313594
Si Si4 0.709519 0.683735 0.819012
Si Si5 0.215841 0.427365 0.580262
Si Si6 0.216143 0.799915 0.921724
Si Si7 0.782387 0.072608 0.154108
Si Si8 0.705991 0.301438 0.664755
O O1 0.714823 0.179061 0.500000
O O2 0.715825 0.125649 0.368572
O O3 0.785749 0.248238 0.386377
O O4 0.000000 0.161542 0.428710
O O5 0.500000 0.424368 0.921116
O O6 0.770108 0.500000 0.908292
O O7 0.783299 0.376174 0.863382
O O8 0.773279 0.408052 0.000000
O O9 0.727473 0.086694 0.233876
O O10 0.000000 0.075148 0.312789
O O11 0.730837 0.000000 0.331062
O O12 0.500000 0.669268 0.808117
O O13 0.725475 0.746347 0.866973
O O14 0.786214 0.696054 0.742305
O O15 0.270646 0.415712 0.500000
O O16 0.271738 0.500000 0.599550
O O17 0.281810 0.371509 0.630195
O O18 0.000000 0.425938 0.581505
O O19 0.275638 0.870366 0.896267
O O20 0.000000 0.799739 0.921927
O O21 0.277321 0.785528 0.000000
O O22 0.000000 0.072202 0.153280
O O23 0.725105 0.000000 0.136027
O O24 0.500000 0.282150 0.671169
#
# Coordination Sequence:
#
# PCOD9384787 Si02
#       8
#     8   8   8   8   8   8   8   8
#     4  10  20  33  51  74 100 133 169 206 255 311
#     4   8  14  27  49  73  93 117 153 194 233 277
#     4   8  14  26  46  72  99 127 163 207 252 300
#     4  10  21  35  51  72  99 133 169 204 246 296
#     4   9  19  37  59  80 103 134 171 208 250 305
#     4  10  20  32  49  75 103 131 166 208 251 295
#     4   8  14  26  45  69  98 131 163 197 243 297
#     4  11  23  35  50  75 104 135 173 215 255 296
#
# _framework density 21.420134999999998
#
# number of rings (size 3 to 8) (size 9 to 14) (size 15 to 20)
#    0.000    2.750    0.000    3.375    0.000    6.000 
#    0.000    4.375    0.000    1.125    0.000    7.000 
#    0.000    0.000    0.000    0.000    0.000    0.000 
#
# Total GULP energy -357332.464207 kJ/mol
# GULP energy per Si atom -5583.319753 kJ/mol
# Density = 2.137138 g / cm^3
# Si number density = 21.420135 Si / 1000 Ang^3
#
#
#
# Elastic Constant Matrix: (Units=GPa)
#
#
# Indices 1 2 3 4 5 6 
#
# 1 55.7732 -16.2154 -8.4588 0.0000 0.0000 0.0000
# 2 -16.2154 79.3351 45.7968 0.0000 0.0000 0.0000
# 3 -8.4588 45.7968 98.5723 0.0000 0.0000 0.0000
# 4 0.0000 0.0000 0.0000 41.9976 0.0000 0.0000
# 5 0.0000 0.0000 0.0000 0.0000 19.5384 0.0000
# 6 0.0000 0.0000 0.0000 0.0000 0.0000 23.1874
#
#
#
# Elastic Compliance Matrix: (Units=1/GPa)
#
#
# Indices 1 2 3 4 5 6 
#
# 1 0.019067 0.004035 -0.000238 0.000000 0.000000 0.000000
# 2 0.004035 0.018078 -0.008053 0.000000 0.000000 0.000000
# 3 -0.000238 -0.008053 0.013866 0.000000 0.000000 0.000000
# 4 0.000000 0.000000 0.000000 0.023811 0.000000 0.000000
# 5 0.000000 0.000000 0.000000 0.000000 0.051181 0.000000
# 6 0.000000 0.000000 0.000000 0.000000 0.000000 0.043127
#
#
# Mechanical properties :
#
#
# Convention : Reuss Voigt Hill
#
# Bulk Modulus (GPa) = 23.53090 30.65841 27.09465
# Shear Modulus (GPa) = 26.06771 31.11521 28.59146
#
# Velocity S-wave (km/s) = 3.49230 3.81545 3.65745
# Velocity P-wave (km/s) = 5.22214 5.80984 5.52381
#
# Compressibility (1/GPa) = 0.04249731
#
# Stress axis : x y z
#
# Youngs Moduli (GPa) = 52.44766 55.31605 72.12025
#
# Poissons Ratio (x) = -0.22318 0.01719
# Poissons Ratio (y) = -0.21161 0.58077
# Poissons Ratio (z) = 0.01250 0.44545
#
# Static dielectric constant tensor:
#      x y z
#    x 1.853070 0.000000 0.000000 
#    y 0.000000 1.734470 0.000000 
#    z 0.000000 0.000000 1.765370 
# 
# From -- ./inp_files/27032.got.cif
#   From: 2010.05.17/outbox.cif.g08.bks.cpg/sg47_14_cif.got.tgz:27032.got - 2010.06.03 20:15:42.
