data_PCOD9384951
_publ_section_title
;
Structure prediction by ZEFSAII (Michael W. Deem and Ramdas Pophale) SiO2 
 PCOD9384951
Probable space group: P M M M
;
_chemical_formula_sum "Si O2"
_cell_formula_units_Z 48
_cell_length_a 33.187096
_cell_length_b 8.704276
_cell_length_c 7.332644
_cell_angle_alpha 90.000000
_cell_angle_beta 90.000000
_cell_angle_gamma 90.000000
_cell_volume 2118.178256
_symmetry_space_group_name_H-M "P M M M"
_symmetry_group_IT_number 47
_symmetry_cell_setting 'orthorhombic'
loop_
_space_group_symop_operation_xyz
x,y,z
-x,-y,z
x,-y,-z
-x,y,-z
-x,-y,-z
x,y,-z
-x,y,z
x,-y,z
loop_
_atom_site_type_symbol
_atom_site_label
_atom_site_fract_x
_atom_site_fract_y
_atom_site_fract_z
Si Si1 0.167990 0.671794 0.782287
Si Si2 0.587635 0.825792 0.221911
Si Si3 0.452772 0.500000 0.220555
Si Si4 0.000000 0.676377 0.722885
Si Si5 0.668764 0.673134 0.778277
Si Si6 0.917222 0.171708 0.282148
Si Si7 0.750511 0.173974 0.777407
O O1 0.171051 0.500000 0.709792
O O2 0.123592 0.736314 0.750398
O O3 0.205491 0.771858 0.715091
O O4 0.172682 0.665269 0.000000
O O5 0.565236 0.666653 0.280613
O O6 0.634124 0.792849 0.273531
O O7 0.575288 0.000000 0.280530
O O8 0.584723 0.827702 0.000000
O O9 0.500000 0.500000 0.262281
O O10 0.447253 0.500000 0.000000
O O11 0.958697 0.754613 0.785619
O O12 0.000000 0.500000 0.777063
O O13 0.000000 0.681107 0.500000
O O14 0.658446 0.500000 0.720227
O O15 0.713408 0.720161 0.719122
O O16 0.668939 0.672073 0.000000
O O17 0.921656 0.163705 0.500000
O O18 0.912377 0.000000 0.210747
O O19 0.742890 0.000000 0.721561
O O20 0.750687 0.176706 0.000000
#
# Coordination Sequence:
#
# PCOD9384951 Si02
#       7
#     8   8   4   4   8   8   8
#     4  10  20  33  48  68  95 125 154 186 228 276
#     4   9  15  22  31  42  56  77 108 148 196 248
#     4   9  16  24  30  38  54  76 106 148 199 252
#     4   9  17  31  52  75  96 119 150 188 226 265
#     4   9  14  21  33  48  67  90 119 157 199 246
#     4  10  20  34  53  75  97 122 153 189 228 270
#     4   9  16  25  38  57  80 107 137 168 208 260
#
# _framework density 22.660981
#
# number of rings (size 3 to 8) (size 9 to 14) (size 15 to 20)
#    0.000    2.667    0.833    2.250    0.000    7.333 
#    0.000    2.083    0.000    2.500    0.000    0.000 
#    0.000    0.000    0.000    0.000    0.000    0.000 
#
# Total GULP energy -267972.062065 kJ/mol
# GULP energy per Si atom -5582.751293 kJ/mol
# Density = 2.260940 g / cm^3
# Si number density = 22.660981 Si / 1000 Ang^3
#
#
#
# Elastic Constant Matrix: (Units=GPa)
#
#
# Indices 1 2 3 4 5 6 
#
# 1 127.0886 62.2736 -2.0994 0.0000 0.0000 0.0000
# 2 62.2736 167.0622 2.7922 0.0000 0.0000 0.0000
# 3 -2.0994 2.7922 86.8370 0.0000 0.0000 0.0000
# 4 0.0000 0.0000 0.0000 -7.7445 0.0000 0.0000
# 5 0.0000 0.0000 0.0000 0.0000 -66.7201 0.0000
# 6 0.0000 0.0000 0.0000 0.0000 0.0000 72.6390
#
#
#
# Elastic Compliance Matrix: (Units=1/GPa)
#
#
# Indices 1 2 3 4 5 6 
#
# 1 0.009637 -0.003598 0.000349 0.000000 0.000000 0.000000
# 2 -0.003598 0.007332 -0.000323 0.000000 0.000000 0.000000
# 3 0.000349 -0.000323 0.011535 0.000000 0.000000 0.000000
# 4 0.000000 0.000000 0.000000 -0.129124 0.000000 0.000000
# 5 0.000000 0.000000 0.000000 0.000000 -0.014988 0.000000
# 6 0.000000 0.000000 0.000000 0.000000 0.000000 0.013767
#
#
# Mechanical properties :
#
#
# Convention : Reuss Voigt Hill
#
# Bulk Modulus (GPa) = 46.81669 56.32452 51.57061
# Shear Modulus (GPa) = -57.09317 20.83631 -18.12843
#
# Velocity S-wave (km/s) = -5.02486 3.03558 -2.83147
# Velocity P-wave (km/s) = 3.60016 6.09882 3.48098
#
# Compressibility (1/GPa) = 0.02135990
#
# Stress axis : x y z
#
# Youngs Moduli (GPa) = 103.76205 136.37986 86.69539
#
# Poissons Ratio (x) = 0.49073 -0.03023
# Poissons Ratio (y) = 0.37336 0.02798
# Poissons Ratio (z) = -0.03618 0.04402
#
# Static dielectric constant tensor:
#      x y z
#    x 1.849430 0.000000 0.000000 
#    y 0.000000 1.836540 0.000000 
#    z 0.000000 0.000000 2.237280 
# 
# From -- ./inp_files/13884.got.cif
#   From: 2010.05.17/outbox.cif.g08.bks.cpg/sg47_7_cif.got.tgz:13884.got - 2010.06.03 20:15:42.
