data_PCOD9384539
_publ_section_title
;
Structure prediction by ZEFSAII (Michael W. Deem and Ramdas Pophale) SiO2 
 PCOD9384539
Probable space group: P M M M
;
_chemical_formula_sum "Si O2"
_cell_formula_units_Z 56
_cell_length_a 7.604721
_cell_length_b 19.174717
_cell_length_c 19.829831
_cell_angle_alpha 90.000000
_cell_angle_beta 90.000000
_cell_angle_gamma 90.000000
_cell_volume 2891.553694
_symmetry_space_group_name_H-M "P M M M"
_symmetry_group_IT_number 47
_symmetry_cell_setting 'orthorhombic'
loop_
_space_group_symop_operation_xyz
x,y,z
-x,-y,z
x,-y,-z
-x,y,-z
-x,-y,-z
x,y,-z
-x,y,z
x,-y,z
loop_
_atom_site_type_symbol
_atom_site_label
_atom_site_fract_x
_atom_site_fract_y
_atom_site_fract_z
Si Si1 0.285085 0.919917 0.077080
Si Si2 0.705529 0.166107 0.202232
Si Si3 0.791225 0.415483 0.927861
Si Si4 0.211884 0.579367 0.218264
Si Si5 0.292667 0.712779 0.702905
Si Si6 0.791628 0.796936 0.575160
Si Si7 0.213732 0.921086 0.668951
O O1 0.500000 0.919547 0.078835
O O2 0.220517 0.865086 0.132852
O O3 0.232004 0.000000 0.092616
O O4 0.233048 0.904178 0.000000
O O5 0.500000 0.180816 0.189109
O O6 0.783017 0.234151 0.240029
O O7 0.720990 0.106162 0.258913
O O8 0.776599 0.500000 0.927135
O O9 0.720682 0.393625 0.854950
O O10 0.000000 0.399720 0.928920
O O11 0.716993 0.390996 0.000000
O O12 0.273893 0.500000 0.229470
O O13 0.257062 0.634274 0.275324
O O14 0.000000 0.576211 0.213288
O O15 0.500000 0.724600 0.702319
O O16 0.230887 0.735076 0.628995
O O17 0.719923 0.785677 0.500000
O O18 0.722773 0.866165 0.612829
O O19 0.000000 0.807317 0.568761
O O20 0.000000 0.918872 0.670709
O O21 0.268018 0.000000 0.655669
#
# Coordination Sequence:
#
# PCOD9384539 Si02
#       7
#     8   8   8   8   8   8   8
#     4   8  13  22  39  62  84 111 155 206 241 261
#     4   9  17  29  44  62  87 121 159 193 226 270
#     4   7  10  19  38  64  90 114 144 183 222 259
#     4   9  17  30  50  73  94 120 156 195 232 273
#     4  10  20  32  47  69  96 124 152 185 230 280
#     4   9  18  33  52  71  92 122 156 186 220 267
#     4   9  17  28  44  69  97 121 147 183 227 270
#
# _framework density 19.366751000000001
#
# number of rings (size 3 to 8) (size 9 to 14) (size 15 to 20)
#    0.000    3.286    0.000    2.571    0.000    2.286 
#    0.000    2.143    0.000    2.143    0.000   11.000 
#    0.000    0.000    0.000    0.000    0.000    0.000 
#
# Total GULP energy -311892.455792 kJ/mol
# GULP energy per Si atom -5569.508139 kJ/mol
# Density = 1.932267 g / cm^3
# Si number density = 19.366751 Si / 1000 Ang^3
#
#
#
# Elastic Constant Matrix: (Units=GPa)
#
#
# Indices 1 2 3 4 5 6 
#
# 1 36.6833 -9.1380 -6.3775 0.0000 0.0000 0.0000
# 2 -9.1380 70.4948 58.0100 0.0000 0.0000 0.0000
# 3 -6.3775 58.0100 135.5649 0.0000 0.0000 0.0000
# 4 0.0000 0.0000 0.0000 12.1364 0.0000 0.0000
# 5 0.0000 0.0000 0.0000 0.0000 -5.5638 0.0000
# 6 0.0000 0.0000 0.0000 0.0000 0.0000 -12.4509
#
#
#
# Elastic Compliance Matrix: (Units=1/GPa)
#
#
# Indices 1 2 3 4 5 6 
#
# 1 0.028182 0.003955 -0.000366 0.000000 0.000000 0.000000
# 2 0.003955 0.022450 -0.009421 0.000000 0.000000 0.000000
# 3 -0.000366 -0.009421 0.011391 0.000000 0.000000 0.000000
# 4 0.000000 0.000000 0.000000 0.082397 0.000000 0.000000
# 5 0.000000 0.000000 0.000000 0.000000 -0.179733 0.000000
# 6 0.000000 0.000000 0.000000 0.000000 0.000000 -0.080315
#
#
# Mechanical properties :
#
#
# Convention : Reuss Voigt Hill
#
# Bulk Modulus (GPa) = 19.85796 36.41466 28.13631
# Shear Modulus (GPa) = -57.35396 12.17423 -22.58987
#
# Velocity S-wave (km/s) = -5.44784 2.50994 -3.41900
# Velocity P-wave (km/s) = 5.41258 5.21950 1.01312
#
# Compressibility (1/GPa) = 0.05035765
#
# Stress axis : x y z
#
# Youngs Moduli (GPa) = 35.48388 44.54262 87.79189
#
# Poissons Ratio (x) = -0.17615 0.03217
# Poissons Ratio (y) = -0.14033 0.82707
# Poissons Ratio (z) = 0.01300 0.41963
#
# Static dielectric constant tensor:
#      x y z
#    x 1.727250 0.000000 0.000000 
#    y 0.000000 1.676380 0.000000 
#    z 0.000000 0.000000 1.711650 
# 
# From -- ./inp_files/29886.got.cif
#   From: 2010.05.17/outbox.cif.g08.bks.cpg/sg47_15_cif.got.tgz:29886.got - 2010.06.03 20:15:42.
