data_PCOD9384713
_publ_section_title
;
Structure prediction by ZEFSAII (Michael W. Deem and Ramdas Pophale) SiO2 
 PCOD9384713
Probable space group: P M M M
;
_chemical_formula_sum "Si O2"
_cell_formula_units_Z 44
_cell_length_a 29.458866
_cell_length_b 9.499415
_cell_length_c 8.847902
_cell_angle_alpha 90.000000
_cell_angle_beta 90.000000
_cell_angle_gamma 90.000000
_cell_volume 2476.014535
_symmetry_space_group_name_H-M "P M M M"
_symmetry_group_IT_number 47
_symmetry_cell_setting 'orthorhombic'
loop_
_space_group_symop_operation_xyz
x,y,z
-x,-y,z
x,-y,-z
-x,y,-z
-x,-y,-z
x,y,-z
-x,y,z
x,-y,z
loop_
_atom_site_type_symbol
_atom_site_label
_atom_site_fract_x
_atom_site_fract_y
_atom_site_fract_z
Si Si1 0.050915 0.662733 0.183935
Si Si2 0.411532 0.335091 0.682105
Si Si3 0.778192 0.665366 0.319483
Si Si4 0.500000 0.837961 0.315524
Si Si5 0.861563 0.836573 0.182898
Si Si6 0.683313 0.328923 0.825751
O O1 0.058705 0.500000 0.228421
O O2 0.091845 0.761518 0.234086
O O3 0.000000 0.704239 0.232797
O O4 0.050737 0.665346 0.000000
O O5 0.408436 0.328291 0.500000
O O6 0.418240 0.500000 0.722246
O O7 0.454669 0.244254 0.732150
O O8 0.363935 0.284065 0.750659
O O9 0.779191 0.674900 0.500000
O O10 0.783643 0.500000 0.277400
O O11 0.818626 0.754411 0.248297
O O12 0.729032 0.714394 0.259811
O O13 0.500000 0.836310 0.500000
O O14 0.500000 0.000000 0.266897
O O15 0.860959 0.000000 0.226368
O O16 0.859956 0.828759 0.000000
O O17 0.682752 0.500000 0.819848
O O18 0.685408 0.285775 0.000000
#
# Coordination Sequence:
#
# PCOD9384713 Si02
#       6
#     8   8   8   4   8   8
#     4   8  14  26  46  72 100 130 165 204 245 290
#     4   9  16  28  48  72  96 123 158 198 237 280
#     4  10  20  34  53  75  98 128 167 208 250 297
#     4   9  17  29  46  69  96 126 160 195 232 278
#     4  10  20  32  48  73 104 136 168 203 246 295
#     4   9  17  30  50  75  99 123 156 201 249 293
#
# _framework density 17.770492999999998
#
# number of rings (size 3 to 8) (size 9 to 14) (size 15 to 20)
#    0.000    2.818    0.000    2.455    0.000    5.818 
#    0.000    3.182    0.000    7.091    0.000    3.818 
#    0.000    0.000    0.000    0.000    0.000    0.000 
#
# Total GULP energy -245305.200762 kJ/mol
# GULP energy per Si atom -5575.118199 kJ/mol
# Density = 1.773005 g / cm^3
# Si number density = 17.770493 Si / 1000 Ang^3
#
#
#
# Elastic Constant Matrix: (Units=GPa)
#
#
# Indices 1 2 3 4 5 6 
#
# 1 216.0519 105.3858 41.9652 0.0000 0.0000 0.0000
# 2 105.3858 92.6775 31.9018 0.0000 0.0000 0.0000
# 3 41.9652 31.9018 18.5779 0.0000 0.0000 0.0000
# 4 0.0000 0.0000 0.0000 13.4947 0.0000 0.0000
# 5 0.0000 0.0000 0.0000 0.0000 34.2989 0.0000
# 6 0.0000 0.0000 0.0000 0.0000 0.0000 -4.0464
#
#
#
# Elastic Compliance Matrix: (Units=1/GPa)
#
#
# Indices 1 2 3 4 5 6 
#
# 1 0.010875 -0.009563 -0.008144 0.000000 0.000000 0.000000
# 2 -0.009563 0.034797 -0.038152 0.000000 0.000000 0.000000
# 3 -0.008144 -0.038152 0.137738 0.000000 0.000000 0.000000
# 4 0.000000 0.000000 0.000000 0.074103 0.000000 0.000000
# 5 0.000000 0.000000 0.000000 0.000000 0.029155 0.000000
# 6 0.000000 0.000000 0.000000 0.000000 0.000000 -0.247136
#
#
# Mechanical properties :
#
#
# Convention : Reuss Voigt Hill
#
# Bulk Modulus (GPa) = 13.94845 76.20143 45.07494
# Shear Modulus (GPa) = 28.54729 18.61973 23.58351
#
# Velocity S-wave (km/s) = 4.01239 3.24047 3.64691
# Velocity P-wave (km/s) = 5.41590 7.54817 6.56913
#
# Compressibility (1/GPa) = 0.07169254
#
# Stress axis : x y z
#
# Youngs Moduli (GPa) = 91.95483 28.73811 7.26015
#
# Poissons Ratio (x) = 0.27482 0.05913
# Poissons Ratio (y) = 0.87934 0.27699
# Poissons Ratio (z) = 0.74888 1.09642
#
# Static dielectric constant tensor:
#      x y z
#    x 1.594390 0.000000 0.000000 
#    y 0.000000 1.591120 0.000000 
#    z 0.000000 0.000000 1.602720 
# 
# From -- ./inp_files/2031.got.cif
#   From: 2010.05.17/outbox.cif.g08.bks.cpg/sg47_2_cif.got.tgz:2031.got - 2010.06.03 20:15:42.
