data_PCOD9384388
_publ_section_title
;
Structure prediction by ZEFSAII (Michael W. Deem and Ramdas Pophale) SiO2 
 PCOD9384388
Probable space group: P M M M
;
_chemical_formula_sum "Si O2"
_cell_formula_units_Z 48
_cell_length_a 32.451790
_cell_length_b 7.349103
_cell_length_c 9.441559
_cell_angle_alpha 90.000000
_cell_angle_beta 90.000000
_cell_angle_gamma 90.000000
_cell_volume 2251.732014
_symmetry_space_group_name_H-M "P M M M"
_symmetry_group_IT_number 47
_symmetry_cell_setting 'orthorhombic'
loop_
_space_group_symop_operation_xyz
x,y,z
-x,-y,z
x,-y,-z
-x,y,-z
-x,-y,-z
x,y,-z
-x,y,z
x,-y,z
loop_
_atom_site_type_symbol
_atom_site_label
_atom_site_fract_x
_atom_site_fract_y
_atom_site_fract_z
Si Si1 0.046244 0.221513 0.836483
Si Si2 0.715527 0.784297 0.340232
Si Si3 0.544337 0.282610 0.170814
Si Si4 0.206019 0.777603 0.837105
Si Si5 0.633890 0.718738 0.837596
Si Si6 0.874497 0.777900 0.662590
O O1 0.083107 0.281758 0.736099
O O2 0.000000 0.278614 0.795129
O O3 0.046388 0.000000 0.834759
O O4 0.053369 0.275079 0.000000
O O5 0.714970 0.710780 0.500000
O O6 0.753231 0.714551 0.245323
O O7 0.672243 0.760901 0.261147
O O8 0.722455 0.000000 0.351311
O O9 0.500000 0.210788 0.222781
O O10 0.543624 0.500000 0.196698
O O11 0.589200 0.214568 0.217695
O O12 0.544759 0.258548 0.000000
O O13 0.164999 0.721722 0.753884
O O14 0.206252 0.000000 0.838472
O O15 0.205862 0.719048 0.000000
O O16 0.630919 0.500000 0.844854
O O17 0.640505 0.782793 0.000000
O O18 0.871369 0.720049 0.500000
O O19 0.874672 0.000000 0.662852
#
# Coordination Sequence:
#
# PCOD9384388 Si02
#       6
#     8   8   8   8   8   8
#     4   8  13  20  28  38  55  82 117 156 197 241
#     4  10  20  32  45  62  86 116 149 183 219 260
#     4   7  10  19  38  64  90 112 136 171 213 252
#     4   9  16  26  40  55  71  95 130 171 212 252
#     4   9  17  29  47  71  94 115 143 179 218 261
#     4   9  15  21  30  45  65  88 117 157 203 249
#
# _framework density 21.316925000000001
#
# number of rings (size 3 to 8) (size 9 to 14) (size 15 to 20)
#    0.000    3.333    0.000    3.500    0.000    5.667 
#    0.000    1.667    0.000    1.000    0.000    5.833 
#    0.000    0.000    0.000    0.000    0.000    0.833 
#
# Total GULP energy -267767.621268 kJ/mol
# GULP energy per Si atom -5578.492110 kJ/mol
# Density = 2.126841 g / cm^3
# Si number density = 21.316925 Si / 1000 Ang^3
#
#
#
# Elastic Constant Matrix: (Units=GPa)
#
#
# Indices 1 2 3 4 5 6 
#
# 1 256.7135 4.2361 144.7279 0.0000 0.0000 0.0000
# 2 4.2361 77.8141 6.5198 0.0000 0.0000 0.0000
# 3 144.7279 6.5198 166.4078 0.0000 0.0000 0.0000
# 4 0.0000 0.0000 0.0000 -2.0643 0.0000 0.0000
# 5 0.0000 0.0000 0.0000 0.0000 -13.2866 0.0000
# 6 0.0000 0.0000 0.0000 0.0000 0.0000 8.0590
#
#
#
# Elastic Compliance Matrix: (Units=1/GPa)
#
#
# Indices 1 2 3 4 5 6 
#
# 1 0.007644 0.000141 -0.006654 0.000000 0.000000 0.000000
# 2 0.000141 0.012896 -0.000628 0.000000 0.000000 0.000000
# 3 -0.006654 -0.000628 0.011821 0.000000 0.000000 0.000000
# 4 0.000000 0.000000 0.000000 -0.484436 0.000000 0.000000
# 5 0.000000 0.000000 0.000000 0.000000 -0.075264 0.000000
# 6 0.000000 0.000000 0.000000 0.000000 0.000000 0.124085
#
#
# Mechanical properties :
#
#
# Convention : Reuss Voigt Hill
#
# Bulk Modulus (GPa) = 55.31028 90.21144 72.76086
# Shear Modulus (GPa) = -13.05672 21.57173 4.25751
#
# Velocity S-wave (km/s) = -2.47757 3.18457 1.41477
# Velocity P-wave (km/s) = 4.22120 7.47884 6.07254
#
# Compressibility (1/GPa) = 0.01807982
#
# Stress axis : x y z
#
# Youngs Moduli (GPa) = 130.81445 77.54296 84.59465
#
# Poissons Ratio (x) = -0.01096 0.56290
# Poissons Ratio (y) = -0.01849 0.05314
# Poissons Ratio (z) = 0.87044 0.04871
#
# Static dielectric constant tensor:
#      x y z
#    x 1.769800 0.000000 0.000000 
#    y 0.000000 1.928610 0.000000 
#    z 0.000000 0.000000 1.713130 
# 
# From -- ./inp_files/14068.got.cif
#   From: 2010.05.17/outbox.cif.g08.bks.cpg/sg47_8_cif.got.tgz:14068.got - 2010.06.03 20:15:42.
