data_PCOD9384451
_publ_section_title
;
Structure prediction by ZEFSAII (Michael W. Deem and Ramdas Pophale) SiO2 
 PCOD9384451
Probable space group: P M M M
;
_chemical_formula_sum "Si O2"
_cell_formula_units_Z 52
_cell_length_a 25.050559
_cell_length_b 14.300529
_cell_length_c 8.134353
_cell_angle_alpha 90.000000
_cell_angle_beta 90.000000
_cell_angle_gamma 90.000000
_cell_volume 2914.020078
_symmetry_space_group_name_H-M "P M M M"
_symmetry_group_IT_number 47
_symmetry_cell_setting 'orthorhombic'
loop_
_space_group_symop_operation_xyz
x,y,z
-x,-y,z
x,-y,-z
-x,y,-z
-x,-y,-z
x,y,-z
-x,y,z
x,-y,z
loop_
_atom_site_type_symbol
_atom_site_label
_atom_site_fract_x
_atom_site_fract_y
_atom_site_fract_z
Si Si1 0.170604 0.894391 0.305679
Si Si2 0.616360 0.110881 0.698336
Si Si3 0.500000 0.113512 0.303433
Si Si4 0.057562 0.109165 0.197427
Si Si5 0.672919 0.393286 0.201806
Si Si6 0.443387 0.386054 0.193901
Si Si7 0.724576 0.788344 0.194823
O O1 0.167333 0.902460 0.500000
O O2 0.114414 0.850153 0.249417
O O3 0.223842 0.838538 0.265206
O O4 0.174941 0.000000 0.233555
O O5 0.616816 0.120067 0.500000
O O6 0.557989 0.146416 0.760426
O O7 0.669050 0.159181 0.766795
O O8 0.619184 0.000000 0.735387
O O9 0.500000 0.129897 0.500000
O O10 0.500000 0.000000 0.283277
O O11 0.000000 0.148346 0.254352
O O12 0.058695 0.000000 0.251890
O O13 0.056735 0.109431 0.000000
O O14 0.682127 0.500000 0.252904
O O15 0.614283 0.359693 0.262256
O O16 0.716049 0.317846 0.254596
O O17 0.670584 0.393496 0.000000
O O18 0.500000 0.353979 0.267994
O O19 0.443204 0.500000 0.200824
O O20 0.444013 0.362032 0.000000
O O21 0.731162 0.786516 0.000000
#
# Coordination Sequence:
#
# PCOD9384451 Si02
#       7
#     8   8   4   8   8   8   8
#     4  10  20  32  46  65  92 128 164 192 216 251
#     4   9  17  31  49  64  81 110 147 183 220 269
#     4   7  12  26  47  63  74 101 146 184 215 261
#     4   8  14  26  45  69  97 127 155 184 220 257
#     4   8  15  28  42  57  81 112 144 178 222 278
#     4   7   9  16  33  53  71  95 126 159 202 262
#     4  11  21  30  43  66  91 116 146 186 234 273
#
# _framework density 17.844764000000001
#
# number of rings (size 3 to 8) (size 9 to 14) (size 15 to 20)
#    0.000    3.308    0.000    4.154    0.000    3.385 
#    1.385    1.923    0.000    3.231    0.000    0.000 
#    0.000    2.462    0.000    7.077    0.000    2.308 
#
# Total GULP energy -289551.016096 kJ/mol
# GULP energy per Si atom -5568.288771 kJ/mol
# Density = 1.780415 g / cm^3
# Si number density = 17.844764 Si / 1000 Ang^3
#
#
#
# Elastic Constant Matrix: (Units=GPa)
#
#
# Indices 1 2 3 4 5 6 
#
# 1 174.3834 48.2056 18.9902 0.0000 0.0000 0.0000
# 2 48.2056 43.6866 6.5236 0.0000 0.0000 0.0000
# 3 18.9902 6.5236 14.5623 0.0000 0.0000 0.0000
# 4 0.0000 0.0000 0.0000 -50.5724 0.0000 0.0000
# 5 0.0000 0.0000 0.0000 0.0000 25.4170 0.0000
# 6 0.0000 0.0000 0.0000 0.0000 0.0000 9.3710
#
#
#
# Elastic Compliance Matrix: (Units=1/GPa)
#
#
# Indices 1 2 3 4 5 6 
#
# 1 0.009012 -0.008777 -0.007821 0.000000 0.000000 0.000000
# 2 -0.008777 0.033079 -0.003373 0.000000 0.000000 0.000000
# 3 -0.007821 -0.003373 0.080381 0.000000 0.000000 0.000000
# 4 0.000000 0.000000 0.000000 -0.019774 0.000000 0.000000
# 5 0.000000 0.000000 0.000000 0.000000 0.039344 0.000000
# 6 0.000000 0.000000 0.000000 0.000000 0.000000 0.106712
#
#
# Mechanical properties :
#
#
# Convention : Reuss Voigt Hill
#
# Bulk Modulus (GPa) = 12.11677 42.23011 27.17344
# Shear Modulus (GPa) = 15.81253 7.43733 11.62493
#
# Velocity S-wave (km/s) = 2.98000 2.04373 2.55512
# Velocity P-wave (km/s) = 4.31803 5.41163 4.89546
#
# Compressibility (1/GPa) = 0.08253025
#
# Stress axis : x y z
#
# Youngs Moduli (GPa) = 110.95832 30.23099 12.44080
#
# Poissons Ratio (x) = 0.26533 0.09730
# Poissons Ratio (y) = 0.97386 0.04196
# Poissons Ratio (z) = 0.86780 0.10197
#
# Static dielectric constant tensor:
#      x y z
#    x 1.657750 0.000000 0.000000 
#    y 0.000000 1.643030 0.000000 
#    z 0.000000 0.000000 1.629430 
# 
# From -- ./inp_files/12540.got.cif
#   From: 2010.05.17/outbox.cif.g08.bks.cpg/sg47_7_cif.got.tgz:12540.got - 2010.06.03 20:15:42.
