data_PCOD9384484
_publ_section_title
;
Structure prediction by ZEFSAII (Michael W. Deem and Ramdas Pophale) SiO2 
 PCOD9384484
Probable space group: P M M M
;
_chemical_formula_sum "Si O2"
_cell_formula_units_Z 64
_cell_length_a 14.700501
_cell_length_b 29.603910
_cell_length_c 8.878495
_cell_angle_alpha 90.000000
_cell_angle_beta 90.000000
_cell_angle_gamma 90.000000
_cell_volume 3863.852736
_symmetry_space_group_name_H-M "P M M M"
_symmetry_group_IT_number 47
_symmetry_cell_setting 'orthorhombic'
loop_
_space_group_symop_operation_xyz
x,y,z
-x,-y,z
x,-y,-z
-x,y,-z
-x,-y,-z
x,y,-z
-x,y,z
x,-y,z
loop_
_atom_site_type_symbol
_atom_site_label
_atom_site_fract_x
_atom_site_fract_y
_atom_site_fract_z
Si Si1 0.605686 0.595066 0.679412
Si Si2 0.106794 0.735424 0.818523
Si Si3 0.389808 0.049911 0.324421
Si Si4 0.895496 0.367235 0.816899
Si Si5 0.607228 0.143813 0.179475
Si Si6 0.228774 0.449982 0.818312
Si Si7 0.719644 0.225271 0.320685
Si Si8 0.608771 0.307421 0.176743
O O1 0.616960 0.597542 0.500000
O O2 0.500000 0.585597 0.712332
O O3 0.672300 0.558571 0.750208
O O4 0.628014 0.643712 0.752363
O O5 0.131052 0.683675 0.772133
O O6 0.178270 0.768600 0.741997
O O7 0.000000 0.742696 0.782492
O O8 0.115489 0.738195 0.000000
O O9 0.364327 0.055761 0.500000
O O10 0.500000 0.048802 0.319621
O O11 0.363338 0.093498 0.228987
O O12 0.358292 0.000000 0.273804
O O13 0.833430 0.408382 0.764433
O O14 0.000000 0.374334 0.771499
O O15 0.893422 0.367397 0.000000
O O16 0.500000 0.149738 0.221557
O O17 0.669057 0.181053 0.258602
O O18 0.613248 0.148790 0.000000
O O19 0.194450 0.500000 0.778214
O O20 0.233428 0.447623 0.000000
O O21 0.719831 0.225084 0.500000
O O22 0.662801 0.268063 0.259077
O O23 0.500000 0.299552 0.189479
O O24 0.632972 0.307842 0.000000
#
# Coordination Sequence:
#
# PCOD9384484 Si02
#       8
#     8   8   8   8   8   8   8   8
#     4  10  21  36  52  69  90 119 156 195 235 278
#     4   9  18  34  55  74  93 123 163 203 242 288
#     4   8  14  26  44  65  92 129 171 213 256 299
#     4   8  15  30  52  75  96 118 146 182 225 274
#     4  10  20  32  46  67  98 136 177 217 253 291
#     4  10  20  32  49  74  99 123 152 186 225 271
#     4  12  23  32  47  71 101 134 164 199 244 293
#     4  10  20  34  52  72  95 124 158 196 237 284
#
# _framework density 16.563779
#
# number of rings (size 3 to 8) (size 9 to 14) (size 15 to 20)
#    0.000    2.375    0.000    4.500    0.000    6.000 
#    0.000    3.750    0.000    1.125    0.000    0.875 
#    0.000    0.500    0.000    5.250    0.000    2.500 
#
# Total GULP energy -357044.008552 kJ/mol
# GULP energy per Si atom -5578.812634 kJ/mol
# Density = 1.652608 g / cm^3
# Si number density = 16.563779 Si / 1000 Ang^3
#
#
#
# Elastic Constant Matrix: (Units=GPa)
#
#
# Indices 1 2 3 4 5 6 
#
# 1 64.6235 58.5990 34.3060 0.0000 0.0000 0.0000
# 2 58.5990 92.2273 36.2679 0.0000 0.0000 0.0000
# 3 34.3060 36.2679 43.9140 0.0000 0.0000 0.0000
# 4 0.0000 0.0000 0.0000 22.5604 0.0000 0.0000
# 5 0.0000 0.0000 0.0000 0.0000 14.7112 0.0000
# 6 0.0000 0.0000 0.0000 0.0000 0.0000 18.0226
#
#
#
# Elastic Compliance Matrix: (Units=1/GPa)
#
#
# Indices 1 2 3 4 5 6 
#
# 1 0.043265 -0.021027 -0.016433 0.000000 0.000000 0.000000
# 2 -0.021027 0.026278 -0.005276 0.000000 0.000000 0.000000
# 3 -0.016433 -0.005276 0.039966 0.000000 0.000000 0.000000
# 4 0.000000 0.000000 0.000000 0.044325 0.000000 0.000000
# 5 0.000000 0.000000 0.000000 0.000000 0.067975 0.000000
# 6 0.000000 0.000000 0.000000 0.000000 0.000000 0.055486
#
#
# Mechanical properties :
#
#
# Convention : Reuss Voigt Hill
#
# Bulk Modulus (GPa) = 41.60179 51.01228 46.30704
# Shear Modulus (GPa) = 13.48513 15.83164 14.65838
#
# Velocity S-wave (km/s) = 2.85640 3.09495 2.97807
# Velocity P-wave (km/s) = 6.00411 6.60576 6.31210
#
# Compressibility (1/GPa) = 0.02403743
#
# Stress axis : x y z
#
# Youngs Moduli (GPa) = 23.11349 38.05518 25.02115
#
# Poissons Ratio (x) = 0.80020 0.41116
# Poissons Ratio (y) = 0.48602 0.13200
# Poissons Ratio (z) = 0.37982 0.20076
#
# Static dielectric constant tensor:
#      x y z
#    x 1.559250 0.000000 0.000000 
#    y 0.000000 1.559020 0.000000 
#    z 0.000000 0.000000 1.550330 
# 
# From -- ./inp_files/8250.got.cif
#   From: 2010.05.17/outbox.cif.g08.bks.cpg/sg47_5_cif.got.tgz:8250.got - 2010.06.03 20:15:42.
