data_PCOD9384646
_publ_section_title
;
Structure prediction by ZEFSAII (Michael W. Deem and Ramdas Pophale) SiO2 
 PCOD9384646
Probable space group: P M M M
;
_chemical_formula_sum "Si O2"
_cell_formula_units_Z 48
_cell_length_a 32.308174
_cell_length_b 7.567946
_cell_length_c 9.442560
_cell_angle_alpha 90.000000
_cell_angle_beta 90.000000
_cell_angle_gamma 90.000000
_cell_volume 2308.767450
_symmetry_space_group_name_H-M "P M M M"
_symmetry_group_IT_number 47
_symmetry_cell_setting 'orthorhombic'
loop_
_space_group_symop_operation_xyz
x,y,z
-x,-y,z
x,-y,-z
-x,y,-z
-x,-y,-z
x,y,-z
-x,y,z
x,-y,z
loop_
_atom_site_type_symbol
_atom_site_label
_atom_site_fract_x
_atom_site_fract_y
_atom_site_fract_z
Si Si1 0.044480 0.712565 0.665181
Si Si2 0.453551 0.715478 0.336438
Si Si3 0.706899 0.716500 0.662761
Si Si4 0.214890 0.292022 0.840977
Si Si5 0.373993 0.716050 0.837467
Si Si6 0.135287 0.792466 0.338394
O O1 0.044930 0.770335 0.500000
O O2 0.043957 0.500000 0.666411
O O3 0.089048 0.766271 0.722975
O O4 0.000000 0.772706 0.726068
O O5 0.446371 0.767390 0.500000
O O6 0.500000 0.771441 0.295213
O O7 0.453409 0.500000 0.334432
O O8 0.416542 0.774727 0.236114
O O9 0.706750 0.774181 0.500000
O O10 0.707210 0.500000 0.660714
O O11 0.747740 0.779359 0.745326
O O12 0.665694 0.770569 0.746134
O O13 0.223648 0.500000 0.854527
O O14 0.171444 0.277595 0.760261
O O15 0.213308 0.217311 0.000000
O O16 0.374229 0.500000 0.837307
O O17 0.370844 0.772805 0.000000
O O18 0.136734 0.717764 0.500000
O O19 0.142126 0.000000 0.349550
#
# Coordination Sequence:
#
# PCOD9384646 Si02
#       6
#     8   8   8   8   8   8
#     4   8  14  26  46  72 100 129 161 197 235 273
#     4   8  13  20  28  38  56  87 128 171 214 262
#     4   9  16  26  41  59  78 102 135 178 227 275
#     4  10  20  33  49  68  90 118 154 195 238 283
#     4   9  15  21  30  46  69  95 126 169 219 269
#     4  10  20  32  48  72 100 129 160 193 232 280
#
# _framework density 20.790310999999999
#
# number of rings (size 3 to 8) (size 9 to 14) (size 15 to 20)
#    0.000    3.000    0.000    3.000    0.000    6.667 
#    0.000    3.333    0.000    0.500    0.000    3.500 
#    0.000    0.000    0.000    0.000    0.000    0.833 
#
# Total GULP energy -267714.021490 kJ/mol
# GULP energy per Si atom -5577.375448 kJ/mol
# Density = 2.074299 g / cm^3
# Si number density = 20.790311 Si / 1000 Ang^3
#
#
#
# Elastic Constant Matrix: (Units=GPa)
#
#
# Indices 1 2 3 4 5 6 
#
# 1 216.0319 -2.6648 125.8683 0.0000 0.0000 0.0000
# 2 -2.6648 44.6506 5.2012 0.0000 0.0000 0.0000
# 3 125.8683 5.2012 153.9039 0.0000 0.0000 0.0000
# 4 0.0000 0.0000 0.0000 -2.8885 0.0000 0.0000
# 5 0.0000 0.0000 0.0000 0.0000 -13.5301 0.0000
# 6 0.0000 0.0000 0.0000 0.0000 0.0000 -40.3191
#
#
#
# Elastic Compliance Matrix: (Units=1/GPa)
#
#
# Indices 1 2 3 4 5 6 
#
# 1 0.008927 0.001389 -0.007348 0.000000 0.000000 0.000000
# 2 0.001389 0.022701 -0.001903 0.000000 0.000000 0.000000
# 3 -0.007348 -0.001903 0.012571 0.000000 0.000000 0.000000
# 4 0.000000 0.000000 0.000000 -0.346199 0.000000 0.000000
# 5 0.000000 0.000000 0.000000 0.000000 -0.073909 0.000000
# 6 0.000000 0.000000 0.000000 0.000000 0.000000 -0.024802
#
#
# Mechanical properties :
#
#
# Convention : Reuss Voigt Hill
#
# Bulk Modulus (GPa) = 35.11864 74.59952 54.85908
# Shear Modulus (GPa) = -13.31575 7.73124 -2.79226
#
# Velocity S-wave (km/s) = -2.53351 1.93048 -1.16016
# Velocity P-wave (km/s) = 2.89314 6.39756 4.96483
#
# Compressibility (1/GPa) = 0.02847491
#
# Stress axis : x y z
#
# Youngs Moduli (GPa) = 112.01596 44.05157 79.54602
#
# Poissons Ratio (x) = -0.06118 0.58450
# Poissons Ratio (y) = -0.15556 0.15137
# Poissons Ratio (z) = 0.82309 0.08383
#
# Static dielectric constant tensor:
#      x y z
#    x 1.739650 0.000000 0.000000 
#    y 0.000000 1.789140 0.000000 
#    z 0.000000 0.000000 1.714390 
# 
# From -- ./inp_files/13796.got.cif
#   From: 2010.05.17/outbox.cif.g08.bks.cpg/sg47_7_cif.got.tgz:13796.got - 2010.06.03 20:15:42.
