data_PCOD9384647
_publ_section_title
;
Structure prediction by ZEFSAII (Michael W. Deem and Ramdas Pophale) SiO2 
 PCOD9384647
Probable space group: P M M M
;
_chemical_formula_sum "Si O2"
_cell_formula_units_Z 44
_cell_length_a 7.627716
_cell_length_b 9.319743
_cell_length_c 29.682988
_cell_angle_alpha 90.000000
_cell_angle_beta 90.000000
_cell_angle_gamma 90.000000
_cell_volume 2110.114723
_symmetry_space_group_name_H-M "P M M M"
_symmetry_group_IT_number 47
_symmetry_cell_setting 'orthorhombic'
loop_
_space_group_symop_operation_xyz
x,y,z
-x,-y,z
x,-y,-z
-x,y,-z
-x,-y,-z
x,y,-z
-x,y,z
x,-y,z
loop_
_atom_site_type_symbol
_atom_site_label
_atom_site_fract_x
_atom_site_fract_y
_atom_site_fract_z
Si Si1 0.789089 0.832578 0.951563
Si Si2 0.785601 0.165522 0.500000
Si Si3 0.214820 0.164938 0.678763
Si Si4 0.792921 0.338985 0.765215
Si Si5 0.706419 0.836414 0.146891
Si Si6 0.785754 0.665328 0.589364
O O1 0.735428 0.773121 0.903172
O O2 0.000000 0.831491 0.952127
O O3 0.731574 0.000000 0.951004
O O4 0.729356 0.771104 0.000000
O O5 0.729791 0.249050 0.455114
O O6 0.000000 0.165163 0.500000
O O7 0.729449 0.000000 0.500000
O O8 0.276877 0.242669 0.724281
O O9 0.268963 0.253366 0.634708
O O10 0.000000 0.163266 0.678971
O O11 0.271692 0.000000 0.676925
O O12 0.718829 0.500000 0.766167
O O13 0.775237 0.260155 0.812863
O O14 0.000000 0.351673 0.756424
O O15 0.500000 0.847288 0.153515
O O16 0.780504 0.000000 0.148310
O O17 0.729001 0.500000 0.588716
O O18 0.000000 0.664681 0.589211
#
# Coordination Sequence:
#
# PCOD9384647 Si02
#       6
#     8   4   8   8   8   8
#     4   8  14  26  46  72 100 129 161 197 236 278
#     4   9  15  21  29  43  67 103 146 187 228 277
#     4   9  16  26  41  60  81 107 143 189 237 283
#     4  10  20  33  49  68  90 120 159 200 242 288
#     4  10  20  32  48  72 100 129 160 195 238 287
#     4   9  15  22  32  48  73 105 142 184 230 281
#
# _framework density 20.851949000000001
#
# number of rings (size 3 to 8) (size 9 to 14) (size 15 to 20)
#    0.000    2.818    0.000    3.000    0.000    8.000 
#    0.000    1.818    0.000    0.545    0.000    3.818 
#    0.000    0.000    0.000    0.818    0.000   16.000 
#
# Total GULP energy -245472.473679 kJ/mol
# GULP energy per Si atom -5578.919856 kJ/mol
# Density = 2.080449 g / cm^3
# Si number density = 20.851949 Si / 1000 Ang^3
#
#
#
# Elastic Constant Matrix: (Units=GPa)
#
#
# Indices 1 2 3 4 5 6 
#
# 1 38.2094 4.4129 -3.9111 0.0000 0.0000 0.0000
# 2 4.4129 168.7355 119.8959 0.0000 0.0000 0.0000
# 3 -3.9111 119.8959 222.0869 0.0000 0.0000 0.0000
# 4 0.0000 0.0000 0.0000 -25.4606 0.0000 0.0000
# 5 0.0000 0.0000 0.0000 0.0000 -39.7698 0.0000
# 6 0.0000 0.0000 0.0000 0.0000 0.0000 -1.1418
#
#
#
# Elastic Compliance Matrix: (Units=1/GPa)
#
#
# Indices 1 2 3 4 5 6 
#
# 1 0.026503 -0.001663 0.001364 0.000000 0.000000 0.000000
# 2 -0.001663 0.009719 -0.005276 0.000000 0.000000 0.000000
# 3 0.001364 -0.005276 0.007375 0.000000 0.000000 0.000000
# 4 0.000000 0.000000 0.000000 -0.039276 0.000000 0.000000
# 5 0.000000 0.000000 0.000000 0.000000 -0.025145 0.000000
# 6 0.000000 0.000000 0.000000 0.000000 0.000000 -0.875828
#
#
# Mechanical properties :
#
#
# Convention : Reuss Voigt Hill
#
# Bulk Modulus (GPa) = 30.81803 74.42524 52.62164
# Shear Modulus (GPa) = -5.71633 7.30117 0.79242
#
# Velocity S-wave (km/s) = -1.65751 1.87324 0.61713
# Velocity P-wave (km/s) = 3.33892 6.35991 5.07921
#
# Compressibility (1/GPa) = 0.03244853
#
# Stress axis : x y z
#
# Youngs Moduli (GPa) = 37.73122 102.89243 135.59070
#
# Poissons Ratio (x) = 0.17106 -0.18498
# Poissons Ratio (y) = 0.06273 0.71539
# Poissons Ratio (z) = -0.05148 0.54287
#
# Static dielectric constant tensor:
#      x y z
#    x 1.775580 0.000000 0.000000 
#    y 0.000000 1.721540 0.000000 
#    z 0.000000 0.000000 1.738760 
# 
# From -- ./inp_files/1959.got.cif
#   From: 2010.05.17/outbox.cif.g08.bks.cpg/sg47_1_cif.got.tgz:1959.got - 2010.06.03 20:15:42.
