data_PCOD9384851
_publ_section_title
;
Structure prediction by ZEFSAII (Michael W. Deem and Ramdas Pophale) SiO2 
 PCOD9384851
Probable space group: P M M M
;
_chemical_formula_sum "Si O2"
_cell_formula_units_Z 44
_cell_length_a 9.014730
_cell_length_b 17.623240
_cell_length_c 15.010929
_cell_angle_alpha 90.000000
_cell_angle_beta 90.000000
_cell_angle_gamma 90.000000
_cell_volume 2384.767531
_symmetry_space_group_name_H-M "P M M M"
_symmetry_group_IT_number 47
_symmetry_cell_setting 'orthorhombic'
loop_
_space_group_symop_operation_xyz
x,y,z
-x,-y,z
x,-y,-z
-x,y,-z
-x,-y,-z
x,y,-z
-x,y,z
x,-y,z
loop_
_atom_site_type_symbol
_atom_site_label
_atom_site_fract_x
_atom_site_fract_y
_atom_site_fract_z
Si Si1 0.321894 0.500000 0.394652
Si Si2 0.833787 0.000000 0.893897
Si Si3 0.680593 0.912829 0.500000
Si Si4 0.178488 0.310493 0.097586
Si Si5 0.331079 0.844674 0.854407
Si Si6 0.822056 0.642633 0.295692
Si Si7 0.329675 0.795292 0.650214
O O1 0.500000 0.500000 0.387219
O O2 0.283983 0.500000 0.500000
O O3 0.254729 0.426872 0.345371
O O4 0.747748 0.924207 0.868624
O O5 0.000000 0.000000 0.855640
O O6 0.844533 0.000000 0.000000
O O7 0.500000 0.917070 0.500000
O O8 0.723409 0.861533 0.415407
O O9 0.734292 0.000000 0.500000
O O10 0.243792 0.225757 0.103277
O O11 0.223117 0.351428 0.190324
O O12 0.000000 0.306400 0.099919
O O13 0.221018 0.343281 0.000000
O O14 0.500000 0.846625 0.887468
O O15 0.333870 0.828280 0.749341
O O16 0.769515 0.720208 0.343515
O O17 0.000000 0.635670 0.299301
O O18 0.500000 0.774490 0.624871
#
# Coordination Sequence:
#
# PCOD9384851 Si02
#       7
#     4   4   4   8   8   8   8
#     4  11  25  43  64  87 116 152 191 231 280 341
#     4  11  23  35  47  66  97 138 182 229 283 343
#     4   9  18  32  55  80 105 144 193 233 272 331
#     4   9  18  35  58  82 112 151 187 219 268 337
#     4  10  20  32  50  76 105 137 181 235 283 327
#     4  10  21  38  61  89 119 149 187 233 281 332
#     4   9  19  35  56  81 111 147 187 230 278 335
#
# _framework density 18.450436
#
# number of rings (size 3 to 8) (size 9 to 14) (size 15 to 20)
#    0.000    2.273    0.000    2.182    2.545    5.455 
#    0.000    0.455    0.000    3.273    0.000    0.000 
#    0.000    0.000    0.000    0.000    0.000    0.000 
#
# Total GULP energy -245391.860731 kJ/mol
# GULP energy per Si atom -5577.087744 kJ/mol
# Density = 1.840844 g / cm^3
# Si number density = 18.450436 Si / 1000 Ang^3
#
#
#
# Elastic Constant Matrix: (Units=GPa)
#
#
# Indices 1 2 3 4 5 6 
#
# 1 47.8338 49.2197 36.3124 0.0000 0.0000 0.0000
# 2 49.2197 138.0679 78.3298 0.0000 0.0000 0.0000
# 3 36.3124 78.3298 129.1421 0.0000 0.0000 0.0000
# 4 0.0000 0.0000 0.0000 11.6260 0.0000 0.0000
# 5 0.0000 0.0000 0.0000 0.0000 23.5429 0.0000
# 6 0.0000 0.0000 0.0000 0.0000 0.0000 32.4191
#
#
#
# Elastic Compliance Matrix: (Units=1/GPa)
#
#
# Indices 1 2 3 4 5 6 
#
# 1 0.033948 -0.010195 -0.003362 0.000000 0.000000 0.000000
# 2 -0.010195 0.014104 -0.005688 0.000000 0.000000 0.000000
# 3 -0.003362 -0.005688 0.012139 0.000000 0.000000 0.000000
# 4 0.000000 0.000000 0.000000 0.086014 0.000000 0.000000
# 5 0.000000 0.000000 0.000000 0.000000 0.042476 0.000000
# 6 0.000000 0.000000 0.000000 0.000000 0.000000 0.030846
#
#
# Mechanical properties :
#
#
# Convention : Reuss Voigt Hill
#
# Bulk Modulus (GPa) = 46.08041 71.41861 58.74951
# Shear Modulus (GPa) = 18.85012 23.59640 21.22326
#
# Velocity S-wave (km/s) = 3.19981 3.58006 3.39526
# Velocity P-wave (km/s) = 6.21942 7.47539 6.87614
#
# Compressibility (1/GPa) = 0.02170119
#
# Stress axis : x y z
#
# Youngs Moduli (GPa) = 29.45673 70.90099 82.38002
#
# Poissons Ratio (x) = 0.72282 0.27697
# Poissons Ratio (y) = 0.30030 0.46859
# Poissons Ratio (z) = 0.09904 0.40330
#
# Static dielectric constant tensor:
#      x y z
#    x 1.638350 0.000000 0.000000 
#    y 0.000000 1.572890 0.000000 
#    z 0.000000 0.000000 1.667950 
# 
# From -- ./inp_files/21000.got.cif
#   From: 2010.05.17/outbox.cif.g08.bks.cpg/sg47_11_cif.got.tgz:21000.got - 2010.06.03 20:15:42.
