data_PCOD9384820
_publ_section_title
;
Structure prediction by ZEFSAII (Michael W. Deem and Ramdas Pophale) SiO2 
 PCOD9384820
Probable space group: P M M M
;
_chemical_formula_sum "Si O2"
_cell_formula_units_Z 44
_cell_length_a 9.323648
_cell_length_b 7.959486
_cell_length_c 29.202150
_cell_angle_alpha 90.000000
_cell_angle_beta 90.000000
_cell_angle_gamma 90.000000
_cell_volume 2167.133770
_symmetry_space_group_name_H-M "P M M M"
_symmetry_group_IT_number 47
_symmetry_cell_setting 'orthorhombic'
loop_
_space_group_symop_operation_xyz
x,y,z
-x,-y,z
x,-y,-z
-x,y,-z
-x,-y,-z
x,y,-z
-x,y,z
x,-y,z
loop_
_atom_site_type_symbol
_atom_site_label
_atom_site_fract_x
_atom_site_fract_y
_atom_site_fract_z
Si Si1 0.336850 0.203057 0.860004
Si Si2 0.836525 0.799570 0.409304
Si Si3 0.336862 0.298105 0.681007
Si Si4 0.336308 0.299341 0.500000
Si Si5 0.166059 0.795014 0.948747
Si Si6 0.163639 0.702683 0.230416
O O1 0.500000 0.263725 0.855117
O O2 0.264572 0.263508 0.907190
O O3 0.242325 0.252078 0.816504
O O4 0.340143 0.000000 0.861929
O O5 0.751872 0.739608 0.364608
O O6 0.749700 0.753314 0.454853
O O7 0.000000 0.732935 0.410525
O O8 0.844151 0.000000 0.407169
O O9 0.500000 0.233342 0.678363
O O10 0.345080 0.500000 0.685060
O O11 0.253533 0.234379 0.725884
O O12 0.344349 0.500000 0.500000
O O13 0.500000 0.232918 0.500000
O O14 0.000000 0.745935 0.941486
O O15 0.168838 0.000000 0.948593
O O16 0.209737 0.741589 0.000000
O O17 0.158733 0.500000 0.233419
O O18 0.000000 0.765112 0.231164
#
# Coordination Sequence:
#
# PCOD9384820 Si02
#       6
#     8   8   8   4   8   8
#     4  10  20  32  49  76 107 138 173 215 265 319
#     4  11  24  40  59  86 118 150 185 225 270 319
#     4  10  21  38  60  84 109 140 180 223 268 321
#     4  11  24  41  62  88 116 149 190 231 272 320
#     4   8  14  26  45  69  98 133 172 214 261 313
#     4  10  21  37  57  79 104 139 181 222 267 319
#
# _framework density 20.303315000000001
#
# number of rings (size 3 to 8) (size 9 to 14) (size 15 to 20)
#    0.000    2.091    0.000    3.818    0.000    9.818 
#    0.000    1.818    0.000    0.545    0.000    3.818 
#    0.000    0.000    0.000    0.000    0.000    0.000 
#
# Total GULP energy -245826.560724 kJ/mol
# GULP energy per Si atom -5586.967289 kJ/mol
# Density = 2.025710 g / cm^3
# Si number density = 20.303315 Si / 1000 Ang^3
#
#
#
# Elastic Constant Matrix: (Units=GPa)
#
#
# Indices 1 2 3 4 5 6 
#
# 1 222.8258 13.0308 138.3676 0.0000 0.0000 0.0000
# 2 13.0308 18.0857 3.0308 0.0000 0.0000 0.0000
# 3 138.3676 3.0308 211.4028 0.0000 0.0000 0.0000
# 4 0.0000 0.0000 0.0000 29.6841 0.0000 0.0000
# 5 0.0000 0.0000 0.0000 0.0000 66.1682 0.0000
# 6 0.0000 0.0000 0.0000 0.0000 0.0000 20.3997
#
#
#
# Elastic Compliance Matrix: (Units=1/GPa)
#
#
# Indices 1 2 3 4 5 6 
#
# 1 0.007968 -0.004879 -0.005145 0.000000 0.000000 0.000000
# 2 -0.004879 0.058413 0.002356 0.000000 0.000000 0.000000
# 3 -0.005145 0.002356 0.008064 0.000000 0.000000 0.000000
# 4 0.000000 0.000000 0.000000 0.033688 0.000000 0.000000
# 5 0.000000 0.000000 0.000000 0.000000 0.015113 0.000000
# 6 0.000000 0.000000 0.000000 0.000000 0.000000 0.049020
#
#
# Mechanical properties :
#
#
# Convention : Reuss Voigt Hill
#
# Bulk Modulus (GPa) = 16.91800 84.57472 50.74636
# Shear Modulus (GPa) = 24.11886 43.10942 33.61414
#
# Velocity S-wave (km/s) = 3.45037 4.61289 4.07332
# Velocity P-wave (km/s) = 4.92180 8.37364 6.86811
#
# Compressibility (1/GPa) = 0.05910862
#
# Stress axis : x y z
#
# Youngs Moduli (GPa) = 125.49736 17.11950 124.00258
#
# Poissons Ratio (x) = 0.08352 0.63805
# Poissons Ratio (y) = 0.61229 -0.29214
# Poissons Ratio (z) = 0.64574 -0.04033
#
# Static dielectric constant tensor:
#      x y z
#    x 1.714800 0.000000 0.000000 
#    y 0.000000 1.743900 0.000000 
#    z 0.000000 0.000000 1.606440 
# 
# From -- ./inp_files/33894.got.cif
#   From: 2010.05.17/outbox.cif.g08.bks.cpg/sg47_17_cif.got.tgz:33894.got - 2010.06.03 20:15:42.
