data_PCOD9384063
_publ_section_title
;
Structure prediction by ZEFSAII (Michael W. Deem and Ramdas Pophale) SiO2 
 PCOD9384063
Probable space group: P M M M
;
_chemical_formula_sum "Si O2"
_cell_formula_units_Z 48
_cell_length_a 28.191493
_cell_length_b 9.999389
_cell_length_c 9.728038
_cell_angle_alpha 90.000000
_cell_angle_beta 90.000000
_cell_angle_gamma 90.000000
_cell_volume 2742.311586
_symmetry_space_group_name_H-M "P M M M"
_symmetry_group_IT_number 47
_symmetry_cell_setting 'orthorhombic'
loop_
_space_group_symop_operation_xyz
x,y,z
-x,-y,z
x,-y,-z
-x,y,-z
-x,-y,-z
x,y,-z
-x,y,z
x,-y,z
loop_
_atom_site_type_symbol
_atom_site_label
_atom_site_fract_x
_atom_site_fract_y
_atom_site_fract_z
Si Si1 0.556617 0.500000 0.339651
Si Si2 0.107544 0.158830 0.223302
Si Si3 0.392141 0.727299 0.833320
Si Si4 0.446031 0.000000 0.834922
Si Si5 0.789987 0.154295 0.662039
Si Si6 0.699685 0.659945 0.661456
Si Si7 0.057047 0.659963 0.000000
Si Si8 0.052617 0.840022 0.500000
O O1 0.500000 0.500000 0.342207
O O2 0.573393 0.500000 0.500000
O O3 0.575982 0.623446 0.251623
O O4 0.163771 0.176854 0.244767
O O5 0.082713 0.189555 0.367078
O O6 0.099660 0.000000 0.188572
O O7 0.082303 0.262300 0.123814
O O8 0.415559 0.869877 0.801816
O O9 0.340303 0.710425 0.766656
O O10 0.392017 0.705707 0.000000
O O11 0.500000 0.000000 0.778451
O O12 0.450669 0.000000 0.000000
O O13 0.803703 0.164508 0.500000
O O14 0.748057 0.258799 0.686671
O O15 0.774092 0.000000 0.682926
O O16 0.686364 0.683290 0.500000
O O17 0.705484 0.500000 0.678053
O O18 0.065100 0.500000 0.000000
O O19 0.000000 0.681408 0.000000
O O20 0.000000 0.779952 0.500000
O O21 0.047479 0.000000 0.500000
#
# Coordination Sequence:
#
# PCOD9384063 Si02
#       8
#     4   8   8   4   8   8   4   4
#     4  11  23  39  61  89 121 155 195 243 294 349
#     4  10  19  36  61  87 115 148 194 245 295 353
#     4  11  22  38  61  87 118 155 198 244 293 350
#     4   9  20  38  59  85 119 153 189 237 294 353
#     4   9  18  35  60  89 116 147 190 243 299 354
#     4  10  21  37  57  82 116 156 195 238 289 347
#     4  11  25  41  55  79 121 165 201 239 294 355
#     4   9  16  28  55  91 117 139 179 239 294 345
#
# _framework density 17.503481000000001
#
# number of rings (size 3 to 8) (size 9 to 14) (size 15 to 20)
#    0.000    2.000    1.667    2.000    1.167    3.333 
#    1.500    1.667    0.000    4.500    0.000    0.000 
#    0.000    0.000    0.000    0.000    0.000    0.000 
#
# Total GULP energy -267509.573489 kJ/mol
# GULP energy per Si atom -5573.116114 kJ/mol
# Density = 1.746364 g / cm^3
# Si number density = 17.503481 Si / 1000 Ang^3
#
#
#
# Elastic Constant Matrix: (Units=GPa)
#
#
# Indices 1 2 3 4 5 6 
#
# 1 131.6758 86.3883 66.5585 0.0000 0.0000 0.0000
# 2 86.3883 149.4902 76.1393 0.0000 0.0000 0.0000
# 3 66.5585 76.1393 117.8439 0.0000 0.0000 0.0000
# 4 0.0000 0.0000 0.0000 106.7752 0.0000 0.0000
# 5 0.0000 0.0000 0.0000 0.0000 26.0664 0.0000
# 6 0.0000 0.0000 0.0000 0.0000 0.0000 -37.6029
#
#
#
# Elastic Compliance Matrix: (Units=1/GPa)
#
#
# Indices 1 2 3 4 5 6 
#
# 1 0.013277 -0.005743 -0.003788 0.000000 0.000000 0.000000
# 2 -0.005743 0.012455 -0.004803 0.000000 0.000000 0.000000
# 3 -0.003788 -0.004803 0.013729 0.000000 0.000000 0.000000
# 4 0.000000 0.000000 0.000000 0.009365 0.000000 0.000000
# 5 0.000000 0.000000 0.000000 0.000000 0.038364 0.000000
# 6 0.000000 0.000000 0.000000 0.000000 0.000000 -0.026594
#
#
# Mechanical properties :
#
#
# Convention : Reuss Voigt Hill
#
# Bulk Modulus (GPa) = 92.66767 95.24246 93.95507
# Shear Modulus (GPa) = 53.84277 30.37598 42.10938
#
# Velocity S-wave (km/s) = 5.55229 4.17036 4.91019
# Velocity P-wave (km/s) = 9.70367 8.81594 9.27044
#
# Compressibility (1/GPa) = 0.01079125
#
# Stress axis : x y z
#
# Youngs Moduli (GPa) = 75.31679 80.29039 72.83947
#
# Poissons Ratio (x) = 0.46113 0.27594
# Poissons Ratio (y) = 0.43257 0.34987
# Poissons Ratio (z) = 0.28532 0.38566
#
# Static dielectric constant tensor:
#      x y z
#    x 1.597730 0.000000 0.000000 
#    y 0.000000 1.593690 0.000000 
#    z 0.000000 0.000000 1.564170 
# 
# From -- ./inp_files/14007.got.cif
#   From: 2010.05.17/outbox.cif.g08.bks.cpg/sg47_8_cif.got.tgz:14007.got - 2010.06.03 20:15:42.
