data_PCOD9384026
_publ_section_title
;
Structure prediction by ZEFSAII (Michael W. Deem and Ramdas Pophale) SiO2 
 PCOD9384026
Probable space group: P M M M
;
_chemical_formula_sum "Si O2"
_cell_formula_units_Z 56
_cell_length_a 7.927225
_cell_length_b 14.695166
_cell_length_c 23.797145
_cell_angle_alpha 90.000000
_cell_angle_beta 90.000000
_cell_angle_gamma 90.000000
_cell_volume 2772.174333
_symmetry_space_group_name_H-M "P M M M"
_symmetry_group_IT_number 47
_symmetry_cell_setting 'orthorhombic'
loop_
_space_group_symop_operation_xyz
x,y,z
-x,-y,z
x,-y,-z
-x,y,-z
-x,-y,-z
x,y,-z
-x,y,z
x,-y,z
loop_
_atom_site_type_symbol
_atom_site_label
_atom_site_fract_x
_atom_site_fract_y
_atom_site_fract_z
Si Si1 0.799151 0.602863 0.219542
Si Si2 0.700599 0.897321 0.624027
Si Si3 0.794087 0.101326 0.934603
Si Si4 0.698332 0.715550 0.672668
Si Si5 0.809470 0.110363 0.500000
Si Si6 0.797842 0.288106 0.112330
Si Si7 0.203721 0.607134 0.437454
Si Si8 0.297405 0.395234 0.000000
O O1 0.730315 0.500000 0.223068
O O2 0.774180 0.657925 0.276801
O O3 0.729187 0.658885 0.166432
O O4 0.000000 0.594987 0.210810
O O5 0.500000 0.902694 0.632943
O O6 0.769583 0.817488 0.663515
O O7 0.726544 0.866646 0.559287
O O8 0.770447 0.000000 0.630967
O O9 0.732809 0.185718 0.897785
O O10 0.000000 0.101729 0.933694
O O11 0.739307 0.000000 0.917501
O O12 0.746089 0.115520 0.000000
O O13 0.500000 0.723116 0.683923
O O14 0.723468 0.662911 0.614060
O O15 0.000000 0.145943 0.500000
O O16 0.813000 0.000000 0.500000
O O17 0.764447 0.344474 0.055744
O O18 0.000000 0.280733 0.119054
O O19 0.257130 0.637939 0.500000
O O20 0.246481 0.500000 0.432145
O O21 0.000000 0.613698 0.435041
O O22 0.239901 0.500000 0.000000
O O23 0.500000 0.393871 0.000000
#
# Coordination Sequence:
#
# PCOD9384026 Si02
#       8
#     8   8   8   8   4   8   8   4
#     4  10  22  39  57  78 107 144 184 226 274 325
#     4   9  19  36  54  73 104 144 179 214 263 325
#     4   8  13  24  48  83 116 142 172 216 267 312
#     4  11  23  36  55  80 104 138 184 226 266 319
#     4   9  17  29  49  79 108 133 168 215 265 316
#     4  10  19  35  59  83 107 143 189 227 260 317
#     4   9  19  36  56  78 106 139 172 213 273 333
#     4  11  23  35  50  79 116 146 173 221 286 331
#
# _framework density 20.200751
#
# number of rings (size 3 to 8) (size 9 to 14) (size 15 to 20)
#    0.000    2.429    0.714    2.571    1.000    6.286 
#    0.000    1.429    0.000    1.714    0.000    0.000 
#    0.000    0.000    0.000    0.000    0.000    0.000 
#
# Total GULP energy -312519.075806 kJ/mol
# GULP energy per Si atom -5580.697782 kJ/mol
# Density = 2.015477 g / cm^3
# Si number density = 20.200751 Si / 1000 Ang^3
#
#
#
# Elastic Constant Matrix: (Units=GPa)
#
#
# Indices 1 2 3 4 5 6 
#
# 1 15.2693 7.0378 -3.5643 0.0000 0.0000 0.0000
# 2 7.0378 180.7335 92.4448 0.0000 0.0000 0.0000
# 3 -3.5643 92.4448 122.8943 0.0000 0.0000 0.0000
# 4 0.0000 0.0000 0.0000 15.0959 0.0000 0.0000
# 5 0.0000 0.0000 0.0000 0.0000 121.3574 0.0000
# 6 0.0000 0.0000 0.0000 0.0000 0.0000 12.1186
#
#
#
# Elastic Compliance Matrix: (Units=1/GPa)
#
#
# Indices 1 2 3 4 5 6 
#
# 1 0.069850 -0.006105 0.006618 0.000000 0.000000 0.000000
# 2 -0.006105 0.009527 -0.007344 0.000000 0.000000 0.000000
# 3 0.006618 -0.007344 0.013853 0.000000 0.000000 0.000000
# 4 0.000000 0.000000 0.000000 0.066243 0.000000 0.000000
# 5 0.000000 0.000000 0.000000 0.000000 0.008240 0.000000
# 6 0.000000 0.000000 0.000000 0.000000 0.000000 0.082518
#
#
# Mechanical properties :
#
#
# Convention : Reuss Voigt Hill
#
# Bulk Modulus (GPa) = 12.56769 56.74818 34.65793
# Shear Modulus (GPa) = 17.21674 44.57963 30.89819
#
# Velocity S-wave (km/s) = 2.92255 4.70279 3.91520
# Velocity P-wave (km/s) = 4.19802 7.59219 6.13452
#
# Compressibility (1/GPa) = 0.07956914
#
# Stress axis : x y z
#
# Youngs Moduli (GPa) = 14.31642 104.96536 72.18625
#
# Poissons Ratio (x) = 0.64085 -0.47776
# Poissons Ratio (y) = 0.08741 0.53010
# Poissons Ratio (z) = -0.09475 0.77082
#
# Static dielectric constant tensor:
#      x y z
#    x 1.739390 0.000000 0.000000 
#    y 0.000000 1.764890 0.000000 
#    z 0.000000 0.000000 1.676080 
# 
# From -- ./inp_files/29796.got.cif
#   From: 2010.05.17/outbox.cif.g08.bks.cpg/sg47_15_cif.got.tgz:29796.got - 2010.06.03 20:15:42.
