data_PCOD9384641
_publ_section_title
;
Structure prediction by ZEFSAII (Michael W. Deem and Ramdas Pophale) SiO2 
 PCOD9384641
Probable space group: P M M M
;
_chemical_formula_sum "Si O2"
_cell_formula_units_Z 44
_cell_length_a 7.651293
_cell_length_b 9.448163
_cell_length_c 29.947990
_cell_angle_alpha 90.000000
_cell_angle_beta 90.000000
_cell_angle_gamma 90.000000
_cell_volume 2164.960065
_symmetry_space_group_name_H-M "P M M M"
_symmetry_group_IT_number 47
_symmetry_cell_setting 'orthorhombic'
loop_
_space_group_symop_operation_xyz
x,y,z
-x,-y,z
x,-y,-z
-x,y,-z
-x,-y,-z
x,y,-z
-x,y,z
x,-y,z
loop_
_atom_site_type_symbol
_atom_site_label
_atom_site_fract_x
_atom_site_fract_y
_atom_site_fract_z
Si Si1 0.206626 0.341121 0.231489
Si Si2 0.785740 0.837559 0.315930
Si Si3 0.789676 0.165257 0.951983
Si Si4 0.294201 0.161496 0.145674
Si Si5 0.796947 0.672261 0.500000
Si Si6 0.785906 0.335949 0.402660
O O1 0.280011 0.500000 0.229438
O O2 0.276490 0.248992 0.272686
O O3 0.225104 0.258609 0.185075
O O4 0.000000 0.353853 0.239942
O O5 0.731210 0.760073 0.361414
O O6 0.000000 0.837761 0.315642
O O7 0.729479 0.000000 0.314101
O O8 0.734908 0.223198 0.904042
O O9 0.000000 0.166951 0.952410
O O10 0.733077 0.000000 0.951542
O O11 0.730197 0.225911 0.000000
O O12 0.500000 0.150880 0.152333
O O13 0.220527 0.000000 0.147359
O O14 0.795812 0.500000 0.500000
O O15 0.722960 0.713260 0.548286
O O16 0.000000 0.717652 0.500000
O O17 0.735103 0.500000 0.395773
O O18 0.000000 0.334863 0.404061
#
# Coordination Sequence:
#
# PCOD9384641 Si02
#       6
#     8   8   8   8   4   8
#     4  10  20  33  49  67  87 117 158 199 238 281
#     4   9  16  25  38  57  80 106 140 186 236 280
#     4   8  14  26  46  72 100 129 160 192 225 264
#     4  10  20  32  48  72 100 128 156 189 233 281
#     4   7  10  16  27  43  65  99 140 177 214 261
#     4   8  12  19  31  47  70 102 141 181 220 267
#
# _framework density 20.323701
#
# number of rings (size 3 to 8) (size 9 to 14) (size 15 to 20)
#    0.000    3.182    0.000    3.273    0.000    4.727 
#    0.000    2.273    0.000    3.273    0.000    3.818 
#    0.000    0.000    0.000    0.818    0.000   16.727 
#
# Total GULP energy -245172.776025 kJ/mol
# GULP energy per Si atom -5572.108546 kJ/mol
# Density = 2.027744 g / cm^3
# Si number density = 20.323701 Si / 1000 Ang^3
#
#
#
# Elastic Constant Matrix: (Units=GPa)
#
#
# Indices 1 2 3 4 5 6 
#
# 1 35.1734 5.5165 -0.7116 0.0000 0.0000 0.0000
# 2 5.5165 111.2578 105.0704 0.0000 0.0000 0.0000
# 3 -0.7116 105.0704 227.4293 0.0000 0.0000 0.0000
# 4 0.0000 0.0000 0.0000 39.8062 0.0000 0.0000
# 5 0.0000 0.0000 0.0000 0.0000 -39.2009 0.0000
# 6 0.0000 0.0000 0.0000 0.0000 0.0000 -0.4125
#
#
#
# Elastic Compliance Matrix: (Units=1/GPa)
#
#
# Indices 1 2 3 4 5 6 
#
# 1 0.028880 -0.002692 0.001334 0.000000 0.000000 0.000000
# 2 -0.002692 0.016196 -0.007491 0.000000 0.000000 0.000000
# 3 0.001334 -0.007491 0.007862 0.000000 0.000000 0.000000
# 4 0.000000 0.000000 0.000000 0.025122 0.000000 0.000000
# 5 0.000000 0.000000 0.000000 0.000000 -0.025510 0.000000
# 6 0.000000 0.000000 0.000000 0.000000 0.000000 -2.424069
#
#
# Mechanical properties :
#
#
# Convention : Reuss Voigt Hill
#
# Bulk Modulus (GPa) = 28.37663 65.95681 47.16672
# Shear Modulus (GPa) = -2.13486 17.63756 7.75135
#
# Velocity S-wave (km/s) = -1.02602 2.94909 1.95505
# Velocity P-wave (km/s) = 3.54810 6.64227 5.32489
#
# Compressibility (1/GPa) = 0.03524027
#
# Stress axis : x y z
#
# Youngs Moduli (GPa) = 34.62636 61.74469 127.19748
#
# Poissons Ratio (x) = 0.16620 -0.16967
# Poissons Ratio (y) = 0.09320 0.95280
# Poissons Ratio (z) = -0.04619 0.46251
#
# Static dielectric constant tensor:
#      x y z
#    x 1.759250 0.000000 0.000000 
#    y 0.000000 1.702010 0.000000 
#    z 0.000000 0.000000 1.745720 
# 
# From -- ./inp_files/2324.got.cif
#   From: 2010.05.17/outbox.cif.g08.bks.cpg/sg47_2_cif.got.tgz:2324.got - 2010.06.03 20:15:42.
