data_PCOD9384753
_publ_section_title
;
Structure prediction by ZEFSAII (Michael W. Deem and Ramdas Pophale) SiO2 
 PCOD9384753
Probable space group: P M M M
;
_chemical_formula_sum "Si O2"
_cell_formula_units_Z 48
_cell_length_a 15.223086
_cell_length_b 9.267058
_cell_length_c 20.119779
_cell_angle_alpha 90.000000
_cell_angle_beta 90.000000
_cell_angle_gamma 90.000000
_cell_volume 2838.362027
_symmetry_space_group_name_H-M "P M M M"
_symmetry_group_IT_number 47
_symmetry_cell_setting 'orthorhombic'
loop_
_space_group_symop_operation_xyz
x,y,z
-x,-y,z
x,-y,-z
-x,y,-z
-x,-y,-z
x,y,-z
-x,y,z
x,-y,z
loop_
_atom_site_type_symbol
_atom_site_label
_atom_site_fract_x
_atom_site_fract_y
_atom_site_fract_z
Si Si1 0.096488 0.827541 0.736041
Si Si2 0.651710 0.666128 0.178252
Si Si3 0.895094 0.837038 0.000000
Si Si4 0.500000 0.324462 0.923090
Si Si5 0.602608 0.327982 0.422068
Si Si6 0.147594 0.334879 0.867784
Si Si7 0.290502 0.827309 0.308919
O O1 0.103043 0.745309 0.805929
O O2 0.186246 0.789672 0.697121
O O3 0.000000 0.796143 0.705693
O O4 0.100405 0.000000 0.747793
O O5 0.628218 0.500000 0.196553
O O6 0.583949 0.716980 0.121767
O O7 0.748744 0.663940 0.147411
O O8 0.660058 0.761735 0.244367
O O9 0.867757 0.751404 0.934763
O O10 0.000000 0.845001 0.000000
O O11 0.859442 0.000000 0.000000
O O12 0.500000 0.500000 0.926682
O O13 0.500000 0.273299 0.000000
O O14 0.618478 0.297500 0.500000
O O15 0.500000 0.294742 0.408141
O O16 0.614188 0.500000 0.412124
O O17 0.665595 0.240821 0.373663
O O18 0.117040 0.500000 0.873257
O O19 0.298101 0.000000 0.308929
#
# Coordination Sequence:
#
# PCOD9384753 Si02
#       7
#     8   8   4   4   8   8   8
#     4   9  18  34  53  72 100 138 173 204 249 309
#     4   9  19  34  52  74  99 132 171 211 255 305
#     4  11  23  35  47  64  89 124 160 197 255 327
#     4   9  18  32  53  73  92 127 176 215 247 300
#     4   9  19  36  57  80 108 143 178 209 249 306
#     4  10  20  32  49  72  96 120 159 215 263 301
#     4  10  20  33  53  81 110 137 171 216 257 300
#
# _framework density 16.911161
#
# number of rings (size 3 to 8) (size 9 to 14) (size 15 to 20)
#    0.000    2.500    0.000    2.250    2.333    5.000 
#    0.000    0.833    0.000    1.000    0.000    3.500 
#    0.000    0.000    0.000    0.000    0.000    0.000 
#
# Total GULP energy -267596.011676 kJ/mol
# GULP energy per Si atom -5574.916910 kJ/mol
# Density = 1.687267 g / cm^3
# Si number density = 16.911161 Si / 1000 Ang^3
#
#
#
# Elastic Constant Matrix: (Units=GPa)
#
#
# Indices 1 2 3 4 5 6 
#
# 1 108.4675 43.2494 72.4703 0.0000 0.0000 0.0000
# 2 43.2494 61.5973 61.1016 0.0000 0.0000 0.0000
# 3 72.4703 61.1016 112.0037 0.0000 0.0000 0.0000
# 4 0.0000 0.0000 0.0000 10.8950 0.0000 0.0000
# 5 0.0000 0.0000 0.0000 0.0000 14.3268 0.0000
# 6 0.0000 0.0000 0.0000 0.0000 0.0000 23.9187
#
#
#
# Elastic Compliance Matrix: (Units=1/GPa)
#
#
# Indices 1 2 3 4 5 6 
#
# 1 0.016370 -0.002151 -0.009418 0.000000 0.000000 0.000000
# 2 -0.002151 0.035663 -0.018063 0.000000 0.000000 0.000000
# 3 -0.009418 -0.018063 0.024876 0.000000 0.000000 0.000000
# 4 0.000000 0.000000 0.000000 0.091785 0.000000 0.000000
# 5 0.000000 0.000000 0.000000 0.000000 0.069799 0.000000
# 6 0.000000 0.000000 0.000000 0.000000 0.000000 0.041808
#
#
# Mechanical properties :
#
#
# Convention : Reuss Voigt Hill
#
# Bulk Modulus (GPa) = 56.67857 70.63457 63.65657
# Shear Modulus (GPa) = 14.47393 16.84457 15.65925
#
# Velocity S-wave (km/s) = 2.92872 3.15947 3.04628
# Velocity P-wave (km/s) = 6.71005 7.42754 7.07789
#
# Compressibility (1/GPa) = 0.01764335
#
# Stress axis : x y z
#
# Youngs Moduli (GPa) = 61.08849 28.04030 40.19895
#
# Poissons Ratio (x) = 0.06032 0.37860
# Poissons Ratio (y) = 0.13142 0.72613
# Poissons Ratio (z) = 0.57534 0.50650
#
# Static dielectric constant tensor:
#      x y z
#    x 1.594400 0.000000 0.000000 
#    y 0.000000 1.573490 0.000000 
#    z 0.000000 0.000000 1.531750 
# 
# From -- ./inp_files/28041.got.cif
#   From: 2010.05.17/outbox.cif.g08.bks.cpg/sg47_15_cif.got.tgz:28041.got - 2010.06.03 20:15:42.
