data_PCOD9384759
_publ_section_title
;
Structure prediction by ZEFSAII (Michael W. Deem and Ramdas Pophale) SiO2 
 PCOD9384759
Probable space group: P M M M
;
_chemical_formula_sum "Si O2"
_cell_formula_units_Z 64
_cell_length_a 24.942964
_cell_length_b 8.177318
_cell_length_c 15.010722
_cell_angle_alpha 90.000000
_cell_angle_beta 90.000000
_cell_angle_gamma 90.000000
_cell_volume 3061.685157
_symmetry_space_group_name_H-M "P M M M"
_symmetry_group_IT_number 47
_symmetry_cell_setting 'orthorhombic'
loop_
_space_group_symop_operation_xyz
x,y,z
-x,-y,z
x,-y,-z
-x,y,-z
-x,-y,-z
x,y,-z
-x,y,z
x,-y,z
loop_
_atom_site_type_symbol
_atom_site_label
_atom_site_fract_x
_atom_site_fract_y
_atom_site_fract_z
Si Si1 0.394153 0.193347 0.601524
Si Si2 0.059534 0.310422 0.710344
Si Si3 0.826578 0.697493 0.281750
Si Si4 0.064193 0.186290 0.902808
Si Si5 0.725208 0.696205 0.604404
Si Si6 0.776761 0.802592 0.102288
Si Si7 0.343936 0.803938 0.899195
Si Si8 0.558407 0.307690 0.221010
O O1 0.401588 0.253157 0.500000
O O2 0.331917 0.224455 0.626189
O O3 0.430652 0.276778 0.675001
O O4 0.404310 0.000000 0.603259
O O5 0.056896 0.500000 0.683191
O O6 0.116573 0.239225 0.678910
O O7 0.068934 0.299155 0.817000
O O8 0.000000 0.237686 0.691789
O O9 0.828278 0.500000 0.288497
O O10 0.774783 0.755403 0.336562
O O11 0.816233 0.742343 0.178783
O O12 0.000000 0.172141 0.911070
O O13 0.084436 0.000000 0.886216
O O14 0.084600 0.240890 0.000000
O O15 0.735999 0.726866 0.500000
O O16 0.719573 0.500000 0.616250
O O17 0.715983 0.745877 0.125692
O O18 0.777718 0.000000 0.103023
O O19 0.787493 0.751520 0.000000
O O20 0.391511 0.760279 0.833521
O O21 0.340515 0.000000 0.902046
O O22 0.355163 0.745487 0.000000
O O23 0.500000 0.237696 0.196085
O O24 0.557373 0.500000 0.204534
#
# Coordination Sequence:
#
# PCOD9384759 Si02
#       8
#     8   8   8   8   8   8   8   8
#     4  10  21  37  58  83 109 137 171 213 261 314
#     4   9  18  31  44  60  88 126 163 199 241 290
#     4  10  20  32  49  74 100 129 167 208 251 302
#     4   8  14  25  40  57  78 107 147 193 234 274
#     4   9  18  34  56  80 105 131 161 204 260 317
#     4   9  19  35  53  75 103 133 166 207 257 308
#     4   9  19  37  59  80 104 138 180 225 271 315
#     4  11  24  38  53  78 112 148 184 220 258 304
#
# _framework density 20.903521000000001
#
# number of rings (size 3 to 8) (size 9 to 14) (size 15 to 20)
#    0.000    2.625    0.000    2.625    0.000    7.000 
#    0.000    7.500    0.000    0.375    0.000    2.625 
#    0.000    0.000    0.000    7.375    0.000    7.750 
#
# Total GULP energy -356843.907419 kJ/mol
# GULP energy per Si atom -5575.686053 kJ/mol
# Density = 2.085594 g / cm^3
# Si number density = 20.903521 Si / 1000 Ang^3
#
#
#
# Elastic Constant Matrix: (Units=GPa)
#
#
# Indices 1 2 3 4 5 6 
#
# 1 123.7829 3.5972 29.2247 0.0000 0.0000 0.0000
# 2 3.5972 10.4162 -1.5131 0.0000 0.0000 0.0000
# 3 29.2247 -1.5131 27.1976 0.0000 0.0000 0.0000
# 4 0.0000 0.0000 0.0000 34.6954 0.0000 0.0000
# 5 0.0000 0.0000 0.0000 0.0000 1.6223 0.0000
# 6 0.0000 0.0000 0.0000 0.0000 0.0000 760.0876
#
#
#
# Elastic Compliance Matrix: (Units=1/GPa)
#
#
# Indices 1 2 3 4 5 6 
#
# 1 0.011143 -0.005633 -0.012287 0.000000 0.000000 0.000000
# 2 -0.005633 0.099634 0.011596 0.000000 0.000000 0.000000
# 3 -0.012287 0.011596 0.050616 0.000000 0.000000 0.000000
# 4 0.000000 0.000000 0.000000 0.028822 0.000000 0.000000
# 5 0.000000 0.000000 0.000000 0.000000 0.616416 0.000000
# 6 0.000000 0.000000 0.000000 0.000000 0.000000 0.001316
#
#
# Mechanical properties :
#
#
# Convention : Reuss Voigt Hill
#
# Bulk Modulus (GPa) = 6.72293 24.89049 15.80671
# Shear Modulus (GPa) = 5.74595 167.95360 86.84977
#
# Velocity S-wave (km/s) = 1.65975 8.97338 6.45276
# Velocity P-wave (km/s) = 2.62606 10.92223 7.94328
#
# Compressibility (1/GPa) = 0.14874459
#
# Stress axis : x y z
#
# Youngs Moduli (GPa) = 89.73966 10.03673 19.75652
#
# Poissons Ratio (x) = 0.05654 0.24275
# Poissons Ratio (y) = 0.50552 -0.22910
# Poissons Ratio (z) = 1.10266 -0.11639
#
# Static dielectric constant tensor:
#      x y z
#    x 1.829170 0.000000 0.000000 
#    y 0.000000 1.745470 0.000000 
#    z 0.000000 0.000000 1.753290 
# 
# From -- ./inp_files/25552.got.cif
#   From: 2010.05.17/outbox.cif.g08.bks.cpg/sg47_13_cif.got.tgz:25552.got - 2010.06.03 20:15:42.
