data_PCOD9384645
_publ_section_title
;
Structure prediction by ZEFSAII (Michael W. Deem and Ramdas Pophale) SiO2 
 PCOD9384645
Probable space group: P M M M
;
_chemical_formula_sum "Si O2"
_cell_formula_units_Z 32
_cell_length_a 9.383673
_cell_length_b 7.682362
_cell_length_c 23.392090
_cell_angle_alpha 90.000000
_cell_angle_beta 90.000000
_cell_angle_gamma 90.000000
_cell_volume 1686.307063
_symmetry_space_group_name_H-M "P M M M"
_symmetry_group_IT_number 47
_symmetry_cell_setting 'orthorhombic'
loop_
_space_group_symop_operation_xyz
x,y,z
-x,-y,z
x,-y,-z
-x,y,-z
-x,-y,-z
x,y,-z
-x,y,z
x,-y,z
loop_
_atom_site_type_symbol
_atom_site_label
_atom_site_fract_x
_atom_site_fract_y
_atom_site_fract_z
Si Si1 0.160967 0.708387 0.389799
Si Si2 0.336227 0.286551 0.500000
Si Si3 0.326316 0.800249 0.151027
Si Si4 0.674050 0.500000 0.065578
Si Si5 0.337847 0.209505 0.722401
O O1 0.152799 0.500000 0.396440
O O2 0.254270 0.772684 0.443144
O O3 0.238126 0.742797 0.329976
O O4 0.000000 0.777547 0.390734
O O5 0.336653 0.500000 0.500000
O O6 0.500000 0.230455 0.500000
O O7 0.500000 0.802709 0.151738
O O8 0.281055 0.669800 0.101360
O O9 0.286124 0.735117 0.214589
O O10 0.279256 0.000000 0.142641
O O11 0.500000 0.500000 0.065041
O O12 0.721651 0.500000 0.000000
O O13 0.500000 0.273971 0.712881
O O14 0.344742 0.000000 0.725500
#
# Coordination Sequence:
#
# PCOD9384645 Si02
#       5
#     8   4   8   4   8
#     4  10  20  32  48  72 100 128 160 203 254 303
#     4   9  17  31  50  71  96 129 168 204 244 297
#     4   8  15  27  41  61  92 127 164 208 252 296
#     4   9  16  24  38  64  95 130 169 202 243 301
#     4   9  18  32  49  69  93 125 167 209 249 297
#
# _framework density 18.976378
#
# number of rings (size 3 to 8) (size 9 to 14) (size 15 to 20)
#    0.000    3.000    0.000    2.625    1.750    4.000 
#    0.000    3.125    0.000    3.750    0.000    0.000 
#    0.000    2.000    0.000    5.500    0.000    5.500 
#
# Total GULP energy -178436.951800 kJ/mol
# GULP energy per Si atom -5576.154744 kJ/mol
# Density = 1.893319 g / cm^3
# Si number density = 18.976378 Si / 1000 Ang^3
#
#
#
# Elastic Constant Matrix: (Units=GPa)
#
#
# Indices 1 2 3 4 5 6 
#
# 1 87.8610 21.8118 80.9855 0.0000 0.0000 0.0000
# 2 21.8118 58.5479 53.6956 0.0000 0.0000 0.0000
# 3 80.9855 53.6956 215.8051 0.0000 0.0000 0.0000
# 4 0.0000 0.0000 0.0000 69.8574 0.0000 0.0000
# 5 0.0000 0.0000 0.0000 0.0000 -6.8237 0.0000
# 6 0.0000 0.0000 0.0000 0.0000 0.0000 7.4611
#
#
#
# Elastic Compliance Matrix: (Units=1/GPa)
#
#
# Indices 1 2 3 4 5 6 
#
# 1 0.017419 -0.000640 -0.006378 0.000000 0.000000 0.000000
# 2 -0.000640 0.022153 -0.005272 0.000000 0.000000 0.000000
# 3 -0.006378 -0.005272 0.008339 0.000000 0.000000 0.000000
# 4 0.000000 0.000000 0.000000 0.014315 0.000000 0.000000
# 5 0.000000 0.000000 0.000000 0.000000 -0.146548 0.000000
# 6 0.000000 0.000000 0.000000 0.000000 0.000000 0.134028
#
#
# Mechanical properties :
#
#
# Convention : Reuss Voigt Hill
#
# Bulk Modulus (GPa) = 42.85980 75.02220 58.94100
# Shear Modulus (GPa) = 60.92920 27.81372 44.37146
#
# Velocity S-wave (km/s) = 5.67253 3.83260 4.84079
# Velocity P-wave (km/s) = 8.09558 7.69451 7.89759
#
# Compressibility (1/GPa) = 0.02333189
#
# Stress axis : x y z
#
# Youngs Moduli (GPa) = 57.40835 45.13962 119.92102
#
# Poissons Ratio (x) = 0.02891 0.76480
# Poissons Ratio (y) = 0.03677 0.63220
# Poissons Ratio (z) = 0.36612 0.23797
#
# Static dielectric constant tensor:
#      x y z
#    x 1.634280 0.000000 0.000000 
#    y 0.000000 1.699190 0.000000 
#    z 0.000000 0.000000 1.649870 
# 
# From -- ./inp_files/31624.got.cif
#   From: 2010.05.17/outbox.cif.g08.bks.cpg/sg47_16_cif.got.tgz:31624.got - 2010.06.03 20:15:42.
