data_PCOD9384648
_publ_section_title
;
Structure prediction by ZEFSAII (Michael W. Deem and Ramdas Pophale) SiO2 
 PCOD9384648
Probable space group: P M M M
;
_chemical_formula_sum "Si O2"
_cell_formula_units_Z 48
_cell_length_a 7.576460
_cell_length_b 31.937373
_cell_length_c 9.694139
_cell_angle_alpha 90.000000
_cell_angle_beta 90.000000
_cell_angle_gamma 90.000000
_cell_volume 2345.712422
_symmetry_space_group_name_H-M "P M M M"
_symmetry_group_IT_number 47
_symmetry_cell_setting 'orthorhombic'
loop_
_space_group_symop_operation_xyz
x,y,z
-x,-y,z
x,-y,-z
-x,y,-z
-x,-y,-z
x,y,-z
-x,y,z
x,-y,z
loop_
_atom_site_type_symbol
_atom_site_label
_atom_site_fract_x
_atom_site_fract_y
_atom_site_fract_z
Si Si1 0.215380 0.547650 0.657792
Si Si2 0.710963 0.124898 0.845021
Si Si3 0.284525 0.218147 0.160057
Si Si4 0.788265 0.954115 0.343054
Si Si5 0.711970 0.295382 0.343060
Si Si6 0.212043 0.376006 0.843350
O O1 0.268439 0.557572 0.500000
O O2 0.269968 0.500000 0.689386
O O3 0.277487 0.582410 0.765107
O O4 0.000000 0.547966 0.659086
O O5 0.500000 0.128449 0.853585
O O6 0.773215 0.171111 0.799725
O O7 0.746403 0.085789 0.748350
O O8 0.778922 0.117253 0.000000
O O9 0.500000 0.219073 0.162167
O O10 0.221736 0.254334 0.262025
O O11 0.233271 0.225484 0.000000
O O12 0.723366 0.948853 0.500000
O O13 0.000000 0.956092 0.348756
O O14 0.726182 0.000000 0.291874
O O15 0.779049 0.299030 0.500000
O O16 0.500000 0.291623 0.351270
O O17 0.749652 0.335967 0.251023
O O18 0.000000 0.379581 0.851410
O O19 0.279034 0.371584 0.000000
#
# Coordination Sequence:
#
# PCOD9384648 Si02
#       6
#     8   8   8   8   8   8
#     4   8  14  26  45  68  94 125 159 195 238 286
#     4   9  18  32  51  76 101 123 153 196 242 286
#     4   8  15  30  50  70  95 126 157 192 236 284
#     4   9  19  35  51  68  95 131 167 200 235 279
#     4  10  20  33  51  74  97 125 163 201 238 285
#     4  10  20  32  48  72 100 129 161 198 240 284
#
# _framework density 20.462868
#
# number of rings (size 3 to 8) (size 9 to 14) (size 15 to 20)
#    0.000    3.000    0.000    3.000    0.000    4.333 
#    0.000    6.667    0.000    1.500    0.000    3.500 
#    0.000    0.000    0.000    0.000    0.000    0.000 
#
# Total GULP energy -267748.271076 kJ/mol
# GULP energy per Si atom -5578.088981 kJ/mol
# Density = 2.041629 g / cm^3
# Si number density = 20.462868 Si / 1000 Ang^3
#
#
#
# Elastic Constant Matrix: (Units=GPa)
#
#
# Indices 1 2 3 4 5 6 
#
# 1 43.9117 4.2732 6.3554 0.0000 0.0000 0.0000
# 2 4.2732 216.5762 151.5813 0.0000 0.0000 0.0000
# 3 6.3554 151.5813 172.0039 0.0000 0.0000 0.0000
# 4 0.0000 0.0000 0.0000 45.3475 0.0000 0.0000
# 5 0.0000 0.0000 0.0000 0.0000 16.1284 0.0000
# 6 0.0000 0.0000 0.0000 0.0000 0.0000 20.4153
#
#
#
# Elastic Compliance Matrix: (Units=1/GPa)
#
#
# Indices 1 2 3 4 5 6 
#
# 1 0.022907 0.000366 -0.001169 0.000000 0.000000 0.000000
# 2 0.000366 0.012055 -0.010637 0.000000 0.000000 0.000000
# 3 -0.001169 -0.010637 0.015231 0.000000 0.000000 0.000000
# 4 0.000000 0.000000 0.000000 0.022052 0.000000 0.000000
# 5 0.000000 0.000000 0.000000 0.000000 0.062003 0.000000
# 6 0.000000 0.000000 0.000000 0.000000 0.000000 0.048983
#
#
# Mechanical properties :
#
#
# Convention : Reuss Voigt Hill
#
# Bulk Modulus (GPa) = 36.61306 84.10129 60.35718
# Shear Modulus (GPa) = 23.23260 34.39704 28.81482
#
# Velocity S-wave (km/s) = 3.37316 4.10439 3.75661
# Velocity P-wave (km/s) = 5.75345 7.97810 6.95529
#
# Compressibility (1/GPa) = 0.02731266
#
# Stress axis : x y z
#
# Youngs Moduli (GPa) = 43.65559 82.95232 65.65413
#
# Poissons Ratio (x) = -0.03040 0.07677
# Poissons Ratio (y) = -0.01600 0.69838
# Poissons Ratio (z) = 0.05105 0.88239
#
# Static dielectric constant tensor:
#      x y z
#    x 1.795440 0.000000 0.000000 
#    y 0.000000 1.717730 0.000000 
#    z 0.000000 0.000000 1.713600 
# 
# From -- ./inp_files/2439.got.cif
#   From: 2010.05.17/outbox.cif.g08.bks.cpg/sg47_2_cif.got.tgz:2439.got - 2010.06.03 20:15:42.
