data_PCOD9384376
_publ_section_title
;
Structure prediction by ZEFSAII (Michael W. Deem and Ramdas Pophale) SiO2 
 PCOD9384376
Probable space group: P M M M
;
_chemical_formula_sum "Si O2"
_cell_formula_units_Z 52
_cell_length_a 7.746929
_cell_length_b 14.124540
_cell_length_c 27.807953
_cell_angle_alpha 90.000000
_cell_angle_beta 90.000000
_cell_angle_gamma 90.000000
_cell_volume 3042.796509
_symmetry_space_group_name_H-M "P M M M"
_symmetry_group_IT_number 47
_symmetry_cell_setting 'orthorhombic'
loop_
_space_group_symop_operation_xyz
x,y,z
-x,-y,z
x,-y,-z
-x,y,-z
-x,-y,-z
x,y,-z
-x,y,z
x,-y,z
loop_
_atom_site_type_symbol
_atom_site_label
_atom_site_fract_x
_atom_site_fract_y
_atom_site_fract_z
Si Si1 0.293530 0.391906 0.343872
Si Si2 0.711784 0.889454 0.000000
Si Si3 0.293764 0.796468 0.098747
Si Si4 0.293212 0.291020 0.248865
Si Si5 0.206161 0.393777 0.149926
Si Si6 0.288349 0.106502 0.196913
Si Si7 0.792327 0.389700 0.551816
O O1 0.500000 0.398029 0.338417
O O2 0.224733 0.500000 0.342779
O O3 0.224465 0.333692 0.298493
O O4 0.261268 0.349149 0.396756
O O5 0.771695 0.835533 0.951928
O O6 0.500000 0.888106 0.000000
O O7 0.762008 0.000000 0.000000
O O8 0.500000 0.808098 0.097697
O O9 0.260066 0.687278 0.112252
O O10 0.231257 0.858492 0.144093
O O11 0.500000 0.283697 0.253598
O O12 0.260094 0.358422 0.203035
O O13 0.229247 0.186976 0.234003
O O14 0.272738 0.500000 0.140619
O O15 0.000000 0.396840 0.149290
O O16 0.500000 0.107163 0.196784
O O17 0.232422 0.000000 0.206944
O O18 0.733739 0.349528 0.500000
O O19 0.734478 0.500000 0.552571
O O20 0.000000 0.389753 0.551280
#
# Coordination Sequence:
#
# PCOD9384376 Si02
#       7
#     8   4   8   8   8   8   8
#     4   9  16  24  35  54  80 107 134 165 201 240
#     4   9  16  28  50  77  96 108 133 175 214 249
#     4   9  17  29  47  69  89 110 136 168 206 247
#     4   9  17  28  43  63  85 109 138 172 208 247
#     4  10  20  32  45  61  83 113 146 176 206 242
#     4   8  13  23  41  63  84 106 132 161 197 243
#     4   8  14  24  36  50  71 102 138 170 199 235
#
# _framework density 17.089544
#
# number of rings (size 3 to 8) (size 9 to 14) (size 15 to 20)
#    0.000    3.154    0.000    2.769    0.000    4.615 
#    0.000    3.846    0.000   14.308    0.000    0.000 
#    0.000    0.615    0.000    7.692    0.000    1.538 
#
# Total GULP energy -289568.322389 kJ/mol
# GULP energy per Si atom -5568.621584 kJ/mol
# Density = 1.705065 g / cm^3
# Si number density = 17.089544 Si / 1000 Ang^3
#
#
#
# Elastic Constant Matrix: (Units=GPa)
#
#
# Indices 1 2 3 4 5 6 
#
# 1 20.4041 2.1156 6.6282 0.0000 0.0000 0.0000
# 2 2.1156 113.5002 83.8371 0.0000 0.0000 0.0000
# 3 6.6282 83.8371 173.4402 0.0000 0.0000 0.0000
# 4 0.0000 0.0000 0.0000 19.0951 0.0000 0.0000
# 5 0.0000 0.0000 0.0000 0.0000 44.9579 0.0000
# 6 0.0000 0.0000 0.0000 0.0000 0.0000 -125.8658
#
#
#
# Elastic Compliance Matrix: (Units=1/GPa)
#
#
# Indices 1 2 3 4 5 6 
#
# 1 0.049666 0.000741 -0.002256 0.000000 0.000000 0.000000
# 2 0.000741 0.013714 -0.006657 0.000000 0.000000 0.000000
# 3 -0.002256 -0.006657 0.009070 0.000000 0.000000 0.000000
# 4 0.000000 0.000000 0.000000 0.052369 0.000000 0.000000
# 5 0.000000 0.000000 0.000000 0.000000 0.022243 0.000000
# 6 0.000000 0.000000 0.000000 0.000000 0.000000 -0.007945
#
#
# Mechanical properties :
#
#
# Convention : Reuss Voigt Hill
#
# Bulk Modulus (GPa) = 17.82393 54.72293 36.27343
# Shear Modulus (GPa) = 28.70846 1.95502 15.33174
#
# Velocity S-wave (km/s) = 4.10309 1.07073 2.99848
# Velocity P-wave (km/s) = 5.73580 5.79823 5.76710
#
# Compressibility (1/GPa) = 0.05610435
#
# Stress axis : x y z
#
# Youngs Moduli (GPa) = 20.13458 72.91650 110.25385
#
# Poissons Ratio (x) = -0.05401 0.24874
# Poissons Ratio (y) = -0.01491 0.73401
# Poissons Ratio (z) = 0.04543 0.48544
#
# Static dielectric constant tensor:
#      x y z
#    x 1.622250 0.000000 0.000000 
#    y 0.000000 1.561120 0.000000 
#    z 0.000000 0.000000 1.605840 
# 
# From -- ./inp_files/33385.got.cif
#   From: 2010.05.17/outbox.cif.g08.bks.cpg/sg47_17_cif.got.tgz:33385.got - 2010.06.03 20:15:42.
