data_PCOD9384078
_publ_section_title
;
Structure prediction by ZEFSAII (Michael W. Deem and Ramdas Pophale) SiO2 
 PCOD9384078
Probable space group: P M M M
;
_chemical_formula_sum "Si O2"
_cell_formula_units_Z 64
_cell_length_a 18.527602
_cell_length_b 7.332728
_cell_length_c 21.040110
_cell_angle_alpha 90.000000
_cell_angle_beta 90.000000
_cell_angle_gamma 90.000000
_cell_volume 2858.464444
_symmetry_space_group_name_H-M "P M M M"
_symmetry_group_IT_number 47
_symmetry_cell_setting 'orthorhombic'
loop_
_space_group_symop_operation_xyz
x,y,z
-x,-y,z
x,-y,-z
-x,y,-z
-x,-y,-z
x,y,-z
-x,y,z
x,-y,z
loop_
_atom_site_type_symbol
_atom_site_label
_atom_site_fract_x
_atom_site_fract_y
_atom_site_fract_z
Si Si1 0.260698 0.777813 0.568619
Si Si2 0.577030 0.291432 0.122456
Si Si3 0.920964 0.777304 0.790041
Si Si4 0.275176 0.292918 0.075080
Si Si5 0.216604 0.777963 0.291980
Si Si6 0.377661 0.219856 0.741187
Si Si7 0.421559 0.221421 0.399918
Si Si8 0.888038 0.792781 0.928743
O O1 0.230294 0.722179 0.500000
O O2 0.221864 0.720344 0.633906
O O3 0.345024 0.720344 0.571337
O O4 0.260722 0.000000 0.570322
O O5 0.500000 0.211521 0.102725
O O6 0.578802 0.500000 0.097883
O O7 0.652894 0.205600 0.102802
O O8 0.581728 0.294687 0.198314
O O9 0.852977 0.716972 0.747754
O O10 0.917373 0.711979 0.863348
O O11 0.000000 0.729889 0.763734
O O12 0.916749 0.000000 0.792572
O O13 0.267665 0.500000 0.100212
O O14 0.198074 0.202028 0.083417
O O15 0.286859 0.301464 0.000000
O O16 0.293284 0.724863 0.260760
O O17 0.215626 0.000000 0.291872
O O18 0.413477 0.268587 0.674389
O O19 0.379854 0.000000 0.745188
O O20 0.500000 0.283672 0.423638
O O21 0.421788 0.000000 0.405358
O O22 0.914796 0.000000 0.932387
O O23 0.899432 0.712305 0.000000
#
# Coordination Sequence:
#
# PCOD9384078 Si02
#       8
#     8   8   8   8   8   8   8   8
#     4   8  13  20  30  46  71 104 137 169 207 243
#     4  10  20  30  40  58  82 105 134 175 214 243
#     4   9  16  25  39  60  84 107 130 161 204 249
#     4   9  18  32  47  60  77 106 140 169 202 247
#     4   8  14  24  38  56  77 103 136 170 202 244
#     4   9  16  27  43  59  77 105 138 168 203 249
#     4   8  13  20  31  50  74  98 127 163 202 245
#     4   9  17  29  46  67  87 106 133 171 207 239
#
# _framework density 22.389643
#
# number of rings (size 3 to 8) (size 9 to 14) (size 15 to 20)
#    0.000    3.250    0.000    2.625    0.000    3.000 
#    0.000    3.750    0.000    0.750    0.000    7.000 
#    0.000    8.000    0.000   27.500    0.000   23.000 
#
# Total GULP energy -356965.113128 kJ/mol
# GULP energy per Si atom -5577.579893 kJ/mol
# Density = 2.233868 g / cm^3
# Si number density = 22.389643 Si / 1000 Ang^3
#
#
#
# Elastic Constant Matrix: (Units=GPa)
#
#
# Indices 1 2 3 4 5 6 
#
# 1 148.9608 6.7045 71.4502 0.0000 0.0000 0.0000
# 2 6.7045 85.4823 1.9740 0.0000 0.0000 0.0000
# 3 71.4502 1.9740 82.5480 0.0000 0.0000 0.0000
# 4 0.0000 0.0000 0.0000 6.4586 0.0000 0.0000
# 5 0.0000 0.0000 0.0000 0.0000 -8.8712 0.0000
# 6 0.0000 0.0000 0.0000 0.0000 0.0000 -17.5387
#
#
#
# Elastic Compliance Matrix: (Units=1/GPa)
#
#
# Indices 1 2 3 4 5 6 
#
# 1 0.011518 -0.000673 -0.009953 0.000000 0.000000 0.000000
# 2 -0.000673 0.011744 0.000302 0.000000 0.000000 0.000000
# 3 -0.009953 0.000302 0.020722 0.000000 0.000000 0.000000
# 4 0.000000 0.000000 0.000000 0.154832 0.000000 0.000000
# 5 0.000000 0.000000 0.000000 0.000000 -0.112724 0.000000
# 6 0.000000 0.000000 0.000000 0.000000 0.000000 -0.057017
#
#
# Mechanical properties :
#
#
# Convention : Reuss Voigt Hill
#
# Bulk Modulus (GPa) = 42.85448 53.02761 47.94104
# Shear Modulus (GPa) = 86.95359 11.80056 49.37708
#
# Velocity S-wave (km/s) = 6.23866 2.29826 4.70121
# Velocity P-wave (km/s) = 8.43068 5.54780 7.13633
#
# Compressibility (1/GPa) = 0.02333478
#
# Stress axis : x y z
#
# Youngs Moduli (GPa) = 86.82422 85.14860 48.25822
#
# Poissons Ratio (x) = 0.05735 0.48031
# Poissons Ratio (y) = 0.05848 -0.01458
# Poissons Ratio (z) = 0.86416 -0.02572
#
# Static dielectric constant tensor:
#      x y z
#    x 1.824900 0.000000 0.000000 
#    y 0.000000 1.927600 0.000000 
#    z 0.000000 0.000000 1.819140 
# 
# From -- ./inp_files/32777.got.cif
#   From: 2010.05.17/outbox.cif.g08.bks.cpg/sg47_17_cif.got.tgz:32777.got - 2010.06.03 20:15:42.
