data_PCOD9384383
_publ_section_title
;
Structure prediction by ZEFSAII (Michael W. Deem and Ramdas Pophale) SiO2 
 PCOD9384383
Probable space group: P M M M
;
_chemical_formula_sum "Si O2"
_cell_formula_units_Z 52
_cell_length_a 7.734306
_cell_length_b 14.166683
_cell_length_c 27.738145
_cell_angle_alpha 90.000000
_cell_angle_beta 90.000000
_cell_angle_gamma 90.000000
_cell_volume 3039.253606
_symmetry_space_group_name_H-M "P M M M"
_symmetry_group_IT_number 47
_symmetry_cell_setting 'orthorhombic'
loop_
_space_group_symop_operation_xyz
x,y,z
-x,-y,z
x,-y,-z
-x,y,-z
-x,-y,-z
x,y,-z
-x,y,z
x,-y,z
loop_
_atom_site_type_symbol
_atom_site_label
_atom_site_fract_x
_atom_site_fract_y
_atom_site_fract_z
Si Si1 0.203477 0.212819 0.095680
Si Si2 0.212764 0.890815 0.000000
Si Si3 0.294169 0.893927 0.807223
Si Si4 0.211945 0.606964 0.150380
Si Si5 0.206630 0.608222 0.343057
Si Si6 0.208192 0.289513 0.752084
Si Si7 0.291997 0.609933 0.551905
O O1 0.273600 0.162926 0.048060
O O2 0.221383 0.146256 0.142493
O O3 0.273291 0.314915 0.112011
O O4 0.000000 0.226538 0.086738
O O5 0.000000 0.891559 0.000000
O O6 0.266474 0.000000 0.000000
O O7 0.500000 0.896871 0.812765
O O8 0.254143 0.817241 0.766163
O O9 0.230851 0.000000 0.797628
O O10 0.267836 0.500000 0.141886
O O11 0.265488 0.644729 0.203158
O O12 0.000000 0.607717 0.150011
O O13 0.274966 0.500000 0.340898
O O14 0.273515 0.670477 0.298695
O O15 0.238865 0.649505 0.396365
O O16 0.000000 0.601886 0.337584
O O17 0.000000 0.294207 0.751421
O O18 0.233044 0.650122 0.500000
O O19 0.500000 0.610041 0.551279
O O20 0.234323 0.500000 0.552646
#
# Coordination Sequence:
#
# PCOD9384383 Si02
#       7
#     8   4   8   8   8   8   8
#     4   9  17  29  46  65  83 108 139 166 199 246
#     4   9  16  26  42  64  86 105 133 175 212 243
#     4  10  20  32  45  62  84 107 132 167 209 247
#     4   8  13  23  40  60  82 107 134 165 199 235
#     4   9  16  25  39  61  87 112 140 176 213 244
#     4   9  17  28  43  62  83 109 139 168 202 248
#     4   8  14  24  36  51  76 113 152 182 208 242
#
# _framework density 17.109465
#
# number of rings (size 3 to 8) (size 9 to 14) (size 15 to 20)
#    0.000    3.154    0.000    2.769    0.000    4.615 
#    0.000    2.308    0.000   14.769    0.000    0.000 
#    0.000    5.538    0.000    6.769    0.000    5.231 
#
# Total GULP energy -289571.554305 kJ/mol
# GULP energy per Si atom -5568.683737 kJ/mol
# Density = 1.707052 g / cm^3
# Si number density = 17.109465 Si / 1000 Ang^3
#
#
#
# Elastic Constant Matrix: (Units=GPa)
#
#
# Indices 1 2 3 4 5 6 
#
# 1 19.5875 1.6379 -2.0457 0.0000 0.0000 0.0000
# 2 1.6379 137.2231 84.2377 0.0000 0.0000 0.0000
# 3 -2.0457 84.2377 151.6361 0.0000 0.0000 0.0000
# 4 0.0000 0.0000 0.0000 18.1397 0.0000 0.0000
# 5 0.0000 0.0000 0.0000 0.0000 58.0666 0.0000
# 6 0.0000 0.0000 0.0000 0.0000 0.0000 -4.9577
#
#
#
# Elastic Compliance Matrix: (Units=1/GPa)
#
#
# Indices 1 2 3 4 5 6 
#
# 1 0.051348 -0.001575 0.001568 0.000000 0.000000 0.000000
# 2 -0.001575 0.011107 -0.006191 0.000000 0.000000 0.000000
# 3 0.001568 -0.006191 0.010055 0.000000 0.000000 0.000000
# 4 0.000000 0.000000 0.000000 0.055128 0.000000 0.000000
# 5 0.000000 0.000000 0.000000 0.000000 0.017222 0.000000
# 6 0.000000 0.000000 0.000000 0.000000 0.000000 -0.201706
#
#
# Mechanical properties :
#
#
# Convention : Reuss Voigt Hill
#
# Bulk Modulus (GPa) = 16.63536 52.90072 34.76804
# Shear Modulus (GPa) = -204.82655 29.22419 -87.80118
#
# Velocity S-wave (km/s) = -10.95332 4.13737 -7.17138
# Velocity P-wave (km/s) = 12.25655 7.33552 6.94310
#
# Compressibility (1/GPa) = 0.06011291
#
# Stress axis : x y z
#
# Youngs Moduli (GPa) = 19.47480 90.03341 99.44904
#
# Poissons Ratio (x) = 0.14184 -0.15592
# Poissons Ratio (y) = 0.03068 0.61574
# Poissons Ratio (z) = -0.03053 0.55744
#
# Static dielectric constant tensor:
#      x y z
#    x 1.628540 0.000000 0.000000 
#    y 0.000000 1.572550 0.000000 
#    z 0.000000 0.000000 1.603550 
# 
# From -- ./inp_files/33376.got.cif
#   From: 2010.05.17/outbox.cif.g08.bks.cpg/sg47_17_cif.got.tgz:33376.got - 2010.06.03 20:15:42.
