data_PCOD9384263
_publ_section_title
;
Structure prediction by ZEFSAII (Michael W. Deem and Ramdas Pophale) SiO2 
 PCOD9384263
Probable space group: P M M M
;
_chemical_formula_sum "Si O2"
_cell_formula_units_Z 48
_cell_length_a 7.347226
_cell_length_b 9.890953
_cell_length_c 31.343528
_cell_angle_alpha 90.000000
_cell_angle_beta 90.000000
_cell_angle_gamma 90.000000
_cell_volume 2277.767625
_symmetry_space_group_name_H-M "P M M M"
_symmetry_group_IT_number 47
_symmetry_cell_setting 'orthorhombic'
loop_
_space_group_symop_operation_xyz
x,y,z
-x,-y,z
x,-y,-z
-x,y,-z
-x,-y,-z
x,y,-z
-x,y,z
x,-y,z
loop_
_atom_site_type_symbol
_atom_site_label
_atom_site_fract_x
_atom_site_fract_y
_atom_site_fract_z
Si Si1 0.281239 0.151850 0.951577
Si Si2 0.778524 0.845684 0.297642
Si Si3 0.785236 0.348215 0.126196
Si Si4 0.222461 0.344556 0.374552
Si Si5 0.221551 0.154175 0.451407
Si Si6 0.221975 0.154028 0.799537
O O1 0.500000 0.147620 0.952763
O O2 0.232327 0.263671 0.917216
O O3 0.218512 0.000000 0.939517
O O4 0.218909 0.180113 0.000000
O O5 0.719052 0.738558 0.332783
O O6 0.722981 0.814688 0.249067
O O7 0.000000 0.845401 0.298035
O O8 0.723224 0.000000 0.307840
O O9 0.710850 0.500000 0.123113
O O10 0.711584 0.259038 0.165285
O O11 0.000000 0.360258 0.134345
O O12 0.280794 0.500000 0.374504
O O13 0.280845 0.261742 0.416389
O O14 0.000000 0.344795 0.374544
O O15 0.278073 0.184017 0.500000
O O16 0.000000 0.154811 0.451189
O O17 0.276275 0.000000 0.440859
O O18 0.000000 0.154520 0.799986
O O19 0.277367 0.000000 0.809622
#
# Coordination Sequence:
#
# PCOD9384263 Si02
#       6
#     8   8   8   8   8   8
#     4   9  19  36  55  72  90 116 152 189 221 255
#     4   8  13  21  32  44  59  82 112 144 179 223
#     4  10  20  31  45  69  98 123 146 176 217 264
#     4   9  15  19  24  36  52  70  94 128 173 224
#     4   8  13  20  27  32  40  59  89 126 169 217
#     4   8  14  25  40  56  75 102 134 165 198 238
#
# _framework density 21.073264999999999
#
# number of rings (size 3 to 8) (size 9 to 14) (size 15 to 20)
#    0.000    3.333    0.000    3.000    0.000    5.000 
#    0.000    7.500    0.000    0.000    0.000    0.000 
#    0.000    0.000    0.000    0.000    0.000    0.000 
#
# Total GULP energy -267915.392104 kJ/mol
# GULP energy per Si atom -5581.570669 kJ/mol
# Density = 2.102530 g / cm^3
# Si number density = 21.073265 Si / 1000 Ang^3
#
#
#
# Elastic Constant Matrix: (Units=GPa)
#
#
# Indices 1 2 3 4 5 6 
#
# 1 78.4208 7.0789 2.4613 0.0000 0.0000 0.0000
# 2 7.0789 226.1761 170.4049 0.0000 0.0000 0.0000
# 3 2.4613 170.4049 179.7257 0.0000 0.0000 0.0000
# 4 0.0000 0.0000 0.0000 -9.8317 0.0000 0.0000
# 5 0.0000 0.0000 0.0000 0.0000 57.4839 0.0000
# 6 0.0000 0.0000 0.0000 0.0000 0.0000 -18.2319
#
#
#
# Elastic Compliance Matrix: (Units=1/GPa)
#
#
# Indices 1 2 3 4 5 6 
#
# 1 0.012814 -0.000941 0.000717 0.000000 0.000000 0.000000
# 2 -0.000941 0.015547 -0.014728 0.000000 0.000000 0.000000
# 3 0.000717 -0.014728 0.019518 0.000000 0.000000 0.000000
# 4 0.000000 0.000000 0.000000 -0.101712 0.000000 0.000000
# 5 0.000000 0.000000 0.000000 0.000000 0.017396 0.000000
# 6 0.000000 0.000000 0.000000 0.000000 0.000000 -0.054849
#
#
# Mechanical properties :
#
#
# Convention : Reuss Voigt Hill
#
# Bulk Modulus (GPa) = 55.63228 93.80143 74.71686
# Shear Modulus (GPa) = -90.26926 26.17590 -32.04668
#
# Velocity S-wave (km/s) = -6.55202 3.52822 -3.90388
# Velocity P-wave (km/s) = 5.54813 7.82346 3.90030
#
# Compressibility (1/GPa) = 0.01797517
#
# Stress axis : x y z
#
# Youngs Moduli (GPa) = 78.03855 64.32132 51.23426
#
# Poissons Ratio (x) = 0.06054 -0.03673
# Poissons Ratio (y) = 0.07345 0.75457
# Poissons Ratio (z) = -0.05594 0.94731
#
# Static dielectric constant tensor:
#      x y z
#    x 1.940670 0.000000 0.000000 
#    y 0.000000 1.719840 0.000000 
#    z 0.000000 0.000000 1.723500 
# 
# From -- ./inp_files/2485.got.cif
#   From: 2010.05.17/outbox.cif.g08.bks.cpg/sg47_2_cif.got.tgz:2485.got - 2010.06.03 20:15:42.
