data_PCOD9384251
_publ_section_title
;
Structure prediction by ZEFSAII (Michael W. Deem and Ramdas Pophale) SiO2 
 PCOD9384251
Probable space group: P M M M
;
_chemical_formula_sum "Si O2"
_cell_formula_units_Z 52
_cell_length_a 8.882439
_cell_length_b 15.689313
_cell_length_c 23.317993
_cell_angle_alpha 90.000000
_cell_angle_beta 90.000000
_cell_angle_gamma 90.000000
_cell_volume 3249.580713
_symmetry_space_group_name_H-M "P M M M"
_symmetry_group_IT_number 47
_symmetry_cell_setting 'orthorhombic'
loop_
_space_group_symop_operation_xyz
x,y,z
-x,-y,z
x,-y,-z
-x,y,-z
-x,-y,-z
x,y,-z
-x,y,z
x,-y,z
loop_
_atom_site_type_symbol
_atom_site_label
_atom_site_fract_x
_atom_site_fract_y
_atom_site_fract_z
Si Si1 0.673143 0.000000 0.568303
Si Si2 0.819004 0.644834 0.437646
Si Si3 0.181739 0.594756 0.310174
Si Si4 0.674930 0.103166 0.936786
Si Si5 0.179645 0.099314 0.182999
Si Si6 0.676191 0.817183 0.401098
Si Si7 0.325917 0.764806 0.268430
O O1 0.741015 0.089212 0.587598
O O2 0.500000 0.000000 0.590821
O O3 0.667920 0.000000 0.500000
O O4 0.766928 0.611078 0.500000
O O5 0.768478 0.603693 0.377297
O O6 0.766183 0.742531 0.432166
O O7 0.000000 0.639183 0.437603
O O8 0.223084 0.500000 0.290111
O O9 0.249052 0.672058 0.273513
O O10 0.000000 0.602036 0.309685
O O11 0.500000 0.128334 0.929519
O O12 0.769706 0.126201 0.881025
O O13 0.677660 0.000000 0.938512
O O14 0.726872 0.132797 0.000000
O O15 0.248082 0.166266 0.227584
O O16 0.000000 0.100146 0.187078
O O17 0.229840 0.000000 0.192540
O O18 0.500000 0.814748 0.419936
O O19 0.680282 0.799551 0.333505
O O20 0.500000 0.755667 0.251730
#
# Coordination Sequence:
#
# PCOD9384251 Si02
#       7
#     4   8   8   8   8   8   8
#     4   9  16  26  41  59  77 101 140 185 222 265
#     4   9  17  29  45  65  88 110 136 175 224 280
#     4   9  18  33  51  68  89 117 147 185 235 289
#     4   8  14  26  44  66  94 129 166 200 233 267
#     4  10  20  31  45  68  98 132 167 199 232 272
#     4   9  18  30  44  60  79 110 147 185 228 272
#     4  10  20  32  48  67  90 120 155 197 236 277
#
# _framework density 16.002065000000002
#
# number of rings (size 3 to 8) (size 9 to 14) (size 15 to 20)
#    0.000    2.846    0.000    1.846    1.077    3.385 
#    0.000    3.462    0.000    1.385    0.000    4.308 
#    0.000    0.615    0.000    6.462    0.000    3.077 
#
# Total GULP energy -289541.878225 kJ/mol
# GULP energy per Si atom -5568.113043 kJ/mol
# Density = 1.596564 g / cm^3
# Si number density = 16.002065 Si / 1000 Ang^3
#
#
#
# Elastic Constant Matrix: (Units=GPa)
#
#
# Indices 1 2 3 4 5 6 
#
# 1 32.2715 27.5938 31.4868 0.0000 0.0000 0.0000
# 2 27.5938 105.5565 36.9484 0.0000 0.0000 0.0000
# 3 31.4868 36.9484 78.0740 0.0000 0.0000 0.0000
# 4 0.0000 0.0000 0.0000 3.9666 0.0000 0.0000
# 5 0.0000 0.0000 0.0000 0.0000 20.0059 0.0000
# 6 0.0000 0.0000 0.0000 0.0000 0.0000 16.2360
#
#
#
# Elastic Compliance Matrix: (Units=1/GPa)
#
#
# Indices 1 2 3 4 5 6 
#
# 1 0.056358 -0.008122 -0.018885 0.000000 0.000000 0.000000
# 2 -0.008122 0.012525 -0.002652 0.000000 0.000000 0.000000
# 3 -0.018885 -0.002652 0.021679 0.000000 0.000000 0.000000
# 4 0.000000 0.000000 0.000000 0.252106 0.000000 0.000000
# 5 0.000000 0.000000 0.000000 0.000000 0.049985 0.000000
# 6 0.000000 0.000000 0.000000 0.000000 0.000000 0.061592
#
#
# Mechanical properties :
#
#
# Convention : Reuss Voigt Hill
#
# Bulk Modulus (GPa) = 32.00578 45.32888 38.66733
# Shear Modulus (GPa) = 9.54239 16.03324 12.78782
#
# Velocity S-wave (km/s) = 2.44462 3.16879 2.82997
# Velocity P-wave (km/s) = 5.29270 6.46349 5.90717
#
# Compressibility (1/GPa) = 0.03124435
#
# Stress axis : x y z
#
# Youngs Moduli (GPa) = 17.74385 79.83981 46.12662
#
# Poissons Ratio (x) = 0.64848 0.87109
# Poissons Ratio (y) = 0.14412 0.12232
# Poissons Ratio (z) = 0.33509 0.21172
#
# Static dielectric constant tensor:
#      x y z
#    x 1.548390 0.000000 0.000000 
#    y 0.000000 1.537370 0.000000 
#    z 0.000000 0.000000 1.541300 
# 
# From -- ./inp_files/11057.got.cif
#   From: 2010.05.17/outbox.cif.g08.bks.cpg/sg47_6_cif.got.tgz:11057.got - 2010.06.03 20:15:42.
