data_PCOD9384956
_publ_section_title
;
Structure prediction by ZEFSAII (Michael W. Deem and Ramdas Pophale) SiO2 
 PCOD9384956
Probable space group: P M M M
;
_chemical_formula_sum "Si O2"
_cell_formula_units_Z 64
_cell_length_a 19.038468
_cell_length_b 21.730013
_cell_length_c 8.124373
_cell_angle_alpha 90.000000
_cell_angle_beta 90.000000
_cell_angle_gamma 90.000000
_cell_volume 3361.103133
_symmetry_space_group_name_H-M "P M M M"
_symmetry_group_IT_number 47
_symmetry_cell_setting 'orthorhombic'
loop_
_space_group_symop_operation_xyz
x,y,z
-x,-y,z
x,-y,-z
-x,y,-z
-x,-y,-z
x,y,-z
-x,y,z
x,-y,z
loop_
_atom_site_type_symbol
_atom_site_label
_atom_site_fract_x
_atom_site_fract_y
_atom_site_fract_z
Si Si1 0.581115 0.430813 0.200847
Si Si2 0.082842 0.066267 0.802061
Si Si3 0.919308 0.801887 0.302349
Si Si4 0.416789 0.933284 0.197907
Si Si5 0.671522 0.315615 0.804518
Si Si6 0.419056 0.199732 0.304295
Si Si7 0.831398 0.314454 0.697644
Si Si8 0.918841 0.569196 0.299165
O O1 0.500000 0.420635 0.250183
O O2 0.602060 0.500000 0.252032
O O3 0.630353 0.375857 0.260329
O O4 0.581862 0.430123 0.000000
O O5 0.111405 0.130928 0.739223
O O6 0.000000 0.066355 0.755532
O O7 0.112277 0.000000 0.745586
O O8 0.086207 0.067088 0.000000
O O9 0.922621 0.797687 0.500000
O O10 0.872756 0.745577 0.239354
O O11 0.000000 0.797803 0.240051
O O12 0.500000 0.933763 0.240119
O O13 0.389715 0.868440 0.264522
O O14 0.387903 0.000000 0.253940
O O15 0.411462 0.931716 0.000000
O O16 0.627131 0.254555 0.766697
O O17 0.749624 0.311662 0.735760
O O18 0.676800 0.322063 0.000000
O O19 0.421039 0.206453 0.500000
O O20 0.500000 0.203438 0.241357
O O21 0.839498 0.314664 0.500000
O O22 0.867958 0.376976 0.759929
O O23 0.917177 0.568910 0.500000
O O24 0.899937 0.500000 0.245092
O O25 0.000000 0.581353 0.253074
#
# Coordination Sequence:
#
# PCOD9384956 Si02
#       8
#     8   8   8   8   8   8   8   8
#     4   8  15  30  52  75  96 120 155 199 243 287
#     4   8  14  25  42  66  95 123 151 189 239 290
#     4   9  17  29  47  70  94 124 162 201 241 285
#     4   8  14  26  46  73 103 132 163 201 244 291
#     4  11  22  34  50  72  99 133 170 205 243 294
#     4  10  20  33  51  75 102 132 166 206 251 296
#     4  10  20  33  48  69 100 132 162 203 249 289
#     4   8  14  27  50  77 100 126 164 205 244 292
#
# _framework density 19.041367000000001
#
# number of rings (size 3 to 8) (size 9 to 14) (size 15 to 20)
#    0.000    3.000    0.000    3.000    0.000    4.250 
#    0.000    2.500    0.000    3.000    0.000    8.750 
#    0.000    0.000    0.000    0.000    0.000    0.000 
#
# Total GULP energy -356584.408816 kJ/mol
# GULP energy per Si atom -5571.631388 kJ/mol
# Density = 1.899803 g / cm^3
# Si number density = 19.041367 Si / 1000 Ang^3
#
#
#
# Elastic Constant Matrix: (Units=GPa)
#
#
# Indices 1 2 3 4 5 6 
#
# 1 72.5550 85.5440 0.4894 0.0000 0.0000 0.0000
# 2 85.5440 195.2526 7.7452 0.0000 0.0000 0.0000
# 3 0.4894 7.7452 4.9592 0.0000 0.0000 0.0000
# 4 0.0000 0.0000 0.0000 0.7033 0.0000 0.0000
# 5 0.0000 0.0000 0.0000 0.0000 9.9214 0.0000
# 6 0.0000 0.0000 0.0000 0.0000 0.0000 -4.1086
#
#
#
# Elastic Compliance Matrix: (Units=1/GPa)
#
#
# Indices 1 2 3 4 5 6 
#
# 1 0.030063 -0.013916 0.018766 0.000000 0.000000 0.000000
# 2 -0.013916 0.011901 -0.017214 0.000000 0.000000 0.000000
# 3 0.018766 -0.017214 0.226678 0.000000 0.000000 0.000000
# 4 0.000000 0.000000 0.000000 1.421781 0.000000 0.000000
# 5 0.000000 0.000000 0.000000 0.000000 0.100793 0.000000
# 6 0.000000 0.000000 0.000000 0.000000 0.000000 -0.243390
#
#
# Mechanical properties :
#
#
# Convention : Reuss Voigt Hill
#
# Bulk Modulus (GPa) = 4.09978 51.14711 27.62344
# Shear Modulus (GPa) = 3.02324 13.23577 8.12950
#
# Velocity S-wave (km/s) = 1.26142 2.63935 2.06849
# Velocity P-wave (km/s) = 2.06865 6.01727 4.49927
#
# Compressibility (1/GPa) = 0.24391581
#
# Stress axis : x y z
#
# Youngs Moduli (GPa) = 33.26374 84.02618 4.41155
#
# Poissons Ratio (x) = 1.16927 -0.08279
# Poissons Ratio (y) = 0.46288 0.07594
# Poissons Ratio (z) = -0.62424 1.44640
#
# Static dielectric constant tensor:
#      x y z
#    x 1.628010 0.000000 0.000000 
#    y 0.000000 1.699050 0.000000 
#    z 0.000000 0.000000 1.675400 
# 
# From -- ./inp_files/10011.got.cif
#   From: 2010.05.17/outbox.cif.g08.bks.cpg/sg47_6_cif.got.tgz:10011.got - 2010.06.03 20:15:42.
