data_PCOD9384384
_publ_section_title
;
Structure prediction by ZEFSAII (Michael W. Deem and Ramdas Pophale) SiO2 
 PCOD9384384
Probable space group: P M M M
;
_chemical_formula_sum "Si O2"
_cell_formula_units_Z 52
_cell_length_a 13.664288
_cell_length_b 9.583660
_cell_length_c 25.260122
_cell_angle_alpha 90.000000
_cell_angle_beta 90.000000
_cell_angle_gamma 90.000000
_cell_volume 3307.911246
_symmetry_space_group_name_H-M "P M M M"
_symmetry_group_IT_number 47
_symmetry_cell_setting 'orthorhombic'
loop_
_space_group_symop_operation_xyz
x,y,z
-x,-y,z
x,-y,-z
-x,y,-z
-x,-y,-z
x,y,-z
-x,y,z
x,-y,z
loop_
_atom_site_type_symbol
_atom_site_label
_atom_site_fract_x
_atom_site_fract_y
_atom_site_fract_z
Si Si1 0.384603 0.663125 0.705594
Si Si2 0.114447 0.663632 0.104823
Si Si3 0.618673 0.160380 0.398021
Si Si4 0.118212 0.841395 0.000000
Si Si5 0.380592 0.338268 0.500000
Si Si6 0.291054 0.662478 0.817328
Si Si7 0.619042 0.343380 0.000000
Si Si8 0.383750 0.844654 0.902307
O O1 0.500000 0.687885 0.720310
O O2 0.379334 0.500000 0.689276
O O3 0.358114 0.762920 0.656986
O O4 0.312571 0.682443 0.755409
O O5 0.124001 0.500000 0.089984
O O6 0.185075 0.686485 0.155458
O O7 0.000000 0.688738 0.117750
O O8 0.140842 0.758020 0.054096
O O9 0.500000 0.156575 0.400599
O O10 0.651055 0.253591 0.447832
O O11 0.652879 0.000000 0.400476
O O12 0.000000 0.849484 0.000000
O O13 0.157039 0.000000 0.000000
O O14 0.349358 0.500000 0.500000
O O15 0.500000 0.339619 0.500000
O O16 0.317065 0.500000 0.828747
O O17 0.360001 0.769165 0.847988
O O18 0.648934 0.257317 0.948856
O O19 0.657381 0.500000 0.000000
O O20 0.500000 0.351107 0.000000
O O21 0.500000 0.856121 0.908220
O O22 0.341674 0.000000 0.905747
#
# Coordination Sequence:
#
# PCOD9384384 Si02
#       8
#     8   8   8   4   4   8   4   8
#     4   9  17  29  43  59  82 113 148 182 212 245
#     4   9  18  33  51  69  88 109 135 171 216 264
#     4   9  16  25  38  57  82 112 146 183 219 251
#     4   9  17  30  49  70  88 106 130 164 211 267
#     4   9  15  23  37  57  81 111 148 185 218 251
#     4  10  20  32  47  65  84 111 145 176 209 254
#     4   9  17  30  47  62  78 104 136 168 203 245
#     4  10  20  32  45  62  84 107 133 169 210 249
#
# _framework density 15.719889999999999
#
# number of rings (size 3 to 8) (size 9 to 14) (size 15 to 20)
#    0.000    2.692    0.000    2.077    0.000    8.000 
#    0.000    2.308    0.000    0.000    0.000    0.000 
#    0.000    0.000    0.000    0.692    0.000   16.385 
#
# Total GULP energy -289760.779841 kJ/mol
# GULP energy per Si atom -5572.322689 kJ/mol
# Density = 1.568411 g / cm^3
# Si number density = 15.719890 Si / 1000 Ang^3
#
#
#
# Elastic Constant Matrix: (Units=GPa)
#
#
# Indices 1 2 3 4 5 6 
#
# 1 50.8980 27.8724 25.9842 0.0000 0.0000 0.0000
# 2 27.8724 133.9202 90.4727 0.0000 0.0000 0.0000
# 3 25.9842 90.4727 114.2343 0.0000 0.0000 0.0000
# 4 0.0000 0.0000 0.0000 38.2207 0.0000 0.0000
# 5 0.0000 0.0000 0.0000 0.0000 12.7645 0.0000
# 6 0.0000 0.0000 0.0000 0.0000 0.0000 8.6649
#
#
#
# Elastic Compliance Matrix: (Units=1/GPa)
#
#
# Indices 1 2 3 4 5 6 
#
# 1 0.022659 -0.002654 -0.003052 0.000000 0.000000 0.000000
# 2 -0.002654 0.016371 -0.012362 0.000000 0.000000 0.000000
# 3 -0.003052 -0.012362 0.019239 0.000000 0.000000 0.000000
# 4 0.000000 0.000000 0.000000 0.026164 0.000000 0.000000
# 5 0.000000 0.000000 0.000000 0.000000 0.078343 0.000000
# 6 0.000000 0.000000 0.000000 0.000000 0.000000 0.115408
#
#
# Mechanical properties :
#
#
# Convention : Reuss Voigt Hill
#
# Bulk Modulus (GPa) = 45.18292 65.30123 55.24207
# Shear Modulus (GPa) = 15.54263 22.24489 18.89376
#
# Velocity S-wave (km/s) = 3.14781 3.76583 3.47061
# Velocity P-wave (km/s) = 6.48201 7.78071 7.16086
#
# Compressibility (1/GPa) = 0.02213226
#
# Stress axis : x y z
#
# Youngs Moduli (GPa) = 44.13328 61.08417 51.97844
#
# Poissons Ratio (x) = 0.16211 0.15865
# Poissons Ratio (y) = 0.11713 0.64255
# Poissons Ratio (z) = 0.13470 0.75512
#
# Static dielectric constant tensor:
#      x y z
#    x 1.537290 0.000000 0.000000 
#    y 0.000000 1.539100 0.000000 
#    z 0.000000 0.000000 1.539020 
# 
# From -- ./inp_files/12598.got.cif
#   From: 2010.05.17/outbox.cif.g08.bks.cpg/sg47_7_cif.got.tgz:12598.got - 2010.06.03 20:15:42.
