data_PCOD9384235
_publ_section_title
;
Structure prediction by ZEFSAII (Michael W. Deem and Ramdas Pophale) SiO2 
 PCOD9384235
Probable space group: P M M M
;
_chemical_formula_sum "Si O2"
_cell_formula_units_Z 44
_cell_length_a 29.447419
_cell_length_b 7.710067
_cell_length_c 9.850818
_cell_angle_alpha 90.000000
_cell_angle_beta 90.000000
_cell_angle_gamma 90.000000
_cell_volume 2236.545219
_symmetry_space_group_name_H-M "P M M M"
_symmetry_group_IT_number 47
_symmetry_cell_setting 'orthorhombic'
loop_
_space_group_symop_operation_xyz
x,y,z
-x,-y,z
x,-y,-z
-x,y,-z
-x,-y,-z
x,y,-z
-x,y,z
x,-y,z
loop_
_atom_site_type_symbol
_atom_site_label
_atom_site_fract_x
_atom_site_fract_y
_atom_site_fract_z
Si Si1 0.318691 0.206852 0.153803
Si Si2 0.949975 0.208307 0.154464
Si Si3 0.599467 0.786872 0.342798
Si Si4 0.500000 0.800088 0.335115
Si Si5 0.866803 0.707896 0.652517
Si Si6 0.234981 0.709357 0.655551
O O1 0.360839 0.273439 0.243557
O O2 0.272729 0.235497 0.237934
O O3 0.325121 0.000000 0.144303
O O4 0.316770 0.275988 0.000000
O O5 0.907679 0.252086 0.247754
O O6 0.000000 0.269272 0.202411
O O7 0.951905 0.000000 0.149221
O O8 0.943550 0.271530 0.000000
O O9 0.607670 0.736338 0.500000
O O10 0.549158 0.725511 0.298402
O O11 0.598422 0.000000 0.342543
O O12 0.500000 0.803282 0.500000
O O13 0.500000 0.000000 0.287502
O O14 0.876274 0.772788 0.500000
O O15 0.863756 0.500000 0.645754
O O16 0.816164 0.769130 0.691947
O O17 0.244794 0.766986 0.500000
O O18 0.235009 0.500000 0.653643
#
# Coordination Sequence:
#
# PCOD9384235 Si02
#       6
#     8   8   8   4   8   8
#     4  10  20  31  44  68 100 128 156 192 234 282
#     4   9  19  35  52  72 101 134 164 193 227 272
#     4   8  13  23  40  61  87 120 156 193 232 274
#     4   7  10  18  35  59  84 113 152 193 230 270
#     4   9  19  35  53  74  98 122 154 199 244 283
#     4   9  19  36  54  70  91 122 160 199 239 284
#
# _framework density 19.673200999999999
#
# number of rings (size 3 to 8) (size 9 to 14) (size 15 to 20)
#    0.000    3.182    0.000    3.273    0.000    4.364 
#    0.000    8.636    0.000    2.727    0.000    0.636 
#    0.000    5.091    0.000    0.000    0.000    0.000 
#
# Total GULP energy -245196.733549 kJ/mol
# GULP energy per Si atom -5572.653035 kJ/mol
# Density = 1.962842 g / cm^3
# Si number density = 19.673201 Si / 1000 Ang^3
#
#
#
# Elastic Constant Matrix: (Units=GPa)
#
#
# Indices 1 2 3 4 5 6 
#
# 1 221.7038 5.2358 136.5436 0.0000 0.0000 0.0000
# 2 5.2358 28.2432 6.8270 0.0000 0.0000 0.0000
# 3 136.5436 6.8270 132.7433 0.0000 0.0000 0.0000
# 4 0.0000 0.0000 0.0000 17.7707 0.0000 0.0000
# 5 0.0000 0.0000 0.0000 0.0000 -34.4280 0.0000
# 6 0.0000 0.0000 0.0000 0.0000 0.0000 32.5273
#
#
#
# Elastic Compliance Matrix: (Units=1/GPa)
#
#
# Indices 1 2 3 4 5 6 
#
# 1 0.012325 0.000789 -0.012718 0.000000 0.000000 0.000000
# 2 0.000789 0.035903 -0.002659 0.000000 0.000000 0.000000
# 3 -0.012718 -0.002659 0.020753 0.000000 0.000000 0.000000
# 4 0.000000 0.000000 0.000000 0.056273 0.000000 0.000000
# 5 0.000000 0.000000 0.000000 0.000000 -0.029046 0.000000
# 6 0.000000 0.000000 0.000000 0.000000 0.000000 0.030743
#
#
# Mechanical properties :
#
#
# Convention : Reuss Voigt Hill
#
# Bulk Modulus (GPa) = 25.12209 75.54479 50.33344
# Shear Modulus (GPa) = 29.51703 18.77959 24.14831
#
# Velocity S-wave (km/s) = 3.87766 3.09297 3.50733
# Velocity P-wave (km/s) = 5.73112 7.15811 6.48399
#
# Compressibility (1/GPa) = 0.03980560
#
# Stress axis : x y z
#
# Youngs Moduli (GPa) = 81.13656 27.85278 48.18685
#
# Poissons Ratio (x) = -0.02199 0.61286
# Poissons Ratio (y) = -0.06405 0.12811
# Poissons Ratio (z) = 1.03192 0.07405
#
# Static dielectric constant tensor:
#      x y z
#    x 1.706280 0.000000 0.000000 
#    y 0.000000 1.744700 0.000000 
#    z 0.000000 0.000000 1.670480 
# 
# From -- ./inp_files/1988.got.cif
#   From: 2010.05.17/outbox.cif.g08.bks.cpg/sg47_1_cif.got.tgz:1988.got - 2010.06.03 20:15:42.
