data_PCOD9384155
_publ_section_title
;
Structure prediction by ZEFSAII (Michael W. Deem and Ramdas Pophale) SiO2 
 PCOD9384155
Probable space group: P M M M
;
_chemical_formula_sum "Si O2"
_cell_formula_units_Z 60
_cell_length_a 7.851814
_cell_length_b 14.778598
_cell_length_c 23.902376
_cell_angle_alpha 90.000000
_cell_angle_beta 90.000000
_cell_angle_gamma 90.000000
_cell_volume 2773.603092
_symmetry_space_group_name_H-M "P M M M"
_symmetry_group_IT_number 47
_symmetry_cell_setting 'orthorhombic'
loop_
_space_group_symop_operation_xyz
x,y,z
-x,-y,z
x,-y,-z
-x,y,-z
-x,-y,-z
x,y,-z
-x,y,z
x,-y,z
loop_
_atom_site_type_symbol
_atom_site_label
_atom_site_fract_x
_atom_site_fract_y
_atom_site_fract_z
Si Si1 0.804158 0.790964 0.670631
Si Si2 0.301223 0.096392 0.094720
Si Si3 0.198016 0.500000 0.431860
Si Si4 0.790472 0.701541 0.564320
Si Si5 0.294299 0.704699 0.938247
Si Si6 0.304909 0.402024 0.292534
Si Si7 0.197348 0.147552 0.786320
Si Si8 0.191120 0.641979 0.822568
O O1 0.731345 0.777745 0.608402
O O2 0.800900 0.685740 0.690453
O O3 0.730395 0.848139 0.722851
O O4 0.000000 0.820720 0.665822
O O5 0.500000 0.095996 0.078752
O O6 0.230226 0.191785 0.072406
O O7 0.289219 0.099522 0.162423
O O8 0.225613 0.000000 0.076037
O O9 0.198905 0.500000 0.500000
O O10 0.269992 0.599968 0.418478
O O11 0.000000 0.500000 0.415020
O O12 0.742180 0.717917 0.500000
O O13 0.000000 0.699529 0.566138
O O14 0.500000 0.708582 0.936428
O O15 0.240059 0.641020 0.887284
O O16 0.240797 0.675459 0.000000
O O17 0.500000 0.389597 0.310116
O O18 0.241302 0.500000 0.312398
O O19 0.302985 0.402924 0.224967
O O20 0.196299 0.251791 0.806354
O O21 0.000000 0.116935 0.784372
O O22 0.000000 0.608531 0.815128
#
# Coordination Sequence:
#
# PCOD9384155 Si02
#       8
#     8   8   4   8   8   8   8   8
#     4   9  17  27  42  63  84 109 143 181 214 252
#     4   9  17  28  43  64  88 114 144 173 199 234
#     4   7  10  16  26  44  71 101 131 163 200 239
#     4   8  13  21  34  55  82 109 139 176 215 251
#     4   9  17  29  46  67  91 119 144 165 197 243
#     4  10  20  31  43  61  84 109 139 178 224 267
#     4   8  15  27  40  58  83 109 138 170 210 254
#     4   9  17  30  47  64  83 109 142 179 214 249
#
# _framework density 21.63251
#
# number of rings (size 3 to 8) (size 9 to 14) (size 15 to 20)
#    0.000    3.267    0.000    2.400    0.933    5.067 
#    0.000    1.333    0.000    0.800    0.000    7.467 
#    0.000    0.533    0.000    6.667    0.000    1.067 
#
# Total GULP energy -334081.175515 kJ/mol
# GULP energy per Si atom -5568.019592 kJ/mol
# Density = 2.158327 g / cm^3
# Si number density = 21.632510 Si / 1000 Ang^3
#
#
#
# Elastic Constant Matrix: (Units=GPa)
#
#
# Indices 1 2 3 4 5 6 
#
# 1 38.2919 0.0013 4.3555 0.0000 0.0000 0.0000
# 2 0.0013 16.2118 -13.5899 0.0000 0.0000 0.0000
# 3 4.3555 -13.5899 125.0459 0.0000 0.0000 0.0000
# 4 0.0000 0.0000 0.0000 -3.6313 0.0000 0.0000
# 5 0.0000 0.0000 0.0000 0.0000 -36.1701 0.0000
# 6 0.0000 0.0000 0.0000 0.0000 0.0000 -3.8762
#
#
#
# Elastic Compliance Matrix: (Units=1/GPa)
#
#
# Indices 1 2 3 4 5 6 
#
# 1 0.026230 -0.000845 -0.001005 0.000000 0.000000 0.000000
# 2 -0.000845 0.067894 0.007408 0.000000 0.000000 0.000000
# 3 -0.001005 0.007408 0.008837 0.000000 0.000000 0.000000
# 4 0.000000 0.000000 0.000000 -0.275382 0.000000 0.000000
# 5 0.000000 0.000000 0.000000 0.000000 -0.027647 0.000000
# 6 0.000000 0.000000 0.000000 0.000000 0.000000 -0.257982
#
#
# Mechanical properties :
#
#
# Convention : Reuss Voigt Hill
#
# Bulk Modulus (GPa) = 8.76612 17.89815 13.33214
# Shear Modulus (GPa) = -11.59713 3.84998 -3.87358
#
# Velocity S-wave (km/s) = -2.31789 1.33551 -1.33959
# Velocity P-wave (km/s) = 1.76136 3.26647 1.94517
#
# Compressibility (1/GPa) = 0.11407560
#
# Stress axis : x y z
#
# Youngs Moduli (GPa) = 38.12489 14.72895 113.15815
#
# Poissons Ratio (x) = 0.01245 0.11377
# Poissons Ratio (y) = 0.03221 -0.83828
# Poissons Ratio (z) = 0.03833 -0.10911
#
# Static dielectric constant tensor:
#      x y z
#    x 1.778980 0.000000 0.000000 
#    y 0.000000 1.793490 0.000000 
#    z 0.000000 0.000000 1.892650 
# 
# From -- ./inp_files/32196.got.cif
#   From: 2010.05.17/outbox.cif.g08.bks.cpg/sg47_17_cif.got.tgz:32196.got - 2010.06.03 20:15:42.
