data_PCOD9384501
_publ_section_title
;
Structure prediction by ZEFSAII (Michael W. Deem and Ramdas Pophale) SiO2 
 PCOD9384501
Probable space group: P M M M
;
_chemical_formula_sum "Si O2"
_cell_formula_units_Z 52
_cell_length_a 23.548750
_cell_length_b 15.484035
_cell_length_c 9.320418
_cell_angle_alpha 90.000000
_cell_angle_beta 90.000000
_cell_angle_gamma 90.000000
_cell_volume 3398.500932
_symmetry_space_group_name_H-M "P M M M"
_symmetry_group_IT_number 47
_symmetry_cell_setting 'orthorhombic'
loop_
_space_group_symop_operation_xyz
x,y,z
-x,-y,z
x,-y,-z
-x,y,-z
-x,-y,-z
x,y,-z
-x,y,z
x,-y,z
loop_
_atom_site_type_symbol
_atom_site_label
_atom_site_fract_x
_atom_site_fract_y
_atom_site_fract_z
Si Si1 0.937835 0.159604 0.828527
Si Si2 0.098928 0.328428 0.333241
Si Si3 0.813103 0.096228 0.172345
Si Si4 0.068043 0.500000 0.835886
Si Si5 0.562934 0.395353 0.166358
Si Si6 0.322832 0.600577 0.327016
Si Si7 0.772384 0.737590 0.332782
O O1 0.932621 0.249371 0.744047
O O2 0.880448 0.107756 0.792386
O O3 0.000000 0.119852 0.798322
O O4 0.935532 0.175729 0.000000
O O5 0.082315 0.335448 0.500000
O O6 0.087435 0.415613 0.248599
O O7 0.165772 0.306682 0.326370
O O8 0.778703 0.173895 0.244861
O O9 0.795143 0.000000 0.216298
O O10 0.808325 0.102922 0.000000
O O11 0.000000 0.500000 0.839479
O O12 0.089020 0.500000 0.000000
O O13 0.500000 0.365876 0.214003
O O14 0.561598 0.500000 0.168830
O O15 0.616765 0.371316 0.261635
O O16 0.570773 0.369730 0.000000
O O17 0.325492 0.601099 0.500000
O O18 0.311406 0.500000 0.284128
O O19 0.274219 0.668128 0.282261
O O20 0.760729 0.757596 0.500000
#
# Coordination Sequence:
#
# PCOD9384501 Si02
#       7
#     8   8   8   4   8   8   8
#     4   9  17  30  47  65  87 111 135 171 221 274
#     4  10  20  32  47  63  82 111 145 182 223 266
#     4   9  18  32  49  68  89 113 144 183 225 272
#     4  11  23  35  45  59  81 109 144 185 226 267
#     4   8  14  25  40  60  90 125 157 188 220 252
#     4   9  17  28  44  65  91 123 157 190 220 255
#     4   9  19  33  48  66  90 119 148 184 227 267
#
# _framework density 15.300863
#
# number of rings (size 3 to 8) (size 9 to 14) (size 15 to 20)
#    0.000    2.846    0.000    1.615    1.077    4.923 
#    0.000    3.077    0.000    0.000    0.000    4.308 
#    0.000    0.615    0.000    6.769    0.000    5.231 
#
# Total GULP energy -289601.813893 kJ/mol
# GULP energy per Si atom -5569.265652 kJ/mol
# Density = 1.526604 g / cm^3
# Si number density = 15.300863 Si / 1000 Ang^3
#
#
#
# Elastic Constant Matrix: (Units=GPa)
#
#
# Indices 1 2 3 4 5 6 
#
# 1 88.8012 38.1745 23.3551 0.0000 0.0000 0.0000
# 2 38.1745 96.6030 38.0330 0.0000 0.0000 0.0000
# 3 23.3551 38.0330 31.9324 0.0000 0.0000 0.0000
# 4 0.0000 0.0000 0.0000 11.4523 0.0000 0.0000
# 5 0.0000 0.0000 0.0000 0.0000 23.9609 0.0000
# 6 0.0000 0.0000 0.0000 0.0000 0.0000 7.3139
#
#
#
# Elastic Compliance Matrix: (Units=1/GPa)
#
#
# Indices 1 2 3 4 5 6 
#
# 1 0.014362 -0.002899 -0.007051 0.000000 0.000000 0.000000
# 2 -0.002899 0.020077 -0.021792 0.000000 0.000000 0.000000
# 3 -0.007051 -0.021792 0.062429 0.000000 0.000000 0.000000
# 4 0.000000 0.000000 0.000000 0.087319 0.000000 0.000000
# 5 0.000000 0.000000 0.000000 0.000000 0.041735 0.000000
# 6 0.000000 0.000000 0.000000 0.000000 0.000000 0.136726
#
#
# Mechanical properties :
#
#
# Convention : Reuss Voigt Hill
#
# Bulk Modulus (GPa) = 29.95556 46.27352 38.11454
# Shear Modulus (GPa) = 11.43486 16.39702 13.91594
#
# Velocity S-wave (km/s) = 2.73671 3.27714 3.01904
# Velocity P-wave (km/s) = 5.44117 6.68039 6.09237
#
# Compressibility (1/GPa) = 0.03338279
#
# Stress axis : x y z
#
# Youngs Moduli (GPa) = 69.62838 49.80816 16.01832
#
# Poissons Ratio (x) = 0.14442 0.11294
# Poissons Ratio (y) = 0.20188 0.34907
# Poissons Ratio (z) = 0.49094 1.08542
#
# Static dielectric constant tensor:
#      x y z
#    x 1.515720 0.000000 0.000000 
#    y 0.000000 1.027860 0.000000 
#    z 0.000000 0.000000 1.514360 
# 
# From -- ./inp_files/7581.got.cif
#   From: 2010.05.17/outbox.cif.g08.bks.cpg/sg47_4_cif.got.tgz:7581.got - 2010.06.03 20:15:42.
