data_PCOD9384887
_publ_section_title
;
Structure prediction by ZEFSAII (Michael W. Deem and Ramdas Pophale) SiO2 
 PCOD9384887
Probable space group: P M M M
;
_chemical_formula_sum "Si O2"
_cell_formula_units_Z 37
_cell_length_a 7.442631
_cell_length_b 16.481175
_cell_length_c 13.797534
_cell_angle_alpha 90.000000
_cell_angle_beta 90.000000
_cell_angle_gamma 90.000000
_cell_volume 1692.451107
_symmetry_space_group_name_H-M "P M M M"
_symmetry_group_IT_number 47
_symmetry_cell_setting 'orthorhombic'
loop_
_space_group_symop_operation_xyz
x,y,z
-x,-y,z
x,-y,-z
-x,y,-z
-x,-y,-z
x,y,-z
-x,y,z
x,-y,z
loop_
_atom_site_type_symbol
_atom_site_label
_atom_site_fract_x
_atom_site_fract_y
_atom_site_fract_z
Si Si1 0.000000 0.000000 0.500000
Si Si2 0.792003 0.328299 0.298733
Si Si3 0.287457 0.838700 0.793810
Si Si4 0.219580 0.595498 0.500000
Si Si5 0.279928 0.903574 0.000000
Si Si6 0.217262 0.595861 0.103489
Si Si7 0.291272 0.000000 0.670490
O O1 0.155846 0.000000 0.583401
O O2 0.788391 0.233574 0.272072
O O3 0.718635 0.358258 0.402058
O O4 0.709539 0.367992 0.202445
O O5 0.000000 0.354985 0.301492
O O6 0.500000 0.822268 0.801606
O O7 0.261993 0.921753 0.736754
O O8 0.220801 0.855793 0.903099
O O9 0.270142 0.500000 0.500000
O O10 0.000000 0.597923 0.500000
O O11 0.500000 0.904937 0.000000
O O12 0.227586 0.000000 0.000000
O O13 0.250142 0.500000 0.104127
O O14 0.000000 0.607239 0.103525
O O15 0.283034 0.629510 0.000000
O O16 0.500000 0.000000 0.639156
#
# Coordination Sequence:
#
# PCOD9384887 Si02
#       7
#     1   8   8   4   4   8   4
#     4  12  26  40  72  88 120 156 212 268 312 352
#     4  10  20  32  53  83 114 145 192 249 302 354
#     4  10  21  38  60  86 120 158 202 247 302 371
#     4   9  18  35  57  80 108 149 196 241 292 357
#     4   9  16  34  63  85 108 155 207 247 292 364
#     4   8  14  26  45  71 105 144 185 235 299 365
#     4  10  23  44  65  92 124 169 215 254 309 377
#
# _framework density 21.861782999999999
#
# number of rings (size 3 to 8) (size 9 to 14) (size 15 to 20)
#    0.000    2.595    1.081    1.459    3.027    3.459 
#    1.946    1.622    0.000    4.541    0.000    1.514 
#    0.000    0.000    0.000    0.000    0.000    0.000 
#
# Total GULP energy -206164.637427 kJ/mol
# GULP energy per Si atom -5572.017228 kJ/mol
# Density = 2.181202 g / cm^3
# Si number density = 21.861783 Si / 1000 Ang^3
#
#
#
# Elastic Constant Matrix: (Units=GPa)
#
#
# Indices 1 2 3 4 5 6 
#
# 1 67.7151 8.6418 53.4390 0.0000 0.0000 0.0000
# 2 8.6418 98.6228 93.5743 0.0000 0.0000 0.0000
# 3 53.4390 93.5743 249.4633 0.0000 0.0000 0.0000
# 4 0.0000 0.0000 0.0000 22.7790 0.0000 0.0000
# 5 0.0000 0.0000 0.0000 0.0000 -1.6244 0.0000
# 6 0.0000 0.0000 0.0000 0.0000 0.0000 -31.5828
#
#
#
# Elastic Compliance Matrix: (Units=1/GPa)
#
#
# Indices 1 2 3 4 5 6 
#
# 1 0.018443 0.003311 -0.005193 0.000000 0.000000 0.000000
# 2 0.003311 0.016337 -0.006837 0.000000 0.000000 0.000000
# 3 -0.005193 -0.006837 0.007686 0.000000 0.000000 0.000000
# 4 0.000000 0.000000 0.000000 0.043900 0.000000 0.000000
# 5 0.000000 0.000000 0.000000 0.000000 -0.615614 0.000000
# 6 0.000000 0.000000 0.000000 0.000000 0.000000 -0.031663
#
#
# Mechanical properties :
#
#
# Convention : Reuss Voigt Hill
#
# Bulk Modulus (GPa) = 39.95622 80.79017 60.37319
# Shear Modulus (GPa) = -9.34352 15.25743 2.95695
#
# Velocity S-wave (km/s) = -2.06959 2.64465 1.16426
# Velocity P-wave (km/s) = 3.55042 6.80888 5.42984
#
# Compressibility (1/GPa) = 0.02502740
#
# Stress axis : x y z
#
# Youngs Moduli (GPa) = 54.22049 61.21181 130.11317
#
# Poissons Ratio (x) = -0.20266 0.67564
# Poissons Ratio (y) = -0.17952 0.88961
# Poissons Ratio (z) = 0.28155 0.41852
#
# Static dielectric constant tensor:
#      x y z
#    x 1.841460 0.000000 0.000000 
#    y 0.000000 1.685610 0.000000 
#    z 0.000000 0.000000 1.804300 
# 
# From -- ./inp_files/14941.got.cif
#   From: 2010.05.17/outbox.cif.g08.bks.cpg/sg47_8_cif.got.tgz:14941.got - 2010.06.03 20:15:42.
