data_PCOD9384911
_publ_section_title
;
Structure prediction by ZEFSAII (Michael W. Deem and Ramdas Pophale) SiO2 
 PCOD9384911
Probable space group: P M M M
;
_chemical_formula_sum "Si O2"
_cell_formula_units_Z 40
_cell_length_a 10.279214
_cell_length_b 7.395444
_cell_length_c 25.618517
_cell_angle_alpha 90.000000
_cell_angle_beta 90.000000
_cell_angle_gamma 90.000000
_cell_volume 1947.503049
_symmetry_space_group_name_H-M "P M M M"
_symmetry_group_IT_number 47
_symmetry_cell_setting 'orthorhombic'
loop_
_space_group_symop_operation_xyz
x,y,z
-x,-y,z
x,-y,-z
-x,y,-z
-x,-y,-z
x,y,-z
-x,y,z
x,-y,z
loop_
_atom_site_type_symbol
_atom_site_label
_atom_site_fract_x
_atom_site_fract_y
_atom_site_fract_z
Si Si1 0.751667 0.720640 0.374761
Si Si2 0.000000 0.720293 0.440903
Si Si3 0.342832 0.214437 0.056118
Si Si4 0.500000 0.278908 0.439241
Si Si5 0.850422 0.284383 0.736786
Si Si6 0.350586 0.217090 0.829741
O O1 0.746450 0.500000 0.373305
O O2 0.624209 0.779196 0.405651
O O3 0.779318 0.782927 0.315841
O O4 0.873832 0.775397 0.409424
O O5 0.000000 0.500000 0.441930
O O6 0.000000 0.783246 0.500000
O O7 0.500000 0.230439 0.056083
O O8 0.304818 0.285716 0.113092
O O9 0.312762 0.000000 0.055489
O O10 0.296397 0.288481 0.000000
O O11 0.500000 0.500000 0.440857
O O12 0.500000 0.221037 0.500000
O O13 0.861949 0.500000 0.730621
O O14 0.755188 0.254636 0.785552
O O15 0.000000 0.216292 0.742114
O O16 0.500000 0.280441 0.818774
O O17 0.359591 0.000000 0.833979
#
# Coordination Sequence:
#
# PCOD9384911 Si02
#       6
#     8   4   8   4   8   8
#     4   9  16  26  38  57  85 117 151 186 228 278
#     4   9  14  22  38  56  79 113 148 183 226 274
#     4   7  10  20  41  68  95 119 144 183 236 284
#     4   9  16  24  36  58  87 115 144 183 234 286
#     4  10  20  33  47  65  94 132 169 198 228 275
#     4   9  18  31  49  75 100 121 154 198 239 282
#
# _framework density 20.539123
#
# number of rings (size 3 to 8) (size 9 to 14) (size 15 to 20)
#    0.000    3.200    1.000    2.400    1.400    3.200 
#    0.000    0.000    0.000    1.200    0.000    7.000 
#    0.000    4.800    0.000    0.000    0.000    0.000 
#
# Total GULP energy -222892.558146 kJ/mol
# GULP energy per Si atom -5572.313954 kJ/mol
# Density = 2.049237 g / cm^3
# Si number density = 20.539123 Si / 1000 Ang^3
#
#
#
# Elastic Constant Matrix: (Units=GPa)
#
#
# Indices 1 2 3 4 5 6 
#
# 1 164.6386 4.9246 125.0573 0.0000 0.0000 0.0000
# 2 4.9246 68.1624 6.4098 0.0000 0.0000 0.0000
# 3 125.0573 6.4098 267.1009 0.0000 0.0000 0.0000
# 4 0.0000 0.0000 0.0000 12.4996 0.0000 0.0000
# 5 0.0000 0.0000 0.0000 0.0000 28.4998 0.0000
# 6 0.0000 0.0000 0.0000 0.0000 0.0000 -1.0947
#
#
#
# Elastic Compliance Matrix: (Units=1/GPa)
#
#
# Indices 1 2 3 4 5 6 
#
# 1 0.009431 -0.000267 -0.004409 0.000000 0.000000 0.000000
# 2 -0.000267 0.014712 -0.000228 0.000000 0.000000 0.000000
# 3 -0.004409 -0.000228 0.005814 0.000000 0.000000 0.000000
# 4 0.000000 0.000000 0.000000 0.080002 0.000000 0.000000
# 5 0.000000 0.000000 0.000000 0.000000 0.035088 0.000000
# 6 0.000000 0.000000 0.000000 0.000000 0.000000 -0.913484
#
#
# Mechanical properties :
#
#
# Convention : Reuss Voigt Hill
#
# Bulk Modulus (GPa) = 49.63233 85.85393 67.74313
# Shear Modulus (GPa) = -6.64971 32.21495 12.78262
#
# Velocity S-wave (km/s) = -1.80128 3.96468 2.49741
# Velocity P-wave (km/s) = 4.45994 7.92775 6.43196
#
# Compressibility (1/GPa) = 0.02014816
#
# Stress axis : x y z
#
# Youngs Moduli (GPa) = 106.03203 67.97373 172.00425
#
# Poissons Ratio (x) = 0.01813 0.75841
# Poissons Ratio (y) = 0.02828 0.03924
# Poissons Ratio (z) = 0.46752 0.01551
#
# Static dielectric constant tensor:
#      x y z
#    x 1.653710 0.000000 0.000000 
#    y 0.000000 1.841210 0.000000 
#    z 0.000000 0.000000 1.763190 
# 
# From -- ./inp_files/1823.got.cif
#   From: 2010.05.17/outbox.cif.g08.bks.cpg/sg47_1_cif.got.tgz:1823.got - 2010.06.03 20:15:42.
