data_PCOD9384732
_publ_section_title
;
Structure prediction by ZEFSAII (Michael W. Deem and Ramdas Pophale) SiO2 
 PCOD9384732
Probable space group: P M M M
;
_chemical_formula_sum "Si O2"
_cell_formula_units_Z 52
_cell_length_a 8.669556
_cell_length_b 27.288131
_cell_length_c 12.627172
_cell_angle_alpha 90.000000
_cell_angle_beta 90.000000
_cell_angle_gamma 90.000000
_cell_volume 2987.285589
_symmetry_space_group_name_H-M "P M M M"
_symmetry_group_IT_number 47
_symmetry_cell_setting 'orthorhombic'
loop_
_space_group_symop_operation_xyz
x,y,z
-x,-y,z
x,-y,-z
-x,y,-z
-x,-y,-z
x,y,-z
-x,y,z
x,-y,z
loop_
_atom_site_type_symbol
_atom_site_label
_atom_site_fract_x
_atom_site_fract_y
_atom_site_fract_z
Si Si1 0.183687 0.719847 0.879142
Si Si2 0.687843 0.556444 0.119783
Si Si3 0.314821 0.216817 0.500000
Si Si4 0.183145 0.673439 0.500000
Si Si5 0.184202 0.055919 0.500000
Si Si6 0.685524 0.828758 0.882173
Si Si7 0.315678 0.359218 0.278238
Si Si8 0.685360 0.867931 0.337721
O O1 0.234607 0.776166 0.869548
O O2 0.270034 0.687232 0.793480
O O3 0.000000 0.715523 0.865078
O O4 0.222540 0.704335 0.000000
O O5 0.500000 0.557572 0.119507
O O6 0.733809 0.500000 0.138121
O O7 0.739518 0.593669 0.210569
O O8 0.737045 0.570531 0.000000
O O9 0.500000 0.223736 0.500000
O O10 0.239047 0.269886 0.500000
O O11 0.273571 0.182600 0.399379
O O12 0.244764 0.647547 0.606085
O O13 0.000000 0.672809 0.500000
O O14 0.241815 0.086854 0.399315
O O15 0.000000 0.055435 0.500000
O O16 0.240970 0.000000 0.500000
O O17 0.500000 0.821315 0.875994
O O18 0.730158 0.862814 0.784363
O O19 0.721509 0.847569 0.000000
O O20 0.500000 0.361670 0.288522
O O21 0.500000 0.872282 0.346066
#
# Coordination Sequence:
#
# PCOD9384732 Si02
#       8
#     8   8   4   4   4   8   8   8
#     4  10  20  32  48  74 107 139 170 205 246 293
#     4   8  15  30  54  82 103 117 146 200 257 301
#     4   9  17  31  50  73 100 130 170 211 242 285
#     4  12  25  37  49  69 102 141 174 206 246 293
#     4  10  21  35  52  75  99 124 161 210 256 297
#     4   9  17  30  49  74 104 136 170 205 241 289
#     4  11  21  34  53  74  98 131 169 207 250 299
#     4   9  18  32  52  76 100 129 163 202 249 294
#
# _framework density 17.407108000000001
#
# number of rings (size 3 to 8) (size 9 to 14) (size 15 to 20)
#    0.000    2.385    0.000    4.154    0.000    5.231 
#    0.000    0.385    0.000    4.615    0.000    8.615 
#    0.000    0.000    0.000    0.000    0.000    0.000 
#
# Total GULP energy -290121.388733 kJ/mol
# GULP energy per Si atom -5579.257476 kJ/mol
# Density = 1.736749 g / cm^3
# Si number density = 17.407108 Si / 1000 Ang^3
#
#
#
# Elastic Constant Matrix: (Units=GPa)
#
#
# Indices 1 2 3 4 5 6 
#
# 1 34.3800 29.4631 46.9025 0.0000 0.0000 0.0000
# 2 29.4631 106.4332 88.4666 0.0000 0.0000 0.0000
# 3 46.9025 88.4666 173.4803 0.0000 0.0000 0.0000
# 4 0.0000 0.0000 0.0000 10.3448 0.0000 0.0000
# 5 0.0000 0.0000 0.0000 0.0000 17.7108 0.0000
# 6 0.0000 0.0000 0.0000 0.0000 0.0000 95.0306
#
#
#
# Elastic Compliance Matrix: (Units=1/GPa)
#
#
# Indices 1 2 3 4 5 6 
#
# 1 0.047175 -0.004266 -0.010579 0.000000 0.000000 0.000000
# 2 -0.004266 0.016694 -0.007360 0.000000 0.000000 0.000000
# 3 -0.010579 -0.007360 0.012378 0.000000 0.000000 0.000000
# 4 0.000000 0.000000 0.000000 0.096667 0.000000 0.000000
# 5 0.000000 0.000000 0.000000 0.000000 0.056463 0.000000
# 6 0.000000 0.000000 0.000000 0.000000 0.000000 0.010523
#
#
# Mechanical properties :
#
#
# Convention : Reuss Voigt Hill
#
# Bulk Modulus (GPa) = 31.40995 71.55088 51.48042
# Shear Modulus (GPa) = 16.95378 34.58132 25.76755
#
# Velocity S-wave (km/s) = 3.12421 4.46199 3.85163
# Velocity P-wave (km/s) = 5.57654 8.23040 7.02984
#
# Compressibility (1/GPa) = 0.03183704
#
# Stress axis : x y z
#
# Youngs Moduli (GPa) = 21.19786 59.90244 80.79150
#
# Poissons Ratio (x) = 0.25554 0.85468
# Poissons Ratio (y) = 0.09043 0.59460
# Poissons Ratio (z) = 0.22425 0.44086
#
# Static dielectric constant tensor:
#      x y z
#    x 1.584630 0.000000 0.000000 
#    y 0.000000 1.564640 0.000000 
#    z 0.000000 0.000000 1.608840 
# 
# From -- ./inp_files/15579.got.cif
#   From: 2010.05.17/outbox.cif.g08.bks.cpg/sg47_8_cif.got.tgz:15579.got - 2010.06.03 20:15:42.
