data_PCOD9384838
_publ_section_title
;
Structure prediction by ZEFSAII (Michael W. Deem and Ramdas Pophale) SiO2 
 PCOD9384838
Probable space group: P M M M
;
_chemical_formula_sum "Si O2"
_cell_formula_units_Z 64
_cell_length_a 14.352741
_cell_length_b 26.199272
_cell_length_c 9.127977
_cell_angle_alpha 90.000000
_cell_angle_beta 90.000000
_cell_angle_gamma 90.000000
_cell_volume 3432.405655
_symmetry_space_group_name_H-M "P M M M"
_symmetry_group_IT_number 47
_symmetry_cell_setting 'orthorhombic'
loop_
_space_group_symop_operation_xyz
x,y,z
-x,-y,z
x,-y,-z
-x,y,-z
-x,-y,-z
x,y,-z
-x,y,z
x,-y,z
loop_
_atom_site_type_symbol
_atom_site_label
_atom_site_fract_x
_atom_site_fract_y
_atom_site_fract_z
Si Si1 0.888780 0.559896 0.824732
Si Si2 0.396412 0.938138 0.331720
Si Si3 0.204438 0.342857 0.325838
Si Si4 0.388444 0.443619 0.337375
Si Si5 0.209452 0.940234 0.173761
Si Si6 0.391571 0.345270 0.829054
Si Si7 0.111690 0.250701 0.166022
Si Si8 0.111843 0.149863 0.333277
O O1 0.869775 0.500000 0.789248
O O2 0.828339 0.601940 0.738047
O O3 0.000000 0.568353 0.797772
O O4 0.873689 0.566475 0.000000
O O5 0.377260 0.922591 0.500000
O O6 0.500000 0.920132 0.290405
O O7 0.313126 0.924317 0.224698
O O8 0.399546 0.000000 0.331844
O O9 0.199152 0.343364 0.500000
O O10 0.307490 0.325194 0.270547
O O11 0.137207 0.300334 0.257957
O O12 0.356455 0.425055 0.500000
O O13 0.500000 0.447718 0.349714
O O14 0.350007 0.500000 0.313498
O O15 0.376798 0.405440 0.204010
O O16 0.140917 0.902383 0.256235
O O17 0.195814 0.000000 0.213493
O O18 0.199365 0.935760 0.000000
O O19 0.500000 0.333305 0.789117
O O20 0.379045 0.333690 0.000000
O O21 0.146335 0.198956 0.243019
O O22 0.000000 0.247124 0.159038
O O23 0.147526 0.255214 0.000000
O O24 0.146439 0.151369 0.500000
O O25 0.000000 0.152599 0.336866
#
# Coordination Sequence:
#
# PCOD9384838 Si02
#       8
#     8   8   8   8   8   8   8   8
#     4   9  19  37  59  82 111 146 181 220 269 324
#     4   8  14  26  45  69  99 138 184 232 279 324
#     4  12  24  36  56  84 112 143 179 220 267 323
#     4   8  14  26  44  65  91 124 161 203 252 303
#     4  10  20  32  49  77 113 152 191 229 271 323
#     4  10  21  36  53  73  99 134 177 222 265 312
#     4  10  21  39  63  87 111 139 174 220 270 319
#     4  10  21  37  57  81 110 144 183 227 273 321
#
# _framework density 18.645814999999999
#
# number of rings (size 3 to 8) (size 9 to 14) (size 15 to 20)
#    0.000    2.375    0.000    4.125    0.000    6.250 
#    0.000    4.375    0.000    0.750    0.000    0.000 
#    0.000    0.000    0.000    0.000    0.000    0.000 
#
# Total GULP energy -356623.004501 kJ/mol
# GULP energy per Si atom -5572.234445 kJ/mol
# Density = 1.860338 g / cm^3
# Si number density = 18.645815 Si / 1000 Ang^3
#
#
#
# Elastic Constant Matrix: (Units=GPa)
#
#
# Indices 1 2 3 4 5 6 
#
# 1 51.4100 19.5928 37.9799 0.0000 0.0000 0.0000
# 2 19.5928 72.3918 48.3980 0.0000 0.0000 0.0000
# 3 37.9799 48.3980 108.3939 0.0000 0.0000 0.0000
# 4 0.0000 0.0000 0.0000 23.9844 0.0000 0.0000
# 5 0.0000 0.0000 0.0000 0.0000 23.9073 0.0000
# 6 0.0000 0.0000 0.0000 0.0000 0.0000 -2.3685
#
#
#
# Elastic Compliance Matrix: (Units=1/GPa)
#
#
# Indices 1 2 3 4 5 6 
#
# 1 0.026340 -0.001367 -0.008619 0.000000 0.000000 0.000000
# 2 -0.001367 0.019763 -0.008345 0.000000 0.000000 0.000000
# 3 -0.008619 -0.008345 0.015972 0.000000 0.000000 0.000000
# 4 0.000000 0.000000 0.000000 0.041694 0.000000 0.000000
# 5 0.000000 0.000000 0.000000 0.000000 0.041828 0.000000
# 6 0.000000 0.000000 0.000000 0.000000 0.000000 -0.422211
#
#
# Mechanical properties :
#
#
# Convention : Reuss Voigt Hill
#
# Bulk Modulus (GPa) = 39.35045 49.34859 44.34952
# Shear Modulus (GPa) = -21.59991 17.51964 -2.04014
#
# Velocity S-wave (km/s) = -3.40727 3.06862 -1.04715
# Velocity P-wave (km/s) = 2.38132 6.25132 4.73020
#
# Compressibility (1/GPa) = 0.02541267
#
# Stress axis : x y z
#
# Youngs Moduli (GPa) = 37.96558 50.59988 62.61052
#
# Poissons Ratio (x) = 0.06915 0.53963
# Poissons Ratio (y) = 0.05188 0.52250
# Poissons Ratio (z) = 0.32722 0.42227
#
# Static dielectric constant tensor:
#      x y z
#    x 1.698490 0.000000 0.000000 
#    y 0.000000 1.640180 0.000000 
#    z 0.000000 0.000000 1.641160 
# 
# From -- ./inp_files/7924.got.cif
#   From: 2010.05.17/outbox.cif.g08.bks.cpg/sg47_4_cif.got.tgz:7924.got - 2010.06.03 20:15:42.
