data_PCOD9384102
_publ_section_title
;
Structure prediction by ZEFSAII (Michael W. Deem and Ramdas Pophale) SiO2 
 PCOD9384102
Probable space group: P M M M
;
_chemical_formula_sum "Si O2"
_cell_formula_units_Z 52
_cell_length_a 13.076020
_cell_length_b 25.682810
_cell_length_c 8.006709
_cell_angle_alpha 90.000000
_cell_angle_beta 90.000000
_cell_angle_gamma 90.000000
_cell_volume 2688.884574
_symmetry_space_group_name_H-M "P M M M"
_symmetry_group_IT_number 47
_symmetry_cell_setting 'orthorhombic'
loop_
_space_group_symop_operation_xyz
x,y,z
-x,-y,z
x,-y,-z
-x,y,-z
-x,-y,-z
x,y,-z
-x,y,z
x,-y,z
loop_
_atom_site_type_symbol
_atom_site_label
_atom_site_fract_x
_atom_site_fract_y
_atom_site_fract_z
Si Si1 0.824681 0.385978 0.195636
Si Si2 0.610230 0.653001 0.299554
Si Si3 0.220667 0.145533 0.704355
Si Si4 0.384389 0.060440 0.296447
Si Si5 0.387148 0.772188 0.296467
Si Si6 0.000000 0.692231 0.203254
Si Si7 0.878863 0.500000 0.315915
Si Si8 0.000000 0.814645 0.701592
O O1 0.709405 0.377916 0.251416
O O2 0.902252 0.341852 0.265767
O O3 0.853605 0.445281 0.232313
O O4 0.829903 0.378271 0.000000
O O5 0.606665 0.654917 0.500000
O O6 0.500000 0.633050 0.239487
O O7 0.621888 0.712651 0.241098
O O8 0.217641 0.144144 0.500000
O O9 0.288256 0.095544 0.758137
O O10 0.292285 0.193599 0.758111
O O11 0.104536 0.156793 0.760301
O O12 0.385350 0.062857 0.500000
O O13 0.500000 0.077103 0.243874
O O14 0.371896 0.000000 0.249098
O O15 0.386151 0.772911 0.500000
O O16 0.500000 0.791787 0.246361
O O17 0.000000 0.752808 0.255771
O O18 0.000000 0.692518 0.000000
O O19 0.830767 0.500000 0.500000
O O20 0.000000 0.500000 0.330005
O O21 0.000000 0.817440 0.500000
#
# Coordination Sequence:
#
# PCOD9384102 Si02
#       8
#     8   8   8   8   8   4   4   4
#     4  11  22  37  57  79 107 138 168 205 252 305
#     4   9  18  33  52  76 106 137 172 212 252 300
#     4   9  15  23  35  56  87 119 156 200 242 288
#     4   8  13  21  34  53  81 121 163 199 241 295
#     4   8  13  22  39  61  84 114 152 197 245 285
#     4  10  22  37  53  75 104 137 168 205 254 299
#     4  11  23  39  60  85 106 129 167 213 257 300
#     4  10  20  30  44  67  94 126 161 197 240 297
#
# _framework density 19.338875000000002
#
# number of rings (size 3 to 8) (size 9 to 14) (size 15 to 20)
#    0.000    2.692    0.769    3.462    0.000    4.923 
#    0.000    0.769    0.000    4.615    0.000    0.000 
#    0.000    1.231    0.000    1.692    0.000    2.923 
#
# Total GULP energy -289707.133928 kJ/mol
# GULP energy per Si atom -5571.291037 kJ/mol
# Density = 1.929486 g / cm^3
# Si number density = 19.338875 Si / 1000 Ang^3
#
#
#
# Elastic Constant Matrix: (Units=GPa)
#
#
# Indices 1 2 3 4 5 6 
#
# 1 204.8448 96.9731 11.9517 0.0000 0.0000 0.0000
# 2 96.9731 104.8017 -0.4444 0.0000 0.0000 0.0000
# 3 11.9517 -0.4444 9.3285 0.0000 0.0000 0.0000
# 4 0.0000 0.0000 0.0000 -2.3930 0.0000 0.0000
# 5 0.0000 0.0000 0.0000 0.0000 -3.7245 0.0000
# 6 0.0000 0.0000 0.0000 0.0000 0.0000 27.5504
#
#
#
# Elastic Compliance Matrix: (Units=1/GPa)
#
#
# Indices 1 2 3 4 5 6 
#
# 1 0.010129 -0.009429 -0.013426 0.000000 0.000000 0.000000
# 2 -0.009429 0.018322 0.012954 0.000000 0.000000 0.000000
# 3 -0.013426 0.012954 0.125017 0.000000 0.000000 0.000000
# 4 0.000000 0.000000 0.000000 -0.417883 0.000000 0.000000
# 5 0.000000 0.000000 0.000000 0.000000 -0.268494 0.000000
# 6 0.000000 0.000000 0.000000 0.000000 0.000000 0.036297
#
#
# Mechanical properties :
#
#
# Convention : Reuss Voigt Hill
#
# Bulk Modulus (GPa) = 7.48148 59.54843 33.51495
# Shear Modulus (GPa) = -11.56727 18.31957 3.37615
#
# Velocity S-wave (km/s) = -2.44833 3.08115 1.32271
# Velocity P-wave (km/s) = 2.02865 6.59674 4.43855
#
# Compressibility (1/GPa) = 0.13366340
#
# Stress axis : x y z
#
# Youngs Moduli (GPa) = 98.72790 54.58048 7.99892
#
# Poissons Ratio (x) = 0.51465 0.10740
# Poissons Ratio (y) = 0.93092 -0.10361
# Poissons Ratio (z) = 1.32555 -0.70701
#
# Static dielectric constant tensor:
#      x y z
#    x 1.631170 0.000000 0.000000 
#    y 0.000000 1.665640 0.000000 
#    z 0.000000 0.000000 1.715950 
# 
# From -- ./inp_files/4634.got.cif
#   From: 2010.05.17/outbox.cif.g08.bks.cpg/sg47_3_cif.got.tgz:4634.got - 2010.06.03 20:15:42.
