data_PCOD9384018
_publ_section_title
;
Structure prediction by ZEFSAII (Michael W. Deem and Ramdas Pophale) SiO2 
 PCOD9384018
Probable space group: P M M M
;
_chemical_formula_sum "Si O2"
_cell_formula_units_Z 64
_cell_length_a 7.473452
_cell_length_b 15.013719
_cell_length_c 26.044795
_cell_angle_alpha 90.000000
_cell_angle_beta 90.000000
_cell_angle_gamma 90.000000
_cell_volume 2922.338207
_symmetry_space_group_name_H-M "P M M M"
_symmetry_group_IT_number 47
_symmetry_cell_setting 'orthorhombic'
loop_
_space_group_symop_operation_xyz
x,y,z
-x,-y,z
x,-y,-z
-x,y,-z
-x,-y,-z
x,y,-z
-x,y,z
x,-y,z
loop_
_atom_site_type_symbol
_atom_site_label
_atom_site_fract_x
_atom_site_fract_y
_atom_site_fract_z
Si Si1 0.216022 0.211429 0.941348
Si Si2 0.718282 0.597852 0.710485
Si Si3 0.715973 0.401574 0.590658
Si Si4 0.709823 0.778627 0.756395
Si Si5 0.711947 0.901256 0.845120
Si Si6 0.786288 0.595299 0.062028
Si Si7 0.782986 0.896663 0.343219
Si Si8 0.789941 0.794387 0.555678
O O1 0.266564 0.134629 0.902437
O O2 0.281859 0.308209 0.920992
O O3 0.000000 0.215904 0.943010
O O4 0.277366 0.198259 0.000000
O O5 0.500000 0.599409 0.710609
O O6 0.774000 0.500000 0.728885
O O7 0.769554 0.606558 0.650565
O O8 0.785734 0.682169 0.741970
O O9 0.500000 0.401584 0.588552
O O10 0.775030 0.500000 0.572179
O O11 0.775982 0.312149 0.562906
O O12 0.500000 0.763393 0.766923
O O13 0.788506 0.830273 0.804909
O O14 0.724055 0.842206 0.706796
O O15 0.500000 0.906853 0.834577
O O16 0.787222 0.000000 0.838537
O O17 0.713845 0.500000 0.080979
O O18 0.000000 0.594058 0.071418
O O19 0.763964 0.596169 0.000000
O O20 0.717709 0.845499 0.394418
O O21 0.000000 0.895266 0.343110
O O22 0.726751 0.000000 0.341995
O O23 0.712671 0.818650 0.500000
O O24 0.000000 0.816639 0.554375
#
# Coordination Sequence:
#
# PCOD9384018 Si02
#       8
#     8   8   8   8   8   8   8   8
#     4   9  18  33  54  79 104 134 175 216 251 294
#     4   8  14  27  51  80 104 128 161 201 248 301
#     4   9  17  31  52  77 103 133 171 211 252 302
#     4  10  19  35  59  80 101 131 168 210 252 303
#     4  10  22  37  51  73 105 138 171 209 259 312
#     4   7  10  20  42  71  99 126 158 197 241 288
#     4  10  21  36  54  76 100 129 169 216 264 308
#     4  10  21  35  50  72 104 139 173 210 255 309
#
# _framework density 21.900271
#
# number of rings (size 3 to 8) (size 9 to 14) (size 15 to 20)
#    0.000    2.875    1.250    2.250    0.000    3.000 
#    0.000    4.375    0.000    1.500    0.000    3.500 
#    0.000    0.000    0.000    0.000    0.000    0.000 
#
# Total GULP energy -357054.109617 kJ/mol
# GULP energy per Si atom -5578.970463 kJ/mol
# Density = 2.185043 g / cm^3
# Si number density = 21.900271 Si / 1000 Ang^3
#
#
#
# Elastic Constant Matrix: (Units=GPa)
#
#
# Indices 1 2 3 4 5 6 
#
# 1 60.3035 -9.3200 -8.1580 0.0000 0.0000 0.0000
# 2 -9.3200 124.7381 50.3760 0.0000 0.0000 0.0000
# 3 -8.1580 50.3760 86.2271 0.0000 0.0000 0.0000
# 4 0.0000 0.0000 0.0000 -17.2005 0.0000 0.0000
# 5 0.0000 0.0000 0.0000 0.0000 11.5841 0.0000
# 6 0.0000 0.0000 0.0000 0.0000 0.0000 12.2729
#
#
#
# Elastic Compliance Matrix: (Units=1/GPa)
#
#
# Indices 1 2 3 4 5 6 
#
# 1 0.016859 0.000806 0.001124 0.000000 0.000000 0.000000
# 2 0.000806 0.010531 -0.006076 0.000000 0.000000 0.000000
# 3 0.001124 -0.006076 0.015254 0.000000 0.000000 0.000000
# 4 0.000000 0.000000 0.000000 -0.058138 0.000000 0.000000
# 5 0.000000 0.000000 0.000000 0.000000 0.086325 0.000000
# 6 0.000000 0.000000 0.000000 0.000000 0.000000 0.081481
#
#
# Mechanical properties :
#
#
# Convention : Reuss Voigt Hill
#
# Bulk Modulus (GPa) = 29.11086 37.45165 33.28125
# Shear Modulus (GPa) = 29.06057 17.22268 23.14162
#
# Velocity S-wave (km/s) = 3.64668 2.80735 3.25419
# Velocity P-wave (km/s) = 5.57247 5.25798 5.41751
#
# Compressibility (1/GPa) = 0.03435144
#
# Stress axis : x y z
#
# Youngs Moduli (GPa) = 59.31409 94.95880 65.55865
#
# Poissons Ratio (x) = -0.07650 -0.07372
# Poissons Ratio (y) = -0.04778 0.39835
# Poissons Ratio (z) = -0.06669 0.57699
#
# Static dielectric constant tensor:
#      x y z
#    x 1.863050 0.000000 0.000000 
#    y 0.000000 1.818470 0.000000 
#    z 0.000000 0.000000 1.776320 
# 
# From -- ./inp_files/32102.got.cif
#   From: 2010.05.17/outbox.cif.g08.bks.cpg/sg47_17_cif.got.tgz:32102.got - 2010.06.03 20:15:42.
