data_PCOD9384982
_publ_section_title
;
Structure prediction by ZEFSAII (Michael W. Deem and Ramdas Pophale) SiO2 
 PCOD9384982
Probable space group: P M M M
;
_chemical_formula_sum "Si O2"
_cell_formula_units_Z 64
_cell_length_a 26.850939
_cell_length_b 8.544949
_cell_length_c 15.673904
_cell_angle_alpha 90.000000
_cell_angle_beta 90.000000
_cell_angle_gamma 90.000000
_cell_volume 3596.219035
_symmetry_space_group_name_H-M "P M M M"
_symmetry_group_IT_number 47
_symmetry_cell_setting 'orthorhombic'
loop_
_space_group_symop_operation_xyz
x,y,z
-x,-y,z
x,-y,-z
-x,y,-z
-x,-y,-z
x,y,-z
-x,y,z
x,-y,z
loop_
_atom_site_type_symbol
_atom_site_label
_atom_site_fract_x
_atom_site_fract_y
_atom_site_fract_z
Si Si1 0.945880 0.186805 0.102205
Si Si2 0.445482 0.818617 0.317188
Si Si3 0.749719 0.687495 0.216303
Si Si4 0.748535 0.181300 0.597093
Si Si5 0.354149 0.671639 0.402703
Si Si6 0.555291 0.313535 0.868046
Si Si7 0.159334 0.688245 0.901927
Si Si8 0.663786 0.187470 0.905226
O O1 0.894650 0.261346 0.133365
O O2 0.000000 0.242251 0.135412
O O3 0.943573 0.000000 0.114313
O O4 0.946474 0.215661 0.000000
O O5 0.500000 0.777634 0.352879
O O6 0.401429 0.711360 0.348393
O O7 0.447352 0.789553 0.216946
O O8 0.435477 0.000000 0.336678
O O9 0.746474 0.500000 0.213168
O O10 0.762782 0.737055 0.313620
O O11 0.794948 0.742680 0.155762
O O12 0.698764 0.752239 0.172370
O O13 0.761680 0.241619 0.500000
O O14 0.688845 0.201144 0.602683
O O15 0.763012 0.000000 0.600002
O O16 0.370772 0.667397 0.500000
O O17 0.332846 0.500000 0.380590
O O18 0.500000 0.291263 0.909052
O O19 0.558470 0.500000 0.850317
O O20 0.608395 0.262230 0.906053
O O21 0.160623 0.500000 0.904020
O O22 0.164180 0.745174 0.000000
O O23 0.659021 0.000000 0.897008
O O24 0.686137 0.222163 0.000000
#
# Coordination Sequence:
#
# PCOD9384982 Si02
#       8
#     8   8   8   8   8   8   8   8
#     4   8  14  25  42  66  98 138 182 223 259 293
#     4  10  20  33  49  68  91 118 147 182 226 279
#     4  11  22  36  55  77 105 138 171 211 256 304
#     4  10  21  37  56  76  98 125 160 203 249 300
#     4  10  20  33  49  68  90 116 146 183 231 288
#     4  10  21  37  56  74  92 118 154 197 244 293
#     4   9  18  31  47  71 104 142 181 217 254 295
#     4  11  24  39  55  76 102 133 168 205 248 301
#
# _framework density 17.796468999999998
#
# number of rings (size 3 to 8) (size 9 to 14) (size 15 to 20)
#    0.000    2.125    0.000    3.750    0.000    6.250 
#    0.000    5.000    0.000    0.000    0.000    0.000 
#    0.000    0.500    0.000    5.500    0.000    4.250 
#
# Total GULP energy -356338.264914 kJ/mol
# GULP energy per Si atom -5567.785389 kJ/mol
# Density = 1.775596 g / cm^3
# Si number density = 17.796469 Si / 1000 Ang^3
#
#
#
# Elastic Constant Matrix: (Units=GPa)
#
#
# Indices 1 2 3 4 5 6 
#
# 1 96.6938 13.4016 42.9770 0.0000 0.0000 0.0000
# 2 13.4016 33.6317 11.9333 0.0000 0.0000 0.0000
# 3 42.9770 11.9333 68.2752 0.0000 0.0000 0.0000
# 4 0.0000 0.0000 0.0000 16.1821 0.0000 0.0000
# 5 0.0000 0.0000 0.0000 0.0000 -38.7508 0.0000
# 6 0.0000 0.0000 0.0000 0.0000 0.0000 9.9815
#
#
#
# Elastic Compliance Matrix: (Units=1/GPa)
#
#
# Indices 1 2 3 4 5 6 
#
# 1 0.014590 -0.002724 -0.008708 0.000000 0.000000 0.000000
# 2 -0.002724 0.032208 -0.003915 0.000000 0.000000 0.000000
# 3 -0.008708 -0.003915 0.020812 0.000000 0.000000 0.000000
# 4 0.000000 0.000000 0.000000 0.061797 0.000000 0.000000
# 5 0.000000 0.000000 0.000000 0.000000 -0.025806 0.000000
# 6 0.000000 0.000000 0.000000 0.000000 0.000000 0.100185
#
#
# Mechanical properties :
#
#
# Convention : Reuss Voigt Hill
#
# Bulk Modulus (GPa) = 27.08763 37.24716 32.16740
# Shear Modulus (GPa) = 20.26057 6.16847 13.21452
#
# Velocity S-wave (km/s) = 3.37777 1.86377 2.72791
# Velocity P-wave (km/s) = 5.51962 5.06028 5.29494
#
# Compressibility (1/GPa) = 0.03691722
#
# Stress axis : x y z
#
# Youngs Moduli (GPa) = 68.54145 31.04781 48.04921
#
# Poissons Ratio (x) = 0.08458 0.41839
# Poissons Ratio (y) = 0.18671 0.18810
# Poissons Ratio (z) = 0.59683 0.12154
#
# Static dielectric constant tensor:
#      x y z
#    x 1.650120 0.000000 0.000000 
#    y 0.000000 1.611270 0.000000 
#    z 0.000000 0.000000 1.653670 
# 
# From -- ./inp_files/25606.got.cif
#   From: 2010.05.17/outbox.cif.g08.bks.cpg/sg47_13_cif.got.tgz:25606.got - 2010.06.03 20:15:42.
