data_PCOD9384651
_publ_section_title
;
Structure prediction by ZEFSAII (Michael W. Deem and Ramdas Pophale) SiO2 
 PCOD9384651
Probable space group: P M M M
;
_chemical_formula_sum "Si O2"
_cell_formula_units_Z 44
_cell_length_a 7.807618
_cell_length_b 31.220164
_cell_length_c 9.459166
_cell_angle_alpha 90.000000
_cell_angle_beta 90.000000
_cell_angle_gamma 90.000000
_cell_volume 2305.720091
_symmetry_space_group_name_H-M "P M M M"
_symmetry_group_IT_number 47
_symmetry_cell_setting 'orthorhombic'
loop_
_space_group_symop_operation_xyz
x,y,z
-x,-y,z
x,-y,-z
-x,y,-z
-x,-y,-z
x,y,-z
-x,y,z
x,-y,z
loop_
_atom_site_type_symbol
_atom_site_label
_atom_site_fract_x
_atom_site_fract_y
_atom_site_fract_z
Si Si1 0.209065 0.951879 0.336785
Si Si2 0.500000 0.450773 0.827107
Si Si3 0.293588 0.213208 0.339385
Si Si4 0.793568 0.870594 0.839730
Si Si5 0.190621 0.609345 0.827898
Si Si6 0.707587 0.295335 0.836272
O O1 0.259801 0.944486 0.500000
O O2 0.269561 0.913715 0.237023
O O3 0.000000 0.951628 0.334642
O O4 0.262769 0.000000 0.295537
O O5 0.500000 0.500000 0.781091
O O6 0.665870 0.423970 0.780854
O O7 0.500000 0.451040 0.000000
O O8 0.229189 0.210655 0.500000
O O9 0.500000 0.215971 0.344526
O O10 0.249431 0.170966 0.251719
O O11 0.232718 0.255795 0.258544
O O12 0.000000 0.873542 0.845451
O O13 0.729157 0.866685 0.000000
O O14 0.229607 0.658255 0.785866
O O15 0.000000 0.596976 0.784300
O O16 0.196799 0.609773 0.000000
O O17 0.500000 0.296505 0.835051
O O18 0.760877 0.289147 0.000000
#
# Coordination Sequence:
#
# PCOD9384651 Si02
#       6
#     8   4   8   8   8   8
#     4   8  14  26  45  68  94 126 163 203 251 304
#     4   9  16  26  40  62  97 137 173 211 256 305
#     4  10  21  35  51  72  98 130 166 203 249 305
#     4  10  20  32  48  72 100 129 163 204 250 301
#     4   9  16  26  42  65  93 128 170 212 255 306
#     4   9  16  29  48  66  90 126 164 203 250 303
#
# _framework density 19.082975000000001
#
# number of rings (size 3 to 8) (size 9 to 14) (size 15 to 20)
#    0.000    2.818    0.909    1.636    0.000    3.636 
#    0.000    5.455    0.000    0.545    0.000    3.818 
#    0.000    1.455    0.000    1.636    0.000    1.818 
#
# Total GULP energy -245456.409959 kJ/mol
# GULP energy per Si atom -5578.554772 kJ/mol
# Density = 1.903954 g / cm^3
# Si number density = 19.082975 Si / 1000 Ang^3
#
#
#
# Elastic Constant Matrix: (Units=GPa)
#
#
# Indices 1 2 3 4 5 6 
#
# 1 58.1047 52.5710 26.8824 0.0000 0.0000 0.0000
# 2 52.5710 205.0724 90.2406 0.0000 0.0000 0.0000
# 3 26.8824 90.2406 93.3476 0.0000 0.0000 0.0000
# 4 0.0000 0.0000 0.0000 -20.9229 0.0000 0.0000
# 5 0.0000 0.0000 0.0000 0.0000 9.5566 0.0000
# 6 0.0000 0.0000 0.0000 0.0000 0.0000 21.4326
#
#
#
# Elastic Compliance Matrix: (Units=1/GPa)
#
#
# Indices 1 2 3 4 5 6 
#
# 1 0.022540 -0.005085 -0.001575 0.000000 0.000000 0.000000
# 2 -0.005085 0.009634 -0.007849 0.000000 0.000000 0.000000
# 3 -0.001575 -0.007849 0.018754 0.000000 0.000000 0.000000
# 4 0.000000 0.000000 0.000000 -0.047795 0.000000 0.000000
# 5 0.000000 0.000000 0.000000 0.000000 0.104639 0.000000
# 6 0.000000 0.000000 0.000000 0.000000 0.000000 0.046658
#
#
# Mechanical properties :
#
#
# Convention : Reuss Voigt Hill
#
# Bulk Modulus (GPa) = 45.64265 77.32362 61.48313
# Shear Modulus (GPa) = 26.21225 14.46865 20.34045
#
# Velocity S-wave (km/s) = 3.71022 2.75652 3.26835
# Velocity P-wave (km/s) = 6.50571 7.12312 6.82141
#
# Compressibility (1/GPa) = 0.02190933
#
# Stress axis : x y z
#
# Youngs Moduli (GPa) = 44.36592 103.80371 53.32297
#
# Poissons Ratio (x) = 0.52783 0.08400
# Poissons Ratio (y) = 0.22560 0.41851
# Poissons Ratio (z) = 0.06989 0.81471
#
# Static dielectric constant tensor:
#      x y z
#    x 1.710670 0.000000 0.000000 
#    y 0.000000 1.634990 0.000000 
#    z 0.000000 0.000000 1.646010 
# 
# From -- ./inp_files/2181.got.cif
#   From: 2010.05.17/outbox.cif.g08.bks.cpg/sg47_2_cif.got.tgz:2181.got - 2010.06.03 20:15:42.
