data_PCOD9384696
_publ_section_title
;
Structure prediction by ZEFSAII (Michael W. Deem and Ramdas Pophale) SiO2 
 PCOD9384696
Probable space group: P M M M
;
_chemical_formula_sum "Si O2"
_cell_formula_units_Z 44
_cell_length_a 7.592647
_cell_length_b 29.675811
_cell_length_c 9.644695
_cell_angle_alpha 90.000000
_cell_angle_beta 90.000000
_cell_angle_gamma 90.000000
_cell_volume 2173.122977
_symmetry_space_group_name_H-M "P M M M"
_symmetry_group_IT_number 47
_symmetry_cell_setting 'orthorhombic'
loop_
_space_group_symop_operation_xyz
x,y,z
-x,-y,z
x,-y,-z
-x,y,-z
-x,-y,-z
x,y,-z
-x,y,z
x,-y,z
loop_
_atom_site_type_symbol
_atom_site_label
_atom_site_fract_x
_atom_site_fract_y
_atom_site_fract_z
Si Si1 0.788414 0.817573 0.160764
Si Si2 0.283721 0.000000 0.340364
Si Si3 0.708961 0.916088 0.158506
Si Si4 0.712237 0.550773 0.157371
Si Si5 0.215388 0.719046 0.838590
Si Si6 0.209740 0.635914 0.655987
O O1 0.734785 0.865887 0.219270
O O2 0.730157 0.768722 0.215293
O O3 0.000000 0.817039 0.161393
O O4 0.728679 0.818411 0.000000
O O5 0.224074 0.044251 0.256479
O O6 0.500000 0.000000 0.341475
O O7 0.227319 0.000000 0.500000
O O8 0.500000 0.922957 0.146946
O O9 0.781114 0.917841 0.000000
O O10 0.500000 0.549806 0.154264
O O11 0.772211 0.500000 0.193011
O O12 0.764269 0.589266 0.263470
O O13 0.772694 0.561097 0.000000
O O14 0.279549 0.677655 0.746507
O O15 0.000000 0.718399 0.838672
O O16 0.267969 0.714235 0.000000
O O17 0.281203 0.634455 0.500000
O O18 0.000000 0.642840 0.646351
#
# Coordination Sequence:
#
# PCOD9384696 Si02
#       6
#     8   4   8   8   8   8
#     4   8  14  26  45  67  89 115 148 184 223 267
#     4   9  17  29  44  61  84 116 148 175 212 266
#     4   9  16  27  45  67  87 108 141 185 225 260
#     4   9  19  36  55  73  94 123 160 199 239 284
#     4   8  14  27  47  67  89 121 157 189 224 269
#     4  10  20  32  48  73 102 129 159 195 233 276
#
# _framework density 20.247357999999998
#
# number of rings (size 3 to 8) (size 9 to 14) (size 15 to 20)
#    0.000    3.182    0.000    2.455    0.000    3.273 
#    0.000    5.000    0.000    7.636    0.000    0.000 
#    0.000    0.000    0.000    0.000    0.000    0.000 
#
# Total GULP energy -245223.712386 kJ/mol
# GULP energy per Si atom -5573.266191 kJ/mol
# Density = 2.020127 g / cm^3
# Si number density = 20.247358 Si / 1000 Ang^3
#
#
#
# Elastic Constant Matrix: (Units=GPa)
#
#
# Indices 1 2 3 4 5 6 
#
# 1 39.6325 1.8248 5.9447 0.0000 0.0000 0.0000
# 2 1.8248 218.8749 121.5147 0.0000 0.0000 0.0000
# 3 5.9447 121.5147 120.3424 0.0000 0.0000 0.0000
# 4 0.0000 0.0000 0.0000 -7.3883 0.0000 0.0000
# 5 0.0000 0.0000 0.0000 0.0000 5.3559 0.0000
# 6 0.0000 0.0000 0.0000 0.0000 0.0000 23.6167
#
#
#
# Elastic Compliance Matrix: (Units=1/GPa)
#
#
# Indices 1 2 3 4 5 6 
#
# 1 0.025538 0.001109 -0.002382 0.000000 0.000000 0.000000
# 2 0.001109 0.010446 -0.010602 0.000000 0.000000 0.000000
# 3 -0.002382 -0.010602 0.019133 0.000000 0.000000 0.000000
# 4 0.000000 0.000000 0.000000 -0.135349 0.000000 0.000000
# 5 0.000000 0.000000 0.000000 0.000000 0.186710 0.000000
# 6 0.000000 0.000000 0.000000 0.000000 0.000000 0.042343
#
#
# Mechanical properties :
#
#
# Convention : Reuss Voigt Hill
#
# Bulk Modulus (GPa) = 31.88032 70.82425 51.35229
# Shear Modulus (GPa) = 27.31859 20.95455 24.13657
#
# Velocity S-wave (km/s) = 3.67719 3.22052 3.45640
# Velocity P-wave (km/s) = 5.81451 6.99174 6.43012
#
# Compressibility (1/GPa) = 0.03136732
#
# Stress axis : x y z
#
# Youngs Moduli (GPa) = 39.15734 95.73267 52.26606
#
# Poissons Ratio (x) = -0.10620 0.12448
# Poissons Ratio (y) = -0.04344 0.55414
# Poissons Ratio (z) = 0.09326 1.01499
#
# Static dielectric constant tensor:
#      x y z
#    x 1.767950 0.000000 0.000000 
#    y 0.000000 1.733500 0.000000 
#    z 0.000000 0.000000 1.688580 
# 
# From -- ./inp_files/2197.got.cif
#   From: 2010.05.17/outbox.cif.g08.bks.cpg/sg47_2_cif.got.tgz:2197.got - 2010.06.03 20:15:42.
