data_PCOD9384192
_publ_section_title
;
Structure prediction by ZEFSAII (Michael W. Deem and Ramdas Pophale) SiO2 
 PCOD9384192
Probable space group: P M M M
;
_chemical_formula_sum "Si O2"
_cell_formula_units_Z 52
_cell_length_a 7.683097
_cell_length_b 15.484625
_cell_length_c 24.442217
_cell_angle_alpha 90.000000
_cell_angle_beta 90.000000
_cell_angle_gamma 90.000000
_cell_volume 2907.887523
_symmetry_space_group_name_H-M "P M M M"
_symmetry_group_IT_number 47
_symmetry_cell_setting 'orthorhombic'
loop_
_space_group_symop_operation_xyz
x,y,z
-x,-y,z
x,-y,-z
-x,y,-z
-x,-y,-z
x,y,-z
-x,y,z
x,-y,z
loop_
_atom_site_type_symbol
_atom_site_label
_atom_site_fract_x
_atom_site_fract_y
_atom_site_fract_z
Si Si1 0.213647 0.399218 0.320884
Si Si2 0.797778 0.685312 0.103466
Si Si3 0.298897 0.859692 0.059412
Si Si4 0.793180 0.723376 0.776410
Si Si5 0.289697 0.095354 0.818757
Si Si6 0.698884 0.500000 0.934921
Si Si7 0.792643 0.395870 0.558754
O O1 0.263412 0.500000 0.311332
O O2 0.274139 0.333345 0.273994
O O3 0.273950 0.369777 0.381467
O O4 0.000000 0.399144 0.321953
O O5 0.706565 0.755676 0.065366
O O6 0.723834 0.692243 0.164772
O O7 0.784866 0.587827 0.084536
O O8 0.000000 0.711309 0.104208
O O9 0.500000 0.888239 0.058506
O O10 0.226163 0.890756 0.118165
O O11 0.221856 0.883918 0.000000
O O12 0.765794 0.826296 0.779685
O O13 0.000000 0.707762 0.776726
O O14 0.500000 0.098462 0.821026
O O15 0.235771 0.000000 0.800640
O O16 0.500000 0.500000 0.915377
O O17 0.700237 0.500000 0.000000
O O18 0.721100 0.364562 0.500000
O O19 0.775143 0.500000 0.558723
O O20 0.000000 0.377656 0.558246
#
# Coordination Sequence:
#
# PCOD9384192 Si02
#       7
#     8   8   8   8   8   4   8
#     4   8  13  21  36  57  84 118 148 172 199 237
#     4  10  20  31  44  61  81 106 136 170 206 246
#     4   9  17  30  47  64  82 102 126 160 204 255
#     4   9  18  30  45  64  86 112 140 171 206 246
#     4   9  18  32  48  64  83 107 134 168 212 257
#     4  11  23  35  45  57  75 103 140 177 212 248
#     4   7   9  14  26  48  79 113 145 172 198 230
#
# _framework density 17.882397999999998
#
# number of rings (size 3 to 8) (size 9 to 14) (size 15 to 20)
#    0.000    3.154    0.000    2.538    1.077    4.000 
#    0.000    1.538    0.000    0.000    0.000    4.308 
#    0.000    1.231    0.000   11.538    0.000    4.615 
#
# Total GULP energy -289505.885258 kJ/mol
# GULP energy per Si atom -5567.420870 kJ/mol
# Density = 1.784170 g / cm^3
# Si number density = 17.882398 Si / 1000 Ang^3
#
#
#
# Elastic Constant Matrix: (Units=GPa)
#
#
# Indices 1 2 3 4 5 6 
#
# 1 32.6674 -4.3611 8.1889 0.0000 0.0000 0.0000
# 2 -4.3611 87.9742 45.7868 0.0000 0.0000 0.0000
# 3 8.1889 45.7868 129.5156 0.0000 0.0000 0.0000
# 4 0.0000 0.0000 0.0000 0.7793 0.0000 0.0000
# 5 0.0000 0.0000 0.0000 0.0000 18.6259 0.0000
# 6 0.0000 0.0000 0.0000 0.0000 0.0000 15.0968
#
#
#
# Elastic Compliance Matrix: (Units=1/GPa)
#
#
# Indices 1 2 3 4 5 6 
#
# 1 0.031831 0.003217 -0.003150 0.000000 0.000000 0.000000
# 2 0.003217 0.014255 -0.005243 0.000000 0.000000 0.000000
# 3 -0.003150 -0.005243 0.009774 0.000000 0.000000 0.000000
# 4 0.000000 0.000000 0.000000 1.283203 0.000000 0.000000
# 5 0.000000 0.000000 0.000000 0.000000 0.053689 0.000000
# 6 0.000000 0.000000 0.000000 0.000000 0.000000 0.066239
#
#
# Mechanical properties :
#
#
# Convention : Reuss Voigt Hill
#
# Bulk Modulus (GPa) = 21.97394 38.82072 30.39733
# Shear Modulus (GPa) = 3.36811 20.26992 11.81902
#
# Velocity S-wave (km/s) = 1.37389 3.37042 2.57365
# Velocity P-wave (km/s) = 3.85116 6.07473 5.08595
#
# Compressibility (1/GPa) = 0.04550846
#
# Stress axis : x y z
#
# Youngs Moduli (GPa) = 31.41622 70.14980 102.31484
#
# Poissons Ratio (x) = -0.22570 0.32229
# Poissons Ratio (y) = -0.10108 0.53643
# Poissons Ratio (z) = 0.09896 0.36779
#
# Static dielectric constant tensor:
#      x y z
#    x 1.683200 0.000000 0.000000 
#    y 0.000000 1.622910 0.000000 
#    z 0.000000 0.000000 1.662900 
# 
# From -- ./inp_files/7668.got.cif
#   From: 2010.05.17/outbox.cif.g08.bks.cpg/sg47_4_cif.got.tgz:7668.got - 2010.06.03 20:15:42.
