data_PCOD9384882
_publ_section_title
;
Structure prediction by ZEFSAII (Michael W. Deem and Ramdas Pophale) SiO2 
 PCOD9384882
Probable space group: P M M M
;
_chemical_formula_sum "Si O2"
_cell_formula_units_Z 44
_cell_length_a 8.146127
_cell_length_b 7.408345
_cell_length_c 32.729432
_cell_angle_alpha 90.000000
_cell_angle_beta 90.000000
_cell_angle_gamma 90.000000
_cell_volume 1975.198940
_symmetry_space_group_name_H-M "P M M M"
_symmetry_group_IT_number 47
_symmetry_cell_setting 'orthorhombic'
loop_
_space_group_symop_operation_xyz
x,y,z
-x,-y,z
x,-y,-z
-x,y,-z
-x,-y,-z
x,y,-z
-x,y,z
x,-y,z
loop_
_atom_site_type_symbol
_atom_site_label
_atom_site_fract_x
_atom_site_fract_y
_atom_site_fract_z
Si Si1 0.308776 0.782062 0.954732
Si Si2 0.810114 0.778977 0.323614
Si Si3 0.803065 0.793513 0.585952
Si Si4 0.305102 0.207843 0.500000
Si Si5 0.176881 0.710267 0.132445
Si Si6 0.500000 0.287357 0.825487
Si Si7 0.500000 0.782340 0.270153
O O1 0.500000 0.727988 0.949669
O O2 0.207560 0.718120 0.916069
O O3 0.304646 0.000000 0.954285
O O4 0.254156 0.723651 0.000000
O O5 0.761676 0.717645 0.369509
O O6 0.667823 0.721966 0.292522
O O7 0.000000 0.724618 0.314825
O O8 0.812540 0.000000 0.324516
O O9 0.748973 0.709529 0.543127
O O10 0.000000 0.800481 0.585509
O O11 0.737146 0.000000 0.585652
O O12 0.500000 0.200964 0.500000
O O13 0.237458 0.000000 0.500000
O O14 0.169963 0.500000 0.144338
O O15 0.334950 0.790950 0.154718
O O16 0.000000 0.791391 0.142360
O O17 0.500000 0.500000 0.836392
O O18 0.500000 0.269747 0.777057
O O19 0.500000 0.000000 0.272441
#
# Coordination Sequence:
#
# PCOD9384882 Si02
#       7
#     8   8   8   4   8   4   4
#     4   9  18  33  54  81 113 146 177 210 249 292
#     4   8  15  27  42  62  88 116 149 193 241 285
#     4   8  13  21  31  44  70 109 146 181 223 270
#     4   9  15  17  23  43  69 103 149 188 213 256
#     4  10  21  37  57  79 103 136 176 212 249 298
#     4  10  22  40  55  73 103 132 159 204 262 307
#     4  10  20  32  52  74  91 118 158 201 242 295
#
# _framework density 22.276237999999999
#
# number of rings (size 3 to 8) (size 9 to 14) (size 15 to 20)
#    0.000    3.000    0.909    1.909    1.273    3.636 
#    0.000    2.727    0.000    0.000    0.000    0.000 
#    0.000    0.000    0.000    1.636    0.000    8.727 
#
# Total GULP energy -245468.132774 kJ/mol
# GULP energy per Si atom -5578.821199 kJ/mol
# Density = 2.222554 g / cm^3
# Si number density = 22.276238 Si / 1000 Ang^3
#
#
#
# Elastic Constant Matrix: (Units=GPa)
#
#
# Indices 1 2 3 4 5 6 
#
# 1 155.1174 9.3774 99.3339 0.0000 0.0000 0.0000
# 2 9.3774 72.8411 -7.3020 0.0000 0.0000 0.0000
# 3 99.3339 -7.3020 146.7000 0.0000 0.0000 0.0000
# 4 0.0000 0.0000 0.0000 0.5994 0.0000 0.0000
# 5 0.0000 0.0000 0.0000 0.0000 -33.8411 0.0000
# 6 0.0000 0.0000 0.0000 0.0000 0.0000 -12.2440
#
#
#
# Elastic Compliance Matrix: (Units=1/GPa)
#
#
# Indices 1 2 3 4 5 6 
#
# 1 0.011761 -0.002324 -0.008079 0.000000 0.000000 0.000000
# 2 -0.002324 0.014257 0.002283 0.000000 0.000000 0.000000
# 3 -0.008079 0.002283 0.012401 0.000000 0.000000 0.000000
# 4 0.000000 0.000000 0.000000 1.668348 0.000000 0.000000
# 5 0.000000 0.000000 0.000000 0.000000 -0.029550 0.000000
# 6 0.000000 0.000000 0.000000 0.000000 0.000000 -0.081673
#
#
# Mechanical properties :
#
#
# Convention : Reuss Voigt Hill
#
# Bulk Modulus (GPa) = 45.08886 64.16413 54.62649
# Shear Modulus (GPa) = 3.08799 9.11947 6.10373
#
# Velocity S-wave (km/s) = 1.17866 2.02551 1.65710
# Velocity P-wave (km/s) = 4.70500 5.85975 5.31383
#
# Compressibility (1/GPa) = 0.02217843
#
# Stress axis : x y z
#
# Youngs Moduli (GPa) = 85.02618 70.14303 80.63861
#
# Poissons Ratio (x) = 0.16301 0.65151
# Poissons Ratio (y) = 0.19760 -0.18412
# Poissons Ratio (z) = 0.68696 -0.16016
#
# Static dielectric constant tensor:
#      x y z
#    x 1.808990 0.000000 0.000000 
#    y 0.000000 1.885710 0.000000 
#    z 0.000000 0.000000 1.795120 
# 
# From -- ./inp_files/33980.got.cif
#   From: 2010.05.17/outbox.cif.g08.bks.cpg/sg47_17_cif.got.tgz:33980.got - 2010.06.03 20:15:42.
