data_PCOD9384048
_publ_section_title
;
Structure prediction by ZEFSAII (Michael W. Deem and Ramdas Pophale) SiO2 
 PCOD9384048
Probable space group: P M M M
;
_chemical_formula_sum "Si O2"
_cell_formula_units_Z 37
_cell_length_a 12.389865
_cell_length_b 10.944203
_cell_length_c 15.356923
_cell_angle_alpha 90.000000
_cell_angle_beta 90.000000
_cell_angle_gamma 90.000000
_cell_volume 2082.355724
_symmetry_space_group_name_H-M "P M M M"
_symmetry_group_IT_number 47
_symmetry_cell_setting 'orthorhombic'
loop_
_space_group_symop_operation_xyz
x,y,z
-x,-y,z
x,-y,-z
-x,y,-z
-x,-y,-z
x,y,-z
-x,y,z
x,-y,z
loop_
_atom_site_type_symbol
_atom_site_label
_atom_site_fract_x
_atom_site_fract_y
_atom_site_fract_z
Si Si1 0.732057 0.853286 0.095079
Si Si2 0.376406 0.500000 0.394553
Si Si3 0.500000 0.736670 0.872940
Si Si4 0.500000 0.500000 0.000000
Si Si5 0.500000 0.860826 0.306973
Si Si6 0.289347 0.764190 0.603873
Si Si7 0.876045 0.147666 0.258409
O O1 0.611199 0.802884 0.100882
O O2 0.805610 0.810629 0.175171
O O3 0.726773 0.000000 0.100037
O O4 0.777559 0.819819 0.000000
O O5 0.500000 0.500000 0.362603
O O6 0.382446 0.500000 0.500000
O O7 0.316134 0.375838 0.370863
O O8 0.500000 0.758243 0.768445
O O9 0.500000 0.607747 0.922707
O O10 0.606998 0.841143 0.364023
O O11 0.500000 0.000000 0.270735
O O12 0.278249 0.773161 0.500000
O O13 0.184984 0.808519 0.655467
O O14 0.000000 0.188314 0.253613
O O15 0.875546 0.000000 0.257725
#
# Coordination Sequence:
#
# PCOD9384048 Si02
#       7
#     8   4   4   1   4   8   8
#     4  10  19  35  61  88 116 152 193 247 312 376
#     4   9  18  35  56  82 116 156 199 247 303 364
#     4  12  22  38  56  88 126 156 189 241 299 370
#     4  12  28  40  58  96 132 160 204 234 300 382
#     4  12  23  36  58  90 126 161 201 254 313 374
#     4  11  22  37  59  89 125 166 211 255 309 371
#     4  10  22  39  58  86 122 160 210 264 313 366
#
# _framework density 17.768338
#
# number of rings (size 3 to 8) (size 9 to 14) (size 15 to 20)
#    0.000    1.405    4.324    1.946    0.000    4.757 
#    0.000    3.784    0.000    1.946    0.000    0.757 
#    0.000    0.000    0.000    0.000    0.000    0.000 
#
# Total GULP energy -206141.234090 kJ/mol
# GULP energy per Si atom -5571.384705 kJ/mol
# Density = 1.772790 g / cm^3
# Si number density = 17.768338 Si / 1000 Ang^3
#
#
#
# Elastic Constant Matrix: (Units=GPa)
#
#
# Indices 1 2 3 4 5 6 
#
# 1 131.1932 29.8648 65.1284 0.0000 0.0000 0.0000
# 2 29.8648 55.1448 33.9877 0.0000 0.0000 0.0000
# 3 65.1284 33.9877 137.7707 0.0000 0.0000 0.0000
# 4 0.0000 0.0000 0.0000 26.6846 0.0000 0.0000
# 5 0.0000 0.0000 0.0000 0.0000 -435.5804 0.0000
# 6 0.0000 0.0000 0.0000 0.0000 0.0000 13.9386
#
#
#
# Elastic Compliance Matrix: (Units=1/GPa)
#
#
# Indices 1 2 3 4 5 6 
#
# 1 0.010381 -0.003063 -0.004152 0.000000 0.000000 0.000000
# 2 -0.003063 0.022290 -0.004051 0.000000 0.000000 0.000000
# 3 -0.004152 -0.004051 0.010220 0.000000 0.000000 0.000000
# 4 0.000000 0.000000 0.000000 0.037475 0.000000 0.000000
# 5 0.000000 0.000000 0.000000 0.000000 -0.002296 0.000000
# 6 0.000000 0.000000 0.000000 0.000000 0.000000 0.071743
#
#
# Mechanical properties :
#
#
# Convention : Reuss Voigt Hill
#
# Bulk Modulus (GPa) = 49.11673 64.67450 56.89561
# Shear Modulus (GPa) = 27.91268 -65.98292 -19.03512
#
# Velocity S-wave (km/s) = 3.96779 -6.10047 -3.27661
# Velocity P-wave (km/s) = 6.97811 3.62536 4.21608
#
# Compressibility (1/GPa) = 0.02035966
#
# Stress axis : x y z
#
# Youngs Moduli (GPa) = 96.33361 44.86404 97.84419
#
# Poissons Ratio (x) = 0.13742 0.40621
# Poissons Ratio (y) = 0.29507 0.39635
# Poissons Ratio (z) = 0.39994 0.18173
#
# Static dielectric constant tensor:
#      x y z
#    x 1.580930 0.000000 0.000000 
#    y 0.000000 1.608270 0.000000 
#    z 0.000000 0.000000 1.649020 
# 
# From -- ./inp_files/16142.got.cif
#   From: 2010.05.17/outbox.cif.g08.bks.cpg/sg47_9_cif.got.tgz:16142.got - 2010.06.03 20:15:42.
