data_PCOD9384014
_publ_section_title
;
Structure prediction by ZEFSAII (Michael W. Deem and Ramdas Pophale) SiO2 
 PCOD9384014
Probable space group: P M M M
;
_chemical_formula_sum "Si O2"
_cell_formula_units_Z 37
_cell_length_a 10.846061
_cell_length_b 22.784477
_cell_length_c 7.815152
_cell_angle_alpha 90.000000
_cell_angle_beta 90.000000
_cell_angle_gamma 90.000000
_cell_volume 1931.294644
_symmetry_space_group_name_H-M "P M M M"
_symmetry_group_IT_number 47
_symmetry_cell_setting 'orthorhombic'
loop_
_space_group_symop_operation_xyz
x,y,z
-x,-y,z
x,-y,-z
-x,y,-z
-x,-y,-z
x,y,-z
-x,y,z
x,-y,z
loop_
_atom_site_type_symbol
_atom_site_label
_atom_site_fract_x
_atom_site_fract_y
_atom_site_fract_z
Si Si1 0.861446 0.117619 0.204518
Si Si2 0.751799 0.366429 0.706268
Si Si3 0.500000 0.566764 0.202711
Si Si4 0.142242 0.245928 0.704658
Si Si5 0.500000 0.000000 0.500000
Si Si6 0.000000 0.567401 0.290918
Si Si7 0.289707 0.000000 0.207760
O O1 0.809144 0.180754 0.258582
O O2 0.000000 0.114055 0.276900
O O3 0.787304 0.059172 0.243357
O O4 0.869961 0.119630 0.000000
O O5 0.755202 0.366040 0.500000
O O6 0.624178 0.397832 0.751692
O O7 0.773243 0.299479 0.767239
O O8 0.873930 0.401406 0.765400
O O9 0.500000 0.500000 0.276124
O O10 0.500000 0.561316 0.000000
O O11 0.134214 0.251833 0.500000
O O12 0.000000 0.250616 0.770466
O O13 0.604110 0.000000 0.346643
O O14 0.000000 0.500000 0.237933
O O15 0.000000 0.569368 0.500000
O O16 0.320475 0.000000 0.000000
#
# Coordination Sequence:
#
# PCOD9384014 Si02
#       7
#     8   8   4   8   1   4   4
#     4   9  18  34  59  89 120 152 188 234 298 356
#     4  10  19  35  58  83 111 145 187 233 289 347
#     4  11  25  41  54  75 111 150 190 239 289 340
#     4   9  17  31  54  87 121 146 177 232 289 347
#     4  12  26  40  62  82 112 164 222 242 294 362
#     4   9  16  28  53  85 109 134 179 234 286 344
#     4  10  22  41  61  87 123 160 203 258 298 348
#
# _framework density 19.158132999999999
#
# number of rings (size 3 to 8) (size 9 to 14) (size 15 to 20)
#    0.000    2.378    1.081    1.459    1.514    3.892 
#    0.000    2.162    0.000    1.946    0.000    0.000 
#    0.000    0.000    0.000    0.000    0.000    0.000 
#
# Total GULP energy -205977.711413 kJ/mol
# GULP energy per Si atom -5566.965173 kJ/mol
# Density = 1.911453 g / cm^3
# Si number density = 19.158133 Si / 1000 Ang^3
#
#
#
# Elastic Constant Matrix: (Units=GPa)
#
#
# Indices 1 2 3 4 5 6 
#
# 1 139.9120 111.6059 31.4048 0.0000 0.0000 0.0000
# 2 111.6059 219.4963 34.8307 0.0000 0.0000 0.0000
# 3 31.4048 34.8307 38.3521 0.0000 0.0000 0.0000
# 4 0.0000 0.0000 0.0000 33.3869 0.0000 0.0000
# 5 0.0000 0.0000 0.0000 0.0000 -139.5842 0.0000
# 6 0.0000 0.0000 0.0000 0.0000 0.0000 25.1509
#
#
#
# Elastic Compliance Matrix: (Units=1/GPa)
#
#
# Indices 1 2 3 4 5 6 
#
# 1 0.012911 -0.005710 -0.005387 0.000000 0.000000 0.000000
# 2 -0.005710 0.007848 -0.002452 0.000000 0.000000 0.000000
# 3 -0.005387 -0.002452 0.032712 0.000000 0.000000 0.000000
# 4 0.000000 0.000000 0.000000 0.029952 0.000000 0.000000
# 5 0.000000 0.000000 0.000000 0.000000 -0.007164 0.000000
# 6 0.000000 0.000000 0.000000 0.000000 0.000000 0.039760
#
#
# Mechanical properties :
#
#
# Convention : Reuss Voigt Hill
#
# Bulk Modulus (GPa) = 37.91606 83.71590 60.81598
# Shear Modulus (GPa) = 32.91460 -1.54800 15.68330
#
# Velocity S-wave (km/s) = 4.14943 -0.89987 2.86426
# Velocity P-wave (km/s) = 6.54149 6.53548 6.53849
#
# Compressibility (1/GPa) = 0.02637405
#
# Stress axis : x y z
#
# Youngs Moduli (GPa) = 77.45105 127.41457 30.56996
#
# Poissons Ratio (x) = 0.72756 0.16467
# Poissons Ratio (y) = 0.44226 0.07496
# Poissons Ratio (z) = 0.41720 0.31241
#
# Static dielectric constant tensor:
#      x y z
#    x 1.650640 0.000000 0.000000 
#    y 0.000000 1.705660 0.000000 
#    z 0.000000 0.000000 1.696400 
# 
# From -- ./inp_files/1579.got.cif
#   From: 2010.05.17/outbox.cif.g08.bks.cpg/sg47_1_cif.got.tgz:1579.got - 2010.06.03 20:15:42.
