data_PCOD9384359
_publ_section_title
;
Structure prediction by ZEFSAII (Michael W. Deem and Ramdas Pophale) SiO2 
 PCOD9384359
Probable space group: P M M M
;
_chemical_formula_sum "Si O2"
_cell_formula_units_Z 48
_cell_length_a 18.052966
_cell_length_b 9.194966
_cell_length_c 23.430494
_cell_angle_alpha 90.000000
_cell_angle_beta 90.000000
_cell_angle_gamma 90.000000
_cell_volume 3889.377855
_symmetry_space_group_name_H-M "P M M M"
_symmetry_group_IT_number 47
_symmetry_cell_setting 'orthorhombic'
loop_
_space_group_symop_operation_xyz
x,y,z
-x,-y,z
x,-y,-z
-x,y,-z
-x,-y,-z
x,y,-z
-x,y,z
x,-y,z
loop_
_atom_site_type_symbol
_atom_site_label
_atom_site_fract_x
_atom_site_fract_y
_atom_site_fract_z
Si Si1 0.909751 0.831921 0.000000
Si Si2 0.649117 0.332398 0.569377
Si Si3 0.090310 0.668196 0.115232
Si Si4 0.500000 0.831624 0.569614
Si Si5 0.198725 0.172644 0.568106
Si Si6 0.090048 0.167503 0.229956
Si Si7 0.088386 0.327364 0.652858
O O1 0.886232 0.749134 0.057398
O O2 0.000000 0.831269 0.000000
O O3 0.886468 0.000000 0.000000
O O4 0.647277 0.333913 0.500000
O O5 0.651698 0.500000 0.588375
O O6 0.574274 0.251588 0.588131
O O7 0.722998 0.244918 0.585155
O O8 0.113373 0.500000 0.115937
O O9 0.114510 0.752962 0.172047
O O10 0.000000 0.669093 0.115410
O O11 0.500000 0.830754 0.500000
O O12 0.500000 0.000000 0.587287
O O13 0.189190 0.194590 0.500000
O O14 0.133899 0.249663 0.603117
O O15 0.199805 0.000000 0.578744
O O16 0.110457 0.255961 0.286655
O O17 0.000000 0.166014 0.228483
O O18 0.114707 0.000000 0.232437
O O19 0.102190 0.500000 0.653354
O O20 0.000000 0.305270 0.645527
#
# Coordination Sequence:
#
# PCOD9384359 Si02
#       7
#     4   8   8   4   8   8   8
#     4   9  15  21  29  43  63  85 107 129 157 196
#     4   9  16  26  40  57  76  96 116 137 164 201
#     4   9  15  22  32  46  64  84 105 130 162 200
#     4   9  15  23  37  57  79  99 117 135 157 192
#     4  10  20  32  44  57  73  92 114 143 181 222
#     4   9  16  26  39  52  65  82 106 137 172 209
#     4  10  20  32  44  56  69  87 114 148 185 224
#
# _framework density 12.341305
#
# number of rings (size 3 to 8) (size 9 to 14) (size 15 to 20)
#    0.000    2.667    0.000    3.000    0.000   10.333 
#    0.000    1.667    0.000    0.000    0.000    0.000 
#    0.000    0.000    0.000    0.000    0.000    0.000 
#
# Total GULP energy -267387.597660 kJ/mol
# GULP energy per Si atom -5570.574951 kJ/mol
# Density = 1.231322 g / cm^3
# Si number density = 12.341305 Si / 1000 Ang^3
#
#
#
# Elastic Constant Matrix: (Units=GPa)
#
#
# Indices 1 2 3 4 5 6 
#
# 1 42.7421 49.2587 35.7541 0.0000 0.0000 0.0000
# 2 49.2587 138.6086 63.7173 0.0000 0.0000 0.0000
# 3 35.7541 63.7173 66.3793 0.0000 0.0000 0.0000
# 4 0.0000 0.0000 0.0000 21.7283 0.0000 0.0000
# 5 0.0000 0.0000 0.0000 0.0000 -0.4251 0.0000
# 6 0.0000 0.0000 0.0000 0.0000 0.0000 16.8944
#
#
#
# Elastic Compliance Matrix: (Units=1/GPa)
#
#
# Indices 1 2 3 4 5 6 
#
# 1 0.048538 -0.009362 -0.017157 0.000000 0.000000 0.000000
# 2 -0.009362 0.014718 -0.009085 0.000000 0.000000 0.000000
# 3 -0.017157 -0.009085 0.033027 0.000000 0.000000 0.000000
# 4 0.000000 0.000000 0.000000 0.046023 0.000000 0.000000
# 5 0.000000 0.000000 0.000000 0.000000 -2.352146 0.000000
# 6 0.000000 0.000000 0.000000 0.000000 0.000000 0.059191
#
#
# Mechanical properties :
#
#
# Convention : Reuss Voigt Hill
#
# Bulk Modulus (GPa) = 39.88198 60.57669 50.22933
# Shear Modulus (GPa) = -2.41420 14.23950 5.91265
#
# Velocity S-wave (km/s) = -1.40016 3.40046 2.19120
# Velocity P-wave (km/s) = 5.45638 8.03795 6.86952
#
# Compressibility (1/GPa) = 0.02507398
#
# Stress axis : x y z
#
# Youngs Moduli (GPa) = 20.60234 67.94384 30.27827
#
# Poissons Ratio (x) = 0.63612 0.51949
# Poissons Ratio (y) = 0.19289 0.27507
# Poissons Ratio (z) = 0.35348 0.61726
#
# Static dielectric constant tensor:
#      x y z
#    x 1.373370 0.000000 0.000000 
#    y 0.000000 1.413350 0.000000 
#    z 0.000000 0.000000 1.388390 
# 
# From -- ./inp_files/11442.got.cif
#   From: 2010.05.17/outbox.cif.g08.bks.cpg/sg47_6_cif.got.tgz:11442.got - 2010.06.03 20:15:42.
