data_PCOD9384273
_publ_section_title
;
Structure prediction by ZEFSAII (Michael W. Deem and Ramdas Pophale) SiO2 
 PCOD9384273
Probable space group: P M M M
;
_chemical_formula_sum "Si O2"
_cell_formula_units_Z 48
_cell_length_a 9.914376
_cell_length_b 32.047712
_cell_length_c 7.546929
_cell_angle_alpha 90.000000
_cell_angle_beta 90.000000
_cell_angle_gamma 90.000000
_cell_volume 2397.908895
_symmetry_space_group_name_H-M "P M M M"
_symmetry_group_IT_number 47
_symmetry_cell_setting 'orthorhombic'
loop_
_space_group_symop_operation_xyz
x,y,z
-x,-y,z
x,-y,-z
-x,y,-z
-x,-y,-z
x,y,-z
-x,y,z
x,-y,z
loop_
_atom_site_type_symbol
_atom_site_label
_atom_site_fract_x
_atom_site_fract_y
_atom_site_fract_z
Si Si1 0.846498 0.547679 0.783671
Si Si2 0.153035 0.303503 0.713391
Si Si3 0.652154 0.379695 0.210702
Si Si4 0.653239 0.863948 0.710530
Si Si5 0.845600 0.790923 0.716490
Si Si6 0.657065 0.044863 0.213020
O O1 0.817121 0.500000 0.730505
O O2 0.739499 0.581456 0.718835
O O3 0.000000 0.558069 0.729305
O O4 0.845892 0.548268 0.000000
O O5 0.148461 0.302764 0.500000
O O6 0.261470 0.337845 0.764605
O O7 0.187950 0.256403 0.772042
O O8 0.000000 0.313459 0.775278
O O9 0.500000 0.376881 0.282008
O O10 0.641439 0.386259 0.000000
O O11 0.643019 0.857754 0.500000
O O12 0.500000 0.863426 0.783300
O O13 0.744926 0.826606 0.780854
O O14 0.714319 0.910275 0.735179
O O15 0.842865 0.791221 0.500000
O O16 0.000000 0.799402 0.768662
O O17 0.500000 0.045573 0.272599
O O18 0.714773 0.000000 0.273433
O O19 0.656778 0.044136 0.000000
#
# Coordination Sequence:
#
# PCOD9384273 Si02
#       6
#     8   8   8   8   8   8
#     4   8  14  26  45  67  90 120 158 194 227 267
#     4   9  18  33  52  70  88 118 160 196 227 271
#     4  10  20  31  45  70 101 127 151 185 232 279
#     4   9  16  25  41  66  88 105 134 178 219 251
#     4   8  15  29  47  65  86 113 144 178 218 265
#     4   8  14  25  40  58  83 115 145 171 206 254
#
# _framework density 20.017441000000002
#
# number of rings (size 3 to 8) (size 9 to 14) (size 15 to 20)
#    0.000    3.333    0.000    2.500    0.000    2.667 
#    0.000    5.833    0.000    4.500    0.000    7.000 
#    0.000    0.000    0.000    0.000    0.000    0.000 
#
# Total GULP energy -267474.430956 kJ/mol
# GULP energy per Si atom -5572.383978 kJ/mol
# Density = 1.997188 g / cm^3
# Si number density = 20.017441 Si / 1000 Ang^3
#
#
#
# Elastic Constant Matrix: (Units=GPa)
#
#
# Indices 1 2 3 4 5 6 
#
# 1 127.1855 131.7272 5.8362 0.0000 0.0000 0.0000
# 2 131.7272 197.0967 2.2112 0.0000 0.0000 0.0000
# 3 5.8362 2.2112 46.0593 0.0000 0.0000 0.0000
# 4 0.0000 0.0000 0.0000 18.7760 0.0000 0.0000
# 5 0.0000 0.0000 0.0000 0.0000 7.9496 0.0000
# 6 0.0000 0.0000 0.0000 0.0000 0.0000 35.3508
#
#
#
# Elastic Compliance Matrix: (Units=1/GPa)
#
#
# Indices 1 2 3 4 5 6 
#
# 1 0.025817 -0.017227 -0.002444 0.000000 0.000000 0.000000
# 2 -0.017227 0.016571 0.001387 0.000000 0.000000 0.000000
# 3 -0.002444 0.001387 0.021954 0.000000 0.000000 0.000000
# 4 0.000000 0.000000 0.000000 0.053259 0.000000 0.000000
# 5 0.000000 0.000000 0.000000 0.000000 0.125792 0.000000
# 6 0.000000 0.000000 0.000000 0.000000 0.000000 0.028288
#
#
# Mechanical properties :
#
#
# Convention : Reuss Voigt Hill
#
# Bulk Modulus (GPa) = 36.00394 72.21010 54.10702
# Shear Modulus (GPa) = 15.74764 27.78641 21.76703
#
# Velocity S-wave (km/s) = 2.80785 3.72978 3.30116
# Velocity P-wave (km/s) = 5.34204 7.39596 6.45126
#
# Compressibility (1/GPa) = 0.02777474
#
# Stress axis : x y z
#
# Youngs Moduli (GPa) = 38.73462 60.34477 45.54930
#
# Poissons Ratio (x) = 1.03955 0.11133
# Poissons Ratio (y) = 0.66728 -0.06319
# Poissons Ratio (z) = 0.09468 -0.08371
#
# Static dielectric constant tensor:
#      x y z
#    x 1.694170 0.000000 0.000000 
#    y 0.000000 1.718390 0.000000 
#    z 0.000000 0.000000 1.773460 
# 
# From -- ./inp_files/2517.got.cif
#   From: 2010.05.17/outbox.cif.g08.bks.cpg/sg47_2_cif.got.tgz:2517.got - 2010.06.03 20:15:42.
