data_PCOD9384849
_publ_section_title
;
Structure prediction by ZEFSAII (Michael W. Deem and Ramdas Pophale) SiO2 
 PCOD9384849
Probable space group: P M M M
;
_chemical_formula_sum "Si O2"
_cell_formula_units_Z 44
_cell_length_a 9.403742
_cell_length_b 8.211897
_cell_length_c 31.400528
_cell_angle_alpha 90.000000
_cell_angle_beta 90.000000
_cell_angle_gamma 90.000000
_cell_volume 2424.829180
_symmetry_space_group_name_H-M "P M M M"
_symmetry_group_IT_number 47
_symmetry_cell_setting 'orthorhombic'
loop_
_space_group_symop_operation_xyz
x,y,z
-x,-y,z
x,-y,-z
-x,y,-z
-x,-y,-z
x,y,-z
-x,y,z
x,-y,z
loop_
_atom_site_type_symbol
_atom_site_label
_atom_site_fract_x
_atom_site_fract_y
_atom_site_fract_z
Si Si1 0.326694 0.500000 0.049117
Si Si2 0.335967 0.303421 0.452317
Si Si3 0.337136 0.306202 0.710431
Si Si4 0.326032 0.811120 0.895067
Si Si5 0.662700 0.195455 0.800513
Si Si6 0.839537 0.194094 0.629039
O O1 0.500000 0.500000 0.049759
O O2 0.282767 0.332942 0.072986
O O3 0.281223 0.500000 0.000000
O O4 0.292401 0.250304 0.500000
O O5 0.500000 0.251706 0.445568
O O6 0.335004 0.500000 0.452014
O O7 0.238323 0.244325 0.414308
O O8 0.500000 0.240851 0.707616
O O9 0.344484 0.500000 0.709676
O O10 0.273065 0.254471 0.756136
O O11 0.248041 0.250077 0.670118
O O12 0.500000 0.813226 0.893967
O O13 0.276527 0.765746 0.847080
O O14 0.284265 0.000000 0.904804
O O15 0.500000 0.260238 0.800354
O O16 0.656921 0.000000 0.799120
O O17 0.000000 0.260313 0.630133
O O18 0.845557 0.000000 0.630180
#
# Coordination Sequence:
#
# PCOD9384849 Si02
#       6
#     4   8   8   8   8   8
#     4   9  16  22  30  46  70 106 149 193 240 289
#     4   9  19  37  60  83 104 127 160 203 247 290
#     4  10  20  32  50  75  97 121 158 204 250 296
#     4   8  14  23  34  49  72 104 143 190 241 290
#     4   8  14  25  41  61  84 111 145 190 243 290
#     4  11  24  38  51  71 102 137 168 199 239 290
#
# _framework density 18.145609
#
# number of rings (size 3 to 8) (size 9 to 14) (size 15 to 20)
#    0.000    2.818    0.000    3.273    1.273    6.182 
#    0.000    4.545    0.000    0.000    0.000    0.000 
#    0.000    0.000    0.000    0.000    0.000    1.818 
#
# Total GULP energy -245088.389510 kJ/mol
# GULP energy per Si atom -5570.190671 kJ/mol
# Density = 1.810431 g / cm^3
# Si number density = 18.145609 Si / 1000 Ang^3
#
#
#
# Elastic Constant Matrix: (Units=GPa)
#
#
# Indices 1 2 3 4 5 6 
#
# 1 38.9550 23.1141 58.4969 0.0000 0.0000 0.0000
# 2 23.1141 62.8604 73.4691 0.0000 0.0000 0.0000
# 3 58.4969 73.4691 203.7289 0.0000 0.0000 0.0000
# 4 0.0000 0.0000 0.0000 48.9679 0.0000 0.0000
# 5 0.0000 0.0000 0.0000 0.0000 -6.9358 0.0000
# 6 0.0000 0.0000 0.0000 0.0000 0.0000 14.8381
#
#
#
# Elastic Compliance Matrix: (Units=1/GPa)
#
#
# Indices 1 2 3 4 5 6 
#
# 1 0.045358 -0.002518 -0.012116 0.000000 0.000000 0.000000
# 2 -0.002518 0.027638 -0.009244 0.000000 0.000000 0.000000
# 3 -0.012116 -0.009244 0.011721 0.000000 0.000000 0.000000
# 4 0.000000 0.000000 0.000000 0.020422 0.000000 0.000000
# 5 0.000000 0.000000 0.000000 0.000000 -0.144179 0.000000
# 6 0.000000 0.000000 0.000000 0.000000 0.000000 0.067394
#
#
# Mechanical properties :
#
#
# Convention : Reuss Voigt Hill
#
# Bulk Modulus (GPa) = 27.05479 68.41159 47.73319
# Shear Modulus (GPa) = 56.54192 21.40497 38.97345
#
# Velocity S-wave (km/s) = 5.58818 3.43829 4.63948
# Velocity P-wave (km/s) = 7.52192 7.31750 7.42041
#
# Compressibility (1/GPa) = 0.03696204
#
# Stress axis : x y z
#
# Youngs Moduli (GPa) = 22.04662 36.18188 85.31807
#
# Poissons Ratio (x) = 0.09111 1.03369
# Poissons Ratio (y) = 0.05551 0.78867
# Poissons Ratio (z) = 0.26711 0.33446
#
# Static dielectric constant tensor:
#      x y z
#    x 1.643890 0.000000 0.000000 
#    y 0.000000 1.628730 0.000000 
#    z 0.000000 0.000000 1.638110 
# 
# From -- ./inp_files/2141.got.cif
#   From: 2010.05.17/outbox.cif.g08.bks.cpg/sg47_2_cif.got.tgz:2141.got - 2010.06.03 20:15:42.
