data_PCOD9384763
_publ_section_title
;
Structure prediction by ZEFSAII (Michael W. Deem and Ramdas Pophale) SiO2 
 PCOD9384763
Probable space group: P M M M
;
_chemical_formula_sum "Si O2"
_cell_formula_units_Z 64
_cell_length_a 18.072324
_cell_length_b 13.863418
_cell_length_c 15.050926
_cell_angle_alpha 90.000000
_cell_angle_beta 90.000000
_cell_angle_gamma 90.000000
_cell_volume 3770.921941
_symmetry_space_group_name_H-M "P M M M"
_symmetry_group_IT_number 47
_symmetry_cell_setting 'orthorhombic'
loop_
_space_group_symop_operation_xyz
x,y,z
-x,-y,z
x,-y,-z
-x,y,-z
-x,-y,-z
x,y,-z
-x,y,z
x,-y,z
loop_
_atom_site_type_symbol
_atom_site_label
_atom_site_fract_x
_atom_site_fract_y
_atom_site_fract_z
Si Si1 0.639702 0.111907 0.604001
Si Si2 0.814449 0.390690 0.100394
Si Si3 0.911716 0.112284 0.715098
Si Si4 0.911356 0.202110 0.098538
Si Si5 0.409944 0.108837 0.897819
Si Si6 0.207635 0.225347 0.395321
Si Si7 0.584774 0.254155 0.746959
Si Si8 0.280051 0.612133 0.723155
O O1 0.620681 0.121068 0.500000
O O2 0.723697 0.150573 0.614741
O O3 0.590197 0.179861 0.665043
O O4 0.633712 0.000000 0.629242
O O5 0.845069 0.500000 0.108056
O O6 0.874945 0.307085 0.109928
O O7 0.755630 0.379129 0.178825
O O8 0.783246 0.382029 0.000000
O O9 0.890903 0.136986 0.817238
O O10 0.863705 0.179204 0.651011
O O11 0.000000 0.128855 0.705319
O O12 0.897224 0.000000 0.696623
O O13 0.000000 0.210582 0.099158
O O14 0.889575 0.165304 0.000000
O O15 0.500000 0.108571 0.895030
O O16 0.385703 0.191670 0.830695
O O17 0.386130 0.000000 0.872565
O O18 0.388110 0.126068 0.000000
O O19 0.196531 0.241887 0.500000
O O20 0.232989 0.321794 0.344185
O O21 0.500000 0.282337 0.762620
O O22 0.638264 0.342869 0.727397
O O23 0.279953 0.500000 0.697961
#
# Coordination Sequence:
#
# PCOD9384763 Si02
#       8
#     8   8   8   8   8   8   8   8
#     4   9  18  32  51  75 101 130 164 205 256 309
#     4   9  17  31  53  78 102 131 170 216 262 303
#     4  10  20  33  52  81 114 146 178 210 247 293
#     4   9  17  30  50  78 112 146 176 207 248 299
#     4   8  14  26  45  69  98 132 166 197 235 291
#     4  10  20  36  56  76 101 136 177 219 258 303
#     4  10  20  32  49  74 101 131 166 209 260 316
#     4  10  21  37  55  75  98 130 171 216 268 320
#
# _framework density 16.971976999999999
#
# number of rings (size 3 to 8) (size 9 to 14) (size 15 to 20)
#    0.000    2.625    1.250    1.125    0.000    3.500 
#    0.000    3.750    0.000    0.375    0.000    7.875 
#    0.000    0.000    0.000    0.000    0.000    0.000 
#
# Total GULP energy -356660.939297 kJ/mol
# GULP energy per Si atom -5572.827177 kJ/mol
# Density = 1.693335 g / cm^3
# Si number density = 16.971977 Si / 1000 Ang^3
#
#
#
# Elastic Constant Matrix: (Units=GPa)
#
#
# Indices 1 2 3 4 5 6 
#
# 1 40.0411 38.2358 37.2275 0.0000 0.0000 0.0000
# 2 38.2358 98.0059 48.9026 0.0000 0.0000 0.0000
# 3 37.2275 48.9026 90.3460 0.0000 0.0000 0.0000
# 4 0.0000 0.0000 0.0000 23.1789 0.0000 0.0000
# 5 0.0000 0.0000 0.0000 0.0000 19.5247 0.0000
# 6 0.0000 0.0000 0.0000 0.0000 0.0000 7.9815
#
#
#
# Elastic Compliance Matrix: (Units=1/GPa)
#
#
# Indices 1 2 3 4 5 6 
#
# 1 0.049679 -0.012560 -0.013672 0.000000 0.000000 0.000000
# 2 -0.012560 0.017154 -0.004110 0.000000 0.000000 0.000000
# 3 -0.013672 -0.004110 0.018927 0.000000 0.000000 0.000000
# 4 0.000000 0.000000 0.000000 0.043143 0.000000 0.000000
# 5 0.000000 0.000000 0.000000 0.000000 0.051217 0.000000
# 6 0.000000 0.000000 0.000000 0.000000 0.000000 0.125290
#
#
# Mechanical properties :
#
#
# Convention : Reuss Voigt Hill
#
# Bulk Modulus (GPa) = 39.87781 53.01387 46.44584
# Shear Modulus (GPa) = 13.35283 17.07218 15.21250
#
# Velocity S-wave (km/s) = 2.80796 3.17504 2.99713
# Velocity P-wave (km/s) = 5.83611 6.68918 6.27715
#
# Compressibility (1/GPa) = 0.02507660
#
# Stress axis : x y z
#
# Youngs Moduli (GPa) = 20.12916 58.29470 52.83460
#
# Poissons Ratio (x) = 0.73215 0.72237
# Poissons Ratio (y) = 0.25281 0.21715
# Poissons Ratio (z) = 0.27521 0.23959
#
# Static dielectric constant tensor:
#      x y z
#    x 1.559690 0.000000 0.000000 
#    y 0.000000 1.555160 0.000000 
#    z 0.000000 0.000000 1.586950 
# 
# From -- ./inp_files/17900.got.cif
#   From: 2010.05.17/outbox.cif.g08.bks.cpg/sg47_9_cif.got.tgz:17900.got - 2010.06.03 20:15:42.
