data_PCOD9384959
_publ_section_title
;
Structure prediction by ZEFSAII (Michael W. Deem and Ramdas Pophale) SiO2 
 PCOD9384959
Probable space group: P M M M
;
_chemical_formula_sum "Si O2"
_cell_formula_units_Z 53
_cell_length_a 14.672907
_cell_length_b 15.937946
_cell_length_c 13.194973
_cell_angle_alpha 90.000000
_cell_angle_beta 90.000000
_cell_angle_gamma 90.000000
_cell_volume 3085.723598
_symmetry_space_group_name_H-M "P M M M"
_symmetry_group_IT_number 47
_symmetry_cell_setting 'orthorhombic'
loop_
_space_group_symop_operation_xyz
x,y,z
-x,-y,z
x,-y,-z
-x,y,-z
-x,-y,-z
x,y,-z
-x,y,z
x,-y,z
loop_
_atom_site_type_symbol
_atom_site_label
_atom_site_fract_x
_atom_site_fract_y
_atom_site_fract_z
Si Si1 0.609120 0.094182 0.789841
Si Si2 0.752637 0.666478 0.269003
Si Si3 0.108393 0.255894 0.116112
Si Si4 0.000000 0.500000 0.500000
Si Si5 0.261952 0.841185 0.619079
Si Si6 0.807528 0.500000 0.612493
Si Si7 0.893292 0.094926 0.756813
Si Si8 0.608814 0.271803 0.883610
O O1 0.500000 0.095257 0.778210
O O2 0.658791 0.114540 0.684200
O O3 0.632795 0.173684 0.860937
O O4 0.634806 0.000000 0.824698
O O5 0.836150 0.687308 0.193644
O O6 0.742143 0.743608 0.347834
O O7 0.774781 0.581635 0.327054
O O8 0.664220 0.672419 0.196423
O O9 0.126309 0.161110 0.154409
O O10 0.000000 0.270382 0.123296
O O11 0.136402 0.267288 0.000000
O O12 0.083344 0.500000 0.587270
O O13 0.272606 0.851006 0.500000
O O14 0.168856 0.881336 0.661683
O O15 0.764611 0.500000 0.500000
O O16 0.000000 0.102501 0.731312
O O17 0.874735 0.000000 0.788448
O O18 0.500000 0.280300 0.870060
O O19 0.630994 0.291637 0.000000
#
# Coordination Sequence:
#
# PCOD9384959 Si02
#       8
#     8   8   8   1   8   4   8   8
#     4   9  18  31  48  74 106 140 182 230 273 310
#     4  10  20  36  57  77 106 135 169 216 269 320
#     4   9  18  31  49  73 101 134 168 204 253 316
#     4   8  24  40  64  96 108 132 170 216 272 328
#     4  10  20  33  48  69  95 133 173 214 264 321
#     4  10  22  40  62  87 109 132 168 214 262 322
#     4   9  18  31  45  65  94 129 171 215 253 295
#     4   9  18  34  56  81 111 148 187 225 265 314
#
# _framework density 17.175874
#
# number of rings (size 3 to 8) (size 9 to 14) (size 15 to 20)
#    0.226    2.415    0.000    1.358    1.057    2.415 
#    0.000    6.415    0.000    9.057    0.000    0.000 
#    0.000    0.000    0.000    0.000    0.000    0.000 
#
# Total GULP energy -295062.040975 kJ/mol
# GULP energy per Si atom -5567.208320 kJ/mol
# Density = 1.713678 g / cm^3
# Si number density = 17.175874 Si / 1000 Ang^3
#
#
#
# Elastic Constant Matrix: (Units=GPa)
#
#
# Indices 1 2 3 4 5 6 
#
# 1 62.5669 32.4320 29.6254 0.0000 0.0000 0.0000
# 2 32.4320 101.3768 37.8633 0.0000 0.0000 0.0000
# 3 29.6254 37.8633 98.2202 0.0000 0.0000 0.0000
# 4 0.0000 0.0000 0.0000 7.8945 0.0000 0.0000
# 5 0.0000 0.0000 0.0000 0.0000 20.4122 0.0000
# 6 0.0000 0.0000 0.0000 0.0000 0.0000 13.4835
#
#
#
# Elastic Compliance Matrix: (Units=1/GPa)
#
#
# Indices 1 2 3 4 5 6 
#
# 1 0.020600 -0.004988 -0.004291 0.000000 0.000000 0.000000
# 2 -0.004988 0.012731 -0.003403 0.000000 0.000000 0.000000
# 3 -0.004291 -0.003403 0.012787 0.000000 0.000000 0.000000
# 4 0.000000 0.000000 0.000000 0.126670 0.000000 0.000000
# 5 0.000000 0.000000 0.000000 0.000000 0.048990 0.000000
# 6 0.000000 0.000000 0.000000 0.000000 0.000000 0.074165
#
#
# Mechanical properties :
#
#
# Convention : Reuss Voigt Hill
#
# Bulk Modulus (GPa) = 48.18154 51.33393 49.75774
# Shear Modulus (GPa) = 15.23345 19.17427 17.20386
#
# Velocity S-wave (km/s) = 2.98133 3.34481 3.16829
# Velocity P-wave (km/s) = 6.32170 6.69844 6.51279
#
# Compressibility (1/GPa) = 0.02075483
#
# Stress axis : x y z
#
# Youngs Moduli (GPa) = 48.54383 78.54889 78.20248
#
# Poissons Ratio (x) = 0.39178 0.33554
# Poissons Ratio (y) = 0.24212 0.26615
# Poissons Ratio (z) = 0.20829 0.26732
#
# Static dielectric constant tensor:
#      x y z
#    x 1.433940 0.000000 0.000000 
#    y 0.000000 1.581830 0.000000 
#    z 0.000000 0.000000 1.549200 
# 
# From -- ./inp_files/17691.got.cif
#   From: 2010.05.17/outbox.cif.g08.bks.cpg/sg47_9_cif.got.tgz:17691.got - 2010.06.03 20:15:42.
