data_PCOD9384098
_publ_section_title
;
Structure prediction by ZEFSAII (Michael W. Deem and Ramdas Pophale) SiO2 
 PCOD9384098
Probable space group: P M M M
;
_chemical_formula_sum "Si O2"
_cell_formula_units_Z 48
_cell_length_a 7.580842
_cell_length_b 36.794060
_cell_length_c 7.970566
_cell_angle_alpha 90.000000
_cell_angle_beta 90.000000
_cell_angle_gamma 90.000000
_cell_volume 2223.229619
_symmetry_space_group_name_H-M "P M M M"
_symmetry_group_IT_number 47
_symmetry_cell_setting 'orthorhombic'
loop_
_space_group_symop_operation_xyz
x,y,z
-x,-y,z
x,-y,-z
-x,y,-z
-x,-y,-z
x,y,-z
-x,y,z
x,-y,z
loop_
_atom_site_type_symbol
_atom_site_label
_atom_site_fract_x
_atom_site_fract_y
_atom_site_fract_z
Si Si1 0.716130 0.090854 0.500000
Si Si2 0.195254 0.384607 0.699597
Si Si3 0.715101 0.041730 0.810088
Si Si4 0.284621 0.825645 0.500000
Si Si5 0.304690 0.696041 0.798224
Si Si6 0.206642 0.539106 0.201544
Si Si7 0.283143 0.774853 0.193964
O O1 0.500000 0.090711 0.500000
O O2 0.773444 0.069079 0.665802
O O3 0.772907 0.132614 0.500000
O O4 0.190433 0.384209 0.500000
O O5 0.247175 0.344313 0.753126
O O6 0.289355 0.422309 0.747480
O O7 0.000000 0.388632 0.774144
O O8 0.500000 0.042039 0.809397
O O9 0.767964 0.000000 0.775186
O O10 0.770429 0.051125 0.000000
O O11 0.500000 0.825534 0.500000
O O12 0.229779 0.804195 0.332026
O O13 0.500000 0.698471 0.725447
O O14 0.217133 0.734464 0.752756
O O15 0.310011 0.697389 0.000000
O O16 0.281634 0.500000 0.258687
O O17 0.000000 0.538986 0.258025
O O18 0.207745 0.538662 0.000000
O O19 0.500000 0.773647 0.192455
O O20 0.231056 0.782131 0.000000
#
# Coordination Sequence:
#
# PCOD9384098 Si02
#       7
#     4   8   8   4   8   8   8
#     4   9  15  20  27  42  60  79 109 148 193 246
#     4  10  20  30  43  69  98 118 139 172 215 257
#     4   8  13  20  28  37  52  78 111 147 190 240
#     4   9  16  23  34  51  69  93 120 154 208 257
#     4   9  18  32  49  66  83 110 148 182 214 258
#     4   8  14  26  44  63  84 114 147 173 202 245
#     4   8  15  27  40  55  74  96 128 167 204 251
#
# _framework density 21.590214
#
# number of rings (size 3 to 8) (size 9 to 14) (size 15 to 20)
#    0.000    3.333    0.000    2.750    1.167    3.333 
#    0.000    5.000    0.000    0.500    0.000    3.500 
#    0.000    0.000    0.000    0.000    0.000    0.000 
#
# Total GULP energy -267269.389137 kJ/mol
# GULP energy per Si atom -5568.112274 kJ/mol
# Density = 2.154107 g / cm^3
# Si number density = 21.590214 Si / 1000 Ang^3
#
#
#
# Elastic Constant Matrix: (Units=GPa)
#
#
# Indices 1 2 3 4 5 6 
#
# 1 39.2707 14.8198 5.0512 0.0000 0.0000 0.0000
# 2 14.8198 258.3717 121.8994 0.0000 0.0000 0.0000
# 3 5.0512 121.8994 106.6246 0.0000 0.0000 0.0000
# 4 0.0000 0.0000 0.0000 24.7073 0.0000 0.0000
# 5 0.0000 0.0000 0.0000 0.0000 -3.7267 0.0000
# 6 0.0000 0.0000 0.0000 0.0000 0.0000 4.5093
#
#
#
# Elastic Compliance Matrix: (Units=1/GPa)
#
#
# Indices 1 2 3 4 5 6 
#
# 1 0.026080 -0.001982 0.001031 0.000000 0.000000 0.000000
# 2 -0.001982 0.008553 -0.009685 0.000000 0.000000 0.000000
# 3 0.001031 -0.009685 0.020402 0.000000 0.000000 0.000000
# 4 0.000000 0.000000 0.000000 0.040474 0.000000 0.000000
# 5 0.000000 0.000000 0.000000 0.000000 -0.268332 0.000000
# 6 0.000000 0.000000 0.000000 0.000000 0.000000 0.221766
#
#
# Mechanical properties :
#
#
# Convention : Reuss Voigt Hill
#
# Bulk Modulus (GPa) = 29.61868 76.42312 53.02090
# Shear Modulus (GPa) = 61.37242 22.59774 41.98508
#
# Velocity S-wave (km/s) = 5.33739 3.23873 4.41459
# Velocity P-wave (km/s) = 7.19250 7.03277 7.11308
#
# Compressibility (1/GPa) = 0.03376247
#
# Stress axis : x y z
#
# Youngs Moduli (GPa) = 38.34400 116.91326 49.01463
#
# Poissons Ratio (x) = 0.23174 -0.05051
# Poissons Ratio (y) = 0.07600 0.47470
# Poissons Ratio (z) = -0.03952 1.13228
#
# Static dielectric constant tensor:
#      x y z
#    x 2.039370 0.000000 0.000000 
#    y 0.000000 1.835360 0.000000 
#    z 0.000000 0.000000 1.741380 
# 
# From -- ./inp_files/2668.got.cif
#   From: 2010.05.17/outbox.cif.g08.bks.cpg/sg47_2_cif.got.tgz:2668.got - 2010.06.03 20:15:42.
