data_PCOD9384768
_publ_section_title
;
Structure prediction by ZEFSAII (Michael W. Deem and Ramdas Pophale) SiO2 
 PCOD9384768
Probable space group: P M M M
;
_chemical_formula_sum "Si O2"
_cell_formula_units_Z 64
_cell_length_a 7.831122
_cell_length_b 29.792593
_cell_length_c 14.995350
_cell_angle_alpha 90.000000
_cell_angle_beta 90.000000
_cell_angle_gamma 90.000000
_cell_volume 3498.556568
_symmetry_space_group_name_H-M "P M M M"
_symmetry_group_IT_number 47
_symmetry_cell_setting 'orthorhombic'
loop_
_space_group_symop_operation_xyz
x,y,z
-x,-y,z
x,-y,-z
-x,y,-z
-x,-y,-z
x,y,-z
-x,y,z
x,-y,z
loop_
_atom_site_type_symbol
_atom_site_label
_atom_site_fract_x
_atom_site_fract_y
_atom_site_fract_z
Si Si1 0.297970 0.231651 0.784990
Si Si2 0.302483 0.417132 0.899507
Si Si3 0.206267 0.733624 0.398906
Si Si4 0.290683 0.853567 0.896148
Si Si5 0.207374 0.632226 0.603692
Si Si6 0.296022 0.048244 0.107568
Si Si7 0.199931 0.548732 0.285197
Si Si8 0.799842 0.316876 0.100772
O O1 0.500000 0.232310 0.798338
O O2 0.261063 0.233889 0.680094
O O3 0.231071 0.187491 0.835337
O O4 0.229152 0.276701 0.831297
O O5 0.500000 0.430796 0.899033
O O6 0.211725 0.442829 0.820195
O O7 0.292241 0.363735 0.880066
O O8 0.234073 0.423648 0.000000
O O9 0.262671 0.744281 0.500000
O O10 0.267114 0.682826 0.376372
O O11 0.000000 0.732628 0.400015
O O12 0.500000 0.854443 0.895009
O O13 0.231083 0.902871 0.863680
O O14 0.241693 0.847064 0.000000
O O15 0.244171 0.623090 0.500000
O O16 0.274390 0.592177 0.665003
O O17 0.000000 0.633777 0.613207
O O18 0.500000 0.047693 0.125145
O O19 0.226010 0.000000 0.139697
O O20 0.277276 0.048586 0.000000
O O21 0.275311 0.500000 0.307554
O O22 0.000000 0.547295 0.309952
O O23 0.000000 0.327969 0.101475
O O24 0.751175 0.302381 0.000000
#
# Coordination Sequence:
#
# PCOD9384768 Si02
#       8
#     8   8   8   8   8   8   8   8
#     4  11  20  28  43  67  96 126 151 181 225 274
#     4  10  21  36  52  68  87 115 152 190 225 259
#     4   9  18  33  51  67  85 115 155 194 228 265
#     4   8  14  23  34  54  88 125 156 186 222 265
#     4   8  15  30  51  71  89 110 138 173 212 254
#     4   7   9  15  29  48  73 111 156 193 222 256
#     4  10  20  32  49  74  98 118 141 171 210 259
#     4  10  20  33  49  68  91 120 153 187 221 261
#
# _framework density 18.293257000000001
#
# number of rings (size 3 to 8) (size 9 to 14) (size 15 to 20)
#    0.000    2.875    0.000    4.125    0.000    4.000 
#    0.000    2.500    0.000    1.125    0.000    0.875 
#    0.000    2.500    0.000   20.375    0.000   12.750 
#
# Total GULP energy -356736.230223 kJ/mol
# GULP energy per Si atom -5574.003597 kJ/mol
# Density = 1.825162 g / cm^3
# Si number density = 18.293257 Si / 1000 Ang^3
#
#
#
# Elastic Constant Matrix: (Units=GPa)
#
#
# Indices 1 2 3 4 5 6 
#
# 1 23.5371 -2.0623 -2.9649 0.0000 0.0000 0.0000
# 2 -2.0623 76.8379 53.0415 0.0000 0.0000 0.0000
# 3 -2.9649 53.0415 67.4774 0.0000 0.0000 0.0000
# 4 0.0000 0.0000 0.0000 13.8317 0.0000 0.0000
# 5 0.0000 0.0000 0.0000 0.0000 9.5040 0.0000
# 6 0.0000 0.0000 0.0000 0.0000 0.0000 13.3528
#
#
#
# Elastic Compliance Matrix: (Units=1/GPa)
#
#
# Indices 1 2 3 4 5 6 
#
# 1 0.042726 -0.000326 0.002134 0.000000 0.000000 0.000000
# 2 -0.000326 0.028457 -0.022383 0.000000 0.000000 0.000000
# 3 0.002134 -0.022383 0.032508 0.000000 0.000000 0.000000
# 4 0.000000 0.000000 0.000000 0.072298 0.000000 0.000000
# 5 0.000000 0.000000 0.000000 0.000000 0.105218 0.000000
# 6 0.000000 0.000000 0.000000 0.000000 0.000000 0.074890
#
#
# Mechanical properties :
#
#
# Convention : Reuss Voigt Hill
#
# Bulk Modulus (GPa) = 15.98974 29.32009 22.65492
# Shear Modulus (GPa) = 11.95897 15.32691 13.64294
#
# Velocity S-wave (km/s) = 2.55960 2.89770 2.73388
# Velocity P-wave (km/s) = 4.18272 5.22093 4.73040
#
# Compressibility (1/GPa) = 0.06254009
#
# Stress axis : x y z
#
# Youngs Moduli (GPa) = 23.40478 35.14085 30.76147
#
# Poissons Ratio (x) = 0.01146 -0.06564
# Poissons Ratio (y) = 0.00763 0.68854
# Poissons Ratio (z) = -0.04994 0.78657
#
# Static dielectric constant tensor:
#      x y z
#    x 1.699910 0.000000 0.000000 
#    y 0.000000 1.666520 0.000000 
#    z 0.000000 0.000000 1.621710 
# 
# From -- ./inp_files/22141.got.cif
#   From: 2010.05.17/outbox.cif.g08.bks.cpg/sg47_12_cif.got.tgz:22141.got - 2010.06.03 20:15:42.
