data_PCOD9384638
_publ_section_title
;
Structure prediction by ZEFSAII (Michael W. Deem and Ramdas Pophale) SiO2 
 PCOD9384638
Probable space group: P M M M
;
_chemical_formula_sum "Si O2"
_cell_formula_units_Z 44
_cell_length_a 17.382721
_cell_length_b 7.915217
_cell_length_c 15.826465
_cell_angle_alpha 90.000000
_cell_angle_beta 90.000000
_cell_angle_gamma 90.000000
_cell_volume 2177.531805
_symmetry_space_group_name_H-M "P M M M"
_symmetry_group_IT_number 47
_symmetry_cell_setting 'orthorhombic'
loop_
_space_group_symop_operation_xyz
x,y,z
-x,-y,z
x,-y,-z
-x,y,-z
-x,-y,-z
x,y,-z
-x,y,z
x,-y,z
loop_
_atom_site_type_symbol
_atom_site_label
_atom_site_fract_x
_atom_site_fract_y
_atom_site_fract_z
Si Si1 0.087987 0.302866 0.228102
Si Si2 0.623968 0.306495 0.093637
Si Si3 0.207413 0.807588 0.092370
Si Si4 0.405726 0.000000 0.400713
Si Si5 0.409280 0.694747 0.281521
Si Si6 0.907887 0.202084 0.590309
O O1 0.085259 0.500000 0.207655
O O2 0.144740 0.216872 0.163348
O O3 0.119407 0.281466 0.323036
O O4 0.000000 0.235921 0.224895
O O5 0.596051 0.500000 0.092409
O O6 0.716606 0.303830 0.099476
O O7 0.598203 0.238012 0.184723
O O8 0.604379 0.232741 0.000000
O O9 0.236151 0.000000 0.095089
O O10 0.172102 0.776872 0.000000
O O11 0.379072 0.167172 0.348733
O O12 0.500000 0.000000 0.399031
O O13 0.383168 0.000000 0.500000
O O14 0.500000 0.681072 0.298469
O O15 0.377854 0.500000 0.286166
O O16 0.876293 0.261770 0.500000
O O17 0.000000 0.234243 0.588447
O O18 0.897801 0.000000 0.595028
#
# Coordination Sequence:
#
# PCOD9384638 Si02
#       6
#     8   8   8   4   8   8
#     4  10  20  32  48  71  97 126 161 204 254 303
#     4   9  18  33  53  76 104 138 172 209 256 311
#     4  10  21  35  51  71  95 128 169 208 248 301
#     4   9  18  32  51  77 109 145 183 224 268 310
#     4   9  18  32  52  81 113 144 180 220 263 311
#     4   8  14  26  45  68  93 120 150 187 234 289
#
# _framework density 20.206364000000001
#
# number of rings (size 3 to 8) (size 9 to 14) (size 15 to 20)
#    0.000    2.818    0.000    1.636    1.273    3.636 
#    0.000    7.273    0.000    2.727    0.000    2.545 
#    0.000    0.000    0.000    0.000    0.000    0.000 
#
# Total GULP energy -244980.697769 kJ/mol
# GULP energy per Si atom -5567.743131 kJ/mol
# Density = 2.016037 g / cm^3
# Si number density = 20.206364 Si / 1000 Ang^3
#
#
#
# Elastic Constant Matrix: (Units=GPa)
#
#
# Indices 1 2 3 4 5 6 
#
# 1 20.6601 8.3733 16.7001 0.0000 0.0000 0.0000
# 2 8.3733 63.5921 58.3186 0.0000 0.0000 0.0000
# 3 16.7001 58.3186 137.2768 0.0000 0.0000 0.0000
# 4 0.0000 0.0000 0.0000 64.9931 0.0000 0.0000
# 5 0.0000 0.0000 0.0000 0.0000 74.9736 0.0000
# 6 0.0000 0.0000 0.0000 0.0000 0.0000 9.2730
#
#
#
# Elastic Compliance Matrix: (Units=1/GPa)
#
#
# Indices 1 2 3 4 5 6 
#
# 1 0.053803 -0.001772 -0.005792 0.000000 0.000000 0.000000
# 2 -0.001772 0.025820 -0.010754 0.000000 0.000000 0.000000
# 3 -0.005792 -0.010754 0.012558 0.000000 0.000000 0.000000
# 4 0.000000 0.000000 0.000000 0.015386 0.000000 0.000000
# 5 0.000000 0.000000 0.000000 0.000000 0.013338 0.000000
# 6 0.000000 0.000000 0.000000 0.000000 0.000000 0.107840
#
#
# Mechanical properties :
#
#
# Convention : Reuss Voigt Hill
#
# Bulk Modulus (GPa) = 18.00362 43.14591 30.57477
# Shear Modulus (GPa) = 17.61204 39.05706 28.33455
#
# Velocity S-wave (km/s) = 2.95550 4.40126 3.74874
# Velocity P-wave (km/s) = 4.53607 6.87219 5.82250
#
# Compressibility (1/GPa) = 0.05554439
#
# Stress axis : x y z
#
# Youngs Moduli (GPa) = 18.58635 38.72917 79.63331
#
# Poissons Ratio (x) = 0.06864 0.46126
# Poissons Ratio (y) = 0.03294 0.85634
# Poissons Ratio (z) = 0.10766 0.41647
#
# Static dielectric constant tensor:
#      x y z
#    x 1.690510 0.000000 0.000000 
#    y 0.000000 1.761290 0.000000 
#    z 0.000000 0.000000 1.745420 
# 
# From -- ./inp_files/24324.got.cif
#   From: 2010.05.17/outbox.cif.g08.bks.cpg/sg47_13_cif.got.tgz:24324.got - 2010.06.03 20:15:42.
