data_PCOD9384677
_publ_section_title
;
Structure prediction by ZEFSAII (Michael W. Deem and Ramdas Pophale) SiO2 
 PCOD9384677
Probable space group: P M M M
;
_chemical_formula_sum "Si O2"
_cell_formula_units_Z 48
_cell_length_a 7.339050
_cell_length_b 32.467174
_cell_length_c 9.430240
_cell_angle_alpha 90.000000
_cell_angle_beta 90.000000
_cell_angle_gamma 90.000000
_cell_volume 2247.020739
_symmetry_space_group_name_H-M "P M M M"
_symmetry_group_IT_number 47
_symmetry_cell_setting 'orthorhombic'
loop_
_space_group_symop_operation_xyz
x,y,z
-x,-y,z
x,-y,-z
-x,y,-z
-x,-y,-z
x,y,-z
-x,y,z
x,-y,z
loop_
_atom_site_type_symbol
_atom_site_label
_atom_site_fract_x
_atom_site_fract_y
_atom_site_fract_z
Si Si1 0.222310 0.365760 0.834873
Si Si2 0.721962 0.046269 0.163659
Si Si3 0.782842 0.793599 0.839486
Si Si4 0.222718 0.285429 0.336795
Si Si5 0.281958 0.875650 0.339934
Si Si6 0.219280 0.544282 0.830216
O O1 0.280386 0.327342 0.740797
O O2 0.282926 0.410868 0.780267
O O3 0.000000 0.366169 0.834515
O O4 0.275940 0.360762 0.000000
O O5 0.500000 0.046571 0.165255
O O6 0.786067 0.082962 0.263690
O O7 0.778077 0.000000 0.205289
O O8 0.775903 0.053306 0.000000
O O9 0.715055 0.754437 0.750833
O O10 0.752708 0.835743 0.755293
O O11 0.000000 0.788188 0.849589
O O12 0.711292 0.795429 0.000000
O O13 0.280070 0.283613 0.500000
O O14 0.000000 0.285287 0.336454
O O15 0.212561 0.870542 0.500000
O O16 0.500000 0.879798 0.348549
O O17 0.287078 0.500000 0.774621
O O18 0.000000 0.543885 0.812176
O O19 0.252629 0.544460 0.000000
#
# Coordination Sequence:
#
# PCOD9384677 Si02
#       6
#     8   8   8   8   8   8
#     4   8  12  18  29  44  62  86 120 162 203 245
#     4   8  14  26  45  68  93 121 152 184 216 251
#     4  10  20  33  49  67  87 115 152 190 226 264
#     4   9  16  25  37  53  74 100 131 170 215 259
#     4  10  20  32  48  72  99 124 149 179 219 266
#     4   7   9  13  22  37  56  79 111 153 198 240
#
# _framework density 21.361619000000001
#
# number of rings (size 3 to 8) (size 9 to 14) (size 15 to 20)
#    0.000    3.333    0.000    3.500    0.000    4.333 
#    0.000    1.667    0.000    1.000    0.000    7.000 
#    0.000    0.000    0.000    0.000    0.000    0.833 
#
# Total GULP energy -267783.162543 kJ/mol
# GULP energy per Si atom -5578.815886 kJ/mol
# Density = 2.131300 g / cm^3
# Si number density = 21.361619 Si / 1000 Ang^3
#
#
#
# Elastic Constant Matrix: (Units=GPa)
#
#
# Indices 1 2 3 4 5 6 
#
# 1 80.4935 4.6725 6.4928 0.0000 0.0000 0.0000
# 2 4.6725 258.9148 141.6208 0.0000 0.0000 0.0000
# 3 6.4928 141.6208 162.6488 0.0000 0.0000 0.0000
# 4 0.0000 0.0000 0.0000 23.3542 0.0000 0.0000
# 5 0.0000 0.0000 0.0000 0.0000 -8.2403 0.0000
# 6 0.0000 0.0000 0.0000 0.0000 0.0000 8.3667
#
#
#
# Elastic Compliance Matrix: (Units=1/GPa)
#
#
# Indices 1 2 3 4 5 6 
#
# 1 0.012465 0.000090 -0.000576 0.000000 0.000000 0.000000
# 2 0.000090 0.007375 -0.006425 0.000000 0.000000 0.000000
# 3 -0.000576 -0.006425 0.011766 0.000000 0.000000 0.000000
# 4 0.000000 0.000000 0.000000 0.042819 0.000000 0.000000
# 5 0.000000 0.000000 0.000000 0.000000 -0.121354 0.000000
# 6 0.000000 0.000000 0.000000 0.000000 0.000000 0.119522
#
#
# Mechanical properties :
#
#
# Convention : Reuss Voigt Hill
#
# Bulk Modulus (GPa) = 56.23290 89.73657 72.98474
# Shear Modulus (GPa) = 54.14655 27.98084 41.06369
#
# Velocity S-wave (km/s) = 5.04010 3.62313 4.38917
# Velocity P-wave (km/s) = 7.76219 7.72025 7.74125
#
# Compressibility (1/GPa) = 0.01778318
#
# Stress axis : x y z
#
# Youngs Moduli (GPa) = 80.22722 135.59136 84.99250
#
# Poissons Ratio (x) = -0.01223 0.04896
# Poissons Ratio (y) = -0.00723 0.54609
# Poissons Ratio (z) = 0.04622 0.87120
#
# Static dielectric constant tensor:
#      x y z
#    x 1.922740 0.000000 0.000000 
#    y 0.000000 1.765310 0.000000 
#    z 0.000000 0.000000 1.689000 
# 
# From -- ./inp_files/4705.got.cif
#   From: 2010.05.17/outbox.cif.g08.bks.cpg/sg47_3_cif.got.tgz:4705.got - 2010.06.03 20:15:42.
