data_PCOD9384399
_publ_section_title
;
Structure prediction by ZEFSAII (Michael W. Deem and Ramdas Pophale) SiO2 
 PCOD9384399
Probable space group: P M M M
;
_chemical_formula_sum "Si O2"
_cell_formula_units_Z 64
_cell_length_a 32.330658
_cell_length_b 14.550496
_cell_length_c 8.917596
_cell_angle_alpha 90.000000
_cell_angle_beta 90.000000
_cell_angle_gamma 90.000000
_cell_volume 4195.078914
_symmetry_space_group_name_H-M "P M M M"
_symmetry_group_IT_number 47
_symmetry_cell_setting 'orthorhombic'
loop_
_space_group_symop_operation_xyz
x,y,z
-x,-y,z
x,-y,-z
-x,y,-z
-x,-y,-z
x,y,-z
-x,y,z
x,-y,z
loop_
_atom_site_type_symbol
_atom_site_label
_atom_site_fract_x
_atom_site_fract_y
_atom_site_fract_z
Si Si1 0.544596 0.108336 0.682295
Si Si2 0.279705 0.890713 0.822243
Si Si3 0.826567 0.605086 0.178527
Si Si4 0.082799 0.602693 0.679238
Si Si5 0.953627 0.796885 0.319572
Si Si6 0.796604 0.785235 0.678451
Si Si7 0.125827 0.108905 0.821862
Si Si8 0.365548 0.888187 0.325293
O O1 0.545446 0.112252 0.500000
O O2 0.500000 0.147800 0.731468
O O3 0.589386 0.145389 0.731192
O O4 0.543860 0.000000 0.721693
O O5 0.244157 0.835965 0.737244
O O6 0.325391 0.861556 0.768392
O O7 0.275392 0.000000 0.790386
O O8 0.275268 0.878042 0.000000
O O9 0.813997 0.500000 0.211373
O O10 0.873683 0.615162 0.236778
O O11 0.799611 0.681912 0.259239
O O12 0.825699 0.618856 0.000000
O O13 0.090760 0.605708 0.500000
O O14 0.066665 0.500000 0.714113
O O15 0.053795 0.688795 0.714218
O O16 0.949986 0.807724 0.500000
O O17 0.917486 0.853483 0.240817
O O18 0.000000 0.824164 0.275064
O O19 0.798075 0.785404 0.500000
O O20 0.836672 0.838392 0.742353
O O21 0.129302 0.000000 0.795003
O O22 0.128306 0.125350 0.000000
O O23 0.360211 0.862122 0.500000
O O24 0.367471 0.000000 0.322078
#
# Coordination Sequence:
#
# PCOD9384399 Si02
#       8
#     8   8   8   8   8   8   8   8
#     4   7   9  14  27  48  72 100 139 188 236 276
#     4  10  20  32  45  63  90 123 157 194 237 281
#     4  10  20  34  54  78 102 125 147 175 214 262
#     4   9  17  31  52  77 103 128 152 178 212 257
#     4  10  21  36  54  77 102 128 156 185 221 264
#     4  12  23  35  54  76  96 119 150 188 229 272
#     4  11  24  40  56  73  94 122 156 192 231 272
#     4   8  13  22  36  54  78 109 148 193 236 277
#
# _framework density 15.255971000000001
#
# number of rings (size 3 to 8) (size 9 to 14) (size 15 to 20)
#    0.000    2.375    1.250    3.750    0.000    4.750 
#    0.000    2.500    0.000    0.375    0.000    5.250 
#    0.000    0.000    0.000    0.000    0.000    0.625 
#
# Total GULP energy -356716.327179 kJ/mol
# GULP energy per Si atom -5573.692612 kJ/mol
# Density = 1.522125 g / cm^3
# Si number density = 15.255971 Si / 1000 Ang^3
#
#
#
# Elastic Constant Matrix: (Units=GPa)
#
#
# Indices 1 2 3 4 5 6 
#
# 1 126.8333 48.5481 48.9341 0.0000 0.0000 0.0000
# 2 48.5481 58.8247 43.2861 0.0000 0.0000 0.0000
# 3 48.9341 43.2861 53.8263 0.0000 0.0000 0.0000
# 4 0.0000 0.0000 0.0000 19.1209 0.0000 0.0000
# 5 0.0000 0.0000 0.0000 0.0000 -46.4815 0.0000
# 6 0.0000 0.0000 0.0000 0.0000 0.0000 1.0620
#
#
#
# Elastic Compliance Matrix: (Units=1/GPa)
#
#
# Indices 1 2 3 4 5 6 
#
# 1 0.012686 -0.004858 -0.007626 0.000000 0.000000 0.000000
# 2 -0.004858 0.043501 -0.030566 0.000000 0.000000 0.000000
# 3 -0.007626 -0.030566 0.050092 0.000000 0.000000 0.000000
# 4 0.000000 0.000000 0.000000 0.052299 0.000000 0.000000
# 5 0.000000 0.000000 0.000000 0.000000 -0.021514 0.000000
# 6 0.000000 0.000000 0.000000 0.000000 0.000000 0.941657
#
#
# Mechanical properties :
#
#
# Convention : Reuss Voigt Hill
#
# Bulk Modulus (GPa) = 49.55842 57.89121 53.72482
# Shear Modulus (GPa) = 4.26785 1.32134 2.79460
#
# Velocity S-wave (km/s) = 1.67439 0.93166 1.35491
# Velocity P-wave (km/s) = 6.02439 6.25990 6.14327
#
# Compressibility (1/GPa) = 0.02017820
#
# Stress axis : x y z
#
# Youngs Moduli (GPa) = 78.82515 22.98790 19.96315
#
# Poissons Ratio (x) = 0.11168 0.15225
# Poissons Ratio (y) = 0.38294 0.61020
# Poissons Ratio (z) = 0.60116 0.70265
#
# Static dielectric constant tensor:
#      x y z
#    x 1.520690 0.000000 0.000000 
#    y 0.000000 1.502050 0.000000 
#    z 0.000000 0.000000 1.507060 
# 
# From -- ./inp_files/14357.got.cif
#   From: 2010.05.17/outbox.cif.g08.bks.cpg/sg47_8_cif.got.tgz:14357.got - 2010.06.03 20:15:42.
