data_PCOD9384047
_publ_section_title
;
Structure prediction by ZEFSAII (Michael W. Deem and Ramdas Pophale) SiO2 
 PCOD9384047
Probable space group: P M M M
;
_chemical_formula_sum "Si O2"
_cell_formula_units_Z 48
_cell_length_a 7.709541
_cell_length_b 16.036803
_cell_length_c 19.560280
_cell_angle_alpha 90.000000
_cell_angle_beta 90.000000
_cell_angle_gamma 90.000000
_cell_volume 2418.362411
_symmetry_space_group_name_H-M "P M M M"
_symmetry_group_IT_number 47
_symmetry_cell_setting 'orthorhombic'
loop_
_space_group_symop_operation_xyz
x,y,z
-x,-y,z
x,-y,-z
-x,y,-z
-x,-y,-z
x,y,-z
-x,y,z
x,-y,z
loop_
_atom_site_type_symbol
_atom_site_label
_atom_site_fract_x
_atom_site_fract_y
_atom_site_fract_z
Si Si1 0.708805 0.408765 0.338282
Si Si2 0.000000 0.900364 0.922258
Si Si3 0.290055 0.636734 0.813376
Si Si4 0.794455 0.756196 0.576638
Si Si5 0.287492 0.500000 0.921341
Si Si6 0.707503 0.906718 0.322537
Si Si7 0.709108 0.167464 0.175573
O O1 0.500000 0.411321 0.334949
O O2 0.769092 0.500000 0.363006
O O3 0.772842 0.394418 0.260620
O O4 0.750688 0.329592 0.384696
O O5 0.172144 0.870469 0.883127
O O6 0.000000 0.000000 0.922399
O O7 0.000000 0.869464 0.000000
O O8 0.500000 0.629026 0.811868
O O9 0.231504 0.580005 0.876600
O O10 0.252572 0.734081 0.820636
O O11 0.718953 0.758578 0.500000
O O12 0.745683 0.836413 0.621602
O O13 0.000000 0.758248 0.571070
O O14 0.500000 0.500000 0.923079
O O15 0.229122 0.500000 0.000000
O O16 0.500000 0.912232 0.319371
O O17 0.761502 0.874495 0.247654
O O18 0.775831 0.000000 0.336937
O O19 0.500000 0.156622 0.165985
#
# Coordination Sequence:
#
# PCOD9384047 Si02
#       7
#     8   4   8   8   4   8   8
#     4  10  19  35  61  87 114 151 199 252 301 354
#     4  11  26  44  62  89 124 164 207 255 316 374
#     4   9  16  30  55  85 117 154 193 242 299 356
#     4  11  25  41  57  83 121 162 202 249 306 369
#     4   9  16  26  46  83 124 155 189 234 291 362
#     4  10  21  38  63  93 120 152 198 254 313 370
#     4  10  21  39  65  94 123 158 208 260 307 368
#
# _framework density 19.848141999999999
#
# number of rings (size 3 to 8) (size 9 to 14) (size 15 to 20)
#    0.000    2.000    2.500    1.000    1.167    4.667 
#    0.000    5.833    0.000    0.500    0.000    1.167 
#    0.000    0.000    0.000    0.000    0.000    0.000 
#
# Total GULP energy -267960.762886 kJ/mol
# GULP energy per Si atom -5582.515893 kJ/mol
# Density = 1.980297 g / cm^3
# Si number density = 19.848142 Si / 1000 Ang^3
#
#
#
# Elastic Constant Matrix: (Units=GPa)
#
#
# Indices 1 2 3 4 5 6 
#
# 1 44.4863 27.5639 29.7274 0.0000 0.0000 0.0000
# 2 27.5639 191.6817 109.2867 0.0000 0.0000 0.0000
# 3 29.7274 109.2867 192.3134 0.0000 0.0000 0.0000
# 4 0.0000 0.0000 0.0000 74.7877 0.0000 0.0000
# 5 0.0000 0.0000 0.0000 0.0000 19.1501 0.0000
# 6 0.0000 0.0000 0.0000 0.0000 0.0000 -28.8450
#
#
#
# Elastic Compliance Matrix: (Units=1/GPa)
#
#
# Indices 1 2 3 4 5 6 
#
# 1 0.025633 -0.002111 -0.002763 0.000000 0.000000 0.000000
# 2 -0.002111 0.007891 -0.004158 0.000000 0.000000 0.000000
# 3 -0.002763 -0.004158 0.007990 0.000000 0.000000 0.000000
# 4 0.000000 0.000000 0.000000 0.013371 0.000000 0.000000
# 5 0.000000 0.000000 0.000000 0.000000 0.052219 0.000000
# 6 0.000000 0.000000 0.000000 0.000000 0.000000 -0.034668
#
#
# Mechanical properties :
#
#
# Convention : Reuss Voigt Hill
#
# Bulk Modulus (GPa) = 42.64283 84.62638 63.63460
# Shear Modulus (GPa) = 50.85622 30.47878 40.66750
#
# Velocity S-wave (km/s) = 5.06737 3.92292 4.53142
# Velocity P-wave (km/s) = 7.46786 7.95290 7.71419
#
# Compressibility (1/GPa) = 0.02345060
#
# Stress axis : x y z
#
# Youngs Moduli (GPa) = 39.01238 126.72257 125.15888
#
# Poissons Ratio (x) = 0.26749 0.34578
# Poissons Ratio (y) = 0.08235 0.52042
# Poissons Ratio (z) = 0.10778 0.52693
#
# Static dielectric constant tensor:
#      x y z
#    x 1.716470 0.000000 0.000000 
#    y 0.000000 8.493280 0.000000 
#    z 0.000000 0.000000 1.692950 
# 
# From -- ./inp_files/26534.got.cif
#   From: 2010.05.17/outbox.cif.g08.bks.cpg/sg47_14_cif.got.tgz:26534.got - 2010.06.03 20:15:42.
