data_PCOD9384029
_publ_section_title
;
Structure prediction by ZEFSAII (Michael W. Deem and Ramdas Pophale) SiO2 
 PCOD9384029
Probable space group: P M M M
;
_chemical_formula_sum "Si O2"
_cell_formula_units_Z 48
_cell_length_a 8.219007
_cell_length_b 10.414904
_cell_length_c 30.862950
_cell_angle_alpha 90.000000
_cell_angle_beta 90.000000
_cell_angle_gamma 90.000000
_cell_volume 2641.873732
_symmetry_space_group_name_H-M "P M M M"
_symmetry_group_IT_number 47
_symmetry_cell_setting 'orthorhombic'
loop_
_space_group_symop_operation_xyz
x,y,z
-x,-y,z
x,-y,-z
-x,y,-z
-x,-y,-z
x,y,-z
-x,y,z
x,-y,z
loop_
_atom_site_type_symbol
_atom_site_label
_atom_site_fract_x
_atom_site_fract_y
_atom_site_fract_z
Si Si1 0.308070 0.655589 0.046560
Si Si2 0.696209 0.850664 0.308125
Si Si3 0.698840 0.000000 0.450334
Si Si4 0.193978 0.500000 0.450451
Si Si5 0.193585 0.146684 0.788392
Si Si6 0.696650 0.748628 0.601680
Si Si7 0.696450 0.352086 0.141233
O O1 0.500000 0.690074 0.045977
O O2 0.301277 0.500000 0.046838
O O3 0.241060 0.692886 0.093637
O O4 0.237366 0.698580 0.000000
O O5 0.500000 0.844667 0.306021
O O6 0.762823 0.816923 0.260970
O O7 0.751832 0.764752 0.348554
O O8 0.739538 0.000000 0.317079
O O9 0.751543 0.126527 0.424985
O O10 0.500000 0.000000 0.450329
O O11 0.752699 0.000000 0.500000
O O12 0.258632 0.500000 0.500000
O O13 0.248882 0.623822 0.423744
O O14 0.000000 0.500000 0.452886
O O15 0.258324 0.251326 0.821951
O O16 0.000000 0.142709 0.792482
O O17 0.256613 0.000000 0.795575
O O18 0.500000 0.749960 0.602518
O O19 0.500000 0.357095 0.138460
O O20 0.751258 0.500000 0.149386
#
# Coordination Sequence:
#
# PCOD9384029 Si02
#       7
#     8   8   4   4   8   8   8
#     4   7  10  19  39  68  99 127 157 200 254 305
#     4   9  17  33  57  82 104 125 161 213 262 305
#     4   9  16  28  53  87 111 125 155 207 256 297
#     4  11  25  41  53  73 111 151 179 203 238 291
#     4  10  21  35  51  72 100 137 176 208 248 304
#     4  10  19  35  59  84 105 131 168 210 255 301
#     4   9  17  30  50  77 104 130 166 212 259 303
#
# _framework density 18.168922999999999
#
# number of rings (size 3 to 8) (size 9 to 14) (size 15 to 20)
#    0.000    2.833    0.833    2.750    0.000    3.333 
#    1.500    0.417    0.000    2.500    0.000    5.833 
#    0.000    0.000    0.000    0.000    0.000    0.000 
#
# Total GULP energy -267391.187152 kJ/mol
# GULP energy per Si atom -5570.649732 kJ/mol
# Density = 1.812757 g / cm^3
# Si number density = 18.168923 Si / 1000 Ang^3
#
#
#
# Elastic Constant Matrix: (Units=GPa)
#
#
# Indices 1 2 3 4 5 6 
#
# 1 11.9197 13.7625 21.5682 0.0000 0.0000 0.0000
# 2 13.7625 113.6173 99.6726 0.0000 0.0000 0.0000
# 3 21.5682 99.6726 201.0837 0.0000 0.0000 0.0000
# 4 0.0000 0.0000 0.0000 32.8495 0.0000 0.0000
# 5 0.0000 0.0000 0.0000 0.0000 -14.7322 0.0000
# 6 0.0000 0.0000 0.0000 0.0000 0.0000 1.5615
#
#
#
# Elastic Compliance Matrix: (Units=1/GPa)
#
#
# Indices 1 2 3 4 5 6 
#
# 1 0.105715 -0.005057 -0.008832 0.000000 0.000000 0.000000
# 2 -0.005057 0.015815 -0.007297 0.000000 0.000000 0.000000
# 3 -0.008832 -0.007297 0.009537 0.000000 0.000000 0.000000
# 4 0.000000 0.000000 0.000000 0.030442 0.000000 0.000000
# 5 0.000000 0.000000 0.000000 0.000000 -0.067879 0.000000
# 6 0.000000 0.000000 0.000000 0.000000 0.000000 0.640404
#
#
# Mechanical properties :
#
#
# Convention : Reuss Voigt Hill
#
# Bulk Modulus (GPa) = 11.27452 66.29193 38.78323
# Shear Modulus (GPa) = 6.20368 16.71026 11.45697
#
# Velocity S-wave (km/s) = 1.84983 3.03597 2.51386
# Velocity P-wave (km/s) = 3.28349 6.98965 5.46061
#
# Compressibility (1/GPa) = 0.08869555
#
# Stress axis : x y z
#
# Youngs Moduli (GPa) = 9.45936 63.22973 104.85118
#
# Poissons Ratio (x) = 0.31975 0.92609
# Poissons Ratio (y) = 0.04784 0.76509
# Poissons Ratio (z) = 0.08355 0.46138
#
# Static dielectric constant tensor:
#      x y z
#    x 1.637180 0.000000 0.000000 
#    y 0.000000 1.603790 0.000000 
#    z 0.000000 0.000000 1.654540 
# 
# From -- ./inp_files/34164.got.cif
#   From: 2010.05.17/outbox.cif.g08.bks.cpg/sg47_18_cif.got.tgz:34164.got - 2010.06.03 20:15:42.
