data_PCOD9384060
_publ_section_title
;
Structure prediction by ZEFSAII (Michael W. Deem and Ramdas Pophale) SiO2 
 PCOD9384060
Probable space group: P M M M
;
_chemical_formula_sum "Si O2"
_cell_formula_units_Z 40
_cell_length_a 21.058443
_cell_length_b 12.167075
_cell_length_c 8.566549
_cell_angle_alpha 90.000000
_cell_angle_beta 90.000000
_cell_angle_gamma 90.000000
_cell_volume 2194.918232
_symmetry_space_group_name_H-M "P M M M"
_symmetry_group_IT_number 47
_symmetry_cell_setting 'orthorhombic'
loop_
_space_group_symop_operation_xyz
x,y,z
-x,-y,z
x,-y,-z
-x,y,-z
-x,-y,-z
x,y,-z
-x,y,z
x,-y,z
loop_
_atom_site_type_symbol
_atom_site_label
_atom_site_fract_x
_atom_site_fract_y
_atom_site_fract_z
Si Si1 0.427878 0.762726 0.188822
Si Si2 0.928318 0.626345 0.809846
Si Si3 0.690212 0.372399 0.313001
Si Si4 0.625524 0.000000 0.188379
Si Si5 0.191450 0.232548 0.187426
Si Si6 0.231021 0.000000 0.685520
O O1 0.500000 0.737322 0.236012
O O2 0.375617 0.681949 0.258947
O O3 0.410134 0.888049 0.233807
O O4 0.424387 0.756737 0.000000
O O5 0.915760 0.500000 0.762361
O O6 0.872657 0.706777 0.757576
O O7 0.000000 0.655938 0.760407
O O8 0.928026 0.627246 0.000000
O O9 0.694577 0.366444 0.500000
O O10 0.693888 0.500000 0.265139
O O11 0.747894 0.303189 0.240919
O O12 0.696181 0.000000 0.256087
O O13 0.630237 0.000000 0.000000
O O14 0.198424 0.110160 0.251865
O O15 0.191231 0.228348 0.000000
O O16 0.230674 0.000000 0.500000
#
# Coordination Sequence:
#
# PCOD9384060 Si02
#       6
#     8   8   8   4   8   4
#     4  10  21  37  59  85 112 143 184 236 288 338
#     4   8  15  30  55  88 120 146 179 229 283 329
#     4  11  24  39  55  79 114 153 189 230 282 338
#     4  10  19  36  60  85 110 140 180 230 283 338
#     4  11  21  36  60  87 113 146 189 236 282 330
#     4  12  24  37  56  82 115 151 186 229 282 337
#
# _framework density 18.223913
#
# number of rings (size 3 to 8) (size 9 to 14) (size 15 to 20)
#    0.000    1.800    2.000    3.600    0.000    4.400 
#    0.000    2.500    0.000    7.200    0.000    7.000 
#    0.000    0.000    0.000    0.000    0.000    0.000 
#
# Total GULP energy -223429.212429 kJ/mol
# GULP energy per Si atom -5585.730311 kJ/mol
# Density = 1.818244 g / cm^3
# Si number density = 18.223913 Si / 1000 Ang^3
#
#
#
# Elastic Constant Matrix: (Units=GPa)
#
#
# Indices 1 2 3 4 5 6 
#
# 1 164.2608 95.4831 23.0184 0.0000 0.0000 0.0000
# 2 95.4831 160.2543 31.0052 0.0000 0.0000 0.0000
# 3 23.0184 31.0052 19.6880 0.0000 0.0000 0.0000
# 4 0.0000 0.0000 0.0000 23.2884 0.0000 0.0000
# 5 0.0000 0.0000 0.0000 0.0000 -20.2117 0.0000
# 6 0.0000 0.0000 0.0000 0.0000 0.0000 20.9637
#
#
#
# Elastic Compliance Matrix: (Units=1/GPa)
#
#
# Indices 1 2 3 4 5 6 
#
# 1 0.009446 -0.005022 -0.003136 0.000000 0.000000 0.000000
# 2 -0.005022 0.011644 -0.012466 0.000000 0.000000 0.000000
# 3 -0.003136 -0.012466 0.074091 0.000000 0.000000 0.000000
# 4 0.000000 0.000000 0.000000 0.042940 0.000000 0.000000
# 5 0.000000 0.000000 0.000000 0.000000 -0.049476 0.000000
# 6 0.000000 0.000000 0.000000 0.000000 0.000000 0.047702
#
#
# Mechanical properties :
#
#
# Convention : Reuss Voigt Hill
#
# Bulk Modulus (GPa) = 18.54136 71.46848 45.00492
# Shear Modulus (GPa) = 25.56603 17.78783 21.67693
#
# Velocity S-wave (km/s) = 3.74957 3.12760 3.45262
# Velocity P-wave (km/s) = 5.37978 7.23495 6.37521
#
# Compressibility (1/GPa) = 0.05393348
#
# Stress axis : x y z
#
# Youngs Moduli (GPa) = 105.86097 85.88166 13.49693
#
# Poissons Ratio (x) = 0.43126 0.04233
# Poissons Ratio (y) = 0.53159 0.16825
# Poissons Ratio (z) = 0.33200 1.07061
#
# Static dielectric constant tensor:
#      x y z
#    x 1.607790 0.000000 0.000000 
#    y 0.000000 1.610000 0.000000 
#    z 0.000000 0.000000 1.619360 
# 
# From -- ./inp_files/4078.got.cif
#   From: 2010.05.17/outbox.cif.g08.bks.cpg/sg47_3_cif.got.tgz:4078.got - 2010.06.03 20:15:42.
