data_PCOD9384745
_publ_section_title
;
Structure prediction by ZEFSAII (Michael W. Deem and Ramdas Pophale) SiO2 
 PCOD9384745
Probable space group: P M M M
;
_chemical_formula_sum "Si O2"
_cell_formula_units_Z 44
_cell_length_a 34.056892
_cell_length_b 7.471617
_cell_length_c 7.754234
_cell_angle_alpha 90.000000
_cell_angle_beta 90.000000
_cell_angle_gamma 90.000000
_cell_volume 1973.142796
_symmetry_space_group_name_H-M "P M M M"
_symmetry_group_IT_number 47
_symmetry_cell_setting 'orthorhombic'
loop_
_space_group_symop_operation_xyz
x,y,z
-x,-y,z
x,-y,-z
-x,y,-z
-x,-y,-z
x,y,-z
-x,y,z
x,-y,z
loop_
_atom_site_type_symbol
_atom_site_label
_atom_site_fract_x
_atom_site_fract_y
_atom_site_fract_z
Si Si1 0.126421 0.703981 0.206292
Si Si2 0.731443 0.714941 0.500000
Si Si3 0.788228 0.719455 0.801145
Si Si4 0.413857 0.788812 0.804228
Si Si5 0.500000 0.286806 0.802210
Si Si6 0.360553 0.213663 0.500000
Si Si7 0.042211 0.709414 0.292796
O O1 0.124376 0.500000 0.276978
O O2 0.168430 0.780237 0.261493
O O3 0.084198 0.789493 0.242877
O O4 0.129740 0.693669 0.000000
O O5 0.734519 0.500000 0.500000
O O6 0.754585 0.777624 0.670199
O O7 0.685766 0.758740 0.500000
O O8 0.789658 0.500000 0.801527
O O9 0.781760 0.773995 0.000000
O O10 0.457969 0.768771 0.729549
O O11 0.382107 0.714505 0.671087
O O12 0.406637 0.000000 0.820504
O O13 0.412861 0.713418 0.000000
O O14 0.500000 0.500000 0.805648
O O15 0.500000 0.216697 0.000000
O O16 0.367358 0.000000 0.500000
O O17 0.041360 0.711481 0.500000
O O18 0.042758 0.500000 0.235908
O O19 0.000000 0.784084 0.232694
#
# Coordination Sequence:
#
# PCOD9384745 Si02
#       7
#     8   4   8   8   4   4   8
#     4   8  13  20  30  44  63  90 125 167 213 257
#     4  10  20  32  49  69  87 116 151 186 236 287
#     4   8  15  27  41  60  83 105 138 184 229 276
#     4   9  18  34  54  73  98 134 168 196 230 274
#     4   9  17  30  51  80 109 135 166 203 239 270
#     4  10  22  37  51  72  99 125 161 201 234 279
#     4   8  13  18  23  35  57  87 125 166 204 245
#
# _framework density 22.299451000000001
#
# number of rings (size 3 to 8) (size 9 to 14) (size 15 to 20)
#    0.000    3.364    0.000    1.909    1.273    3.273 
#    0.000    3.636    0.000    0.000    0.000    0.000 
#    0.000    0.000    0.000    0.000    0.000    1.818 
#
# Total GULP energy -245233.247423 kJ/mol
# GULP energy per Si atom -5573.482896 kJ/mol
# Density = 2.224870 g / cm^3
# Si number density = 22.299451 Si / 1000 Ang^3
#
#
#
# Elastic Constant Matrix: (Units=GPa)
#
#
# Indices 1 2 3 4 5 6 
#
# 1 248.3625 -1.2351 97.4556 0.0000 0.0000 0.0000
# 2 -1.2351 63.5935 6.9079 0.0000 0.0000 0.0000
# 3 97.4556 6.9079 98.6666 0.0000 0.0000 0.0000
# 4 0.0000 0.0000 0.0000 -8.9644 0.0000 0.0000
# 5 0.0000 0.0000 0.0000 0.0000 48.7412 0.0000
# 6 0.0000 0.0000 0.0000 0.0000 0.0000 18.8882
#
#
#
# Elastic Compliance Matrix: (Units=1/GPa)
#
#
# Indices 1 2 3 4 5 6 
#
# 1 0.006619 0.000845 -0.006597 0.000000 0.000000 0.000000
# 2 0.000845 0.015953 -0.001952 0.000000 0.000000 0.000000
# 3 -0.006597 -0.001952 0.016788 0.000000 0.000000 0.000000
# 4 0.000000 0.000000 0.000000 -0.111552 0.000000 0.000000
# 5 0.000000 0.000000 0.000000 0.000000 0.020517 0.000000
# 6 0.000000 0.000000 0.000000 0.000000 0.000000 0.052943
#
#
# Mechanical properties :
#
#
# Convention : Reuss Voigt Hill
#
# Bulk Modulus (GPa) = 41.74832 68.54216 55.14524
# Shear Modulus (GPa) = 202.76001 32.23261 117.49631
#
# Velocity S-wave (km/s) = 9.54586 3.80602 7.26668
# Velocity P-wave (km/s) = 11.84315 7.07943 9.75650
#
# Compressibility (1/GPa) = 0.02395306
#
# Stress axis : x y z
#
# Youngs Moduli (GPa) = 151.07397 62.68297 59.56624
#
# Poissons Ratio (x) = -0.05298 0.39297
# Poissons Ratio (y) = -0.12769 0.11626
# Poissons Ratio (z) = 0.99667 0.12234
#
# Static dielectric constant tensor:
#      x y z
#    x 1.837090 0.000000 0.000000 
#    y 0.000000 1.886280 0.000000 
#    z 0.000000 0.000000 1.824300 
# 
# From -- ./inp_files/13753.got.cif
#   From: 2010.05.17/outbox.cif.g08.bks.cpg/sg47_7_cif.got.tgz:13753.got - 2010.06.03 20:15:42.
