data_PCOD9384006
_publ_section_title
;
Structure prediction by ZEFSAII (Michael W. Deem and Ramdas Pophale) SiO2 
 PCOD9384006
Probable space group: P M M M
;
_chemical_formula_sum "Si O2"
_cell_formula_units_Z 40
_cell_length_a 14.268106
_cell_length_b 7.291277
_cell_length_c 20.819321
_cell_angle_alpha 90.000000
_cell_angle_beta 90.000000
_cell_angle_gamma 90.000000
_cell_volume 2165.890449
_symmetry_space_group_name_H-M "P M M M"
_symmetry_group_IT_number 47
_symmetry_cell_setting 'orthorhombic'
loop_
_space_group_symop_operation_xyz
x,y,z
-x,-y,z
x,-y,-z
-x,y,-z
-x,-y,-z
x,y,-z
-x,y,z
x,-y,z
loop_
_atom_site_type_symbol
_atom_site_label
_atom_site_fract_x
_atom_site_fract_y
_atom_site_fract_z
Si Si1 0.606386 0.222764 0.573191
Si Si2 0.606743 0.222346 0.188565
Si Si3 0.891407 0.500000 0.120131
Si Si4 0.108837 0.500000 0.275057
Si Si5 0.263552 0.220931 0.690527
Si Si6 0.258672 0.219038 0.073819
O O1 0.626091 0.280308 0.500000
O O2 0.500000 0.279938 0.589954
O O3 0.682186 0.276842 0.625767
O O4 0.605530 0.000000 0.573482
O O5 0.500000 0.287278 0.192360
O O6 0.669582 0.273662 0.249660
O O7 0.660424 0.275862 0.123636
O O8 0.603313 0.000000 0.188995
O O9 0.886054 0.500000 0.197473
O O10 0.835097 0.674548 0.093397
O O11 0.000000 0.500000 0.101175
O O12 0.166066 0.675345 0.300558
O O13 0.000000 0.500000 0.293487
O O14 0.252210 0.000000 0.691145
O O15 0.245659 0.000000 0.079908
O O16 0.282723 0.259778 0.000000
#
# Coordination Sequence:
#
# PCOD9384006 Si02
#       6
#     8   8   4   4   8   8
#     4   8  14  27  52  87 121 150 180 215 261 319
#     4   9  17  31  53  80 108 141 178 211 252 311
#     4  11  23  40  59  77 103 137 177 232 286 324
#     4  11  24  39  57  81 105 135 184 237 279 321
#     4  10  19  35  58  81 110 145 179 221 270 318
#     4  10  21  37  56  80 110 141 175 217 267 325
#
# _framework density 18.468154999999999
#
# number of rings (size 3 to 8) (size 9 to 14) (size 15 to 20)
#    0.000    2.400    2.000    1.500    0.000    4.400 
#    0.000    9.000    0.000    3.600    0.000    2.800 
#    0.000    0.000    0.000    0.000    0.000    0.000 
#
# Total GULP energy -223333.575318 kJ/mol
# GULP energy per Si atom -5583.339383 kJ/mol
# Density = 1.842612 g / cm^3
# Si number density = 18.468155 Si / 1000 Ang^3
#
#
#
# Elastic Constant Matrix: (Units=GPa)
#
#
# Indices 1 2 3 4 5 6 
#
# 1 179.2479 46.1084 89.0917 0.0000 0.0000 0.0000
# 2 46.1084 87.8108 30.9364 0.0000 0.0000 0.0000
# 3 89.0917 30.9364 128.0208 0.0000 0.0000 0.0000
# 4 0.0000 0.0000 0.0000 -16.7994 0.0000 0.0000
# 5 0.0000 0.0000 0.0000 0.0000 24.3040 0.0000
# 6 0.0000 0.0000 0.0000 0.0000 0.0000 30.9004
#
#
#
# Elastic Compliance Matrix: (Units=1/GPa)
#
#
# Indices 1 2 3 4 5 6 
#
# 1 0.009113 -0.002788 -0.005668 0.000000 0.000000 0.000000
# 2 -0.002788 0.013301 -0.001274 0.000000 0.000000 0.000000
# 3 -0.005668 -0.001274 0.012064 0.000000 0.000000 0.000000
# 4 0.000000 0.000000 0.000000 -0.059526 0.000000 0.000000
# 5 0.000000 0.000000 0.000000 0.000000 0.041145 0.000000
# 6 0.000000 0.000000 0.000000 0.000000 0.000000 0.032362
#
#
# Mechanical properties :
#
#
# Convention : Reuss Voigt Hill
#
# Bulk Modulus (GPa) = 66.59016 80.81694 73.70355
# Shear Modulus (GPa) = 68.56213 22.94388 45.75300
#
# Velocity S-wave (km/s) = 6.09960 3.52852 4.98275
# Velocity P-wave (km/s) = 9.25969 7.77533 8.54978
#
# Compressibility (1/GPa) = 0.01501723
#
# Stress axis : x y z
#
# Youngs Moduli (GPa) = 109.72733 75.18231 82.89283
#
# Poissons Ratio (x) = 0.20964 0.46987
# Poissons Ratio (y) = 0.30596 0.10558
# Poissons Ratio (z) = 0.62198 0.09576
#
# Static dielectric constant tensor:
#      x y z
#    x 1.588660 0.000000 0.000000 
#    y 0.000000 1.686620 0.000000 
#    z 0.000000 0.000000 1.627120 
# 
# From -- ./inp_files/18974.got.cif
#   From: 2010.05.17/outbox.cif.g08.bks.cpg/sg47_10_cif.got.tgz:18974.got - 2010.06.03 20:15:42.
