data_PCOD9384366
_publ_section_title
;
Structure prediction by ZEFSAII (Michael W. Deem and Ramdas Pophale) SiO2 
 PCOD9384366
Probable space group: P M M M
;
_chemical_formula_sum "Si O2"
_cell_formula_units_Z 40
_cell_length_a 9.031219
_cell_length_b 14.531894
_cell_length_c 21.241113
_cell_angle_alpha 90.000000
_cell_angle_beta 90.000000
_cell_angle_gamma 90.000000
_cell_volume 2787.698904
_symmetry_space_group_name_H-M "P M M M"
_symmetry_group_IT_number 47
_symmetry_cell_setting 'orthorhombic'
loop_
_space_group_symop_operation_xyz
x,y,z
-x,-y,z
x,-y,-z
-x,y,-z
-x,-y,-z
x,y,-z
-x,y,z
x,-y,z
loop_
_atom_site_type_symbol
_atom_site_label
_atom_site_fract_x
_atom_site_fract_y
_atom_site_fract_z
Si Si1 0.676774 0.109093 0.259261
Si Si2 0.829744 0.888198 0.128315
Si Si3 0.671245 0.887773 0.000000
Si Si4 0.177901 0.215953 0.374636
Si Si5 0.322725 0.606065 0.425721
Si Si6 0.820156 0.105288 0.500000
O O1 0.500000 0.120061 0.260455
O O2 0.740545 0.136841 0.191081
O O3 0.752662 0.167402 0.314034
O O4 0.709809 0.000000 0.268384
O O5 0.000000 0.857879 0.131817
O O6 0.830111 0.000000 0.126437
O O7 0.752898 0.857329 0.063666
O O8 0.500000 0.859971 0.000000
O O9 0.674019 0.000000 0.000000
O O10 0.236984 0.318817 0.385395
O O11 0.224797 0.158581 0.436952
O O12 0.000000 0.214681 0.370745
O O13 0.287570 0.619427 0.500000
O O14 0.500000 0.617993 0.418897
O O15 0.287310 0.500000 0.410028
O O16 0.000000 0.103716 0.500000
O O17 0.767798 0.000000 0.500000
#
# Coordination Sequence:
#
# PCOD9384366 Si02
#       6
#     8   8   4   8   8   4
#     4  10  20  32  44  60  85 118 153 186 221 264
#     4   9  16  26  40  58  80 109 146 185 221 257
#     4   9  15  23  37  57  81 109 142 181 220 257
#     4  11  20  31  47  66  87 113 144 183 225 265
#     4   9  18  33  51  68  87 110 136 173 222 273
#     4   9  18  30  42  59  84 112 143 179 218 257
#
# _framework density 14.348751999999999
#
# number of rings (size 3 to 8) (size 9 to 14) (size 15 to 20)
#    0.000    2.400    1.000    3.300    0.000    6.000 
#    0.000    1.000    0.000    2.400    0.000    0.000 
#    0.000    0.000    0.000    0.900    0.000   16.700 
#
# Total GULP energy -223019.058070 kJ/mol
# GULP energy per Si atom -5575.476452 kJ/mol
# Density = 1.431609 g / cm^3
# Si number density = 14.348752 Si / 1000 Ang^3
#
#
#
# Elastic Constant Matrix: (Units=GPa)
#
#
# Indices 1 2 3 4 5 6 
#
# 1 80.5389 44.5723 65.5092 0.0000 0.0000 0.0000
# 2 44.5723 69.1181 55.8600 0.0000 0.0000 0.0000
# 3 65.5092 55.8600 140.8209 0.0000 0.0000 0.0000
# 4 0.0000 0.0000 0.0000 2.6900 0.0000 0.0000
# 5 0.0000 0.0000 0.0000 0.0000 26.8999 0.0000
# 6 0.0000 0.0000 0.0000 0.0000 0.0000 18.3484
#
#
#
# Elastic Compliance Matrix: (Units=1/GPa)
#
#
# Indices 1 2 3 4 5 6 
#
# 1 0.023415 -0.009267 -0.007216 0.000000 0.000000 0.000000
# 2 -0.009267 0.024963 -0.005591 0.000000 0.000000 0.000000
# 3 -0.007216 -0.005591 0.012676 0.000000 0.000000 0.000000
# 4 0.000000 0.000000 0.000000 0.371750 0.000000 0.000000
# 5 0.000000 0.000000 0.000000 0.000000 0.037175 0.000000
# 6 0.000000 0.000000 0.000000 0.000000 0.000000 0.054501
#
#
# Mechanical properties :
#
#
# Convention : Reuss Voigt Hill
#
# Bulk Modulus (GPa) = 59.15679 69.15120 64.15399
# Shear Modulus (GPa) = 8.70681 17.89011 13.29846
#
# Velocity S-wave (km/s) = 2.46600 3.53484 3.04765
# Velocity P-wave (km/s) = 7.03033 8.05965 7.56252
#
# Compressibility (1/GPa) = 0.01690423
#
# Stress axis : x y z
#
# Youngs Moduli (GPa) = 42.70793 40.05966 78.88945
#
# Poissons Ratio (x) = 0.37125 0.56929
# Poissons Ratio (y) = 0.39580 0.44106
# Poissons Ratio (z) = 0.30819 0.22397
#
# Static dielectric constant tensor:
#      x y z
#    x 1.477840 0.000000 0.000000 
#    y 0.000000 1.449800 0.000000 
#    z 0.000000 0.000000 1.460710 
# 
# From -- ./inp_files/24832.got.cif
#   From: 2010.05.17/outbox.cif.g08.bks.cpg/sg47_13_cif.got.tgz:24832.got - 2010.06.03 20:15:42.
