data_PCOD9384466
_publ_section_title
;
Structure prediction by ZEFSAII (Michael W. Deem and Ramdas Pophale) SiO2 
 PCOD9384466
Probable space group: P M M M
;
_chemical_formula_sum "Si O2"
_cell_formula_units_Z 52
_cell_length_a 9.011621
_cell_length_b 14.112390
_cell_length_c 24.431000
_cell_angle_alpha 90.000000
_cell_angle_beta 90.000000
_cell_angle_gamma 90.000000
_cell_volume 3107.024887
_symmetry_space_group_name_H-M "P M M M"
_symmetry_group_IT_number 47
_symmetry_cell_setting 'orthorhombic'
loop_
_space_group_symop_operation_xyz
x,y,z
-x,-y,z
x,-y,-z
-x,y,-z
-x,-y,-z
x,y,-z
-x,y,z
x,-y,z
loop_
_atom_site_type_symbol
_atom_site_label
_atom_site_fract_x
_atom_site_fract_y
_atom_site_fract_z
Si Si1 0.172911 0.385167 0.113150
Si Si2 0.680865 0.892762 0.177735
Si Si3 0.171620 0.385611 0.671645
Si Si4 0.673695 0.384998 0.560474
Si Si5 0.677500 0.698571 0.778157
Si Si6 0.672316 0.615524 0.000000
Si Si7 0.673309 0.115321 0.058376
O O1 0.179841 0.500000 0.113899
O O2 0.253299 0.348532 0.167593
O O3 0.250714 0.353152 0.056541
O O4 0.000000 0.357888 0.113184
O O5 0.500000 0.896191 0.173905
O O6 0.717730 0.810103 0.219545
O O7 0.737319 0.860290 0.117526
O O8 0.730530 0.000000 0.189479
O O9 0.180618 0.500000 0.672370
O O10 0.236459 0.352381 0.613351
O O11 0.261905 0.347540 0.723162
O O12 0.000000 0.358864 0.676949
O O13 0.725471 0.353452 0.500000
O O14 0.500000 0.360396 0.566176
O O15 0.681430 0.500000 0.560235
O O16 0.500000 0.689131 0.780950
O O17 0.679585 0.500000 0.000000
O O18 0.500000 0.642412 0.000000
O O19 0.500000 0.144397 0.058171
O O20 0.673165 0.000000 0.058560
O O21 0.739777 0.145622 0.000000
#
# Coordination Sequence:
#
# PCOD9384466 Si02
#       7
#     8   8   8   8   8   4   8
#     4  10  20  34  50  66  89 122 154 186 231 285
#     4   8  15  28  43  61  87 116 147 187 237 289
#     4  10  20  32  46  66  95 131 166 198 231 269
#     4   8  14  26  45  69  97 128 159 190 225 265
#     4  11  21  31  46  69  93 121 157 198 239 276
#     4   9  17  31  51  71  88 109 146 195 237 274
#     4   7   9  16  33  54  75 100 127 159 209 273
#
# _framework density 16.736267000000002
#
# number of rings (size 3 to 8) (size 9 to 14) (size 15 to 20)
#    0.000    3.000    0.000    3.923    0.000    4.923 
#    1.385    1.538    0.000    1.846    0.000    0.000 
#    0.000    1.846    0.000    7.077    0.000    2.308 
#
# Total GULP energy -289737.759755 kJ/mol
# GULP energy per Si atom -5571.879995 kJ/mol
# Density = 1.669817 g / cm^3
# Si number density = 16.736267 Si / 1000 Ang^3
#
#
#
# Elastic Constant Matrix: (Units=GPa)
#
#
# Indices 1 2 3 4 5 6 
#
# 1 82.6829 25.4374 71.0542 0.0000 0.0000 0.0000
# 2 25.4374 33.1921 28.8475 0.0000 0.0000 0.0000
# 3 71.0542 28.8475 138.3203 0.0000 0.0000 0.0000
# 4 0.0000 0.0000 0.0000 11.4862 0.0000 0.0000
# 5 0.0000 0.0000 0.0000 0.0000 16.0793 0.0000
# 6 0.0000 0.0000 0.0000 0.0000 0.0000 4.3001
#
#
#
# Elastic Compliance Matrix: (Units=1/GPa)
#
#
# Indices 1 2 3 4 5 6 
#
# 1 0.023790 -0.009296 -0.010282 0.000000 0.000000 0.000000
# 2 -0.009296 0.040430 -0.003657 0.000000 0.000000 0.000000
# 3 -0.010282 -0.003657 0.013274 0.000000 0.000000 0.000000
# 4 0.000000 0.000000 0.000000 0.087061 0.000000 0.000000
# 5 0.000000 0.000000 0.000000 0.000000 0.062192 0.000000
# 6 0.000000 0.000000 0.000000 0.000000 0.000000 0.232555
#
#
# Mechanical properties :
#
#
# Convention : Reuss Voigt Hill
#
# Bulk Modulus (GPa) = 32.23234 56.09708 44.16471
# Shear Modulus (GPa) = 9.68780 14.96352 12.32566
#
# Velocity S-wave (km/s) = 2.40854 2.99336 2.71673
# Velocity P-wave (km/s) = 5.19957 6.74818 6.02385
#
# Compressibility (1/GPa) = 0.03102474
#
# Stress axis : x y z
#
# Youngs Moduli (GPa) = 42.03370 24.73428 75.33442
#
# Poissons Ratio (x) = 0.22993 0.77461
# Poissons Ratio (y) = 0.39074 0.27547
# Poissons Ratio (z) = 0.43220 0.09044
#
# Static dielectric constant tensor:
#      x y z
#    x 1.569250 0.000000 0.000000 
#    y 0.000000 1.590520 0.000000 
#    z 0.000000 0.000000 1.568060 
# 
# From -- ./inp_files/29627.got.cif
#   From: 2010.05.17/outbox.cif.g08.bks.cpg/sg47_15_cif.got.tgz:29627.got - 2010.06.03 20:15:42.
