data_PCOD9384878
_publ_section_title
;
Structure prediction by ZEFSAII (Michael W. Deem and Ramdas Pophale) SiO2 
 PCOD9384878
Probable space group: P M M M
;
_chemical_formula_sum "Si O2"
_cell_formula_units_Z 44
_cell_length_a 9.353995
_cell_length_b 15.332690
_cell_length_c 17.341713
_cell_angle_alpha 90.000000
_cell_angle_beta 90.000000
_cell_angle_gamma 90.000000
_cell_volume 2487.181525
_symmetry_space_group_name_H-M "P M M M"
_symmetry_group_IT_number 47
_symmetry_cell_setting 'orthorhombic'
loop_
_space_group_symop_operation_xyz
x,y,z
-x,-y,z
x,-y,-z
-x,y,-z
-x,-y,-z
x,y,-z
-x,y,z
x,-y,z
loop_
_atom_site_type_symbol
_atom_site_label
_atom_site_fract_x
_atom_site_fract_y
_atom_site_fract_z
Si Si1 0.835118 0.096985 0.198182
Si Si2 0.171305 0.395857 0.500000
Si Si3 0.165469 0.902005 0.385287
Si Si4 0.330172 0.727709 0.383157
Si Si5 0.830420 0.396523 0.087883
Si Si6 0.668253 0.268460 0.198893
O O1 0.833126 0.096299 0.291764
O O2 0.735770 0.176093 0.174180
O O3 0.000000 0.111659 0.175059
O O4 0.791216 0.000000 0.172589
O O5 0.196551 0.500000 0.500000
O O6 0.244985 0.347820 0.572572
O O7 0.000000 0.381488 0.500000
O O8 0.265263 0.821577 0.408004
O O9 0.000000 0.887139 0.408318
O O10 0.207587 0.000000 0.410273
O O11 0.500000 0.723655 0.398837
O O12 0.308523 0.720287 0.290901
O O13 0.807148 0.500000 0.095921
O O14 0.744347 0.343309 0.150663
O O15 0.000000 0.380729 0.096839
O O16 0.790839 0.371975 0.000000
O O17 0.500000 0.268835 0.185454
#
# Coordination Sequence:
#
# PCOD9384878 Si02
#       6
#     8   4   8   8   8   8
#     4   8  14  26  46  72 102 138 177 212 247 291
#     4  11  25  43  60  75  94 129 177 224 268 309
#     4   8  14  27  49  76 105 136 170 209 251 296
#     4  10  21  36  54  78 108 139 171 210 257 310
#     4   9  19  36  56  77 102 134 172 214 260 307
#     4  10  20  32  51  81 111 139 170 206 254 310
#
# _framework density 17.690707
#
# number of rings (size 3 to 8) (size 9 to 14) (size 15 to 20)
#    0.000    2.818    0.000    3.000    0.000    5.091 
#    0.000    8.636    0.000    3.273    0.000    3.818 
#    0.000    0.000    0.000    0.000    0.000    0.000 
#
# Total GULP energy -245354.403311 kJ/mol
# GULP energy per Si atom -5576.236439 kJ/mol
# Density = 1.765044 g / cm^3
# Si number density = 17.690707 Si / 1000 Ang^3
#
#
#
# Elastic Constant Matrix: (Units=GPa)
#
#
# Indices 1 2 3 4 5 6 
#
# 1 106.7969 97.2493 57.8457 0.0000 0.0000 0.0000
# 2 97.2493 133.1336 55.3106 0.0000 0.0000 0.0000
# 3 57.8457 55.3106 65.2159 0.0000 0.0000 0.0000
# 4 0.0000 0.0000 0.0000-2019.6484 0.0000 0.0000
# 5 0.0000 0.0000 0.0000 0.0000 21.5868 0.0000
# 6 0.0000 0.0000 0.0000 0.0000 0.0000 -29.0602
#
#
#
# Elastic Compliance Matrix: (Units=1/GPa)
#
#
# Indices 1 2 3 4 5 6 
#
# 1 0.035019 -0.019572 -0.014462 0.000000 0.000000 0.000000
# 2 -0.019572 0.022536 -0.001753 0.000000 0.000000 0.000000
# 3 -0.014462 -0.001753 0.029649 0.000000 0.000000 0.000000
# 4 0.000000 0.000000 0.000000 -0.000495 0.000000 0.000000
# 5 0.000000 0.000000 0.000000 0.000000 0.046325 0.000000
# 6 0.000000 0.000000 0.000000 0.000000 0.000000 -0.034411
#
#
# Mechanical properties :
#
#
# Convention : Reuss Voigt Hill
#
# Bulk Modulus (GPa) = 63.98390 80.66196 72.32293
# Shear Modulus (GPa) = 28.50518 -399.10831 -185.30157
#
# Velocity S-wave (km/s) = 4.01846 -15.03639 -10.24561
# Velocity P-wave (km/s) = 7.60114 15.99259 9.94951
#
# Compressibility (1/GPa) = 0.01562893
#
# Stress axis : x y z
#
# Youngs Moduli (GPa) = 28.55584 44.37314 33.72833
#
# Poissons Ratio (x) = 0.86846 0.48779
# Poissons Ratio (y) = 0.55889 0.05914
# Poissons Ratio (z) = 0.41299 0.07780
#
# Static dielectric constant tensor:
#      x y z
#    x 1.581510 0.000000 0.000000 
#    y 0.000000 1.594180 0.000000 
#    z 0.000000 0.000000 1.616840 
# 
# From -- ./inp_files/8965.got.cif
#   From: 2010.05.17/outbox.cif.g08.bks.cpg/sg47_5_cif.got.tgz:8965.got - 2010.06.03 20:15:42.
