data_PCOD9384813
_publ_section_title
;
Structure prediction by ZEFSAII (Michael W. Deem and Ramdas Pophale) SiO2 
 PCOD9384813
Probable space group: P M M M
;
_chemical_formula_sum "Si O2"
_cell_formula_units_Z 44
_cell_length_a 9.804103
_cell_length_b 8.152237
_cell_length_c 29.304846
_cell_angle_alpha 90.000000
_cell_angle_beta 90.000000
_cell_angle_gamma 90.000000
_cell_volume 2342.200695
_symmetry_space_group_name_H-M "P M M M"
_symmetry_group_IT_number 47
_symmetry_cell_setting 'orthorhombic'
loop_
_space_group_symop_operation_xyz
x,y,z
-x,-y,z
x,-y,-z
-x,y,-z
-x,-y,-z
x,y,-z
-x,y,z
x,-y,z
loop_
_atom_site_type_symbol
_atom_site_label
_atom_site_fract_x
_atom_site_fract_y
_atom_site_fract_z
Si Si1 0.166137 0.809568 0.000000
Si Si2 0.656250 0.804634 0.716636
Si Si3 0.344184 0.696084 0.817574
Si Si4 0.844978 0.302771 0.634040
Si Si5 0.156836 0.801459 0.900868
Si Si6 0.655956 0.700215 0.551969
O O1 0.205979 0.738601 0.049243
O O2 0.000000 0.809889 0.000000
O O3 0.210648 0.000000 0.000000
O O4 0.500000 0.741821 0.710452
O O5 0.700193 0.760615 0.768027
O O6 0.757857 0.736513 0.678867
O O7 0.652961 0.000000 0.712262
O O8 0.500000 0.754558 0.824792
O O9 0.344908 0.500000 0.815548
O O10 0.249692 0.750410 0.858978
O O11 0.851732 0.500000 0.630105
O O12 0.761804 0.241203 0.589851
O O13 0.000000 0.240059 0.636321
O O14 0.000000 0.747709 0.894084
O O15 0.155396 0.000000 0.903415
O O16 0.687599 0.750710 0.500000
O O17 0.500000 0.749890 0.562697
O O18 0.657306 0.500000 0.552375
#
# Coordination Sequence:
#
# PCOD9384813 Si02
#       6
#     4   8   8   8   8   8
#     4   7  12  26  48  73 100 130 166 205 242 285
#     4  10  21  37  56  74  93 125 169 211 251 298
#     4  10  21  36  53  74 101 132 165 204 252 302
#     4  10  20  32  49  76 107 136 165 201 248 298
#     4   9  17  31  53  78 102 131 168 208 248 291
#     4   8  14  26  46  72 101 134 171 207 242 284
#
# _framework density 18.785753
#
# number of rings (size 3 to 8) (size 9 to 14) (size 15 to 20)
#    0.000    2.818    0.000    3.273    0.000    4.727 
#    0.000    2.727    0.000    4.909    0.000    3.818 
#    0.000    0.000    0.000    0.000    0.000    0.000 
#
# Total GULP energy -245317.668602 kJ/mol
# GULP energy per Si atom -5575.401559 kJ/mol
# Density = 1.874300 g / cm^3
# Si number density = 18.785753 Si / 1000 Ang^3
#
#
#
# Elastic Constant Matrix: (Units=GPa)
#
#
# Indices 1 2 3 4 5 6 
#
# 1 110.8459 11.6988 119.2510 0.0000 0.0000 0.0000
# 2 11.6988 12.3995 8.1644 0.0000 0.0000 0.0000
# 3 119.2510 8.1644 187.6992 0.0000 0.0000 0.0000
# 4 0.0000 0.0000 0.0000 24.6809 0.0000 0.0000
# 5 0.0000 0.0000 0.0000 0.0000 35.5989 0.0000
# 6 0.0000 0.0000 0.0000 0.0000 0.0000 18.3439
#
#
#
# Elastic Compliance Matrix: (Units=1/GPa)
#
#
# Indices 1 2 3 4 5 6 
#
# 1 0.031684 -0.017130 -0.019385 0.000000 0.000000 0.000000
# 2 -0.017130 0.092287 0.006869 0.000000 0.000000 0.000000
# 3 -0.019385 0.006869 0.017345 0.000000 0.000000 0.000000
# 4 0.000000 0.000000 0.000000 0.040517 0.000000 0.000000
# 5 0.000000 0.000000 0.000000 0.000000 0.028091 0.000000
# 6 0.000000 0.000000 0.000000 0.000000 0.000000 0.054514
#
#
# Mechanical properties :
#
#
# Convention : Reuss Voigt Hill
#
# Bulk Modulus (GPa) = 12.19148 65.46368 38.82758
# Shear Modulus (GPa) = 14.24214 27.18011 20.71112
#
# Velocity S-wave (km/s) = 2.75641 3.80787 3.32398
# Velocity P-wave (km/s) = 4.07851 7.36589 5.95359
#
# Compressibility (1/GPa) = 0.08202451
#
# Stress axis : x y z
#
# Youngs Moduli (GPa) = 31.56155 10.83573 57.65473
#
# Poissons Ratio (x) = 0.18561 1.11762
# Poissons Ratio (y) = 0.54065 -0.39603
# Poissons Ratio (z) = 0.61181 -0.07443
#
# Static dielectric constant tensor:
#      x y z
#    x 1.643840 0.000000 0.000000 
#    y 0.000000 1.674480 0.000000 
#    z 0.000000 0.000000 1.647090 
# 
# From -- ./inp_files/1960.got.cif
#   From: 2010.05.17/outbox.cif.g08.bks.cpg/sg47_1_cif.got.tgz:1960.got - 2010.06.03 20:15:42.
