data_PCOD9384805
_publ_section_title
;
Structure prediction by ZEFSAII (Michael W. Deem and Ramdas Pophale) SiO2 
 PCOD9384805
Probable space group: P M M M
;
_chemical_formula_sum "Si O2"
_cell_formula_units_Z 44
_cell_length_a 7.569085
_cell_length_b 28.861965
_cell_length_c 9.702695
_cell_angle_alpha 90.000000
_cell_angle_beta 90.000000
_cell_angle_gamma 90.000000
_cell_volume 2119.637810
_symmetry_space_group_name_H-M "P M M M"
_symmetry_group_IT_number 47
_symmetry_cell_setting 'orthorhombic'
loop_
_space_group_symop_operation_xyz
x,y,z
-x,-y,z
x,-y,-z
-x,y,-z
-x,-y,-z
x,y,-z
-x,y,z
x,-y,z
loop_
_atom_site_type_symbol
_atom_site_label
_atom_site_fract_x
_atom_site_fract_y
_atom_site_fract_z
Si Si1 0.709555 0.085786 0.343806
Si Si2 0.712818 0.552130 0.156336
Si Si3 0.212926 0.827473 0.843450
Si Si4 0.283291 0.000000 0.159198
Si Si5 0.210334 0.360952 0.345525
Si Si6 0.784232 0.722404 0.842586
O O1 0.781429 0.084995 0.500000
O O2 0.500000 0.077753 0.354907
O O3 0.734017 0.134586 0.267508
O O4 0.777055 0.045148 0.243894
O O5 0.500000 0.551058 0.152959
O O6 0.773043 0.500000 0.192812
O O7 0.764186 0.591916 0.261281
O O8 0.773948 0.562467 0.000000
O O9 0.271272 0.775023 0.810029
O O10 0.000000 0.826894 0.847105
O O11 0.273538 0.838904 0.000000
O O12 0.500000 0.000000 0.156235
O O13 0.225761 0.000000 0.000000
O O14 0.282386 0.363941 0.500000
O O15 0.280583 0.317095 0.259987
O O16 0.000000 0.353915 0.355518
O O17 0.000000 0.722214 0.840408
O O18 0.731814 0.712016 0.000000
#
# Coordination Sequence:
#
# PCOD9384805 Si02
#       6
#     8   8   8   4   8   8
#     4  10  20  33  50  74 103 132 163 201 245 294
#     4   9  19  36  55  73  95 127 167 206 244 290
#     4   9  18  33  53  76 100 128 165 206 246 290
#     4   9  17  31  52  73  94 127 168 206 246 291
#     4  10  20  32  49  76 105 130 160 200 244 291
#     4   8  15  30  51  72  96 129 167 204 242 286
#
# _framework density 20.758264
#
# number of rings (size 3 to 8) (size 9 to 14) (size 15 to 20)
#    0.000    2.818    0.000    3.000    0.000    5.455 
#    0.000    5.909    0.000    3.818    0.000    0.000 
#    0.000    0.000    0.000    0.000    0.000    0.000 
#
# Total GULP energy -245592.673423 kJ/mol
# GULP energy per Si atom -5581.651669 kJ/mol
# Density = 2.071102 g / cm^3
# Si number density = 20.758264 Si / 1000 Ang^3
#
#
#
# Elastic Constant Matrix: (Units=GPa)
#
#
# Indices 1 2 3 4 5 6 
#
# 1 45.3677 -0.6072 6.9117 0.0000 0.0000 0.0000
# 2 -0.6072 175.7253 155.4350 0.0000 0.0000 0.0000
# 3 6.9117 155.4350 213.6983 0.0000 0.0000 0.0000
# 4 0.0000 0.0000 0.0000 -20.4772 0.0000 0.0000
# 5 0.0000 0.0000 0.0000 0.0000 13.2448 0.0000
# 6 0.0000 0.0000 0.0000 0.0000 0.0000 22.1234
#
#
#
# Elastic Compliance Matrix: (Units=1/GPa)
#
#
# Indices 1 2 3 4 5 6 
#
# 1 0.022403 0.002014 -0.002190 0.000000 0.000000 0.000000
# 2 0.002014 0.016138 -0.011803 0.000000 0.000000 0.000000
# 3 -0.002190 -0.011803 0.013336 0.000000 0.000000 0.000000
# 4 0.000000 0.000000 0.000000 -0.048835 0.000000 0.000000
# 5 0.000000 0.000000 0.000000 0.000000 0.075501 0.000000
# 6 0.000000 0.000000 0.000000 0.000000 0.000000 0.045201
#
#
# Mechanical properties :
#
#
# Convention : Reuss Voigt Hill
#
# Bulk Modulus (GPa) = 35.81809 84.25226 60.03518
# Shear Modulus (GPa) = 31.84564 21.18165 26.51364
#
# Velocity S-wave (km/s) = 3.92103 3.19783 3.57775
# Velocity P-wave (km/s) = 6.14749 7.36955 6.78609
#
# Compressibility (1/GPa) = 0.02791886
#
# Stress axis : x y z
#
# Youngs Moduli (GPa) = 44.63751 61.96531 74.98772
#
# Poissons Ratio (x) = -0.12481 0.16420
# Poissons Ratio (y) = -0.08991 0.88510
# Poissons Ratio (z) = 0.09774 0.73139
#
# Static dielectric constant tensor:
#      x y z
#    x 1.798850 0.000000 0.000000 
#    y 0.000000 1.715130 0.000000 
#    z 0.000000 0.000000 1.722830 
# 
# From -- ./inp_files/1954.got.cif
#   From: 2010.05.17/outbox.cif.g08.bks.cpg/sg47_1_cif.got.tgz:1954.got - 2010.06.03 20:15:42.
