data_PCOD9384580
_publ_section_title
;
Structure prediction by ZEFSAII (Michael W. Deem and Ramdas Pophale) SiO2 
 PCOD9384580
Probable space group: P M M M
;
_chemical_formula_sum "Si O2"
_cell_formula_units_Z 48
_cell_length_a 31.780639
_cell_length_b 9.472535
_cell_length_c 7.340602
_cell_angle_alpha 90.000000
_cell_angle_beta 90.000000
_cell_angle_gamma 90.000000
_cell_volume 2209.838428
_symmetry_space_group_name_H-M "P M M M"
_symmetry_group_IT_number 47
_symmetry_cell_setting 'orthorhombic'
loop_
_space_group_symop_operation_xyz
x,y,z
-x,-y,z
x,-y,-z
-x,y,-z
-x,-y,-z
x,y,-z
-x,y,z
x,-y,z
loop_
_atom_site_type_symbol
_atom_site_label
_atom_site_fract_x
_atom_site_fract_y
_atom_site_fract_z
Si Si1 0.452692 0.839759 0.219014
Si Si2 0.291981 0.162296 0.722635
Si Si3 0.628870 0.658589 0.714574
Si Si4 0.952654 0.337252 0.278261
Si Si5 0.790181 0.662657 0.277893
Si Si6 0.127931 0.837752 0.722435
O O1 0.500000 0.802817 0.281217
O O2 0.416342 0.731796 0.268397
O O3 0.443072 0.000000 0.281483
O O4 0.453867 0.843748 0.000000
O O5 0.292099 0.159769 0.500000
O O6 0.334346 0.240176 0.786062
O O7 0.251251 0.251806 0.778139
O O8 0.290089 0.000000 0.781834
O O9 0.637491 0.646513 0.500000
O O10 0.629426 0.500000 0.790354
O O11 0.952529 0.335736 0.500000
O O12 0.944812 0.500000 0.224514
O O13 0.915484 0.235047 0.218331
O O14 0.000000 0.297826 0.221061
O O15 0.790273 0.661268 0.500000
O O16 0.789543 0.500000 0.218898
O O17 0.832161 0.744707 0.220631
O O18 0.127907 0.837652 0.500000
O O19 0.131414 0.000000 0.780060
#
# Coordination Sequence:
#
# PCOD9384580 Si02
#       6
#     8   8   8   8   8   8
#     4   9  19  36  55  73  94 122 156 191 226 265
#     4   9  16  26  40  57  78 104 133 165 203 247
#     4  10  20  32  47  70  98 124 151 184 223 268
#     4   8  13  20  27  33  43  62  90 127 174 226
#     4   9  15  22  32  45  63  87 114 146 187 236
#     4   9  15  20  26  37  52  71  99 135 176 226
#
# _framework density 21.721046999999999
#
# number of rings (size 3 to 8) (size 9 to 14) (size 15 to 20)
#    0.000    3.000    0.000    3.000    0.000    8.333 
#    0.000    4.167    0.000    0.000    0.000    0.000 
#    0.000    0.000    0.000    0.000    0.000    0.000 
#
# Total GULP energy -268129.930290 kJ/mol
# GULP energy per Si atom -5586.040214 kJ/mol
# Density = 2.167161 g / cm^3
# Si number density = 21.721047 Si / 1000 Ang^3
#
#
#
# Elastic Constant Matrix: (Units=GPa)
#
#
# Indices 1 2 3 4 5 6 
#
# 1 201.1081 159.3981 0.1935 0.0000 0.0000 0.0000
# 2 159.3981 237.7186 6.2741 0.0000 0.0000 0.0000
# 3 0.1935 6.2741 81.5047 0.0000 0.0000 0.0000
# 4 0.0000 0.0000 0.0000 -45.1147 0.0000 0.0000
# 5 0.0000 0.0000 0.0000 0.0000 95.4241 0.0000
# 6 0.0000 0.0000 0.0000 0.0000 0.0000 45.3573
#
#
#
# Elastic Compliance Matrix: (Units=1/GPa)
#
#
# Indices 1 2 3 4 5 6 
#
# 1 0.010635 -0.007145 0.000525 0.000000 0.000000 0.000000
# 2 -0.007145 0.009015 -0.000677 0.000000 0.000000 0.000000
# 3 0.000525 -0.000677 0.012320 0.000000 0.000000 0.000000
# 4 0.000000 0.000000 0.000000 -0.022166 0.000000 0.000000
# 5 0.000000 0.000000 0.000000 0.000000 0.010480 0.000000
# 6 0.000000 0.000000 0.000000 0.000000 0.000000 0.022047
#
#
# Mechanical properties :
#
#
# Convention : Reuss Voigt Hill
#
# Bulk Modulus (GPa) = 57.55036 94.67365 76.11201
# Shear Modulus (GPa) = 79.72161 42.76440 61.24301
#
# Velocity S-wave (km/s) = 6.06483 4.44193 5.31568
# Velocity P-wave (km/s) = 8.69457 8.36591 8.53182
#
# Compressibility (1/GPa) = 0.01737609
#
# Stress axis : x y z
#
# Youngs Moduli (GPa) = 94.02846 110.92020 81.16821
#
# Poissons Ratio (x) = 0.79253 -0.04259
# Poissons Ratio (y) = 0.67183 0.05495
# Poissons Ratio (z) = -0.04934 0.07510
#
# Static dielectric constant tensor:
#      x y z
#    x 1.741360 0.000000 0.000000 
#    y 0.000000 1.738060 0.000000 
#    z 0.000000 0.000000 1.896460 
# 
# From -- ./inp_files/4430.got.cif
#   From: 2010.05.17/outbox.cif.g08.bks.cpg/sg47_3_cif.got.tgz:4430.got - 2010.06.03 20:15:42.
