data_PCOD9384512
_publ_section_title
;
Structure prediction by ZEFSAII (Michael W. Deem and Ramdas Pophale) SiO2 
 PCOD9384512
Probable space group: P M M M
;
_chemical_formula_sum "Si O2"
_cell_formula_units_Z 64
_cell_length_a 9.327516
_cell_length_b 15.854237
_cell_length_c 23.759696
_cell_angle_alpha 90.000000
_cell_angle_beta 90.000000
_cell_angle_gamma 90.000000
_cell_volume 3513.599271
_symmetry_space_group_name_H-M "P M M M"
_symmetry_group_IT_number 47
_symmetry_cell_setting 'orthorhombic'
loop_
_space_group_symop_operation_xyz
x,y,z
-x,-y,z
x,-y,-z
-x,y,-z
-x,-y,-z
x,y,-z
-x,y,z
x,-y,z
loop_
_atom_site_type_symbol
_atom_site_label
_atom_site_fract_x
_atom_site_fract_y
_atom_site_fract_z
Si Si1 0.334237 0.864069 0.779688
Si Si2 0.158633 0.400420 0.268790
Si Si3 0.827964 0.728063 0.936855
Si Si4 0.336038 0.325356 0.828270
Si Si5 0.171922 0.099026 0.336725
Si Si6 0.174798 0.402852 0.606409
Si Si7 0.174435 0.775968 0.437915
Si Si8 0.829785 0.909536 0.891050
O O1 0.500000 0.890958 0.775578
O O2 0.332173 0.765979 0.797838
O O3 0.252861 0.879710 0.721320
O O4 0.253396 0.906411 0.832119
O O5 0.141971 0.500000 0.274400
O O6 0.257490 0.383478 0.216327
O O7 0.216595 0.375752 0.330013
O O8 0.000000 0.361465 0.260412
O O9 0.748347 0.680383 0.886807
O O10 0.793314 0.827238 0.927183
O O11 0.000000 0.718545 0.931251
O O12 0.786973 0.702807 0.000000
O O13 0.500000 0.348967 0.837974
O O14 0.218046 0.162252 0.386979
O O15 0.000000 0.109708 0.328405
O O16 0.196376 0.000000 0.350592
O O17 0.222089 0.500000 0.593743
O O18 0.218593 0.322369 0.569572
O O19 0.000000 0.406279 0.605731
O O20 0.219415 0.805745 0.500000
O O21 0.000000 0.775926 0.436684
O O22 0.000000 0.904150 0.879363
O O23 0.801721 0.000000 0.918955
#
# Coordination Sequence:
#
# PCOD9384512 Si02
#       8
#     8   8   8   8   8   8   8   8
#     4  10  20  32  47  69  95 123 158 198 242 292
#     4   9  17  30  50  75 101 128 156 187 229 284
#     4   9  18  32  49  68  91 124 164 199 232 275
#     4  10  20  32  48  71  98 127 157 194 240 285
#     4  10  20  32  47  67  91 123 163 205 249 294
#     4   8  14  25  43  69  98 125 153 187 232 288
#     4   9  17  28  43  65  93 125 160 198 239 283
#     4   9  17  29  46  69  96 123 152 191 239 287
#
# _framework density 18.214941
#
# number of rings (size 3 to 8) (size 9 to 14) (size 15 to 20)
#    0.000    2.750    0.000    2.625    0.000    5.750 
#    0.000    3.750    0.000    0.750    0.000    7.000 
#    0.000    0.000    0.000   10.750    0.000    8.750 
#
# Total GULP energy -356458.096419 kJ/mol
# GULP energy per Si atom -5569.657757 kJ/mol
# Density = 1.817348 g / cm^3
# Si number density = 18.214941 Si / 1000 Ang^3
#
#
#
# Elastic Constant Matrix: (Units=GPa)
#
#
# Indices 1 2 3 4 5 6 
#
# 1 23.4530 9.1562 26.8649 0.0000 0.0000 0.0000
# 2 9.1562 24.8105 30.8452 0.0000 0.0000 0.0000
# 3 26.8649 30.8452 99.8053 0.0000 0.0000 0.0000
# 4 0.0000 0.0000 0.0000 2.0407 0.0000 0.0000
# 5 0.0000 0.0000 0.0000 0.0000 -5.4706 0.0000
# 6 0.0000 0.0000 0.0000 0.0000 0.0000 11.5884
#
#
#
# Elastic Compliance Matrix: (Units=1/GPa)
#
#
# Indices 1 2 3 4 5 6 
#
# 1 0.061827 -0.003454 -0.015575 0.000000 0.000000 0.000000
# 2 -0.003454 0.065648 -0.019359 0.000000 0.000000 0.000000
# 3 -0.015575 -0.019359 0.020195 0.000000 0.000000 0.000000
# 4 0.000000 0.000000 0.000000 0.490028 0.000000 0.000000
# 5 0.000000 0.000000 0.000000 0.000000 -0.182795 0.000000
# 6 0.000000 0.000000 0.000000 0.000000 0.000000 0.086293
#
#
# Mechanical properties :
#
#
# Convention : Reuss Voigt Hill
#
# Bulk Modulus (GPa) = 14.10543 31.31126 22.70834
# Shear Modulus (GPa) = 7.79298 7.04521 7.41910
#
# Velocity S-wave (km/s) = 2.07066 1.96881 2.02038
# Velocity P-wave (km/s) = 3.67118 4.73239 4.23515
#
# Compressibility (1/GPa) = 0.07089470
#
# Stress axis : x y z
#
# Youngs Moduli (GPa) = 16.17404 15.23275 49.51762
#
# Poissons Ratio (x) = 0.05261 0.77123
# Poissons Ratio (y) = 0.05586 0.95861
# Poissons Ratio (z) = 0.25191 0.29489
#
# Static dielectric constant tensor:
#      x y z
#    x 1.610460 0.000000 0.000000 
#    y 0.000000 1.684950 0.000000 
#    z 0.000000 0.000000 1.613320 
# 
# From -- ./inp_files/28766.got.cif
#   From: 2010.05.17/outbox.cif.g08.bks.cpg/sg47_15_cif.got.tgz:28766.got - 2010.06.03 20:15:42.
