data_PCOD9384766
_publ_section_title
;
Structure prediction by ZEFSAII (Michael W. Deem and Ramdas Pophale) SiO2 
 PCOD9384766
Probable space group: P M M M
;
_chemical_formula_sum "Si O2"
_cell_formula_units_Z 46
_cell_length_a 7.577296
_cell_length_b 32.203890
_cell_length_c 9.773225
_cell_angle_alpha 90.000000
_cell_angle_beta 90.000000
_cell_angle_gamma 90.000000
_cell_volume 2384.846795
_symmetry_space_group_name_H-M "P M M M"
_symmetry_group_IT_number 47
_symmetry_cell_setting 'orthorhombic'
loop_
_space_group_symop_operation_xyz
x,y,z
-x,-y,z
x,-y,-z
-x,y,-z
-x,-y,-z
x,y,-z
-x,y,z
x,-y,z
loop_
_atom_site_type_symbol
_atom_site_label
_atom_site_fract_x
_atom_site_fract_y
_atom_site_fract_z
Si Si1 0.708209 0.620694 0.846932
Si Si2 0.000000 0.000000 0.000000
Si Si3 0.288181 0.208974 0.655480
Si Si4 0.000000 0.000000 0.500000
Si Si5 0.000000 0.934351 0.751711
Si Si6 0.208234 0.303806 0.345736
Si Si7 0.284388 0.452953 0.656661
Si Si8 0.287690 0.869208 0.163275
O O1 0.500000 0.612401 0.859556
O O2 0.723766 0.663040 0.761927
O O3 0.781366 0.582432 0.758404
O O4 0.782153 0.623992 0.000000
O O5 0.000000 0.035880 0.881807
O O6 0.221736 0.201196 0.500000
O O7 0.500000 0.207372 0.649953
O O8 0.239616 0.255955 0.693744
O O9 0.234929 0.173890 0.763152
O O10 0.000000 0.036703 0.380752
O O11 0.172720 0.905107 0.766174
O O12 0.282453 0.309722 0.500000
O O13 0.000000 0.310203 0.353438
O O14 0.230182 0.444524 0.500000
O O15 0.500000 0.452343 0.656809
O O16 0.231660 0.500000 0.693003
O O17 0.500000 0.875392 0.180721
O O18 0.252880 0.868259 0.000000
#
# Coordination Sequence:
#
# PCOD9384766 Si02
#       8
#     8   1   8   1   4   8   8   8
#     4  10  20  32  49  74 104 140 176 218 273 326
#     4  10  20  42  66  82 128 156 204 242 286 346
#     4   9  19  35  56  84 116 145 183 233 281 334
#     4  10  28  42  66  94 124 164 208 246 310 330
#     4  11  22  44  62  92 124 164 200 254 289 350
#     4  10  21  36  53  76 105 141 185 224 271 330
#     4   8  14  26  46  72  99 129 170 218 268 325
#     4  10  21  38  63  92 121 159 199 240 294 351
#
# _framework density 19.288450000000001
#
# number of rings (size 3 to 8) (size 9 to 14) (size 15 to 20)
#    0.000    2.435    0.870    1.565    2.435    3.130 
#    0.000    6.087    0.000    0.522    0.000    3.652 
#    0.000    0.000    0.000    0.000    0.000    0.000 
#
# Total GULP energy -256080.468517 kJ/mol
# GULP energy per Si atom -5566.966707 kJ/mol
# Density = 1.924455 g / cm^3
# Si number density = 19.288450 Si / 1000 Ang^3
#
#
#
# Elastic Constant Matrix: (Units=GPa)
#
#
# Indices 1 2 3 4 5 6 
#
# 1 51.9942 23.3457 27.3195 0.0000 0.0000 0.0000
# 2 23.3457 166.7949 127.2123 0.0000 0.0000 0.0000
# 3 27.3195 127.2123 169.2315 0.0000 0.0000 0.0000
# 4 0.0000 0.0000 0.0000 15.9248 0.0000 0.0000
# 5 0.0000 0.0000 0.0000 0.0000 0.7076 0.0000
# 6 0.0000 0.0000 0.0000 0.0000 0.0000 -31.0902
#
#
#
# Elastic Compliance Matrix: (Units=1/GPa)
#
#
# Indices 1 2 3 4 5 6 
#
# 1 0.021065 -0.000832 -0.002775 0.000000 0.000000 0.000000
# 2 -0.000832 0.014084 -0.010453 0.000000 0.000000 0.000000
# 3 -0.002775 -0.010453 0.014214 0.000000 0.000000 0.000000
# 4 0.000000 0.000000 0.000000 0.062795 0.000000 0.000000
# 5 0.000000 0.000000 0.000000 0.000000 1.413284 0.000000
# 6 0.000000 0.000000 0.000000 0.000000 0.000000 -0.032165
#
#
# Mechanical properties :
#
#
# Convention : Reuss Voigt Hill
#
# Bulk Modulus (GPa) = 47.07301 82.64172 64.85736
# Shear Modulus (GPa) = 3.27123 11.11798 7.19460
#
# Velocity S-wave (km/s) = 1.30370 2.40345 1.93342
# Velocity P-wave (km/s) = 5.16952 7.11620 6.21949
#
# Compressibility (1/GPa) = 0.02124360
#
# Stress axis : x y z
#
# Youngs Moduli (GPa) = 47.47300 71.00280 70.35072
#
# Poissons Ratio (x) = 0.05904 0.19525
# Poissons Ratio (y) = 0.03948 0.73536
# Poissons Ratio (z) = 0.13176 0.74217
#
# Static dielectric constant tensor:
#      x y z
#    x 1.726330 0.000000 0.000000 
#    y 0.000000 1.647830 0.000000 
#    z 0.000000 0.000000 1.835540 
# 
# From -- ./inp_files/2849.got.cif
#   From: 2010.05.17/outbox.cif.g08.bks.cpg/sg47_2_cif.got.tgz:2849.got - 2010.06.03 20:15:42.
