data_PCOD9384473
_publ_section_title
;
Structure prediction by ZEFSAII (Michael W. Deem and Ramdas Pophale) SiO2 
 PCOD9384473
Probable space group: P M M M
;
_chemical_formula_sum "Si O2"
_cell_formula_units_Z 40
_cell_length_a 9.477345
_cell_length_b 9.185457
_cell_length_c 26.753352
_cell_angle_alpha 90.000000
_cell_angle_beta 90.000000
_cell_angle_gamma 90.000000
_cell_volume 2328.979482
_symmetry_space_group_name_H-M "P M M M"
_symmetry_group_IT_number 47
_symmetry_cell_setting 'orthorhombic'
loop_
_space_group_symop_operation_xyz
x,y,z
-x,-y,z
x,-y,-z
-x,y,-z
-x,-y,-z
x,y,-z
-x,y,z
x,-y,z
loop_
_atom_site_type_symbol
_atom_site_label
_atom_site_fract_x
_atom_site_fract_y
_atom_site_fract_z
Si Si1 0.161943 0.177971 0.500000
Si Si2 0.827712 0.668073 0.000000
Si Si3 0.662403 0.822690 0.403923
Si Si4 0.831608 0.327569 0.202522
Si Si5 0.669445 0.827545 0.708448
Si Si6 0.171855 0.832352 0.899532
O O1 0.241660 0.225979 0.449785
O O2 0.000000 0.223454 0.500000
O O3 0.165048 0.000000 0.500000
O O4 0.781747 0.750109 0.949719
O O5 0.783826 0.500000 0.000000
O O6 0.000000 0.669560 0.000000
O O7 0.500000 0.777495 0.411551
O O8 0.708703 0.780181 0.348066
O O9 0.662471 0.000000 0.403878
O O10 0.808429 0.500000 0.198696
O O11 0.749595 0.260513 0.249201
O O12 0.786196 0.249719 0.151070
O O13 0.000000 0.303018 0.208545
O O14 0.500000 0.811116 0.712720
O O15 0.700783 0.000000 0.713592
O O16 0.000000 0.831696 0.900324
O O17 0.217745 0.000000 0.899243
#
# Coordination Sequence:
#
# PCOD9384473 Si02
#       6
#     4   4   8   8   8   8
#     4   9  15  21  33  59  92 121 150 185 226 274
#     4   9  15  23  37  59  90 125 158 195 238 283
#     4   8  14  25  40  58  84 118 152 187 229 276
#     4  10  20  32  46  67  95 125 157 195 242 293
#     4   9  18  32  49  69  92 121 160 201 239 283
#     4   9  16  26  41  62  89 122 159 197 238 284
#
# _framework density 17.174903
#
# number of rings (size 3 to 8) (size 9 to 14) (size 15 to 20)
#    0.000    3.000    0.000    3.000    0.000    7.200 
#    0.000    2.000    0.000    0.000    0.000    1.400 
#    0.000   11.200    0.000    0.000    0.000    0.000 
#
# Total GULP energy -222897.335193 kJ/mol
# GULP energy per Si atom -5572.433380 kJ/mol
# Density = 1.713581 g / cm^3
# Si number density = 17.174903 Si / 1000 Ang^3
#
#
#
# Elastic Constant Matrix: (Units=GPa)
#
#
# Indices 1 2 3 4 5 6 
#
# 1 35.5091 35.7111 70.1061 0.0000 0.0000 0.0000
# 2 35.7111 84.0552 85.3987 0.0000 0.0000 0.0000
# 3 70.1061 85.3987 217.6552 0.0000 0.0000 0.0000
# 4 0.0000 0.0000 0.0000 -7.1686 0.0000 0.0000
# 5 0.0000 0.0000 0.0000 0.0000 -317.8999 0.0000
# 6 0.0000 0.0000 0.0000 0.0000 0.0000 13.9382
#
#
#
# Elastic Compliance Matrix: (Units=1/GPa)
#
#
# Indices 1 2 3 4 5 6 
#
# 1 0.086233 -0.013996 -0.022284 0.000000 0.000000 0.000000
# 2 -0.013996 0.022055 -0.004145 0.000000 0.000000 0.000000
# 3 -0.022284 -0.004145 0.013398 0.000000 0.000000 0.000000
# 4 0.000000 0.000000 0.000000 -0.139498 0.000000 0.000000
# 5 0.000000 0.000000 0.000000 0.000000 -0.003146 0.000000
# 6 0.000000 0.000000 0.000000 0.000000 0.000000 0.071745
#
#
# Mechanical properties :
#
#
# Convention : Reuss Voigt Hill
#
# Bulk Modulus (GPa) = 24.48848 79.96127 52.22487
# Shear Modulus (GPa) = 34.42317 -52.49249 -9.03466
#
# Velocity S-wave (km/s) = 4.48177 -5.53442 -2.29604
# Velocity P-wave (km/s) = 6.40866 2.41212 4.84196
#
# Compressibility (1/GPa) = 0.04083553
#
# Stress axis : x y z
#
# Youngs Moduli (GPa) = 11.59645 45.34166 74.63576
#
# Poissons Ratio (x) = 0.63462 1.66318
# Poissons Ratio (y) = 0.16231 0.30938
# Poissons Ratio (z) = 0.25841 0.18795
#
# Static dielectric constant tensor:
#      x y z
#    x 1.567320 0.000000 0.000000 
#    y 0.000000 1.567660 0.000000 
#    z 0.000000 0.000000 1.575380 
# 
# From -- ./inp_files/1818.got.cif
#   From: 2010.05.17/outbox.cif.g08.bks.cpg/sg47_1_cif.got.tgz:1818.got - 2010.06.03 20:15:42.
