data_PCOD9384308
_publ_section_title
;
Structure prediction by ZEFSAII (Michael W. Deem and Ramdas Pophale) SiO2 
 PCOD9384308
Probable space group: P M M M
;
_chemical_formula_sum "Si O2"
_cell_formula_units_Z 44
_cell_length_a 9.950126
_cell_length_b 7.648866
_cell_length_c 29.170995
_cell_angle_alpha 90.000000
_cell_angle_beta 90.000000
_cell_angle_gamma 90.000000
_cell_volume 2220.122181
_symmetry_space_group_name_H-M "P M M M"
_symmetry_group_IT_number 47
_symmetry_cell_setting 'orthorhombic'
loop_
_space_group_symop_operation_xyz
x,y,z
-x,-y,z
x,-y,-z
-x,y,-z
-x,-y,-z
x,y,-z
-x,y,z
x,-y,z
loop_
_atom_site_type_symbol
_atom_site_label
_atom_site_fract_x
_atom_site_fract_y
_atom_site_fract_z
Si Si1 0.348620 0.289835 0.318259
Si Si2 0.847925 0.209751 0.401002
Si Si3 0.848078 0.208337 0.131838
Si Si4 0.836038 0.797574 0.500000
Si Si5 0.652730 0.786481 0.947517
Si Si6 0.346849 0.289064 0.785045
O O1 0.500000 0.227244 0.328445
O O2 0.353025 0.500000 0.316156
O O3 0.246535 0.243832 0.358174
O O4 0.313059 0.229349 0.266747
O O5 0.797439 0.279264 0.450540
O O6 0.000000 0.274700 0.392965
O O7 0.856266 0.000000 0.406236
O O8 0.760931 0.277496 0.089084
O O9 0.761429 0.235102 0.177608
O O10 0.000000 0.278278 0.134766
O O11 0.858378 0.000000 0.125073
O O12 0.000000 0.797362 0.500000
O O13 0.790563 0.000000 0.500000
O O14 0.500000 0.732757 0.935626
O O15 0.653430 0.000000 0.946832
O O16 0.680505 0.734039 0.000000
O O17 0.500000 0.229972 0.795877
O O18 0.349602 0.500000 0.784786
#
# Coordination Sequence:
#
# PCOD9384308 Si02
#       6
#     8   8   8   4   8   8
#     4   9  19  35  51  68  93 124 158 196 238 284
#     4   9  17  30  50  74  97 123 157 195 233 276
#     4  10  20  31  46  73 104 128 153 191 238 284
#     4   7  12  26  46  67  94 126 156 187 226 273
#     4   8  14  26  45  68  94 126 162 195 228 271
#     4   9  19  36  54  68  87 123 166 200 234 281
#
# _framework density 19.818729999999999
#
# number of rings (size 3 to 8) (size 9 to 14) (size 15 to 20)
#    0.000    3.182    0.000    3.273    0.000    4.000 
#    0.000    8.182    0.000    4.909    0.000    3.818 
#    0.000    0.000    0.000    0.000    0.000    0.000 
#
# Total GULP energy -245244.139419 kJ/mol
# GULP energy per Si atom -5573.730441 kJ/mol
# Density = 1.977362 g / cm^3
# Si number density = 19.818730 Si / 1000 Ang^3
#
#
#
# Elastic Constant Matrix: (Units=GPa)
#
#
# Indices 1 2 3 4 5 6 
#
# 1 155.0362 6.6535 143.3606 0.0000 0.0000 0.0000
# 2 6.6535 35.3455 3.5459 0.0000 0.0000 0.0000
# 3 143.3606 3.5459 193.0205 0.0000 0.0000 0.0000
# 4 0.0000 0.0000 0.0000 39.5609 0.0000 0.0000
# 5 0.0000 0.0000 0.0000 0.0000 39.7314 0.0000
# 6 0.0000 0.0000 0.0000 0.0000 0.0000 18.4402
#
#
#
# Elastic Compliance Matrix: (Units=1/GPa)
#
#
# Indices 1 2 3 4 5 6 
#
# 1 0.020790 -0.002369 -0.015397 0.000000 0.000000 0.000000
# 2 -0.002369 0.028614 0.001234 0.000000 0.000000 0.000000
# 3 -0.015397 0.001234 0.016594 0.000000 0.000000 0.000000
# 4 0.000000 0.000000 0.000000 0.025277 0.000000 0.000000
# 5 0.000000 0.000000 0.000000 0.000000 0.025169 0.000000
# 6 0.000000 0.000000 0.000000 0.000000 0.000000 0.054229
#
#
# Mechanical properties :
#
#
# Convention : Reuss Voigt Hill
#
# Bulk Modulus (GPa) = 30.36462 76.72468 53.54465
# Shear Modulus (GPa) = 23.28652 34.86930 29.07791
#
# Velocity S-wave (km/s) = 3.43151 4.19908 3.83455
# Velocity P-wave (km/s) = 5.57268 7.89348 6.83234
#
# Compressibility (1/GPa) = 0.03293306
#
# Stress axis : x y z
#
# Youngs Moduli (GPa) = 48.10104 34.94756 60.26236
#
# Poissons Ratio (x) = 0.08278 0.92788
# Poissons Ratio (y) = 0.11394 -0.07434
# Poissons Ratio (z) = 0.74063 -0.04311
#
# Static dielectric constant tensor:
#      x y z
#    x 1.680110 0.000000 0.000000 
#    y 0.000000 1.753380 0.000000 
#    z 0.000000 0.000000 1.707260 
# 
# From -- ./inp_files/2004.got.cif
#   From: 2010.05.17/outbox.cif.g08.bks.cpg/sg47_2_cif.got.tgz:2004.got - 2010.06.03 20:15:42.
