data_PCOD9384288
_publ_section_title
;
Structure prediction by ZEFSAII (Michael W. Deem and Ramdas Pophale) SiO2 
 PCOD9384288
Probable space group: P M M M
;
_chemical_formula_sum "Si O2"
_cell_formula_units_Z 52
_cell_length_a 21.027803
_cell_length_b 8.012753
_cell_length_c 15.079385
_cell_angle_alpha 90.000000
_cell_angle_beta 90.000000
_cell_angle_gamma 90.000000
_cell_volume 2540.734499
_symmetry_space_group_name_H-M "P M M M"
_symmetry_group_IT_number 47
_symmetry_cell_setting 'orthorhombic'
loop_
_space_group_symop_operation_xyz
x,y,z
-x,-y,z
x,-y,-z
-x,y,-z
-x,-y,-z
x,y,-z
-x,y,z
x,-y,z
loop_
_atom_site_type_symbol
_atom_site_label
_atom_site_fract_x
_atom_site_fract_y
_atom_site_fract_z
Si Si1 0.121002 0.801321 0.282447
Si Si2 0.000000 0.301331 0.398611
Si Si3 0.382416 0.796145 0.401400
Si Si4 0.236035 0.796795 0.600353
Si Si5 0.431557 0.201042 0.783495
Si Si6 0.832227 0.700787 0.100688
Si Si7 0.311078 0.700673 0.898975
O O1 0.185223 0.733479 0.329170
O O2 0.121032 0.749398 0.179804
O O3 0.061598 0.749989 0.342261
O O4 0.124195 0.000000 0.284362
O O5 0.000000 0.500000 0.404929
O O6 0.000000 0.233314 0.500000
O O7 0.401727 0.741231 0.500000
O O8 0.308941 0.745157 0.385599
O O9 0.423100 0.740762 0.317939
O O10 0.383559 0.000000 0.402463
O O11 0.217265 0.749276 0.500000
O O12 0.236258 0.000000 0.603322
O O13 0.500000 0.260354 0.819287
O O14 0.368842 0.247964 0.837170
O O15 0.433051 0.000000 0.782524
O O16 0.830557 0.500000 0.097571
O O17 0.760282 0.760783 0.124347
O O18 0.846884 0.758521 0.000000
O O19 0.308539 0.500000 0.898530
O O20 0.323502 0.755869 0.000000
#
# Coordination Sequence:
#
# PCOD9384288 Si02
#       7
#     8   4   8   8   8   8   8
#     4  11  21  34  57  86 115 146 180 223 272 319
#     4  11  25  43  60  81 116 161 199 224 254 305
#     4   8  14  26  44  67  97 131 166 206 256 316
#     4   8  14  25  44  72 102 130 163 208 263 316
#     4  10  20  31  45  70 102 134 172 221 274 323
#     4   9  19  37  59  82 109 140 176 221 273 328
#     4   9  19  36  56  76 100 135 177 218 263 320
#
# _framework density 20.466522000000001
#
# number of rings (size 3 to 8) (size 9 to 14) (size 15 to 20)
#    0.000    2.692    0.000    3.923    0.000    4.615 
#    0.000    5.000    0.000    2.769    0.000    5.385 
#    0.000    0.000    0.000    0.000    0.000    0.000 
#
# Total GULP energy -290049.522530 kJ/mol
# GULP energy per Si atom -5577.875433 kJ/mol
# Density = 2.041994 g / cm^3
# Si number density = 20.466522 Si / 1000 Ang^3
#
#
#
# Elastic Constant Matrix: (Units=GPa)
#
#
# Indices 1 2 3 4 5 6 
#
# 1 64.1099 8.9154 73.6263 0.0000 0.0000 0.0000
# 2 8.9154 20.7240 13.5730 0.0000 0.0000 0.0000
# 3 73.6263 13.5730 140.7868 0.0000 0.0000 0.0000
# 4 0.0000 0.0000 0.0000 22.0839 0.0000 0.0000
# 5 0.0000 0.0000 0.0000 0.0000 20.3937 0.0000
# 6 0.0000 0.0000 0.0000 0.0000 0.0000 17.2774
#
#
#
# Elastic Compliance Matrix: (Units=1/GPa)
#
#
# Indices 1 2 3 4 5 6 
#
# 1 0.039314 -0.003680 -0.020205 0.000000 0.000000 0.000000
# 2 -0.003680 0.051850 -0.003074 0.000000 0.000000 0.000000
# 3 -0.020205 -0.003074 0.017966 0.000000 0.000000 0.000000
# 4 0.000000 0.000000 0.000000 0.045282 0.000000 0.000000
# 5 0.000000 0.000000 0.000000 0.000000 0.049035 0.000000
# 6 0.000000 0.000000 0.000000 0.000000 0.000000 0.057879
#
#
# Mechanical properties :
#
#
# Convention : Reuss Voigt Hill
#
# Bulk Modulus (GPa) = 18.11217 46.42779 32.26998
# Shear Modulus (GPa) = 14.98584 20.58473 17.78528
#
# Velocity S-wave (km/s) = 2.70888 3.17484 2.95107
# Velocity P-wave (km/s) = 4.31890 6.01444 5.23576
#
# Compressibility (1/GPa) = 0.05521150
#
# Stress axis : x y z
#
# Youngs Moduli (GPa) = 25.43603 19.28644 55.66100
#
# Poissons Ratio (x) = 0.07097 1.12464
# Poissons Ratio (y) = 0.09360 0.17112
# Poissons Ratio (z) = 0.51394 0.05929
#
# Static dielectric constant tensor:
#      x y z
#    x 1.743960 0.000000 0.000000 
#    y 0.000000 1.744730 0.000000 
#    z 0.000000 0.000000 1.745000 
# 
# From -- ./inp_files/25012.got.cif
#   From: 2010.05.17/outbox.cif.g08.bks.cpg/sg47_13_cif.got.tgz:25012.got - 2010.06.03 20:15:42.
