data_PCOD9384432
_publ_section_title
;
Structure prediction by ZEFSAII (Michael W. Deem and Ramdas Pophale) SiO2 
 PCOD9384432
Probable space group: P M M M
;
_chemical_formula_sum "Si O2"
_cell_formula_units_Z 44
_cell_length_a 14.389835
_cell_length_b 14.581063
_cell_length_c 8.479595
_cell_angle_alpha 90.000000
_cell_angle_beta 90.000000
_cell_angle_gamma 90.000000
_cell_volume 1779.180912
_symmetry_space_group_name_H-M "P M M M"
_symmetry_group_IT_number 47
_symmetry_cell_setting 'orthorhombic'
loop_
_space_group_symop_operation_xyz
x,y,z
-x,-y,z
x,-y,-z
-x,y,-z
-x,-y,-z
x,y,-z
-x,y,z
x,-y,z
loop_
_atom_site_type_symbol
_atom_site_label
_atom_site_fract_x
_atom_site_fract_y
_atom_site_fract_z
Si Si1 0.108250 0.400168 0.190217
Si Si2 0.351072 0.866093 0.500000
Si Si3 0.392750 0.632455 0.166312
Si Si4 0.613995 0.648565 0.500000
Si Si5 0.130596 0.895363 0.500000
Si Si6 0.847782 0.802247 0.818754
Si Si7 0.366469 0.850769 0.167816
O O1 0.140591 0.500000 0.248951
O O2 0.160673 0.305650 0.224531
O O3 0.000000 0.388448 0.239606
O O4 0.107632 0.404925 0.000000
O O5 0.355062 0.754717 0.500000
O O6 0.243439 0.893368 0.500000
O O7 0.394576 0.893575 0.333539
O O8 0.500000 0.602367 0.161722
O O9 0.354351 0.605167 0.335708
O O10 0.395000 0.743484 0.167836
O O11 0.346811 0.605375 0.000000
O O12 0.500000 0.648177 0.500000
O O13 0.104344 0.847960 0.333412
O O14 0.101007 0.000000 0.500000
O O15 0.745668 0.846222 0.829738
O O16 0.886923 0.808624 0.000000
O O17 0.395560 0.890453 0.000000
#
# Coordination Sequence:
#
# PCOD9384432 Si02
#       7
#     8   4   8   4   4   8   8
#     4   8  14  27  50  78 103 125 148 176 218 275
#     4   8  14  24  36  51  74 103 136 179 225 261
#     4   8  12  17  26  43  69  98 129 169 211 249
#     4   8  12  18  30  47  66  92 127 166 214 269
#     4  10  20  32  46  65  89 120 160 199 230 261
#     4   9  17  30  48  68  92 121 151 187 228 269
#     4   8  13  21  34  53  76 104 139 175 213 258
#
# _framework density 24.730481999999999
#
# number of rings (size 3 to 8) (size 9 to 14) (size 15 to 20)
#    0.000    3.636    0.000    0.545    0.000    0.364 
#    0.000    0.909    0.000    2.455    0.000    2.545 
#    0.000    0.727    0.000  102.364    0.000   88.182 
#
# Total GULP energy -245219.335427 kJ/mol
# GULP energy per Si atom -5573.166714 kJ/mol
# Density = 2.467419 g / cm^3
# Si number density = 24.730482 Si / 1000 Ang^3
#
#
#
# Elastic Constant Matrix: (Units=GPa)
#
#
# Indices 1 2 3 4 5 6 
#
# 1 90.3819 -1.8528 21.7725 0.0000 0.0000 0.0000
# 2 -1.8528 120.8608 67.4205 0.0000 0.0000 0.0000
# 3 21.7725 67.4205 288.0331 0.0000 0.0000 0.0000
# 4 0.0000 0.0000 0.0000 -3.7672 0.0000 0.0000
# 5 0.0000 0.0000 0.0000 0.0000 4.2111 0.0000
# 6 0.0000 0.0000 0.0000 0.0000 0.0000 -15.3777
#
#
#
# Elastic Compliance Matrix: (Units=1/GPa)
#
#
# Indices 1 2 3 4 5 6 
#
# 1 0.011328 0.000749 -0.001032 0.000000 0.000000 0.000000
# 2 0.000749 0.009566 -0.002296 0.000000 0.000000 0.000000
# 3 -0.001032 -0.002296 0.004087 0.000000 0.000000 0.000000
# 4 0.000000 0.000000 0.000000 -0.265453 0.000000 0.000000
# 5 0.000000 0.000000 0.000000 0.000000 0.237465 0.000000
# 6 0.000000 0.000000 0.000000 0.000000 0.000000 -0.065029
#
#
# Mechanical properties :
#
#
# Convention : Reuss Voigt Hill
#
# Bulk Modulus (GPa) = 50.44193 74.88403 62.66298
# Shear Modulus (GPa) = -88.85717 24.47563 -32.19077
#
# Velocity S-wave (km/s) = -6.00069 3.14935 -3.61177
# Velocity P-wave (km/s) = 5.25072 6.60079 2.82846
#
# Compressibility (1/GPa) = 0.01982478
#
# Stress axis : x y z
#
# Youngs Moduli (GPa) = 88.27652 104.53538 244.66712
#
# Poissons Ratio (x) = -0.07831 0.25241
# Poissons Ratio (y) = -0.06613 0.56170
# Poissons Ratio (z) = 0.09107 0.23999
#
# Static dielectric constant tensor:
#      x y z
#    x 1.945250 0.000000 0.000000 
#    y 0.000000 1.905420 0.000000 
#    z 0.000000 0.000000 2.038410 
# 
# From -- ./inp_files/9029.got.cif
#   From: 2010.05.17/outbox.cif.g08.bks.cpg/sg47_5_cif.got.tgz:9029.got - 2010.06.03 20:15:42.
