data_PCOD9384480
_publ_section_title
;
Structure prediction by ZEFSAII (Michael W. Deem and Ramdas Pophale) SiO2 
 PCOD9384480
Probable space group: P M M M
;
_chemical_formula_sum "Si O2"
_cell_formula_units_Z 52
_cell_length_a 24.930727
_cell_length_b 7.808275
_cell_length_c 14.138423
_cell_angle_alpha 90.000000
_cell_angle_beta 90.000000
_cell_angle_gamma 90.000000
_cell_volume 2752.269861
_symmetry_space_group_name_H-M "P M M M"
_symmetry_group_IT_number 47
_symmetry_cell_setting 'orthorhombic'
loop_
_space_group_symop_operation_xyz
x,y,z
-x,-y,z
x,-y,-z
-x,y,-z
-x,-y,-z
x,y,-z
-x,y,z
x,-y,z
loop_
_atom_site_type_symbol
_atom_site_label
_atom_site_fract_x
_atom_site_fract_y
_atom_site_fract_z
Si Si1 0.266361 0.202509 0.605770
Si Si2 0.662868 0.703493 0.779122
Si Si3 0.124261 0.709748 0.190773
Si Si4 0.560700 0.205438 0.893857
Si Si5 0.236272 0.290950 0.106742
Si Si6 0.855915 0.298935 0.393743
Si Si7 0.937812 0.291091 0.000000
O O1 0.282136 0.255048 0.500000
O O2 0.313625 0.241392 0.678540
O O3 0.208351 0.286441 0.625044
O O4 0.256397 0.000000 0.607507
O O5 0.665310 0.500000 0.781012
O O6 0.604292 0.751790 0.815067
O O7 0.707589 0.771200 0.852406
O O8 0.121702 0.500000 0.192114
O O9 0.185141 0.761745 0.166942
O O10 0.114448 0.768928 0.299088
O O11 0.089604 0.764649 0.099205
O O12 0.500000 0.267321 0.874684
O O13 0.558418 0.000000 0.898464
O O14 0.576475 0.267209 0.000000
O O15 0.236795 0.500000 0.107277
O O16 0.228495 0.234867 0.000000
O O17 0.865284 0.225328 0.500000
O O18 0.869200 0.500000 0.399123
O O19 0.933980 0.500000 0.000000
O O20 0.000000 0.243138 0.000000
#
# Coordination Sequence:
#
# PCOD9384480 Si02
#       7
#     8   8   8   8   8   8   4
#     4  10  20  32  46  67  97 129 159 196 244 298
#     4  11  20  30  48  73  98 126 162 201 243 293
#     4   9  14  23  38  58  88 122 155 194 235 280
#     4   9  19  36  54  71  97 134 168 198 240 291
#     4   9  15  23  37  62  92 120 147 184 236 283
#     4   9  16  27  44  65  89 121 159 195 241 299
#     4   9  16  24  38  62  93 131 168 199 234 282
#
# _framework density 18.893495999999999
#
# number of rings (size 3 to 8) (size 9 to 14) (size 15 to 20)
#    0.000    2.538    2.308    1.846    0.000    2.154 
#    0.000    0.769    0.000    0.923    0.000    6.462 
#    0.000    1.231    0.000    3.846    0.000    4.000 
#
# Total GULP energy -289677.531433 kJ/mol
# GULP energy per Si atom -5570.721758 kJ/mol
# Density = 1.885049 g / cm^3
# Si number density = 18.893496 Si / 1000 Ang^3
#
#
#
# Elastic Constant Matrix: (Units=GPa)
#
#
# Indices 1 2 3 4 5 6 
#
# 1 56.5801 -1.0993 53.3455 0.0000 0.0000 0.0000
# 2 -1.0993 24.7489 2.8780 0.0000 0.0000 0.0000
# 3 53.3455 2.8780 183.6250 0.0000 0.0000 0.0000
# 4 0.0000 0.0000 0.0000 7.4879 0.0000 0.0000
# 5 0.0000 0.0000 0.0000 0.0000 16.1062 0.0000
# 6 0.0000 0.0000 0.0000 0.0000 0.0000 20.4347
#
#
#
# Elastic Compliance Matrix: (Units=1/GPa)
#
#
# Indices 1 2 3 4 5 6 
#
# 1 0.024431 0.001914 -0.007128 0.000000 0.000000 0.000000
# 2 0.001914 0.040630 -0.001193 0.000000 0.000000 0.000000
# 3 -0.007128 -0.001193 0.007535 0.000000 0.000000 0.000000
# 4 0.000000 0.000000 0.000000 0.133548 0.000000 0.000000
# 5 0.000000 0.000000 0.000000 0.000000 0.062088 0.000000
# 6 0.000000 0.000000 0.000000 0.000000 0.000000 0.048936
#
#
# Mechanical properties :
#
#
# Convention : Reuss Voigt Hill
#
# Bulk Modulus (GPa) = 16.72710 41.68917 29.20813
# Shear Modulus (GPa) = 14.28942 22.79441 18.54192
#
# Velocity S-wave (km/s) = 2.75310 3.47719 3.13612
# Velocity P-wave (km/s) = 4.35645 6.18340 5.34851
#
# Compressibility (1/GPa) = 0.05978324
#
# Stress axis : x y z
#
# Youngs Moduli (GPa) = 40.93089 24.61264 132.70949
#
# Poissons Ratio (x) = -0.04711 0.94591
# Poissons Ratio (y) = -0.07834 0.15830
# Poissons Ratio (z) = 0.29174 0.02936
#
# Static dielectric constant tensor:
#      x y z
#    x 1.641920 0.000000 0.000000 
#    y 0.000000 1.700890 0.000000 
#    z 0.000000 0.000000 1.753310 
# 
# From -- ./inp_files/25399.got.cif
#   From: 2010.05.17/outbox.cif.g08.bks.cpg/sg47_13_cif.got.tgz:25399.got - 2010.06.03 20:15:42.
