data_PCOD9384825
_publ_section_title
;
Structure prediction by ZEFSAII (Michael W. Deem and Ramdas Pophale) SiO2 
 PCOD9384825
Probable space group: P M M M
;
_chemical_formula_sum "Si O2"
_cell_formula_units_Z 52
_cell_length_a 31.381974
_cell_length_b 10.403048
_cell_length_c 9.142127
_cell_angle_alpha 90.000000
_cell_angle_beta 90.000000
_cell_angle_gamma 90.000000
_cell_volume 2984.613580
_symmetry_space_group_name_H-M "P M M M"
_symmetry_group_IT_number 47
_symmetry_cell_setting 'orthorhombic'
loop_
_space_group_symop_operation_xyz
x,y,z
-x,-y,z
x,-y,-z
-x,y,-z
-x,-y,-z
x,y,-z
-x,y,z
x,-y,z
loop_
_atom_site_type_symbol
_atom_site_label
_atom_site_fract_x
_atom_site_fract_y
_atom_site_fract_z
Si Si1 0.199861 0.151368 0.675380
Si Si2 0.629746 0.851029 0.336782
Si Si3 0.047469 0.344359 0.668763
Si Si4 0.448869 0.500000 0.334095
Si Si5 0.711482 0.844136 0.833751
Si Si6 0.134412 0.347622 0.825196
Si Si7 0.549538 0.764937 0.825091
O O1 0.199320 0.162858 0.500000
O O2 0.246759 0.182402 0.738249
O O3 0.167107 0.251219 0.747264
O O4 0.190797 0.000000 0.711323
O O5 0.625729 0.794657 0.500000
O O6 0.668361 0.793652 0.242250
O O7 0.585092 0.849261 0.252353
O O8 0.641307 0.000000 0.354041
O O9 0.054996 0.304221 0.500000
O O10 0.046084 0.500000 0.668324
O O11 0.086976 0.310289 0.770680
O O12 0.000000 0.299917 0.713225
O O13 0.500000 0.500000 0.348206
O O14 0.431482 0.500000 0.500000
O O15 0.439270 0.625252 0.239817
O O16 0.708671 0.000000 0.842602
O O17 0.715746 0.796480 0.000000
O O18 0.141294 0.500000 0.787651
O O19 0.137710 0.336363 0.000000
O O20 0.500000 0.795019 0.788182
O O21 0.553110 0.768727 0.000000
#
# Coordination Sequence:
#
# PCOD9384825 Si02
#       7
#     8   8   8   4   8   8   8
#     4  10  20  34  54  78 102 132 173 216 257 307
#     4  10  20  33  50  73 101 131 163 199 240 290
#     4   8  14  26  45  69  98 134 175 215 255 303
#     4   9  17  31  51  71  91 119 157 197 235 279
#     4   9  17  31  52  75  98 126 161 201 245 293
#     4  10  20  32  49  76 108 140 173 212 261 311
#     4  10  20  33  50  72  98 128 162 200 242 288
#
# _framework density 17.422691
#
# number of rings (size 3 to 8) (size 9 to 14) (size 15 to 20)
#    0.000    2.538    0.000    3.000    0.000    7.077 
#    0.000    3.077    1.692    0.462    0.000    3.231 
#    0.000    0.000    0.000    0.000    0.000    0.000 
#
# Total GULP energy -289543.680454 kJ/mol
# GULP energy per Si atom -5568.147701 kJ/mol
# Density = 1.738304 g / cm^3
# Si number density = 17.422691 Si / 1000 Ang^3
#
#
#
# Elastic Constant Matrix: (Units=GPa)
#
#
# Indices 1 2 3 4 5 6 
#
# 1 131.1520 38.1462 77.4176 0.0000 0.0000 0.0000
# 2 38.1462 40.6191 34.4925 0.0000 0.0000 0.0000
# 3 77.4176 34.4925 115.9105 0.0000 0.0000 0.0000
# 4 0.0000 0.0000 0.0000 7.9434 0.0000 0.0000
# 5 0.0000 0.0000 0.0000 0.0000 27.5090 0.0000
# 6 0.0000 0.0000 0.0000 0.0000 0.0000 33.5292
#
#
#
# Elastic Compliance Matrix: (Units=1/GPa)
#
#
# Indices 1 2 3 4 5 6 
#
# 1 0.013903 -0.006920 -0.007227 0.000000 0.000000 0.000000
# 2 -0.006920 0.036388 -0.006206 0.000000 0.000000 0.000000
# 3 -0.007227 -0.006206 0.015301 0.000000 0.000000 0.000000
# 4 0.000000 0.000000 0.000000 0.125891 0.000000 0.000000
# 5 0.000000 0.000000 0.000000 0.000000 0.036352 0.000000
# 6 0.000000 0.000000 0.000000 0.000000 0.000000 0.029825
#
#
# Mechanical properties :
#
#
# Convention : Reuss Voigt Hill
#
# Bulk Modulus (GPa) = 40.18342 65.31047 52.74695
# Shear Modulus (GPa) = 16.30460 22.97135 19.63797
#
# Velocity S-wave (km/s) = 3.06244 3.63502 3.36095
# Velocity P-wave (km/s) = 5.96814 7.42866 6.73809
#
# Compressibility (1/GPa) = 0.02488588
#
# Stress axis : x y z
#
# Youngs Moduli (GPa) = 71.92438 27.48157 65.35450
#
# Poissons Ratio (x) = 0.19018 0.47232
# Poissons Ratio (y) = 0.49772 0.40561
# Poissons Ratio (z) = 0.51980 0.17056
#
# Static dielectric constant tensor:
#      x y z
#    x 1.590760 0.000000 0.000000 
#    y 0.000000 1.655420 0.000000 
#    z 0.000000 0.000000 1.604380 
# 
# From -- ./inp_files/13277.got.cif
#   From: 2010.05.17/outbox.cif.g08.bks.cpg/sg47_7_cif.got.tgz:13277.got - 2010.06.03 20:15:42.
