data_PCOD9384496
_publ_section_title
;
Structure prediction by ZEFSAII (Michael W. Deem and Ramdas Pophale) SiO2 
 PCOD9384496
Probable space group: P M M M
;
_chemical_formula_sum "Si O2"
_cell_formula_units_Z 52
_cell_length_a 8.891349
_cell_length_b 19.089809
_cell_length_c 14.254186
_cell_angle_alpha 90.000000
_cell_angle_beta 90.000000
_cell_angle_gamma 90.000000
_cell_volume 2419.422204
_symmetry_space_group_name_H-M "P M M M"
_symmetry_group_IT_number 47
_symmetry_cell_setting 'orthorhombic'
loop_
_space_group_symop_operation_xyz
x,y,z
-x,-y,z
x,-y,-z
-x,y,-z
-x,-y,-z
x,y,-z
-x,y,z
x,-y,z
loop_
_atom_site_type_symbol
_atom_site_label
_atom_site_fract_x
_atom_site_fract_y
_atom_site_fract_z
Si Si1 0.328259 0.422900 0.642805
Si Si2 0.677399 0.864878 0.390333
Si Si3 0.834878 0.278796 0.390270
Si Si4 0.820599 0.725059 0.897159
Si Si5 0.327593 0.575908 0.866898
Si Si6 0.181211 0.865003 0.804844
Si Si7 0.671848 0.916529 0.000000
O O1 0.500000 0.411296 0.609684
O O2 0.277920 0.500000 0.609044
O O3 0.224999 0.356646 0.624715
O O4 0.333285 0.426736 0.754843
O O5 0.725290 0.882958 0.500000
O O6 0.500000 0.878716 0.385658
O O7 0.714417 0.782561 0.375981
O O8 0.756765 0.894222 0.295094
O O9 0.857968 0.273717 0.500000
O O10 0.000000 0.266851 0.344332
O O11 0.756649 0.647175 0.890004
O O12 0.776173 0.782232 0.819992
O O13 0.000000 0.719989 0.894388
O O14 0.776363 0.753150 0.000000
O O15 0.500000 0.580661 0.899104
O O16 0.264532 0.500000 0.897344
O O17 0.000000 0.871001 0.804963
O O18 0.245812 0.897556 0.901459
O O19 0.500000 0.887815 0.000000
O O20 0.662701 0.000000 0.000000
#
# Coordination Sequence:
#
# PCOD9384496 Si02
#       7
#     8   8   8   8   8   8   4
#     4   9  18  32  47  62  85 123 175 237 306 379
#     4  10  21  37  59  89 125 165 209 258 312 370
#     4  10  20  32  46  69 102 139 184 242 308 374
#     4  10  21  36  52  77 113 150 194 248 308 371
#     4   9  19  34  49  68  96 134 186 246 305 366
#     4  11  22  40  66  96 133 172 214 265 318 375
#     4  11  25  45  71 105 142 179 218 255 301 366
#
# _framework density 21.492736000000001
#
# number of rings (size 3 to 8) (size 9 to 14) (size 15 to 20)
#    0.000    2.077    0.769    3.462    0.000    8.308 
#    0.000    4.615    0.000    0.462    0.000    3.231 
#    0.000    0.000    0.000    0.000    0.000    0.000 
#
# Total GULP energy -289605.640739 kJ/mol
# GULP energy per Si atom -5569.339245 kJ/mol
# Density = 2.144382 g / cm^3
# Si number density = 21.492736 Si / 1000 Ang^3
#
#
#
# Elastic Constant Matrix: (Units=GPa)
#
#
# Indices 1 2 3 4 5 6 
#
# 1 62.2606 8.7704 49.8973 0.0000 0.0000 0.0000
# 2 8.7704 33.0052 20.4656 0.0000 0.0000 0.0000
# 3 49.8973 20.4656 187.5094 0.0000 0.0000 0.0000
# 4 0.0000 0.0000 0.0000 -12.4482 0.0000 0.0000
# 5 0.0000 0.0000 0.0000 0.0000 37.3392 0.0000
# 6 0.0000 0.0000 0.0000 0.0000 0.0000 6.9319
#
#
#
# Elastic Compliance Matrix: (Units=1/GPa)
#
#
# Indices 1 2 3 4 5 6 
#
# 1 0.020566 -0.002222 -0.005230 0.000000 0.000000 0.000000
# 2 -0.002222 0.032738 -0.002982 0.000000 0.000000 0.000000
# 3 -0.005230 -0.002982 0.007050 0.000000 0.000000 0.000000
# 4 0.000000 0.000000 0.000000 -0.080333 0.000000 0.000000
# 5 0.000000 0.000000 0.000000 0.000000 0.026781 0.000000
# 6 0.000000 0.000000 0.000000 0.000000 0.000000 0.144261
#
#
# Mechanical properties :
#
#
# Convention : Reuss Voigt Hill
#
# Bulk Modulus (GPa) = 25.32532 49.00464 37.16498
# Shear Modulus (GPa) = 27.01329 19.94071 23.47700
#
# Velocity S-wave (km/s) = 3.54906 3.04927 3.30862
# Velocity P-wave (km/s) = 5.34820 5.93695 5.65025
#
# Compressibility (1/GPa) = 0.03948618
#
# Stress axis : x y z
#
# Youngs Moduli (GPa) = 48.62349 30.54586 141.83734
#
# Poissons Ratio (x) = 0.06787 0.74185
# Poissons Ratio (y) = 0.10803 0.42294
# Poissons Ratio (z) = 0.25431 0.09108
#
# Static dielectric constant tensor:
#      x y z
#    x 1.765140 0.000000 0.000000 
#    y 0.000000 1.860130 0.000000 
#    z 0.000000 0.000000 1.853880 
# 
# From -- ./inp_files/21479.got.cif
#   From: 2010.05.17/outbox.cif.g08.bks.cpg/sg47_11_cif.got.tgz:21479.got - 2010.06.03 20:15:42.
