data_PCOD9384620
_publ_section_title
;
Structure prediction by ZEFSAII (Michael W. Deem and Ramdas Pophale) SiO2 
 PCOD9384620
Probable space group: P M M M
;
_chemical_formula_sum "Si O2"
_cell_formula_units_Z 52
_cell_length_a 11.940824
_cell_length_b 9.250140
_cell_length_c 28.433190
_cell_angle_alpha 90.000000
_cell_angle_beta 90.000000
_cell_angle_gamma 90.000000
_cell_volume 3140.567920
_symmetry_space_group_name_H-M "P M M M"
_symmetry_group_IT_number 47
_symmetry_cell_setting 'orthorhombic'
loop_
_space_group_symop_operation_xyz
x,y,z
-x,-y,z
x,-y,-z
-x,y,-z
-x,-y,-z
x,y,-z
-x,y,z
x,-y,z
loop_
_atom_site_type_symbol
_atom_site_label
_atom_site_fract_x
_atom_site_fract_y
_atom_site_fract_z
Si Si1 0.131772 0.672426 0.280034
Si Si2 0.135022 0.830744 0.904981
Si Si3 0.500000 0.326866 0.204207
Si Si4 0.136215 0.333209 0.000000
Si Si5 0.368728 0.673089 0.554684
Si Si6 0.500000 0.166102 0.698549
Si Si7 0.270393 0.170097 0.358875
Si Si8 0.747782 0.674549 0.818376
O O1 0.146564 0.500000 0.286976
O O2 0.180070 0.755346 0.325028
O O3 0.199444 0.711947 0.232581
O O4 0.000000 0.700956 0.273240
O O5 0.187012 0.752903 0.859925
O O6 0.000000 0.820701 0.902168
O O7 0.164497 0.000000 0.906570
O O8 0.171001 0.750110 0.952820
O O9 0.500000 0.500000 0.205222
O O10 0.500000 0.270402 0.257273
O O11 0.617103 0.282263 0.181037
O O12 0.173115 0.500000 0.000000
O O13 0.000000 0.333501 0.000000
O O14 0.344385 0.705184 0.500000
O O15 0.500000 0.711869 0.562956
O O16 0.359882 0.500000 0.561196
O O17 0.289091 0.754332 0.591003
O O18 0.610647 0.187784 0.667782
O O19 0.500000 0.000000 0.715473
O O20 0.247843 0.000000 0.364059
O O21 0.756907 0.500000 0.823487
#
# Coordination Sequence:
#
# PCOD9384620 Si02
#       8
#     8   8   4   4   8   4   8   8
#     4  10  21  36  54  76 102 136 178 218 255 302
#     4  10  20  33  51  77 108 140 173 211 257 307
#     4  10  20  34  54  76 100 134 176 217 254 298
#     4   9  17  31  53  78 103 134 173 217 261 303
#     4   9  18  32  51  76 104 134 169 209 254 304
#     4  10  20  32  47  73 105 136 170 206 251 306
#     4  11  21  33  51  76 107 139 169 208 258 310
#     4  10  20  34  53  77 104 135 172 213 257 304
#
# _framework density 16.557514999999999
#
# number of rings (size 3 to 8) (size 9 to 14) (size 15 to 20)
#    0.000    2.077    2.308    2.077    0.000    4.923 
#    0.000    0.769    0.000    0.923    0.000    6.462 
#    0.000    0.000    0.000    0.000    0.000    0.000 
#
# Total GULP energy -290105.936919 kJ/mol
# GULP energy per Si atom -5578.960325 kJ/mol
# Density = 1.651983 g / cm^3
# Si number density = 16.557515 Si / 1000 Ang^3
#
#
#
# Elastic Constant Matrix: (Units=GPa)
#
#
# Indices 1 2 3 4 5 6 
#
# 1 67.0822 40.7962 42.2401 0.0000 0.0000 0.0000
# 2 40.7962 61.7372 68.1919 0.0000 0.0000 0.0000
# 3 42.2401 68.1919 135.1078 0.0000 0.0000 0.0000
# 4 0.0000 0.0000 0.0000 -18.0640 0.0000 0.0000
# 5 0.0000 0.0000 0.0000 0.0000 15.4023 0.0000
# 6 0.0000 0.0000 0.0000 0.0000 0.0000 20.0532
#
#
#
# Elastic Compliance Matrix: (Units=1/GPa)
#
#
# Indices 1 2 3 4 5 6 
#
# 1 0.025006 -0.017827 0.001180 0.000000 0.000000 0.000000
# 2 -0.017827 0.049314 -0.019316 0.000000 0.000000 0.000000
# 3 0.001180 -0.019316 0.016782 0.000000 0.000000 0.000000
# 4 0.000000 0.000000 0.000000 -0.055359 0.000000 0.000000
# 5 0.000000 0.000000 0.000000 0.000000 0.064925 0.000000
# 6 0.000000 0.000000 0.000000 0.000000 0.000000 0.049867
#
#
# Mechanical properties :
#
#
# Convention : Reuss Voigt Hill
#
# Bulk Modulus (GPa) = 52.15274 62.93153 57.54214
# Shear Modulus (GPa) = 21.84793 10.99156 16.41975
#
# Velocity S-wave (km/s) = 3.63646 2.57931 3.15251
# Velocity P-wave (km/s) = 7.01413 6.85279 6.93393
#
# Compressibility (1/GPa) = 0.01917445
#
# Stress axis : x y z
#
# Youngs Moduli (GPa) = 39.99068 20.27820 59.58790
#
# Poissons Ratio (x) = 0.36151 -0.07032
# Poissons Ratio (y) = 0.71293 1.15102
# Poissons Ratio (z) = -0.04719 0.39170
#
# Static dielectric constant tensor:
#      x y z
#    x 1.551900 0.000000 0.000000 
#    y 0.000000 1.550280 0.000000 
#    z 0.000000 0.000000 1.531570 
# 
# From -- ./inp_files/19911.got.cif
#   From: 2010.05.17/outbox.cif.g08.bks.cpg/sg47_10_cif.got.tgz:19911.got - 2010.06.03 20:15:42.
