data_PCOD9384769
_publ_section_title
;
Structure prediction by ZEFSAII (Michael W. Deem and Ramdas Pophale) SiO2 
 PCOD9384769
Probable space group: P M M M
;
_chemical_formula_sum "Si O2"
_cell_formula_units_Z 64
_cell_length_a 14.798208
_cell_length_b 29.845660
_cell_length_c 8.790384
_cell_angle_alpha 90.000000
_cell_angle_beta 90.000000
_cell_angle_gamma 90.000000
_cell_volume 3882.381080
_symmetry_space_group_name_H-M "P M M M"
_symmetry_group_IT_number 47
_symmetry_cell_setting 'orthorhombic'
loop_
_space_group_symop_operation_xyz
x,y,z
-x,-y,z
x,-y,-z
-x,y,-z
-x,-y,-z
x,y,-z
-x,y,z
x,-y,z
loop_
_atom_site_type_symbol
_atom_site_label
_atom_site_fract_x
_atom_site_fract_y
_atom_site_fract_z
Si Si1 0.227090 0.049495 0.816398
Si Si2 0.395759 0.092755 0.318199
Si Si3 0.390781 0.548912 0.820610
Si Si4 0.894603 0.766706 0.183492
Si Si5 0.104022 0.868499 0.814988
Si Si6 0.607609 0.190152 0.179175
Si Si7 0.395300 0.357342 0.683032
Si Si8 0.279585 0.271728 0.317530
O O1 0.326841 0.057934 0.753675
O O2 0.166115 0.090946 0.760928
O O3 0.193791 0.000000 0.772385
O O4 0.228765 0.051323 0.000000
O O5 0.388017 0.093082 0.500000
O O6 0.500000 0.083486 0.277630
O O7 0.372983 0.142056 0.253559
O O8 0.500000 0.548306 0.805815
O O9 0.358320 0.500000 0.764424
O O10 0.361487 0.594203 0.738636
O O11 0.370511 0.551898 0.000000
O O12 0.870406 0.817951 0.231200
O O13 0.821865 0.733741 0.255848
O O14 0.000000 0.758967 0.223486
O O15 0.888252 0.764680 0.000000
O O16 0.000000 0.875829 0.770691
O O17 0.106849 0.868564 0.000000
O O18 0.500000 0.198438 0.196578
O O19 0.663501 0.229626 0.255775
O O20 0.629011 0.187986 0.000000
O O21 0.397000 0.357372 0.500000
O O22 0.500000 0.350747 0.734923
O O23 0.331273 0.316801 0.733580
O O24 0.279017 0.270858 0.500000
#
# Coordination Sequence:
#
# PCOD9384769 Si02
#       8
#     8   8   8   8   8   8   8   8
#     4  10  20  32  49  74  98 119 146 181 221 268
#     4  10  21  36  52  68  88 118 155 192 229 269
#     4   8  14  25  41  61  86 119 161 206 245 278
#     4   9  18  33  52  71  91 120 160 201 237 278
#     4   8  15  30  51  72  93 116 143 178 220 267
#     4  10  20  33  50  71  94 122 156 192 231 277
#     4   9  18  30  42  61  93 131 167 200 234 275
#     4  11  21  31  46  69  99 131 160 194 236 281
#
# _framework density 16.484728
#
# number of rings (size 3 to 8) (size 9 to 14) (size 15 to 20)
#    0.000    2.625    0.000    3.375    0.000    5.250 
#    0.000    5.000    0.000    1.125    0.000    0.875 
#    0.000    0.500    0.000    5.500    0.000    4.250 
#
# Total GULP energy -356836.761582 kJ/mol
# GULP energy per Si atom -5575.574400 kJ/mol
# Density = 1.644721 g / cm^3
# Si number density = 16.484728 Si / 1000 Ang^3
#
#
#
# Elastic Constant Matrix: (Units=GPa)
#
#
# Indices 1 2 3 4 5 6 
#
# 1 65.2570 61.5581 18.9604 0.0000 0.0000 0.0000
# 2 61.5581 99.7853 19.2293 0.0000 0.0000 0.0000
# 3 18.9604 19.2293 11.6550 0.0000 0.0000 0.0000
# 4 0.0000 0.0000 0.0000 21.5822 0.0000 0.0000
# 5 0.0000 0.0000 0.0000 0.0000 18.8617 0.0000
# 6 0.0000 0.0000 0.0000 0.0000 0.0000 17.9124
#
#
#
# Elastic Compliance Matrix: (Units=1/GPa)
#
#
# Indices 1 2 3 4 5 6 
#
# 1 0.047746 -0.021240 -0.042631 0.000000 0.000000 0.000000
# 2 -0.021240 0.024141 -0.005278 0.000000 0.000000 0.000000
# 3 -0.042631 -0.005278 0.163860 0.000000 0.000000 0.000000
# 4 0.000000 0.000000 0.000000 0.046334 0.000000 0.000000
# 5 0.000000 0.000000 0.000000 0.000000 0.053018 0.000000
# 6 0.000000 0.000000 0.000000 0.000000 0.000000 0.055827
#
#
# Mechanical properties :
#
#
# Convention : Reuss Voigt Hill
#
# Bulk Modulus (GPa) = 10.26156 41.79922 26.03039
# Shear Modulus (GPa) = 8.90144 16.80121 12.85133
#
# Velocity S-wave (km/s) = 2.32627 3.19595 2.79514
# Velocity P-wave (km/s) = 3.66794 6.24741 5.12269
#
# Compressibility (1/GPa) = 0.09745107
#
# Stress axis : x y z
#
# Youngs Moduli (GPa) = 20.94412 41.42255 6.10278
#
# Poissons Ratio (x) = 0.87980 0.26017
# Poissons Ratio (y) = 0.44484 0.03221
# Poissons Ratio (z) = 0.89286 0.21862
#
# Static dielectric constant tensor:
#      x y z
#    x 1.556260 0.000000 0.000000 
#    y 0.000000 1.562120 0.000000 
#    z 0.000000 0.000000 1.554000 
# 
# From -- ./inp_files/7923.got.cif
#   From: 2010.05.17/outbox.cif.g08.bks.cpg/sg47_4_cif.got.tgz:7923.got - 2010.06.03 20:15:42.
