data_PCOD9384438
_publ_section_title
;
Structure prediction by ZEFSAII (Michael W. Deem and Ramdas Pophale) SiO2 
 PCOD9384438
Probable space group: P M M M
;
_chemical_formula_sum "Si O2"
_cell_formula_units_Z 64
_cell_length_a 29.561338
_cell_length_b 7.967399
_cell_length_c 15.247946
_cell_angle_alpha 90.000000
_cell_angle_beta 90.000000
_cell_angle_gamma 90.000000
_cell_volume 3591.302594
_symmetry_space_group_name_H-M "P M M M"
_symmetry_group_IT_number 47
_symmetry_cell_setting 'orthorhombic'
loop_
_space_group_symop_operation_xyz
x,y,z
-x,-y,z
x,-y,-z
-x,y,-z
-x,-y,-z
x,y,-z
-x,y,z
x,-y,z
loop_
_atom_site_type_symbol
_atom_site_label
_atom_site_fract_x
_atom_site_fract_y
_atom_site_fract_z
Si Si1 0.083203 0.697687 0.596718
Si Si2 0.868265 0.201941 0.900873
Si Si3 0.352206 0.705825 0.397939
Si Si4 0.049069 0.297576 0.778501
Si Si5 0.548604 0.699576 0.394030
Si Si6 0.815042 0.801543 0.599002
Si Si7 0.234177 0.797472 0.900226
Si Si8 0.268245 0.699551 0.281908
O O1 0.074568 0.771197 0.500000
O O2 0.072409 0.500000 0.592040
O O3 0.056928 0.768173 0.679830
O O4 0.136842 0.714743 0.614995
O O5 0.907953 0.252022 0.836435
O O6 0.817335 0.260527 0.879046
O O7 0.866323 0.000000 0.901282
O O8 0.878278 0.259093 0.000000
O O9 0.344842 0.754689 0.500000
O O10 0.353071 0.500000 0.397530
O O11 0.402081 0.764770 0.367132
O O12 0.312006 0.763641 0.334911
O O13 0.048217 0.500000 0.774821
O O14 0.000000 0.240266 0.812291
O O15 0.548862 0.713576 0.500000
O O16 0.500000 0.770090 0.363212
O O17 0.548079 0.500000 0.374360
O O18 0.799796 0.753701 0.500000
O O19 0.776742 0.763068 0.669245
O O20 0.823780 0.000000 0.600056
O O21 0.265864 0.743480 0.820596
O O22 0.233773 0.000000 0.901541
O O23 0.245073 0.741791 0.000000
O O24 0.268372 0.500000 0.290036
#
# Coordination Sequence:
#
# PCOD9384438 Si02
#       8
#     8   8   8   8   8   8   8   8
#     4   9  18  33  51  68  87 114 148 182 214 250
#     4   9  19  36  55  71  86 108 139 173 211 256
#     4   8  14  23  34  54  88 125 155 183 218 259
#     4  10  21  34  48  70  96 117 138 167 207 254
#     4   7   9  15  29  48  73 111 156 192 218 249
#     4  10  20  32  46  65  90 120 153 186 217 253
#     4   9  19  36  54  69  87 113 146 184 223 263
#     4  11  20  28  43  67  95 123 148 179 222 270
#
# _framework density 17.820830999999998
#
# number of rings (size 3 to 8) (size 9 to 14) (size 15 to 20)
#    0.000    2.875    0.000    3.750    0.000    5.500 
#    0.000    3.750    0.000    0.000    0.000    2.625 
#    0.000    2.500    0.000   20.375    0.000   12.750 
#
# Total GULP energy -356626.586864 kJ/mol
# GULP energy per Si atom -5572.290420 kJ/mol
# Density = 1.778027 g / cm^3
# Si number density = 17.820831 Si / 1000 Ang^3
#
#
#
# Elastic Constant Matrix: (Units=GPa)
#
#
# Indices 1 2 3 4 5 6 
#
# 1 68.1643 -1.3186 54.0185 0.0000 0.0000 0.0000
# 2 -1.3186 15.1650 3.0021 0.0000 0.0000 0.0000
# 3 54.0185 3.0021 83.0695 0.0000 0.0000 0.0000
# 4 0.0000 0.0000 0.0000 37.9930 0.0000 0.0000
# 5 0.0000 0.0000 0.0000 0.0000 10.4939 0.0000
# 6 0.0000 0.0000 0.0000 0.0000 0.0000 -33.3289
#
#
#
# Elastic Compliance Matrix: (Units=1/GPa)
#
#
# Indices 1 2 3 4 5 6 
#
# 1 0.030934 0.006720 -0.020359 0.000000 0.000000 0.000000
# 2 0.006720 0.067876 -0.006823 0.000000 0.000000 0.000000
# 3 -0.020359 -0.006823 0.025524 0.000000 0.000000 0.000000
# 4 0.000000 0.000000 0.000000 0.026321 0.000000 0.000000
# 5 0.000000 0.000000 0.000000 0.000000 0.095293 0.000000
# 6 0.000000 0.000000 0.000000 0.000000 0.000000 -0.030004
#
#
# Mechanical properties :
#
#
# Convention : Reuss Voigt Hill
#
# Bulk Modulus (GPa) = 11.98888 30.86698 21.42793
# Shear Modulus (GPa) = 17.56415 10.41140 13.98778
#
# Velocity S-wave (km/s) = 3.14283 2.41970 2.80467
# Velocity P-wave (km/s) = 4.46227 5.01647 4.74746
#
# Compressibility (1/GPa) = 0.08341060
#
# Stress axis : x y z
#
# Youngs Moduli (GPa) = 32.32660 14.73271 39.17940
#
# Poissons Ratio (x) = -0.09900 0.79765
# Poissons Ratio (y) = -0.21724 0.26732
# Poissons Ratio (z) = 0.65813 0.10052
#
# Static dielectric constant tensor:
#      x y z
#    x 1.634950 0.000000 0.000000 
#    y 0.000000 1.654080 0.000000 
#    z 0.000000 0.000000 1.619320 
# 
# From -- ./inp_files/25867.got.cif
#   From: 2010.05.17/outbox.cif.g08.bks.cpg/sg47_13_cif.got.tgz:25867.got - 2010.06.03 20:15:42.
