data_PCOD9384316
_publ_section_title
;
Structure prediction by ZEFSAII (Michael W. Deem and Ramdas Pophale) SiO2 
 PCOD9384316
Probable space group: P M M M
;
_chemical_formula_sum "Si O2"
_cell_formula_units_Z 64
_cell_length_a 8.680462
_cell_length_b 15.533590
_cell_length_c 24.642705
_cell_angle_alpha 90.000000
_cell_angle_beta 90.000000
_cell_angle_gamma 90.000000
_cell_volume 3322.791236
_symmetry_space_group_name_H-M "P M M M"
_symmetry_group_IT_number 47
_symmetry_cell_setting 'orthorhombic'
loop_
_space_group_symop_operation_xyz
x,y,z
-x,-y,z
x,-y,-z
-x,y,-z
-x,-y,-z
x,y,-z
-x,y,z
x,-y,z
loop_
_atom_site_type_symbol
_atom_site_label
_atom_site_fract_x
_atom_site_fract_y
_atom_site_fract_z
Si Si1 0.686205 0.226681 0.560566
Si Si2 0.314689 0.400922 0.736319
Si Si3 0.185419 0.099398 0.349222
Si Si4 0.187285 0.902208 0.224563
Si Si5 0.679861 0.273957 0.938675
Si Si6 0.183419 0.724496 0.826720
Si Si7 0.687582 0.596516 0.611141
Si Si8 0.826332 0.905312 0.064832
O O1 0.736913 0.201688 0.500000
O O2 0.500000 0.225775 0.561536
O O3 0.744780 0.163432 0.607107
O O4 0.737229 0.324193 0.574231
O O5 0.500000 0.393514 0.738598
O O6 0.274454 0.500000 0.749432
O O7 0.242603 0.335266 0.778367
O O8 0.267924 0.385663 0.673735
O O9 0.232622 0.117824 0.286911
O O10 0.000000 0.105502 0.351044
O O11 0.227504 0.000000 0.360722
O O12 0.236081 0.823004 0.186621
O O13 0.000000 0.904561 0.223428
O O14 0.239323 0.000000 0.211877
O O15 0.500000 0.293998 0.937823
O O16 0.760035 0.310345 0.885050
O O17 0.708655 0.172015 0.929781
O O18 0.739256 0.294353 0.000000
O O19 0.000000 0.724734 0.826622
O O20 0.500000 0.594650 0.610034
O O21 0.739577 0.500000 0.596136
O O22 0.000000 0.883418 0.085382
O O23 0.784830 0.000000 0.086019
O O24 0.840838 0.913256 0.000000
#
# Coordination Sequence:
#
# PCOD9384316 Si02
#       8
#     8   8   8   8   8   8   8   8
#     4  10  20  31  46  73 106 137 171 214 259 298
#     4   9  18  34  56  79 103 132 165 204 253 308
#     4   9  18  34  54  71  92 130 177 219 258 303
#     4   8  16  32  52  75 102 131 167 211 258 306
#     4  10  21  35  49  67  96 135 174 208 244 293
#     4  11  21  32  53  81 105 131 163 207 260 307
#     4   8  15  30  52  76 102 134 170 205 246 302
#     4   8  14  26  44  64  87 119 161 206 247 286
#
# _framework density 19.260915000000001
#
# number of rings (size 3 to 8) (size 9 to 14) (size 15 to 20)
#    0.000    2.875    0.000    3.375    0.000    2.750 
#    0.000    5.625    0.000    4.125    0.000    3.500 
#    0.000    0.000    0.000    0.000    0.000    0.000 
#
# Total GULP energy -356653.830617 kJ/mol
# GULP energy per Si atom -5572.716103 kJ/mol
# Density = 1.921708 g / cm^3
# Si number density = 19.260915 Si / 1000 Ang^3
#
#
#
# Elastic Constant Matrix: (Units=GPa)
#
#
# Indices 1 2 3 4 5 6 
#
# 1 9.9467 11.4605 16.2950 0.0000 0.0000 0.0000
# 2 11.4605 47.8162 47.8125 0.0000 0.0000 0.0000
# 3 16.2950 47.8125 123.4616 0.0000 0.0000 0.0000
# 4 0.0000 0.0000 0.0000 1.3326 0.0000 0.0000
# 5 0.0000 0.0000 0.0000 0.0000 17.5065 0.0000
# 6 0.0000 0.0000 0.0000 0.0000 0.0000 18.6508
#
#
#
# Elastic Compliance Matrix: (Units=1/GPa)
#
#
# Indices 1 2 3 4 5 6 
#
# 1 0.145122 -0.025508 -0.009276 0.000000 0.000000 0.000000
# 2 -0.025508 0.038613 -0.011587 0.000000 0.000000 0.000000
# 3 -0.009276 -0.011587 0.013811 0.000000 0.000000 0.000000
# 4 0.000000 0.000000 0.000000 0.750429 0.000000 0.000000
# 5 0.000000 0.000000 0.000000 0.000000 0.057122 0.000000
# 6 0.000000 0.000000 0.000000 0.000000 0.000000 0.053617
#
#
# Mechanical properties :
#
#
# Convention : Reuss Voigt Hill
#
# Bulk Modulus (GPa) = 9.54147 36.92895 23.23521
# Shear Modulus (GPa) = 4.21447 14.54175 9.37811
#
# Velocity S-wave (km/s) = 1.48083 2.75068 2.20897
# Velocity P-wave (km/s) = 2.80862 5.41322 4.31227
#
# Compressibility (1/GPa) = 0.10480569
#
# Stress axis : x y z
#
# Youngs Moduli (GPa) = 6.89077 25.89800 72.40535
#
# Poissons Ratio (x) = 0.66060 0.67160
# Poissons Ratio (y) = 0.17577 0.83895
# Poissons Ratio (z) = 0.06392 0.30008
#
# Static dielectric constant tensor:
#      x y z
#    x 1.666070 0.000000 0.000000 
#    y 0.000000 1.688500 0.000000 
#    z 0.000000 0.000000 1.701060 
# 
# From -- ./inp_files/32154.got.cif
#   From: 2010.05.17/outbox.cif.g08.bks.cpg/sg47_17_cif.got.tgz:32154.got - 2010.06.03 20:15:42.
