data_PCOD9384176
_publ_section_title
;
Structure prediction by ZEFSAII (Michael W. Deem and Ramdas Pophale) SiO2 
 PCOD9384176
Probable space group: P M M M
;
_chemical_formula_sum "Si O2"
_cell_formula_units_Z 64
_cell_length_a 14.631743
_cell_length_b 32.059403
_cell_length_c 8.832321
_cell_angle_alpha 90.000000
_cell_angle_beta 90.000000
_cell_angle_gamma 90.000000
_cell_volume 4143.108814
_symmetry_space_group_name_H-M "P M M M"
_symmetry_group_IT_number 47
_symmetry_cell_setting 'orthorhombic'
loop_
_space_group_symop_operation_xyz
x,y,z
-x,-y,z
x,-y,-z
-x,y,-z
-x,-y,-z
x,y,-z
-x,y,z
x,-y,z
loop_
_atom_site_type_symbol
_atom_site_label
_atom_site_fract_x
_atom_site_fract_y
_atom_site_fract_z
Si Si1 0.215286 0.372052 0.681988
Si Si2 0.892460 0.132694 0.819525
Si Si3 0.108243 0.706772 0.181123
Si Si4 0.395651 0.659665 0.180591
Si Si5 0.602735 0.248441 0.318608
Si Si6 0.894525 0.546745 0.315801
Si Si7 0.206013 0.787903 0.681294
Si Si8 0.110671 0.954125 0.677742
O O1 0.212731 0.369814 0.500000
O O2 0.158499 0.333161 0.748198
O O3 0.318495 0.367440 0.739432
O O4 0.169100 0.415329 0.733087
O O5 0.835446 0.169503 0.744066
O O6 0.859979 0.086929 0.766788
O O7 0.000000 0.137086 0.776264
O O8 0.887076 0.135951 0.000000
O O9 0.151705 0.748710 0.249192
O O10 0.000000 0.705314 0.213400
O O11 0.120885 0.706707 0.000000
O O12 0.500000 0.647499 0.217830
O O13 0.383726 0.707302 0.236665
O O14 0.384194 0.658222 0.000000
O O15 0.606644 0.255855 0.500000
O O16 0.500000 0.233275 0.282554
O O17 0.686971 0.218602 0.279761
O O18 0.893605 0.546660 0.500000
O O19 0.867559 0.500000 0.266647
O O20 0.000000 0.553904 0.270102
O O21 0.196973 0.786847 0.500000
O O22 0.133446 0.949930 0.500000
O O23 0.000000 0.954870 0.687884
O O24 0.142718 0.000000 0.730676
#
# Coordination Sequence:
#
# PCOD9384176 Si02
#       8
#     8   8   8   8   8   8   8   8
#     4  11  20  31  51  76  97 121 155 195 237 280
#     4  10  20  31  43  62  92 130 165 197 235 279
#     4  11  23  35  46  64  95 131 161 192 229 272
#     4  10  20  33  50  71  95 124 156 191 234 283
#     4   9  18  33  51  70  91 116 152 198 243 283
#     4   8  15  29  49  73  99 124 152 190 234 278
#     4  11  21  32  48  68  91 124 160 196 236 279
#     4   8  14  26  44  64  86 115 155 202 244 280
#
# _framework density 15.447336999999999
#
# number of rings (size 3 to 8) (size 9 to 14) (size 15 to 20)
#    0.000    2.250    1.250    3.375    0.000    5.250 
#    0.000    1.250    0.000    1.875    0.000    7.000 
#    0.000    0.500    0.000    5.750    0.000    1.875 
#
# Total GULP energy -356888.555799 kJ/mol
# GULP energy per Si atom -5576.383684 kJ/mol
# Density = 1.541218 g / cm^3
# Si number density = 15.447337 Si / 1000 Ang^3
#
#
#
# Elastic Constant Matrix: (Units=GPa)
#
#
# Indices 1 2 3 4 5 6 
#
# 1 105.8341 78.5760 45.2554 0.0000 0.0000 0.0000
# 2 78.5760 137.6540 43.4656 0.0000 0.0000 0.0000
# 3 45.2554 43.4656 39.0931 0.0000 0.0000 0.0000
# 4 0.0000 0.0000 0.0000 -25.5149 0.0000 0.0000
# 5 0.0000 0.0000 0.0000 0.0000 20.8801 0.0000
# 6 0.0000 0.0000 0.0000 0.0000 0.0000 7.2791
#
#
#
# Elastic Compliance Matrix: (Units=1/GPa)
#
#
# Indices 1 2 3 4 5 6 
#
# 1 0.022469 -0.007108 -0.018108 0.000000 0.000000 0.000000
# 2 -0.007108 0.013444 -0.006718 0.000000 0.000000 0.000000
# 3 -0.018108 -0.006718 0.054012 0.000000 0.000000 0.000000
# 4 0.000000 0.000000 0.000000 -0.039193 0.000000 0.000000
# 5 0.000000 0.000000 0.000000 0.000000 0.047892 0.000000
# 6 0.000000 0.000000 0.000000 0.000000 0.000000 0.137379
#
#
# Mechanical properties :
#
#
# Convention : Reuss Voigt Hill
#
# Bulk Modulus (GPa) = 38.37923 68.57502 53.47712
# Shear Modulus (GPa) = 16.20444 8.21449 12.20946
#
# Velocity S-wave (km/s) = 3.24236 2.30852 2.81444
# Velocity P-wave (km/s) = 6.23830 7.18296 6.72723
#
# Compressibility (1/GPa) = 0.02605576
#
# Stress axis : x y z
#
# Youngs Moduli (GPa) = 44.50524 74.38503 18.51442
#
# Poissons Ratio (x) = 0.52875 0.33526
# Poissons Ratio (y) = 0.31635 0.12439
# Poissons Ratio (z) = 0.80589 0.49975
#
# Static dielectric constant tensor:
#      x y z
#    x 1.515630 0.000000 0.000000 
#    y 0.000000 1.500510 0.000000 
#    z 0.000000 0.000000 1.517140 
# 
# From -- ./inp_files/8350.got.cif
#   From: 2010.05.17/outbox.cif.g08.bks.cpg/sg47_5_cif.got.tgz:8350.got - 2010.06.03 20:15:42.
