data_PCOD9384592
_publ_section_title
;
Structure prediction by ZEFSAII (Michael W. Deem and Ramdas Pophale) SiO2 
 PCOD9384592
Probable space group: P M M M
;
_chemical_formula_sum "Si O2"
_cell_formula_units_Z 44
_cell_length_a 7.418490
_cell_length_b 9.598606
_cell_length_c 30.702852
_cell_angle_alpha 90.000000
_cell_angle_beta 90.000000
_cell_angle_gamma 90.000000
_cell_volume 2186.262975
_symmetry_space_group_name_H-M "P M M M"
_symmetry_group_IT_number 47
_symmetry_cell_setting 'orthorhombic'
loop_
_space_group_symop_operation_xyz
x,y,z
-x,-y,z
x,-y,-z
-x,y,-z
-x,-y,-z
x,y,-z
-x,y,z
x,-y,z
loop_
_atom_site_type_symbol
_atom_site_label
_atom_site_fract_x
_atom_site_fract_y
_atom_site_fract_z
Si Si1 0.284222 0.842751 0.214606
Si Si2 0.280486 0.658689 0.705423
Si Si3 0.285075 0.335251 0.605534
Si Si4 0.219777 0.160079 0.049245
Si Si5 0.000000 0.835178 0.448087
Si Si6 0.215785 0.342586 0.129788
O O1 0.500000 0.851594 0.219186
O O2 0.216437 0.764447 0.257792
O O3 0.250014 0.749544 0.172315
O O4 0.214672 0.000000 0.209751
O O5 0.500000 0.657819 0.706118
O O6 0.223040 0.500000 0.715027
O O7 0.231125 0.693730 0.655795
O O8 0.500000 0.313365 0.601454
O O9 0.250530 0.500000 0.597870
O O10 0.171981 0.239982 0.573385
O O11 0.283576 0.263108 0.086805
O O12 0.000000 0.161360 0.049590
O O13 0.273743 0.000000 0.058013
O O14 0.275191 0.196958 0.000000
O O15 0.000000 0.816432 0.500000
O O16 0.000000 0.000000 0.438706
O O17 0.285270 0.500000 0.134263
O O18 0.000000 0.351360 0.125187
#
# Coordination Sequence:
#
# PCOD9384592 Si02
#       6
#     8   8   8   8   4   8
#     4  10  20  33  51  75 102 135 173 210 255 313
#     4   8  15  31  55  80 105 134 172 218 266 317
#     4   9  19  38  64  90 115 150 197 246 295 346
#     4   8  14  26  45  67  91 122 159 201 253 309
#     4  11  25  41  57  85 125 163 199 241 292 349
#     4  10  20  32  47  70  99 130 166 208 254 304
#
# _framework density 20.125665000000001
#
# number of rings (size 3 to 8) (size 9 to 14) (size 15 to 20)
#    0.000    2.818    0.000    3.000    0.000    4.727 
#    1.636    5.455    0.000    0.545    0.000    3.818 
#    0.000    0.000    0.000    0.000    0.000    0.000 
#
# Total GULP energy -245682.296467 kJ/mol
# GULP energy per Si atom -5583.688556 kJ/mol
# Density = 2.007986 g / cm^3
# Si number density = 20.125665 Si / 1000 Ang^3
#
#
#
# Elastic Constant Matrix: (Units=GPa)
#
#
# Indices 1 2 3 4 5 6 
#
# 1 75.5057 38.1256 34.6072 0.0000 0.0000 0.0000
# 2 38.1256 184.2891 144.0560 0.0000 0.0000 0.0000
# 3 34.6072 144.0560 170.7793 0.0000 0.0000 0.0000
# 4 0.0000 0.0000 0.0000 43.4500 0.0000 0.0000
# 5 0.0000 0.0000 0.0000 0.0000 22.8722 0.0000
# 6 0.0000 0.0000 0.0000 0.0000 0.0000 14.4871
#
#
#
# Elastic Compliance Matrix: (Units=1/GPa)
#
#
# Indices 1 2 3 4 5 6 
#
# 1 0.014876 -0.002117 -0.001229 0.000000 0.000000 0.000000
# 2 -0.002117 0.016231 -0.013262 0.000000 0.000000 0.000000
# 3 -0.001229 -0.013262 0.017292 0.000000 0.000000 0.000000
# 4 0.000000 0.000000 0.000000 0.023015 0.000000 0.000000
# 5 0.000000 0.000000 0.000000 0.000000 0.043721 0.000000
# 6 0.000000 0.000000 0.000000 0.000000 0.000000 0.069027
#
#
# Mechanical properties :
#
#
# Convention : Reuss Voigt Hill
#
# Bulk Modulus (GPa) = 65.86482 96.01688 80.94085
# Shear Modulus (GPa) = 22.47803 30.41423 26.44613
#
# Velocity S-wave (km/s) = 3.34561 3.89165 3.62892
# Velocity P-wave (km/s) = 6.90811 8.24655 7.60682
#
# Compressibility (1/GPa) = 0.01518261
#
# Stress axis : x y z
#
# Youngs Moduli (GPa) = 67.22145 61.60959 57.83150
#
# Poissons Ratio (x) = 0.13043 0.07106
# Poissons Ratio (y) = 0.14231 0.76698
# Poissons Ratio (z) = 0.08260 0.81709
#
# Static dielectric constant tensor:
#      x y z
#    x 1.739980 0.000000 0.000000 
#    y 0.000000 1.721890 0.000000 
#    z 0.000000 0.000000 1.674910 
# 
# From -- ./inp_files/33927.got.cif
#   From: 2010.05.17/outbox.cif.g08.bks.cpg/sg47_17_cif.got.tgz:33927.got - 2010.06.03 20:15:42.
