data_PCOD9384904
_publ_section_title
;
Structure prediction by ZEFSAII (Michael W. Deem and Ramdas Pophale) SiO2 
 PCOD9384904
Probable space group: P M M M
;
_chemical_formula_sum "Si O2"
_cell_formula_units_Z 52
_cell_length_a 15.793720
_cell_length_b 24.279611
_cell_length_c 7.625524
_cell_angle_alpha 90.000000
_cell_angle_beta 90.000000
_cell_angle_gamma 90.000000
_cell_volume 2924.124442
_symmetry_space_group_name_H-M "P M M M"
_symmetry_group_IT_number 47
_symmetry_cell_setting 'orthorhombic'
loop_
_space_group_symop_operation_xyz
x,y,z
-x,-y,z
x,-y,-z
-x,y,-z
-x,-y,-z
x,y,-z
-x,y,z
x,-y,z
loop_
_atom_site_type_symbol
_atom_site_label
_atom_site_fract_x
_atom_site_fract_y
_atom_site_fract_z
Si Si1 0.265327 0.768617 0.299614
Si Si2 0.500000 0.937561 0.289763
Si Si3 0.601920 0.440933 0.708974
Si Si4 0.677655 0.114439 0.204620
Si Si5 0.401461 0.680897 0.284466
Si Si6 0.907561 0.182544 0.290497
Si Si7 0.848361 0.939646 0.211085
O O1 0.250566 0.750133 0.500000
O O2 0.309626 0.828224 0.301742
O O3 0.332758 0.725557 0.223027
O O4 0.173028 0.783168 0.219789
O O5 0.500000 0.937570 0.500000
O O6 0.415252 0.908368 0.228222
O O7 0.500000 0.000000 0.225364
O O8 0.619248 0.441284 0.500000
O O9 0.500000 0.441380 0.728141
O O10 0.633393 0.500000 0.780439
O O11 0.626695 0.380475 0.773964
O O12 0.750123 0.071311 0.260895
O O13 0.693396 0.125836 0.000000
O O14 0.403084 0.681490 0.500000
O O15 0.500000 0.690964 0.231547
O O16 0.907506 0.190899 0.500000
O O17 0.893924 0.116846 0.264962
O O18 0.000000 0.197848 0.220540
O O19 0.876610 0.000000 0.276392
O O20 0.854271 0.941552 0.000000
#
# Coordination Sequence:
#
# PCOD9384904 Si02
#       7
#     8   4   8   8   8   8   8
#     4   9  17  29  44  61  82 108 137 171 207 245
#     4  11  23  35  47  63  81 105 140 175 204 239
#     4   7   9  14  25  44  74 108 135 160 197 241
#     4  10  20  33  47  62  82 108 135 167 207 247
#     4   8  13  20  33  55  80 107 137 169 204 240
#     4   9  18  31  44  59  80 105 132 163 202 247
#     4   9  18  32  48  64  81 100 124 158 203 254
#
# _framework density 17.783102
#
# number of rings (size 3 to 8) (size 9 to 14) (size 15 to 20)
#    0.000    3.154    0.000    2.538    1.077    2.769 
#    0.000    1.538    0.000    0.000    0.000    0.000 
#    0.000    1.231    0.000   12.462    0.000    3.385 
#
# Total GULP energy -289471.637648 kJ/mol
# GULP energy per Si atom -5566.762262 kJ/mol
# Density = 1.774263 g / cm^3
# Si number density = 17.783102 Si / 1000 Ang^3
#
#
#
# Elastic Constant Matrix: (Units=GPa)
#
#
# Indices 1 2 3 4 5 6 
#
# 1 120.6991 60.8769 2.2941 0.0000 0.0000 0.0000
# 2 60.8769 120.7814 5.6791 0.0000 0.0000 0.0000
# 3 2.2941 5.6791 36.4643 0.0000 0.0000 0.0000
# 4 0.0000 0.0000 0.0000 -36.1418 0.0000 0.0000
# 5 0.0000 0.0000 0.0000 0.0000 2.4364 0.0000
# 6 0.0000 0.0000 0.0000 0.0000 0.0000 11.3289
#
#
#
# Elastic Compliance Matrix: (Units=1/GPa)
#
#
# Indices 1 2 3 4 5 6 
#
# 1 0.011110 -0.005608 0.000174 0.000000 0.000000 0.000000
# 2 -0.005608 0.011171 -0.001387 0.000000 0.000000 0.000000
# 3 0.000174 -0.001387 0.027629 0.000000 0.000000 0.000000
# 4 0.000000 0.000000 0.000000 -0.027669 0.000000 0.000000
# 5 0.000000 0.000000 0.000000 0.000000 0.410437 0.000000
# 6 0.000000 0.000000 0.000000 0.000000 0.000000 0.088270
#
#
# Mechanical properties :
#
#
# Convention : Reuss Voigt Hill
#
# Bulk Modulus (GPa) = 27.57152 46.18279 36.87716
# Shear Modulus (GPa) = 9.14613 9.46435 9.30524
#
# Velocity S-wave (km/s) = 2.27031 2.30947 2.28998
# Velocity P-wave (km/s) = 4.73397 5.75656 5.27012
#
# Compressibility (1/GPa) = 0.03626931
#
# Stress axis : x y z
#
# Youngs Moduli (GPa) = 90.00667 89.51552 36.19373
#
# Poissons Ratio (x) = 0.50201 -0.00631
# Poissons Ratio (y) = 0.50476 0.05020
# Poissons Ratio (z) = -0.01570 0.12416
#
# Static dielectric constant tensor:
#      x y z
#    x 1.615540 0.000000 0.000000 
#    y 0.000000 1.624390 0.000000 
#    z 0.000000 0.000000 1.671500 
# 
# From -- ./inp_files/7604.got.cif
#   From: 2010.05.17/outbox.cif.g08.bks.cpg/sg47_4_cif.got.tgz:7604.got - 2010.06.03 20:15:42.
