data_PCOD9384353
_publ_section_title
;
Structure prediction by ZEFSAII (Michael W. Deem and Ramdas Pophale) SiO2 
 PCOD9384353
Probable space group: P M M M
;
_chemical_formula_sum "Si O2"
_cell_formula_units_Z 44
_cell_length_a 22.449931
_cell_length_b 14.388205
_cell_length_c 8.991913
_cell_angle_alpha 90.000000
_cell_angle_beta 90.000000
_cell_angle_gamma 90.000000
_cell_volume 2904.515669
_symmetry_space_group_name_H-M "P M M M"
_symmetry_group_IT_number 47
_symmetry_cell_setting 'orthorhombic'
loop_
_space_group_symop_operation_xyz
x,y,z
-x,-y,z
x,-y,-z
-x,y,-z
-x,-y,-z
x,y,-z
-x,y,z
x,-y,z
loop_
_atom_site_type_symbol
_atom_site_label
_atom_site_fract_x
_atom_site_fract_y
_atom_site_fract_z
Si Si1 0.253519 0.108502 0.177965
Si Si2 0.500000 0.886578 0.171996
Si Si3 0.929017 0.107515 0.835735
Si Si4 0.153214 0.233402 0.673197
Si Si5 0.933046 0.608178 0.319061
Si Si6 0.621255 0.887515 0.669762
O O1 0.207149 0.183188 0.242192
O O2 0.319212 0.132767 0.238258
O O3 0.240539 0.000000 0.223680
O O4 0.252523 0.110264 0.000000
O O5 0.439763 0.855254 0.253560
O O6 0.500000 0.000000 0.174967
O O7 0.500000 0.858734 0.000000
O O8 0.900789 0.162091 0.701076
O O9 0.000000 0.111712 0.831360
O O10 0.911064 0.000000 0.829671
O O11 0.909673 0.143459 0.000000
O O12 0.168405 0.243102 0.500000
O O13 0.122639 0.328892 0.730094
O O14 0.933441 0.613187 0.500000
O O15 0.926484 0.500000 0.278267
O O16 0.000000 0.639101 0.269976
O O17 0.626038 0.854463 0.500000
O O18 0.617607 0.000000 0.665329
#
# Coordination Sequence:
#
# PCOD9384353 Si02
#       6
#     8   4   8   8   8   8
#     4  10  20  32  43  56  81 118 151 175 207 254
#     4   9  15  23  37  57  81 111 146 179 214 255
#     4   9  18  31  43  55  76 107 137 163 197 243
#     4  11  20  28  43  65  83 102 133 172 210 248
#     4   8  15  29  47  65  84 104 128 164 213 265
#     4   9  16  26  40  58  80 107 144 188 221 241
#
# _framework density 15.148823999999999
#
# number of rings (size 3 to 8) (size 9 to 14) (size 15 to 20)
#    0.000    2.636    0.000    4.091    0.000    8.000 
#    0.000    0.909    0.000    2.182    0.000    6.364 
#    0.000    0.000    0.000    0.818    0.000   17.000 
#
# Total GULP energy -244957.417069 kJ/mol
# GULP energy per Si atom -5567.214024 kJ/mol
# Density = 1.511434 g / cm^3
# Si number density = 15.148824 Si / 1000 Ang^3
#
#
#
# Elastic Constant Matrix: (Units=GPa)
#
#
# Indices 1 2 3 4 5 6 
#
# 1 115.1025 45.1240 38.6326 0.0000 0.0000 0.0000
# 2 45.1240 49.4539 19.8577 0.0000 0.0000 0.0000
# 3 38.6326 19.8577 50.3176 0.0000 0.0000 0.0000
# 4 0.0000 0.0000 0.0000 5.1273 0.0000 0.0000
# 5 0.0000 0.0000 0.0000 0.0000 28.5568 0.0000
# 6 0.0000 0.0000 0.0000 0.0000 0.0000 32.6401
#
#
#
# Elastic Compliance Matrix: (Units=1/GPa)
#
#
# Indices 1 2 3 4 5 6 
#
# 1 0.015627 -0.011219 -0.007571 0.000000 0.000000 0.000000
# 2 -0.011219 0.032083 -0.004048 0.000000 0.000000 0.000000
# 3 -0.007571 -0.004048 0.027284 0.000000 0.000000 0.000000
# 4 0.000000 0.000000 0.000000 0.195033 0.000000 0.000000
# 5 0.000000 0.000000 0.000000 0.000000 0.035018 0.000000
# 6 0.000000 0.000000 0.000000 0.000000 0.000000 0.030637
#
#
# Mechanical properties :
#
#
# Convention : Reuss Voigt Hill
#
# Bulk Modulus (GPa) = 34.10754 46.90029 40.50391
# Shear Modulus (GPa) = 12.78351 20.68217 16.73284
#
# Velocity S-wave (km/s) = 2.90808 3.69896 3.32710
# Velocity P-wave (km/s) = 5.81720 7.01926 6.44631
#
# Compressibility (1/GPa) = 0.02931903
#
# Stress axis : x y z
#
# Youngs Moduli (GPa) = 63.99159 31.16927 36.65197
#
# Poissons Ratio (x) = 0.34969 0.27747
# Poissons Ratio (y) = 0.71792 0.14836
# Poissons Ratio (z) = 0.48445 0.12617
#
# Static dielectric constant tensor:
#      x y z
#    x 1.516940 0.000000 0.000000 
#    y 0.000000 1.499360 0.000000 
#    z 0.000000 0.000000 1.528670 
# 
# From -- ./inp_files/12430.got.cif
#   From: 2010.05.17/outbox.cif.g08.bks.cpg/sg47_7_cif.got.tgz:12430.got - 2010.06.03 20:15:42.
