data_PCOD9384447
_publ_section_title
;
Structure prediction by ZEFSAII (Michael W. Deem and Ramdas Pophale) SiO2 
 PCOD9384447
Probable space group: P M M M
;
_chemical_formula_sum "Si O2"
_cell_formula_units_Z 52
_cell_length_a 15.196750
_cell_length_b 8.079796
_cell_length_c 22.619824
_cell_angle_alpha 90.000000
_cell_angle_beta 90.000000
_cell_angle_gamma 90.000000
_cell_volume 2777.412183
_symmetry_space_group_name_H-M "P M M M"
_symmetry_group_IT_number 47
_symmetry_cell_setting 'orthorhombic'
loop_
_space_group_symop_operation_xyz
x,y,z
-x,-y,z
x,-y,-z
-x,y,-z
-x,-y,-z
x,y,-z
-x,y,z
x,-y,z
loop_
_atom_site_type_symbol
_atom_site_label
_atom_site_fract_x
_atom_site_fract_y
_atom_site_fract_z
Si Si1 0.403910 0.302115 0.310374
Si Si2 0.399378 0.694245 0.129785
Si Si3 0.342817 0.302225 0.436563
Si Si4 0.099319 0.797813 0.302758
Si Si5 0.740057 0.812941 0.773560
Si Si6 0.606122 0.187555 0.000000
Si Si7 0.143397 0.805854 0.565373
O O1 0.500000 0.264274 0.285632
O O2 0.388344 0.500000 0.301369
O O3 0.400492 0.267821 0.379806
O O4 0.328080 0.198961 0.280514
O O5 0.500000 0.766007 0.138818
O O6 0.408527 0.500000 0.138311
O O7 0.320809 0.747150 0.173260
O O8 0.371439 0.729182 0.062174
O O9 0.383382 0.262239 0.500000
O O10 0.324761 0.500000 0.435424
O O11 0.248917 0.213385 0.432391
O O12 0.171756 0.735391 0.255520
O O13 0.111807 0.738204 0.370995
O O14 0.000000 0.760026 0.284325
O O15 0.109122 0.000000 0.305261
O O16 0.762704 0.000000 0.789656
O O17 0.500000 0.184882 0.000000
O O18 0.639189 0.000000 0.000000
O O19 0.116225 0.737372 0.500000
O O20 0.119192 0.000000 0.564535
#
# Coordination Sequence:
#
# PCOD9384447 Si02
#       7
#     8   8   8   8   8   4   8
#     4  10  20  32  46  65  91 124 161 201 246 297
#     4  10  20  34  53  78 111 148 178 204 239 283
#     4   9  17  29  45  63  85 116 154 197 245 297
#     4   9  18  32  49  71  97 124 160 209 263 314
#     4  11  21  33  50  72  98 131 168 208 250 295
#     4   9  17  31  53  83 116 145 176 211 239 272
#     4   9  16  28  48  70  90 115 152 201 258 317
#
# _framework density 18.722463999999999
#
# number of rings (size 3 to 8) (size 9 to 14) (size 15 to 20)
#    0.000    2.385    1.538    1.615    0.000    4.615 
#    0.000    3.077    0.000    4.154    0.000    5.923 
#    0.000    4.308    0.000    0.000    0.000    0.000 
#
# Total GULP energy -289536.258456 kJ/mol
# GULP energy per Si atom -5568.004970 kJ/mol
# Density = 1.867985 g / cm^3
# Si number density = 18.722464 Si / 1000 Ang^3
#
#
#
# Elastic Constant Matrix: (Units=GPa)
#
#
# Indices 1 2 3 4 5 6 
#
# 1 102.9572 11.0961 58.3886 0.0000 0.0000 0.0000
# 2 11.0961 10.4935 17.5379 0.0000 0.0000 0.0000
# 3 58.3886 17.5379 139.5965 0.0000 0.0000 0.0000
# 4 0.0000 0.0000 0.0000 22.5966 0.0000 0.0000
# 5 0.0000 0.0000 0.0000 0.0000 19.0580 0.0000
# 6 0.0000 0.0000 0.0000 0.0000 0.0000 14.4279
#
#
#
# Elastic Compliance Matrix: (Units=1/GPa)
#
#
# Indices 1 2 3 4 5 6 
#
# 1 0.013016 -0.005904 -0.004702 0.000000 0.000000 0.000000
# 2 -0.005904 0.123303 -0.013021 0.000000 0.000000 0.000000
# 3 -0.004702 -0.013021 0.010766 0.000000 0.000000 0.000000
# 4 0.000000 0.000000 0.000000 0.044255 0.000000 0.000000
# 5 0.000000 0.000000 0.000000 0.000000 0.052472 0.000000
# 6 0.000000 0.000000 0.000000 0.000000 0.000000 0.069310
#
#
# Mechanical properties :
#
#
# Convention : Reuss Voigt Hill
#
# Bulk Modulus (GPa) = 10.01708 47.45471 28.73590
# Shear Modulus (GPa) = 12.70150 22.28479 17.49315
#
# Velocity S-wave (km/s) = 2.60746 3.45377 3.06001
# Velocity P-wave (km/s) = 3.79829 6.42699 5.27888
#
# Compressibility (1/GPa) = 0.09982949
#
# Stress axis : x y z
#
# Youngs Moduli (GPa) = 76.82925 8.11007 92.88286
#
# Poissons Ratio (x) = 0.04788 0.43677
# Poissons Ratio (y) = 0.45362 1.20946
# Poissons Ratio (z) = 0.36128 0.10560
#
# Static dielectric constant tensor:
#      x y z
#    x 1.645410 0.000000 0.000000 
#    y 0.000000 1.692750 0.000000 
#    z 0.000000 0.000000 1.689250 
# 
# From -- ./inp_files/30836.got.cif
#   From: 2010.05.17/outbox.cif.g08.bks.cpg/sg47_16_cif.got.tgz:30836.got - 2010.06.03 20:15:42.
