data_PCOD9384285
_publ_section_title
;
Structure prediction by ZEFSAII (Michael W. Deem and Ramdas Pophale) SiO2 
 PCOD9384285
Probable space group: P M M M
;
_chemical_formula_sum "Si O2"
_cell_formula_units_Z 44
_cell_length_a 29.014715
_cell_length_b 7.583762
_cell_length_c 9.660087
_cell_angle_alpha 90.000000
_cell_angle_beta 90.000000
_cell_angle_gamma 90.000000
_cell_volume 2125.612238
_symmetry_space_group_name_H-M "P M M M"
_symmetry_group_IT_number 47
_symmetry_cell_setting 'orthorhombic'
loop_
_space_group_symop_operation_xyz
x,y,z
-x,-y,z
x,-y,-z
-x,y,-z
-x,-y,-z
x,y,-z
-x,y,z
x,-y,z
loop_
_atom_site_type_symbol
_atom_site_label
_atom_site_fract_x
_atom_site_fract_y
_atom_site_fract_z
Si Si1 0.222676 0.712319 0.656598
Si Si2 0.588880 0.710730 0.156842
Si Si3 0.500000 0.790284 0.657668
Si Si4 0.051838 0.215307 0.340740
Si Si5 0.326906 0.715369 0.340952
Si Si6 0.135891 0.789903 0.844679
O O1 0.212042 0.774092 0.500000
O O2 0.223933 0.500000 0.652735
O O3 0.274620 0.771233 0.692455
O O4 0.183167 0.763346 0.762281
O O5 0.594270 0.500000 0.145937
O O6 0.544931 0.740108 0.254360
O O7 0.634443 0.778863 0.234877
O O8 0.582853 0.779126 0.000000
O O9 0.500000 0.718160 0.500000
O O10 0.500000 0.000000 0.647031
O O11 0.059643 0.268987 0.500000
O O12 0.092533 0.279878 0.242617
O O13 0.000000 0.268692 0.299629
O O14 0.052397 0.000000 0.339896
O O15 0.337177 0.767208 0.500000
O O16 0.327419 0.500000 0.339127
O O17 0.129027 0.000000 0.854287
O O18 0.138154 0.718156 0.000000
#
# Coordination Sequence:
#
# PCOD9384285 Si02
#       6
#     8   8   4   8   8   8
#     4   9  18  33  53  75  98 128 167 206 244 289
#     4  10  20  34  55  82 106 129 162 203 247 295
#     4  11  24  39  54  74 102 137 174 207 242 288
#     4   8  14  26  45  67  90 120 160 203 245 289
#     4   8  15  30  52  76 100 127 163 206 246 285
#     4  10  20  31  45  70 102 132 162 198 243 295
#
# _framework density 20.699918
#
# number of rings (size 3 to 8) (size 9 to 14) (size 15 to 20)
#    0.000    2.818    0.000    3.273    0.000    5.455 
#    0.000    4.545    0.000    1.636    0.000    3.818 
#    0.000    0.000    0.000    0.000    0.000    0.000 
#
# Total GULP energy -245579.959921 kJ/mol
# GULP energy per Si atom -5581.362725 kJ/mol
# Density = 2.065280 g / cm^3
# Si number density = 20.699918 Si / 1000 Ang^3
#
#
#
# Elastic Constant Matrix: (Units=GPa)
#
#
# Indices 1 2 3 4 5 6 
#
# 1 192.1251 1.3733 154.1503 0.0000 0.0000 0.0000
# 2 1.3733 45.3721 6.9137 0.0000 0.0000 0.0000
# 3 154.1503 6.9137 197.6773 0.0000 0.0000 0.0000
# 4 0.0000 0.0000 0.0000 10.9773 0.0000 0.0000
# 5 0.0000 0.0000 0.0000 0.0000 -12.4234 0.0000
# 6 0.0000 0.0000 0.0000 0.0000 0.0000 17.2150
#
#
#
# Elastic Compliance Matrix: (Units=1/GPa)
#
#
# Indices 1 2 3 4 5 6 
#
# 1 0.013974 0.001244 -0.010941 0.000000 0.000000 0.000000
# 2 0.001244 0.022269 -0.001749 0.000000 0.000000 0.000000
# 3 -0.010941 -0.001749 0.013652 0.000000 0.000000 0.000000
# 4 0.000000 0.000000 0.000000 0.091097 0.000000 0.000000
# 5 0.000000 0.000000 0.000000 0.000000 -0.080493 0.000000
# 6 0.000000 0.000000 0.000000 0.000000 0.000000 0.058089
#
#
# Mechanical properties :
#
#
# Convention : Reuss Voigt Hill
#
# Bulk Modulus (GPa) = 37.03237 84.44990 60.74113
# Shear Modulus (GPa) = 33.22702 21.33626 27.28164
#
# Velocity S-wave (km/s) = 4.01081 3.21400 3.63431
# Velocity P-wave (km/s) = 6.27517 7.39316 6.85699
#
# Compressibility (1/GPa) = 0.02700340
#
# Stress axis : x y z
#
# Youngs Moduli (GPa) = 71.55970 44.90585 73.25115
#
# Poissons Ratio (x) = -0.05587 0.80143
# Poissons Ratio (y) = -0.08903 0.12812
# Poissons Ratio (z) = 0.78292 0.07854
#
# Static dielectric constant tensor:
#      x y z
#    x 1.712850 0.000000 0.000000 
#    y 0.000000 1.804660 0.000000 
#    z 0.000000 0.000000 1.727480 
# 
# From -- ./inp_files/13611.got.cif
#   From: 2010.05.17/outbox.cif.g08.bks.cpg/sg47_7_cif.got.tgz:13611.got - 2010.06.03 20:15:42.
