data_PCOD9384234
_publ_section_title
;
Structure prediction by ZEFSAII (Michael W. Deem and Ramdas Pophale) SiO2 
 PCOD9384234
Probable space group: P M M M
;
_chemical_formula_sum "Si O2"
_cell_formula_units_Z 44
_cell_length_a 7.463166
_cell_length_b 31.038152
_cell_length_c 9.858302
_cell_angle_alpha 90.000000
_cell_angle_beta 90.000000
_cell_angle_gamma 90.000000
_cell_volume 2283.605474
_symmetry_space_group_name_H-M "P M M M"
_symmetry_group_IT_number 47
_symmetry_cell_setting 'orthorhombic'
loop_
_space_group_symop_operation_xyz
x,y,z
-x,-y,z
x,-y,-z
-x,y,-z
-x,-y,-z
x,y,-z
-x,y,z
x,-y,z
loop_
_atom_site_type_symbol
_atom_site_label
_atom_site_fract_x
_atom_site_fract_y
_atom_site_fract_z
Si Si1 0.287689 0.381208 0.661100
Si Si2 0.282035 0.301448 0.155541
Si Si3 0.787412 0.875214 0.652675
Si Si4 0.781340 0.950934 0.154781
Si Si5 0.715666 0.795661 0.846112
Si Si6 0.000000 0.548887 0.335384
O O1 0.261449 0.374229 0.500000
O O2 0.500000 0.387755 0.683918
O O3 0.226495 0.339134 0.743550
O O4 0.173029 0.422799 0.702615
O O5 0.500000 0.301013 0.158574
O O6 0.223178 0.252800 0.189760
O O7 0.228794 0.310239 0.000000
O O8 0.714890 0.872183 0.500000
O O9 0.715818 0.915296 0.740202
O O10 0.764927 0.831730 0.738497
O O11 0.000000 0.882416 0.641573
O O12 0.000000 0.950360 0.155266
O O13 0.727573 0.000000 0.186854
O O14 0.726490 0.940978 0.000000
O O15 0.500000 0.794465 0.850947
O O16 0.777983 0.805826 0.000000
O O17 0.000000 0.500000 0.283926
O O18 0.000000 0.546566 0.500000
#
# Coordination Sequence:
#
# PCOD9384234 Si02
#       6
#     8   8   8   8   8   4
#     4   9  17  30  50  74  98 129 168 207 251 300
#     4   8  15  30  51  72  94 122 158 199 241 287
#     4  10  20  31  44  68 100 128 155 192 241 293
#     4   8  14  26  45  66  87 117 158 200 241 286
#     4   9  18  33  52  71  92 124 164 200 239 291
#     4   9  18  32  49  73 105 135 167 211 254 293
#
# _framework density 19.267776000000001
#
# number of rings (size 3 to 8) (size 9 to 14) (size 15 to 20)
#    0.000    3.182    0.000    2.182    0.000    2.909 
#    1.636    5.909    0.000    1.636    0.000    6.364 
#    0.000    0.000    0.000    0.000    0.000    0.000 
#
# Total GULP energy -245362.345506 kJ/mol
# GULP energy per Si atom -5576.416943 kJ/mol
# Density = 1.922392 g / cm^3
# Si number density = 19.267776 Si / 1000 Ang^3
#
#
#
# Elastic Constant Matrix: (Units=GPa)
#
#
# Indices 1 2 3 4 5 6 
#
# 1 61.9045 31.1505 27.2193 0.0000 0.0000 0.0000
# 2 31.1505 193.8537 124.8657 0.0000 0.0000 0.0000
# 3 27.2193 124.8657 117.6083 0.0000 0.0000 0.0000
# 4 0.0000 0.0000 0.0000 32.0195 0.0000 0.0000
# 5 0.0000 0.0000 0.0000 0.0000 9.6079 0.0000
# 6 0.0000 0.0000 0.0000 0.0000 0.0000 24.0489
#
#
#
# Elastic Compliance Matrix: (Units=1/GPa)
#
#
# Indices 1 2 3 4 5 6 
#
# 1 0.018011 -0.000662 -0.003466 0.000000 0.000000 0.000000
# 2 -0.000662 0.016342 -0.017197 0.000000 0.000000 0.000000
# 3 -0.003466 -0.017197 0.027564 0.000000 0.000000 0.000000
# 4 0.000000 0.000000 0.000000 0.031231 0.000000 0.000000
# 5 0.000000 0.000000 0.000000 0.000000 0.104081 0.000000
# 6 0.000000 0.000000 0.000000 0.000000 0.000000 0.041582
#
#
# Mechanical properties :
#
#
# Convention : Reuss Voigt Hill
#
# Bulk Modulus (GPa) = 51.90353 82.20415 67.05384
# Shear Modulus (GPa) = 17.36819 25.81065 21.58942
#
# Velocity S-wave (km/s) = 3.00561 3.66399 3.35101
# Velocity P-wave (km/s) = 6.24831 7.78823 7.06038
#
# Compressibility (1/GPa) = 0.01926651
#
# Stress axis : x y z
#
# Youngs Moduli (GPa) = 55.52209 61.19163 36.27976
#
# Poissons Ratio (x) = 0.04049 0.12574
# Poissons Ratio (y) = 0.03674 0.62392
# Poissons Ratio (z) = 0.19243 1.05234
#
# Static dielectric constant tensor:
#      x y z
#    x 1.763120 0.000000 0.000000 
#    y 0.000000 1.650840 0.000000 
#    z 0.000000 0.000000 1.658270 
# 
# From -- ./inp_files/2003.got.cif
#   From: 2010.05.17/outbox.cif.g08.bks.cpg/sg47_2_cif.got.tgz:2003.got - 2010.06.03 20:15:42.
