data_PCOD9384141
_publ_section_title
;
Structure prediction by ZEFSAII (Michael W. Deem and Ramdas Pophale) SiO2 
 PCOD9384141
Probable space group: P M M M
;
_chemical_formula_sum "Si O2"
_cell_formula_units_Z 64
_cell_length_a 15.038446
_cell_length_b 8.137955
_cell_length_c 29.939524
_cell_angle_alpha 90.000000
_cell_angle_beta 90.000000
_cell_angle_gamma 90.000000
_cell_volume 3664.064719
_symmetry_space_group_name_H-M "P M M M"
_symmetry_group_IT_number 47
_symmetry_cell_setting 'orthorhombic'
loop_
_space_group_symop_operation_xyz
x,y,z
-x,-y,z
x,-y,-z
-x,y,-z
-x,-y,-z
x,y,-z
-x,y,z
x,-y,z
loop_
_atom_site_type_symbol
_atom_site_label
_atom_site_fract_x
_atom_site_fract_y
_atom_site_fract_z
Si Si1 0.279043 0.303344 0.951061
Si Si2 0.896659 0.801925 0.192804
Si Si3 0.895834 0.697524 0.451877
Si Si4 0.778069 0.306985 0.725577
Si Si5 0.101281 0.194324 0.355945
Si Si6 0.101044 0.198640 0.909742
Si Si7 0.398329 0.298843 0.768013
Si Si8 0.602772 0.300019 0.869382
O O1 0.291944 0.500000 0.951636
O O2 0.176060 0.267450 0.941695
O O3 0.334751 0.237311 0.908941
O O4 0.305235 0.239267 0.000000
O O5 0.832831 0.723101 0.228950
O O6 0.878491 0.751979 0.141623
O O7 0.000000 0.761902 0.202419
O O8 0.888360 0.000000 0.195454
O O9 0.858338 0.754513 0.500000
O O10 0.893356 0.500000 0.452098
O O11 0.860309 0.753872 0.404182
O O12 0.000000 0.748002 0.451470
O O13 0.770194 0.500000 0.717736
O O14 0.834703 0.238096 0.684700
O O15 0.678633 0.240730 0.734716
O O16 0.000000 0.264598 0.350438
O O17 0.092622 0.000000 0.356541
O O18 0.000000 0.250002 0.920059
O O19 0.103154 0.000000 0.911172
O O20 0.500000 0.248594 0.758378
O O21 0.397728 0.500000 0.767944
O O22 0.375191 0.246557 0.818888
O O23 0.500000 0.257286 0.877964
O O24 0.608085 0.500000 0.868986
#
# Coordination Sequence:
#
# PCOD9384141 Si02
#       8
#     8   8   8   8   8   8   8   8
#     4  10  20  31  45  69  95 113 135 173 217 256
#     4   9  18  32  47  63  86 115 145 178 217 260
#     4   8  14  26  44  64  87 118 158 203 242 270
#     4  11  20  28  44  68  92 119 149 183 224 267
#     4  10  20  31  42  60  92 132 166 194 225 263
#     4   9  19  35  51  64  81 112 151 182 210 253
#     4   8  15  28  45  65  87 111 142 180 221 265
#     4   8  14  27  47  68  90 114 138 168 211 265
#
# _framework density 17.466940000000001
#
# number of rings (size 3 to 8) (size 9 to 14) (size 15 to 20)
#    0.000    2.875    0.000    3.750    0.000    5.250 
#    0.000    5.000    0.000    1.875    0.000    6.125 
#    0.000    0.500    0.000    5.750    0.000    1.875 
#
# Total GULP energy -356661.138911 kJ/mol
# GULP energy per Si atom -5572.830295 kJ/mol
# Density = 1.742718 g / cm^3
# Si number density = 17.466940 Si / 1000 Ang^3
#
#
#
# Elastic Constant Matrix: (Units=GPa)
#
#
# Indices 1 2 3 4 5 6 
#
# 1 70.6066 5.3601 65.8199 0.0000 0.0000 0.0000
# 2 5.3601 8.9068 11.8180 0.0000 0.0000 0.0000
# 3 65.8199 11.8180 95.6453 0.0000 0.0000 0.0000
# 4 0.0000 0.0000 0.0000 52.3805 0.0000 0.0000
# 5 0.0000 0.0000 0.0000 0.0000 12.3032 0.0000
# 6 0.0000 0.0000 0.0000 0.0000 0.0000 -93.2676
#
#
#
# Elastic Compliance Matrix: (Units=1/GPa)
#
#
# Indices 1 2 3 4 5 6 
#
# 1 0.041188 0.015336 -0.030239 0.000000 0.000000 0.000000
# 2 0.015336 0.140000 -0.027852 0.000000 0.000000 0.000000
# 3 -0.030239 -0.027852 0.034706 0.000000 0.000000 0.000000
# 4 0.000000 0.000000 0.000000 0.019091 0.000000 0.000000
# 5 0.000000 0.000000 0.000000 0.000000 0.081280 0.000000
# 6 0.000000 0.000000 0.000000 0.000000 0.000000 -0.010722
#
#
# Mechanical properties :
#
#
# Convention : Reuss Voigt Hill
#
# Bulk Modulus (GPa) = 7.66970 37.90609 22.78790
# Shear Modulus (GPa) = 11.50712 0.42726 5.96719
#
# Velocity S-wave (km/s) = 2.56948 0.49512 1.85032
# Velocity P-wave (km/s) = 3.63366 4.69847 4.19995
#
# Compressibility (1/GPa) = 0.13038313
#
# Stress axis : x y z
#
# Youngs Moduli (GPa) = 24.27914 7.14288 28.81339
#
# Poissons Ratio (x) = -0.10954 0.87128
# Poissons Ratio (y) = -0.37234 0.80251
# Poissons Ratio (z) = 0.73417 0.19894
#
# Static dielectric constant tensor:
#      x y z
#    x 1.604730 0.000000 0.000000 
#    y 0.000000 1.616240 0.000000 
#    z 0.000000 0.000000 1.613940 
# 
# From -- ./inp_files/8295.got.cif
#   From: 2010.05.17/outbox.cif.g08.bks.cpg/sg47_5_cif.got.tgz:8295.got - 2010.06.03 20:15:42.
