data_PCOD9384712
_publ_section_title
;
Structure prediction by ZEFSAII (Michael W. Deem and Ramdas Pophale) SiO2 
 PCOD9384712
Probable space group: P M M M
;
_chemical_formula_sum "Si O2"
_cell_formula_units_Z 56
_cell_length_a 18.614244
_cell_length_b 19.271206
_cell_length_c 9.377307
_cell_angle_alpha 90.000000
_cell_angle_beta 90.000000
_cell_angle_gamma 90.000000
_cell_volume 3363.817539
_symmetry_space_group_name_H-M "P M M M"
_symmetry_group_IT_number 47
_symmetry_cell_setting 'orthorhombic'
loop_
_space_group_symop_operation_xyz
x,y,z
-x,-y,z
x,-y,-z
-x,y,-z
-x,-y,-z
x,y,-z
-x,y,z
x,-y,z
loop_
_atom_site_type_symbol
_atom_site_label
_atom_site_fract_x
_atom_site_fract_y
_atom_site_fract_z
Si Si1 0.348315 0.792601 0.830095
Si Si2 0.585070 0.081340 0.330486
Si Si3 0.797308 0.709860 0.167440
Si Si4 0.087253 0.077282 0.836091
Si Si5 0.584007 0.664473 0.332418
Si Si6 0.300310 0.419985 0.831166
Si Si7 0.915680 0.213890 0.669328
O O1 0.367314 0.866237 0.761015
O O2 0.266960 0.765342 0.807094
O O3 0.397116 0.734920 0.751977
O O4 0.361160 0.792750 0.000000
O O5 0.596081 0.093058 0.500000
O O6 0.500000 0.093731 0.301873
O O7 0.599377 0.000000 0.301418
O O8 0.763216 0.634637 0.198658
O O9 0.865429 0.728646 0.261069
O O10 0.815683 0.712965 0.000000
O O11 0.108345 0.140015 0.735165
O O12 0.000000 0.075619 0.835510
O O13 0.111734 0.000000 0.793771
O O14 0.109521 0.090133 0.000000
O O15 0.601046 0.673100 0.500000
O O16 0.500000 0.649060 0.318925
O O17 0.632646 0.605030 0.262276
O O18 0.281999 0.500000 0.805523
O O19 0.317678 0.411679 0.000000
O O20 0.908738 0.212742 0.500000
O O21 0.000000 0.223672 0.704889
#
# Coordination Sequence:
#
# PCOD9384712 Si02
#       7
#     8   8   8   8   8   8   8
#     4  10  20  33  50  72  97 127 168 214 253 292
#     4   9  18  32  49  70  98 133 172 213 257 302
#     4   9  19  35  53  73  97 127 161 196 240 295
#     4   8  14  26  45  68  94 125 158 190 229 279
#     4  10  20  32  48  73 104 136 168 200 237 287
#     4   9  19  36  56  77 101 129 162 201 243 286
#     4  10  20  32  49  75 102 127 160 203 246 289
#
# _framework density 16.647752000000001
#
# number of rings (size 3 to 8) (size 9 to 14) (size 15 to 20)
#    0.000    2.714    0.000    3.429    0.000    8.000 
#    0.000    4.286    0.000    1.286    0.000    3.000 
#    0.000    0.000    0.000    0.000    0.000    0.000 
#
# Total GULP energy -312211.153085 kJ/mol
# GULP energy per Si atom -5575.199162 kJ/mol
# Density = 1.660986 g / cm^3
# Si number density = 16.647752 Si / 1000 Ang^3
#
#
#
# Elastic Constant Matrix: (Units=GPa)
#
#
# Indices 1 2 3 4 5 6 
#
# 1 65.8154 57.5107 61.7641 0.0000 0.0000 0.0000
# 2 57.5107 115.6066 68.5692 0.0000 0.0000 0.0000
# 3 61.7641 68.5692 79.2740 0.0000 0.0000 0.0000
# 4 0.0000 0.0000 0.0000 15.1343 0.0000 0.0000
# 5 0.0000 0.0000 0.0000 0.0000 27.7528 0.0000
# 6 0.0000 0.0000 0.0000 0.0000 0.0000 10.0830
#
#
#
# Elastic Compliance Matrix: (Units=1/GPa)
#
#
# Indices 1 2 3 4 5 6 
#
# 1 0.057482 -0.004173 -0.041176 0.000000 0.000000 0.000000
# 2 -0.004173 0.018066 -0.012375 0.000000 0.000000 0.000000
# 3 -0.041176 -0.012375 0.055399 0.000000 0.000000 0.000000
# 4 0.000000 0.000000 0.000000 0.066075 0.000000 0.000000
# 5 0.000000 0.000000 0.000000 0.000000 0.036032 0.000000
# 6 0.000000 0.000000 0.000000 0.000000 0.000000 0.099177
#
#
# Mechanical properties :
#
#
# Convention : Reuss Voigt Hill
#
# Bulk Modulus (GPa) = 64.51892 70.70936 67.61414
# Shear Modulus (GPa) = 11.04130 15.45082 13.24606
#
# Velocity S-wave (km/s) = 2.57812 3.04978 2.82382
# Velocity P-wave (km/s) = 6.90664 7.41401 7.16482
#
# Compressibility (1/GPa) = 0.01549933
#
# Stress axis : x y z
#
# Youngs Moduli (GPa) = 17.39688 55.35268 18.05070
#
# Poissons Ratio (x) = 0.23098 0.74325
# Poissons Ratio (y) = 0.07260 0.22338
# Poissons Ratio (z) = 0.71633 0.68500
#
# Static dielectric constant tensor:
#      x y z
#    x 1.555560 0.000000 0.000000 
#    y 0.000000 1.565290 0.000000 
#    z 0.000000 0.000000 1.551760 
# 
# From -- ./inp_files/9873.got.cif
#   From: 2010.05.17/outbox.cif.g08.bks.cpg/sg47_5_cif.got.tgz:9873.got - 2010.06.03 20:15:42.
