data_PCOD9384045
_publ_section_title
;
Structure prediction by ZEFSAII (Michael W. Deem and Ramdas Pophale) SiO2 
 PCOD9384045
Probable space group: P M M M
;
_chemical_formula_sum "Si O2"
_cell_formula_units_Z 56
_cell_length_a 7.995122
_cell_length_b 21.632168
_cell_length_c 15.671085
_cell_angle_alpha 90.000000
_cell_angle_beta 90.000000
_cell_angle_gamma 90.000000
_cell_volume 2710.342708
_symmetry_space_group_name_H-M "P M M M"
_symmetry_group_IT_number 47
_symmetry_cell_setting 'orthorhombic'
loop_
_space_group_symop_operation_xyz
x,y,z
-x,-y,z
x,-y,-z
-x,y,-z
-x,-y,-z
x,y,-z
-x,y,z
x,-y,z
loop_
_atom_site_type_symbol
_atom_site_label
_atom_site_fract_x
_atom_site_fract_y
_atom_site_fract_z
Si Si1 0.694455 0.068007 0.352713
Si Si2 0.800843 0.500000 0.097707
Si Si3 0.310431 0.926498 0.000000
Si Si4 0.701166 0.574056 0.593215
Si Si5 0.295759 0.798180 0.592281
Si Si6 0.809803 0.117966 0.180015
Si Si7 0.297713 0.387315 0.219621
Si Si8 0.702324 0.748527 0.227638
O O1 0.500000 0.065374 0.378648
O O2 0.763949 0.130901 0.394256
O O3 0.702138 0.082687 0.251518
O O4 0.768076 0.000000 0.370424
O O5 0.750267 0.559959 0.152861
O O6 0.000000 0.500000 0.092204
O O7 0.733828 0.500000 0.000000
O O8 0.221973 0.905717 0.914107
O O9 0.500000 0.901687 0.000000
O O10 0.316806 0.000000 0.000000
O O11 0.764871 0.595979 0.500000
O O12 0.500000 0.585188 0.592468
O O13 0.724966 0.500000 0.596046
O O14 0.764475 0.599651 0.683563
O O15 0.242619 0.775005 0.500000
O O16 0.500000 0.799789 0.593608
O O17 0.246970 0.757518 0.673187
O O18 0.770632 0.190715 0.182395
O O19 0.000000 0.107259 0.206010
O O20 0.500000 0.387626 0.223982
O O21 0.243399 0.318189 0.194645
O O22 0.500000 0.751448 0.223645
#
# Coordination Sequence:
#
# PCOD9384045 Si02
#       8
#     8   4   4   8   8   8   8   8
#     4   9  17  30  49  73 104 142 182 227 278 323
#     4  11  25  43  60  81 110 144 179 227 286 335
#     4  11  23  39  61  85 109 136 169 218 277 331
#     4   8  13  23  45  81 119 144 167 213 273 324
#     4   8  14  26  46  75 110 143 179 225 271 317
#     4  11  22  36  54  77 107 142 179 221 268 326
#     4  10  19  35  61  87 111 144 187 229 270 324
#     4   9  19  35  55  80 110 145 183 224 271 320
#
# _framework density 20.661593
#
# number of rings (size 3 to 8) (size 9 to 14) (size 15 to 20)
#    0.000    2.571    0.714    3.429    0.000    4.571 
#    1.286    4.286    0.000    7.714    0.000    8.000 
#    0.000    0.000    0.000    0.000    0.000    0.000 
#
# Total GULP energy -312315.948515 kJ/mol
# GULP energy per Si atom -5577.070509 kJ/mol
# Density = 2.061457 g / cm^3
# Si number density = 20.661593 Si / 1000 Ang^3
#
#
#
# Elastic Constant Matrix: (Units=GPa)
#
#
# Indices 1 2 3 4 5 6 
#
# 1 26.7719 9.1555 -1.1962 0.0000 0.0000 0.0000
# 2 9.1555 98.6846 30.1442 0.0000 0.0000 0.0000
# 3 -1.1962 30.1442 93.3639 0.0000 0.0000 0.0000
# 4 0.0000 0.0000 0.0000 3.9955 0.0000 0.0000
# 5 0.0000 0.0000 0.0000 0.0000 -79.3948 0.0000
# 6 0.0000 0.0000 0.0000 0.0000 0.0000 -14.8315
#
#
#
# Elastic Compliance Matrix: (Units=1/GPa)
#
#
# Indices 1 2 3 4 5 6 
#
# 1 0.038861 -0.004169 0.001844 0.000000 0.000000 0.000000
# 2 -0.004169 0.011689 -0.003827 0.000000 0.000000 0.000000
# 3 0.001844 -0.003827 0.011970 0.000000 0.000000 0.000000
# 4 0.000000 0.000000 0.000000 0.250283 0.000000 0.000000
# 5 0.000000 0.000000 0.000000 0.000000 -0.012595 0.000000
# 6 0.000000 0.000000 0.000000 0.000000 0.000000 -0.067424
#
#
# Mechanical properties :
#
#
# Convention : Reuss Voigt Hill
#
# Bulk Modulus (GPa) = 19.91416 32.78082 26.34749
# Shear Modulus (GPa) = 19.09661 -5.99837 6.54912
#
# Velocity S-wave (km/s) = 3.04346 -1.70571 1.78230
# Velocity P-wave (km/s) = 4.69141 3.46710 4.12493
#
# Compressibility (1/GPa) = 0.05021552
#
# Stress axis : x y z
#
# Youngs Moduli (GPa) = 25.73301 85.54932 83.54106
#
# Poissons Ratio (x) = 0.35661 -0.15403
# Poissons Ratio (y) = 0.10727 0.31975
# Poissons Ratio (z) = -0.04745 0.32744
#
# Static dielectric constant tensor:
#      x y z
#    x 1.774320 0.000000 0.000000 
#    y 0.000000 1.738460 0.000000 
#    z 0.000000 0.000000 1.746530 
# 
# From -- ./inp_files/21653.got.cif
#   From: 2010.05.17/outbox.cif.g08.bks.cpg/sg47_11_cif.got.tgz:21653.got - 2010.06.03 20:15:42.
