data_PCOD9384993
_publ_section_title
;
Structure prediction by ZEFSAII (Michael W. Deem and Ramdas Pophale) SiO2 
 PCOD9384993
Probable space group: P M M M
;
_chemical_formula_sum "Si O2"
_cell_formula_units_Z 64
_cell_length_a 8.660832
_cell_length_b 30.706035
_cell_length_c 15.057743
_cell_angle_alpha 90.000000
_cell_angle_beta 90.000000
_cell_angle_gamma 90.000000
_cell_volume 4004.453320
_symmetry_space_group_name_H-M "P M M M"
_symmetry_group_IT_number 47
_symmetry_cell_setting 'orthorhombic'
loop_
_space_group_symop_operation_xyz
x,y,z
-x,-y,z
x,-y,-z
-x,y,-z
-x,-y,-z
x,y,-z
-x,y,z
x,-y,z
loop_
_atom_site_type_symbol
_atom_site_label
_atom_site_fract_x
_atom_site_fract_y
_atom_site_fract_z
Si Si1 0.326002 0.365146 0.900998
Si Si2 0.316751 0.766133 0.102685
Si Si3 0.685843 0.644672 0.400903
Si Si4 0.177859 0.305599 0.233815
Si Si5 0.820026 0.451020 0.861462
Si Si6 0.178519 0.858841 0.892368
Si Si7 0.812047 0.953029 0.104491
Si Si8 0.685511 0.548435 0.665057
O O1 0.500000 0.356661 0.867922
O O2 0.203361 0.345282 0.834597
O O3 0.292087 0.416010 0.903832
O O4 0.313502 0.346630 0.000000
O O5 0.500000 0.760709 0.099733
O O6 0.251987 0.733929 0.177722
O O7 0.273580 0.815669 0.127905
O O8 0.258432 0.758800 0.000000
O O9 0.737825 0.656842 0.500000
O O10 0.500000 0.646756 0.397720
O O11 0.748515 0.676720 0.324915
O O12 0.725742 0.593452 0.384403
O O13 0.000000 0.296032 0.248930
O O14 0.794660 0.500000 0.893277
O O15 0.778646 0.450564 0.757010
O O16 0.000000 0.440122 0.876029
O O17 0.238542 0.905955 0.859116
O O18 0.000000 0.852934 0.864375
O O19 0.177160 0.862189 0.000000
O O20 0.000000 0.951952 0.107686
O O21 0.762449 0.000000 0.142977
O O22 0.770095 0.953998 0.000000
O O23 0.500000 0.550423 0.682736
O O24 0.713081 0.500000 0.623826
#
# Coordination Sequence:
#
# PCOD9384993 Si02
#       8
#     8   8   8   8   8   8   8   8
#     4  11  23  37  53  72  94 121 153 186 222 268
#     4  10  20  33  49  68  92 123 158 198 243 288
#     4  10  21  37  57  79 102 126 150 178 216 267
#     4  12  24  37  54  73  94 120 150 190 234 274
#     4  10  20  33  50  72  97 123 149 179 217 258
#     4   8  13  22  37  58  84 114 153 199 239 277
#     4   7   9  14  27  49  77 110 149 193 237 275
#     4   9  17  31  53  77 100 125 149 174 207 253
#
# _framework density 15.982207000000001
#
# number of rings (size 3 to 8) (size 9 to 14) (size 15 to 20)
#    0.000    2.375    1.250    3.750    0.000    4.750 
#    0.000    2.500    0.000    0.375    0.000    5.250 
#    0.000    0.000    0.000    0.000    0.000    0.625 
#
# Total GULP energy -356373.588860 kJ/mol
# GULP energy per Si atom -5568.337326 kJ/mol
# Density = 1.594583 g / cm^3
# Si number density = 15.982207 Si / 1000 Ang^3
#
#
#
# Elastic Constant Matrix: (Units=GPa)
#
#
# Indices 1 2 3 4 5 6 
#
# 1 29.5983 26.8681 19.5206 0.0000 0.0000 0.0000
# 2 26.8681 125.2727 42.5154 0.0000 0.0000 0.0000
# 3 19.5206 42.5154 72.6511 0.0000 0.0000 0.0000
# 4 0.0000 0.0000 0.0000 12.9041 0.0000 0.0000
# 5 0.0000 0.0000 0.0000 0.0000 -70.6582 0.0000
# 6 0.0000 0.0000 0.0000 0.0000 0.0000 8.9747
#
#
#
# Elastic Compliance Matrix: (Units=1/GPa)
#
#
# Indices 1 2 3 4 5 6 
#
# 1 0.045502 -0.007000 -0.008129 0.000000 0.000000 0.000000
# 2 -0.007000 0.011038 -0.004578 0.000000 0.000000 0.000000
# 3 -0.008129 -0.004578 0.018628 0.000000 0.000000 0.000000
# 4 0.000000 0.000000 0.000000 0.077495 0.000000 0.000000
# 5 0.000000 0.000000 0.000000 0.000000 -0.014153 0.000000
# 6 0.000000 0.000000 0.000000 0.000000 0.000000 0.111424
#
#
# Mechanical properties :
#
#
# Convention : Reuss Voigt Hill
#
# Bulk Modulus (GPa) = 27.97084 45.03671 36.50377
# Shear Modulus (GPa) = 16.59657 -0.51469 8.04094
#
# Velocity S-wave (km/s) = 3.22598 -0.56810 2.24546
# Velocity P-wave (km/s) = 5.60492 5.27353 5.44175
#
# Compressibility (1/GPa) = 0.03575152
#
# Stress axis : x y z
#
# Youngs Moduli (GPa) = 21.97728 90.59786 53.68255
#
# Poissons Ratio (x) = 0.63419 0.43641
# Poissons Ratio (y) = 0.15384 0.24578
# Poissons Ratio (z) = 0.17866 0.41480
#
# Static dielectric constant tensor:
#      x y z
#    x 1.538500 0.000000 0.000000 
#    y 0.000000 1.594510 0.000000 
#    z 0.000000 0.000000 1.534100 
# 
# From -- ./inp_files/22181.got.cif
#   From: 2010.05.17/outbox.cif.g08.bks.cpg/sg47_12_cif.got.tgz:22181.got - 2010.06.03 20:15:42.
