data_PCOD9384643
_publ_section_title
;
Structure prediction by ZEFSAII (Michael W. Deem and Ramdas Pophale) SiO2 
 PCOD9384643
Probable space group: P M M M
;
_chemical_formula_sum "Si O2"
_cell_formula_units_Z 40
_cell_length_a 7.697166
_cell_length_b 9.504722
_cell_length_c 26.977887
_cell_angle_alpha 90.000000
_cell_angle_beta 90.000000
_cell_angle_gamma 90.000000
_cell_volume 1973.686647
_symmetry_space_group_name_H-M "P M M M"
_symmetry_group_IT_number 47
_symmetry_cell_setting 'orthorhombic'
loop_
_space_group_symop_operation_xyz
x,y,z
-x,-y,z
x,-y,-z
-x,y,-z
-x,-y,-z
x,y,-z
-x,y,z
x,-y,z
loop_
_atom_site_type_symbol
_atom_site_label
_atom_site_fract_x
_atom_site_fract_y
_atom_site_fract_z
Si Si1 0.288160 0.662182 0.555711
Si Si2 0.204715 0.839240 0.838281
Si Si3 0.290862 0.835513 0.946679
Si Si4 0.286826 0.838490 0.650431
Si Si5 0.705697 0.341787 0.256295
O O1 0.232729 0.701988 0.500000
O O2 0.500000 0.663843 0.555775
O O3 0.236586 0.500000 0.564837
O O4 0.230784 0.763326 0.599692
O O5 0.234562 0.778628 0.893535
O O6 0.274102 0.741493 0.794938
O O7 0.000000 0.849414 0.830925
O O8 0.277510 0.000000 0.836081
O O9 0.500000 0.832932 0.946944
O O10 0.235710 0.000000 0.946342
O O11 0.231796 0.775277 0.000000
O O12 0.500000 0.838619 0.650674
O O13 0.225392 0.749801 0.697875
O O14 0.231259 0.000000 0.653340
O O15 0.500000 0.354230 0.265298
O O16 0.778162 0.500000 0.254007
#
# Coordination Sequence:
#
# PCOD9384643 Si02
#       5
#     8   8   8   8   8
#     4   8  13  21  33  51  80 118 154 187 228 281
#     4  10  20  32  48  72 100 128 158 195 240 287
#     4   8  14  26  46  72 100 129 160 193 230 275
#     4   9  16  25  39  60  85 114 151 196 242 286
#     4  10  20  33  49  67  89 122 163 203 243 289
#
# _framework density 20.266642000000001
#
# number of rings (size 3 to 8) (size 9 to 14) (size 15 to 20)
#    0.000    3.000    0.000    3.000    0.000    5.600 
#    0.000    4.000    0.000    0.600    0.000    4.200 
#    0.000    0.800    0.000    8.400    0.000   11.600 
#
# Total GULP energy -222993.541265 kJ/mol
# GULP energy per Si atom -5574.838532 kJ/mol
# Density = 2.022051 g / cm^3
# Si number density = 20.266642 Si / 1000 Ang^3
#
#
#
# Elastic Constant Matrix: (Units=GPa)
#
#
# Indices 1 2 3 4 5 6 
#
# 1 30.4215 6.0993 -1.1298 0.0000 0.0000 0.0000
# 2 6.0993 128.5340 117.0968 0.0000 0.0000 0.0000
# 3 -1.1298 117.0968 208.4455 0.0000 0.0000 0.0000
# 4 0.0000 0.0000 0.0000 -47.9432 0.0000 0.0000
# 5 0.0000 0.0000 0.0000 0.0000 -40.2085 0.0000
# 6 0.0000 0.0000 0.0000 0.0000 0.0000 1.7245
#
#
#
# Elastic Compliance Matrix: (Units=1/GPa)
#
#
# Indices 1 2 3 4 5 6 
#
# 1 0.033678 -0.003614 0.002213 0.000000 0.000000 0.000000
# 2 -0.003614 0.016323 -0.009189 0.000000 0.000000 0.000000
# 3 0.002213 -0.009189 0.009972 0.000000 0.000000 0.000000
# 4 0.000000 0.000000 0.000000 -0.020858 0.000000 0.000000
# 5 0.000000 0.000000 0.000000 0.000000 -0.024870 0.000000
# 6 0.000000 0.000000 0.000000 0.000000 0.000000 0.579869
#
#
# Mechanical properties :
#
#
# Convention : Reuss Voigt Hill
#
# Bulk Modulus (GPa) = 25.77854 67.94817 46.86335
# Shear Modulus (GPa) = 7.95893 -0.92978 3.51457
#
# Velocity S-wave (km/s) = 1.98384 -0.67806 1.31831
# Velocity P-wave (km/s) = 4.24203 5.74342 5.04884
#
# Compressibility (1/GPa) = 0.03879196
#
# Stress axis : x y z
#
# Youngs Moduli (GPa) = 29.69272 61.26251 100.28440
#
# Poissons Ratio (x) = 0.22140 -0.22190
# Poissons Ratio (y) = 0.10731 0.92155
# Poissons Ratio (z) = -0.06570 0.56296
#
# Static dielectric constant tensor:
#      x y z
#    x 1.749800 0.000000 0.000000 
#    y 0.000000 1.701250 0.000000 
#    z 0.000000 0.000000 1.725500 
# 
# From -- ./inp_files/1427.got.cif
#   From: 2010.05.17/outbox.cif.g08.bks.cpg/sg47_1_cif.got.tgz:1427.got - 2010.06.03 20:15:42.
