data_PCOD9384365
_publ_section_title
;
Structure prediction by ZEFSAII (Michael W. Deem and Ramdas Pophale) SiO2 
 PCOD9384365
Probable space group: P M M M
;
_chemical_formula_sum "Si O2"
_cell_formula_units_Z 64
_cell_length_a 14.778221
_cell_length_b 9.002312
_cell_length_c 32.091753
_cell_angle_alpha 90.000000
_cell_angle_beta 90.000000
_cell_angle_gamma 90.000000
_cell_volume 4269.427650
_symmetry_space_group_name_H-M "P M M M"
_symmetry_group_IT_number 47
_symmetry_cell_setting 'orthorhombic'
loop_
_space_group_symop_operation_xyz
x,y,z
-x,-y,z
x,-y,-z
-x,y,-z
-x,-y,-z
x,y,-z
-x,y,z
x,-y,z
loop_
_atom_site_type_symbol
_atom_site_label
_atom_site_fract_x
_atom_site_fract_y
_atom_site_fract_z
Si Si1 0.110018 0.829937 0.130259
Si Si2 0.791826 0.821121 0.293799
Si Si3 0.602135 0.178680 0.576358
Si Si4 0.400308 0.180043 0.325608
Si Si5 0.109896 0.674079 0.953960
Si Si6 0.892796 0.676929 0.216386
Si Si7 0.783033 0.321249 0.454164
Si Si8 0.106797 0.321286 0.372191
O O1 0.142151 0.763379 0.086286
O O2 0.134937 0.734366 0.170657
O O3 0.000000 0.827956 0.128776
O O4 0.138723 0.000000 0.135350
O O5 0.687396 0.771997 0.300082
O O6 0.836396 0.756096 0.252360
O O7 0.846527 0.760540 0.333633
O O8 0.795319 0.000000 0.293177
O O9 0.500000 0.219309 0.563079
O O10 0.611167 0.217851 0.625491
O O11 0.683164 0.255766 0.552345
O O12 0.610056 0.000000 0.572892
O O13 0.500000 0.232956 0.312037
O O14 0.401840 0.000000 0.324086
O O15 0.132789 0.500000 0.949800
O O16 0.000000 0.682110 0.953934
O O17 0.139651 0.726315 0.000000
O O18 0.882670 0.500000 0.219047
O O19 0.000000 0.711342 0.221905
O O20 0.817676 0.277563 0.500000
O O21 0.778140 0.500000 0.452963
O O22 0.845538 0.275166 0.415417
O O23 0.118219 0.500000 0.367229
O O24 0.000000 0.290740 0.373241
#
# Coordination Sequence:
#
# PCOD9384365 Si02
#       8
#     8   8   8   8   8   8   8   8
#     4   9  16  25  37  54  77 105 143 191 233 265
#     4  11  20  31  51  73  90 109 138 177 214 251
#     4   9  17  32  53  73  93 117 142 166 200 251
#     4   8  15  29  49  71  92 112 134 163 203 250
#     4   8  13  21  33  49  71 103 143 184 228 277
#     4  10  20  32  44  59  85 120 151 180 219 265
#     4  10  21  35  50  69  92 116 143 176 211 247
#     4  10  21  36  51  66  87 115 145 176 211 252
#
# _framework density 14.990299
#
# number of rings (size 3 to 8) (size 9 to 14) (size 15 to 20)
#    0.000    2.625    1.250    2.625    0.000    5.250 
#    0.000    3.750    0.000    1.500    0.000    1.750 
#    0.000    0.000    0.000    0.000    0.000    0.625 
#
# Total GULP energy -356613.113601 kJ/mol
# GULP energy per Si atom -5572.079900 kJ/mol
# Density = 1.495618 g / cm^3
# Si number density = 14.990299 Si / 1000 Ang^3
#
#
#
# Elastic Constant Matrix: (Units=GPa)
#
#
# Indices 1 2 3 4 5 6 
#
# 1 69.1596 26.3927 50.7617 0.0000 0.0000 0.0000
# 2 26.3927 30.4716 39.3745 0.0000 0.0000 0.0000
# 3 50.7617 39.3745 122.8476 0.0000 0.0000 0.0000
# 4 0.0000 0.0000 0.0000 18.9896 0.0000 0.0000
# 5 0.0000 0.0000 0.0000 0.0000 2.9380 0.0000
# 6 0.0000 0.0000 0.0000 0.0000 0.0000 15.7011
#
#
#
# Elastic Compliance Matrix: (Units=1/GPa)
#
#
# Indices 1 2 3 4 5 6 
#
# 1 0.023560 -0.013360 -0.005453 0.000000 0.000000 0.000000
# 2 -0.013360 0.063594 -0.014862 0.000000 0.000000 0.000000
# 3 -0.005453 -0.014862 0.015157 0.000000 0.000000 0.000000
# 4 0.000000 0.000000 0.000000 0.052660 0.000000 0.000000
# 5 0.000000 0.000000 0.000000 0.000000 0.340365 0.000000
# 6 0.000000 0.000000 0.000000 0.000000 0.000000 0.063690
#
#
# Mechanical properties :
#
#
# Convention : Reuss Voigt Hill
#
# Bulk Modulus (GPa) = 28.60405 50.61520 39.60962
# Shear Modulus (GPa) = 7.83661 14.58908 11.21285
#
# Velocity S-wave (km/s) = 2.28892 3.12306 2.73794
# Velocity P-wave (km/s) = 5.10966 6.84421 6.03953
#
# Compressibility (1/GPa) = 0.03496008
#
# Stress axis : x y z
#
# Youngs Moduli (GPa) = 42.44417 15.72476 65.97574
#
# Poissons Ratio (x) = 0.21008 0.35978
# Poissons Ratio (y) = 0.56706 0.98055
# Poissons Ratio (z) = 0.23146 0.23371
#
# Static dielectric constant tensor:
#      x y z
#    x 1.483990 0.000000 0.000000 
#    y 0.000000 1.502050 0.000000 
#    z 0.000000 0.000000 1.500950 
# 
# From -- ./inp_files/14250.got.cif
#   From: 2010.05.17/outbox.cif.g08.bks.cpg/sg47_8_cif.got.tgz:14250.got - 2010.06.03 20:15:42.
