data_PCOD9384286
_publ_section_title
;
Structure prediction by ZEFSAII (Michael W. Deem and Ramdas Pophale) SiO2 
 PCOD9384286
Probable space group: P M M M
;
_chemical_formula_sum "Si O2"
_cell_formula_units_Z 64
_cell_length_a 9.235877
_cell_length_b 15.266384
_cell_length_c 23.693524
_cell_angle_alpha 90.000000
_cell_angle_beta 90.000000
_cell_angle_gamma 90.000000
_cell_volume 3340.750037
_symmetry_space_group_name_H-M "P M M M"
_symmetry_group_IT_number 47
_symmetry_cell_setting 'orthorhombic'
loop_
_space_group_symop_operation_xyz
x,y,z
-x,-y,z
x,-y,-z
-x,y,-z
-x,-y,-z
x,y,-z
-x,y,z
x,-y,z
loop_
_atom_site_type_symbol
_atom_site_label
_atom_site_fract_x
_atom_site_fract_y
_atom_site_fract_z
Si Si1 0.171685 0.104095 0.608163
Si Si2 0.835552 0.840407 0.819947
Si Si3 0.672213 0.596490 0.893329
Si Si4 0.834089 0.361507 0.218832
Si Si5 0.173522 0.602538 0.651524
Si Si6 0.328380 0.731909 0.564062
Si Si7 0.659382 0.102447 0.718053
Si Si8 0.826724 0.232439 0.062814
O O1 0.257925 0.171612 0.569406
O O2 0.225650 0.131297 0.671010
O O3 0.000000 0.116480 0.603181
O O4 0.200674 0.000000 0.598368
O O5 0.837677 0.741726 0.795047
O O6 0.723489 0.888313 0.780118
O O7 0.790747 0.831344 0.885173
O O8 0.000000 0.875536 0.816069
O O9 0.500000 0.609304 0.893500
O O10 0.704497 0.500000 0.917050
O O11 0.732050 0.599482 0.829293
O O12 0.748806 0.675399 0.925974
O O13 0.787725 0.378728 0.282939
O O14 0.000000 0.393962 0.212537
O O15 0.202846 0.500000 0.639628
O O16 0.254983 0.666965 0.608977
O O17 0.000000 0.616868 0.646781
O O18 0.305642 0.699801 0.500000
O O19 0.500000 0.738102 0.574503
O O20 0.500000 0.144237 0.712323
O O21 0.643821 0.000000 0.706789
O O22 0.000000 0.246740 0.067140
O O23 0.793474 0.200089 0.000000
#
# Coordination Sequence:
#
# PCOD9384286 Si02
#       8
#     8   8   8   8   8   8   8   8
#     4  10  21  38  62  90 117 145 178 219 270 328
#     4   9  17  30  51  77 103 133 170 215 262 308
#     4  10  20  31  45  70 102 132 163 203 253 308
#     4   9  18  33  53  77 103 131 168 214 263 315
#     4  10  21  37  59  85 111 144 188 237 284 326
#     4  11  25  42  59  81 111 149 190 230 273 324
#     4  10  20  33  52  81 114 142 168 202 249 310
#     4   9  19  35  52  69  91 126 173 217 256 301
#
# _framework density 19.157374999999998
#
# number of rings (size 3 to 8) (size 9 to 14) (size 15 to 20)
#    0.000    2.250    0.000    3.375    0.000    8.750 
#    0.000    3.750    0.000    0.375    0.000    2.625 
#    0.000    0.000    0.000    0.000    0.000    0.000 
#
# Total GULP energy -357021.454862 kJ/mol
# GULP energy per Si atom -5578.460232 kJ/mol
# Density = 1.911377 g / cm^3
# Si number density = 19.157375 Si / 1000 Ang^3
#
#
#
# Elastic Constant Matrix: (Units=GPa)
#
#
# Indices 1 2 3 4 5 6 
#
# 1 40.5574 18.9990 23.2214 0.0000 0.0000 0.0000
# 2 18.9990 33.2497 22.7533 0.0000 0.0000 0.0000
# 3 23.2214 22.7533 96.9553 0.0000 0.0000 0.0000
# 4 0.0000 0.0000 0.0000 7.3497 0.0000 0.0000
# 5 0.0000 0.0000 0.0000 0.0000 98.4153 0.0000
# 6 0.0000 0.0000 0.0000 0.0000 0.0000 21.7348
#
#
#
# Elastic Compliance Matrix: (Units=1/GPa)
#
#
# Indices 1 2 3 4 5 6 
#
# 1 0.035189 -0.017083 -0.004419 0.000000 0.000000 0.000000
# 2 -0.017083 0.044123 -0.006263 0.000000 0.000000 0.000000
# 3 -0.004419 -0.006263 0.012842 0.000000 0.000000 0.000000
# 4 0.000000 0.000000 0.000000 0.136059 0.000000 0.000000
# 5 0.000000 0.000000 0.000000 0.000000 0.010161 0.000000
# 6 0.000000 0.000000 0.000000 0.000000 0.000000 0.046009
#
#
# Mechanical properties :
#
#
# Convention : Reuss Voigt Hill
#
# Bulk Modulus (GPa) = 27.30484 33.41221 30.35853
# Shear Modulus (GPa) = 14.19959 32.55254 23.37607
#
# Velocity S-wave (km/s) = 2.72547 4.12663 3.49694
# Velocity P-wave (km/s) = 4.91814 6.33910 5.67328
#
# Compressibility (1/GPa) = 0.03662354
#
# Stress axis : x y z
#
# Youngs Moduli (GPa) = 28.41777 22.66392 77.86812
#
# Poissons Ratio (x) = 0.38718 0.34410
# Poissons Ratio (y) = 0.48547 0.48770
# Poissons Ratio (z) = 0.12558 0.14195
#
# Static dielectric constant tensor:
#      x y z
#    x 1.658340 0.000000 0.000000 
#    y 0.000000 1.688750 0.000000 
#    z 0.000000 0.000000 1.678340 
# 
# From -- ./inp_files/12733.got.cif
#   From: 2010.05.17/outbox.cif.g08.bks.cpg/sg47_7_cif.got.tgz:12733.got - 2010.06.03 20:15:42.
