data_PCOD9384945
_publ_section_title
;
Structure prediction by ZEFSAII (Michael W. Deem and Ramdas Pophale) SiO2 
 PCOD9384945
Probable space group: P M M M
;
_chemical_formula_sum "Si O2"
_cell_formula_units_Z 44
_cell_length_a 8.627984
_cell_length_b 17.220524
_cell_length_c 16.313424
_cell_angle_alpha 90.000000
_cell_angle_beta 90.000000
_cell_angle_gamma 90.000000
_cell_volume 2423.822527
_symmetry_space_group_name_H-M "P M M M"
_symmetry_group_IT_number 47
_symmetry_cell_setting 'orthorhombic'
loop_
_space_group_symop_operation_xyz
x,y,z
-x,-y,z
x,-y,-z
-x,y,-z
-x,-y,-z
x,y,-z
-x,y,z
x,-y,z
loop_
_atom_site_type_symbol
_atom_site_label
_atom_site_fract_x
_atom_site_fract_y
_atom_site_fract_z
Si Si1 0.816937 0.876558 0.207289
Si Si2 0.684310 0.084239 0.379039
Si Si3 0.816112 0.301930 0.236031
Si Si4 0.686796 0.590967 0.907879
Si Si5 0.322927 0.000000 0.903395
Si Si6 0.687419 0.259377 0.589895
O O1 0.721317 0.911171 0.282979
O O2 0.783576 0.785267 0.203510
O O3 0.000000 0.886677 0.223100
O O4 0.765298 0.924499 0.129142
O O5 0.500000 0.083923 0.394443
O O6 0.741895 0.168624 0.408843
O O7 0.744868 0.000000 0.408392
O O8 0.750040 0.361126 0.169050
O O9 0.749439 0.302016 0.328933
O O10 0.000000 0.312236 0.241497
O O11 0.500000 0.595858 0.906503
O O12 0.728865 0.500000 0.900260
O O13 0.737427 0.617069 0.000000
O O14 0.500000 0.000000 0.872369
O O15 0.326285 0.000000 0.000000
O O16 0.730080 0.291743 0.500000
O O17 0.500000 0.258499 0.595389
#
# Coordination Sequence:
#
# PCOD9384945 Si02
#       6
#     8   8   8   8   4   8
#     4  10  20  33  48  67  95 132 173 214 257 311
#     4   9  16  27  46  69  94 127 169 219 269 314
#     4  10  21  35  54  81 111 145 179 215 266 323
#     4   9  19  37  61  88 115 141 171 211 261 318
#     4  11  23  35  47  65  90 125 172 223 271 314
#     4   9  18  32  50  74 105 143 186 228 270 317
#
# _framework density 18.153143
#
# number of rings (size 3 to 8) (size 9 to 14) (size 15 to 20)
#    0.000    2.455    0.909    1.909    0.000    5.091 
#    0.000    6.364    0.000    0.545    0.000    8.909 
#    0.000    0.000    0.000    0.000    0.000    0.000 
#
# Total GULP energy -245144.577121 kJ/mol
# GULP energy per Si atom -5571.467662 kJ/mol
# Density = 1.811183 g / cm^3
# Si number density = 18.153143 Si / 1000 Ang^3
#
#
#
# Elastic Constant Matrix: (Units=GPa)
#
#
# Indices 1 2 3 4 5 6 
#
# 1 23.6341 29.6078 38.1989 0.0000 0.0000 0.0000
# 2 29.6078 71.7863 72.2290 0.0000 0.0000 0.0000
# 3 38.1989 72.2290 165.6400 0.0000 0.0000 0.0000
# 4 0.0000 0.0000 0.0000 12.7024 0.0000 0.0000
# 5 0.0000 0.0000 0.0000 0.0000 -3.5631 0.0000
# 6 0.0000 0.0000 0.0000 0.0000 0.0000 18.9360
#
#
#
# Elastic Compliance Matrix: (Units=1/GPa)
#
#
# Indices 1 2 3 4 5 6 
#
# 1 0.093791 -0.030148 -0.008483 0.000000 0.000000 0.000000
# 2 -0.030148 0.034511 -0.008096 0.000000 0.000000 0.000000
# 3 -0.008483 -0.008096 0.011524 0.000000 0.000000 0.000000
# 4 0.000000 0.000000 0.000000 0.078725 0.000000 0.000000
# 5 0.000000 0.000000 0.000000 0.000000 -0.280655 0.000000
# 6 0.000000 0.000000 0.000000 0.000000 0.000000 0.052809
#
#
# Mechanical properties :
#
#
# Convention : Reuss Voigt Hill
#
# Bulk Modulus (GPa) = 21.56528 60.12577 40.84553
# Shear Modulus (GPa) = 50.19245 13.68339 31.93792
#
# Velocity S-wave (km/s) = 5.26398 2.74847 4.19902
# Velocity P-wave (km/s) = 6.98938 6.57765 6.78664
#
# Compressibility (1/GPa) = 0.04637084
#
# Stress axis : x y z
#
# Youngs Moduli (GPa) = 10.66204 28.97658 86.77577
#
# Poissons Ratio (x) = 0.87358 0.73613
# Poissons Ratio (y) = 0.32144 0.70255
# Poissons Ratio (z) = 0.09045 0.23460
#
# Static dielectric constant tensor:
#      x y z
#    x 1.622530 0.000000 0.000000 
#    y 0.000000 1.622530 0.000000 
#    z 0.000000 0.000000 1.643380 
# 
# From -- ./inp_files/8966.got.cif
#   From: 2010.05.17/outbox.cif.g08.bks.cpg/sg47_5_cif.got.tgz:8966.got - 2010.06.03 20:15:42.
