data_PCOD9384468
_publ_section_title
;
Structure prediction by ZEFSAII (Michael W. Deem and Ramdas Pophale) SiO2 
 PCOD9384468
Probable space group: P M M M
;
_chemical_formula_sum "Si O2"
_cell_formula_units_Z 56
_cell_length_a 24.063979
_cell_length_b 16.906576
_cell_length_c 8.670685
_cell_angle_alpha 90.000000
_cell_angle_beta 90.000000
_cell_angle_gamma 90.000000
_cell_volume 3527.577062
_symmetry_space_group_name_H-M "P M M M"
_symmetry_group_IT_number 47
_symmetry_cell_setting 'orthorhombic'
loop_
_space_group_symop_operation_xyz
x,y,z
-x,-y,z
x,-y,-z
-x,y,-z
-x,-y,-z
x,y,-z
-x,y,z
x,-y,z
loop_
_atom_site_type_symbol
_atom_site_label
_atom_site_fract_x
_atom_site_fract_y
_atom_site_fract_z
Si Si1 0.327520 0.158150 0.315376
Si Si2 0.736360 0.000000 0.687297
Si Si3 0.937758 0.680784 0.686002
Si Si4 0.864887 0.000000 0.315151
Si Si5 0.436361 0.091637 0.185868
Si Si6 0.767150 0.739958 0.184403
Si Si7 0.172653 0.590096 0.686367
Si Si8 0.878762 0.168063 0.815392
O O1 0.327019 0.160232 0.500000
O O2 0.390104 0.148333 0.256366
O O3 0.290854 0.229658 0.251226
O O4 0.295558 0.078412 0.261413
O O5 0.800189 0.000000 0.737184
O O6 0.736223 0.000000 0.500000
O O7 0.936434 0.686928 0.500000
O O8 0.889304 0.619602 0.730875
O O9 0.920943 0.765453 0.755394
O O10 0.000000 0.657698 0.732524
O O11 0.889741 0.081649 0.252677
O O12 0.866700 0.000000 0.500000
O O13 0.500000 0.110530 0.229189
O O14 0.425675 0.000000 0.233778
O O15 0.432868 0.093875 0.000000
O O16 0.785349 0.654121 0.244324
O O17 0.817311 0.799797 0.233476
O O18 0.765332 0.740283 0.000000
O O19 0.176094 0.593391 0.500000
O O20 0.182279 0.500000 0.735251
O O21 0.879953 0.164886 0.000000
#
# Coordination Sequence:
#
# PCOD9384468 Si02
#       8
#     8   4   8   4   8   8   8   8
#     4  11  19  30  46  68  95 125 166 207 244 282
#     4   9  18  27  40  65  92 120 154 198 242 279
#     4   9  18  33  52  72  94 122 154 187 227 277
#     4  11  19  31  48  65  90 121 156 197 241 286
#     4   9  18  31  44  61  91 132 173 210 247 283
#     4  10  20  32  47  69  96 126 156 190 236 286
#     4   9  18  33  53  76 100 124 149 183 230 282
#     4  10  20  32  46  67  93 121 155 194 236 279
#
# _framework density 15.874919
#
# number of rings (size 3 to 8) (size 9 to 14) (size 15 to 20)
#    0.000    2.286    2.143    1.929    0.000    2.286 
#    0.000    2.500    0.000    2.143    0.000    4.000 
#    0.000    0.571    0.000    6.000    0.000    2.571 
#
# Total GULP energy -312363.159560 kJ/mol
# GULP energy per Si atom -5577.913564 kJ/mol
# Density = 1.583879 g / cm^3
# Si number density = 15.874919 Si / 1000 Ang^3
#
#
#
# Elastic Constant Matrix: (Units=GPa)
#
#
# Indices 1 2 3 4 5 6 
#
# 1 99.5700 47.8452 27.1866 0.0000 0.0000 0.0000
# 2 47.8452 114.7956 28.6146 0.0000 0.0000 0.0000
# 3 27.1866 28.6146 27.0964 0.0000 0.0000 0.0000
# 4 0.0000 0.0000 0.0000 17.5679 0.0000 0.0000
# 5 0.0000 0.0000 0.0000 0.0000 21.3194 0.0000
# 6 0.0000 0.0000 0.0000 0.0000 0.0000 14.8910
#
#
#
# Elastic Compliance Matrix: (Units=1/GPa)
#
#
# Indices 1 2 3 4 5 6 
#
# 1 0.014714 -0.003329 -0.011247 0.000000 0.000000 0.000000
# 2 -0.003329 0.012577 -0.009941 0.000000 0.000000 0.000000
# 3 -0.011247 -0.009941 0.058688 0.000000 0.000000 0.000000
# 4 0.000000 0.000000 0.000000 0.056922 0.000000 0.000000
# 5 0.000000 0.000000 0.000000 0.000000 0.046906 0.000000
# 6 0.000000 0.000000 0.000000 0.000000 0.000000 0.067155
#
#
# Mechanical properties :
#
#
# Convention : Reuss Voigt Hill
#
# Bulk Modulus (GPa) = 27.06821 49.86163 38.46492
# Shear Modulus (GPa) = 15.70792 19.94335 17.82564
#
# Velocity S-wave (km/s) = 3.14901 3.54825 3.35458
# Velocity P-wave (km/s) = 5.50542 6.94723 6.26792
#
# Compressibility (1/GPa) = 0.03694371
#
# Stress axis : x y z
#
# Youngs Moduli (GPa) = 67.96362 79.51282 17.03917
#
# Poissons Ratio (x) = 0.26469 0.19164
# Poissons Ratio (y) = 0.22625 0.16939
# Poissons Ratio (z) = 0.76441 0.79046
#
# Static dielectric constant tensor:
#      x y z
#    x 1.535220 0.000000 0.000000 
#    y 0.000000 1.512990 0.000000 
#    z 0.000000 0.000000 1.530010 
# 
# From -- ./inp_files/11321.got.cif
#   From: 2010.05.17/outbox.cif.g08.bks.cpg/sg47_6_cif.got.tgz:11321.got - 2010.06.03 20:15:42.
