data_PCOD9384668
_publ_section_title
;
Structure prediction by ZEFSAII (Michael W. Deem and Ramdas Pophale) SiO2 
 PCOD9384668
Probable space group: P M M M
;
_chemical_formula_sum "Si O2"
_cell_formula_units_Z 52
_cell_length_a 24.368015
_cell_length_b 14.015187
_cell_length_c 9.111647
_cell_angle_alpha 90.000000
_cell_angle_beta 90.000000
_cell_angle_gamma 90.000000
_cell_volume 3111.830522
_symmetry_space_group_name_H-M "P M M M"
_symmetry_group_IT_number 47
_symmetry_cell_setting 'orthorhombic'
loop_
_space_group_symop_operation_xyz
x,y,z
-x,-y,z
x,-y,-z
-x,y,-z
-x,-y,-z
x,y,-z
-x,y,z
x,-y,z
loop_
_atom_site_type_symbol
_atom_site_label
_atom_site_fract_x
_atom_site_fract_y
_atom_site_fract_z
Si Si1 0.828250 0.884962 0.328951
Si Si2 0.611770 0.885665 0.173590
Si Si3 0.441387 0.615933 0.672527
Si Si4 0.500000 0.883748 0.670330
Si Si5 0.320560 0.612174 0.677177
Si Si6 0.939043 0.115810 0.171172
Si Si7 0.273993 0.213652 0.824162
O O1 0.823203 0.860502 0.500000
O O2 0.887170 0.852727 0.265795
O O3 0.778438 0.840597 0.238618
O O4 0.825825 0.000000 0.315622
O O5 0.557042 0.851403 0.256713
O O6 0.669465 0.840134 0.220474
O O7 0.615821 0.000000 0.194821
O O8 0.604369 0.868211 0.000000
O O9 0.441424 0.641975 0.500000
O O10 0.500000 0.647643 0.737120
O O11 0.441556 0.500000 0.676209
O O12 0.381813 0.641778 0.732786
O O13 0.500000 0.858762 0.500000
O O14 0.500000 0.000000 0.682937
O O15 0.319291 0.623788 0.500000
O O16 0.312618 0.500000 0.707148
O O17 0.278276 0.681260 0.755572
O O18 0.000000 0.147535 0.219386
O O19 0.939506 0.000000 0.176751
O O20 0.931825 0.141793 0.000000
O O21 0.272061 0.216160 0.000000
#
# Coordination Sequence:
#
# PCOD9384668 Si02
#       7
#     8   8   8   4   8   8   8
#     4  10  20  32  48  72 102 134 167 206 245 280
#     4   9  18  33  50  65  86 120 156 189 232 287
#     4   7  10  20  41  65  84 104 133 171 221 282
#     4   9  17  29  47  69  88 109 144 193 241 280
#     4   9  18  33  51  69  92 121 153 195 245 294
#     4   8  14  26  45  69  99 136 172 200 229 272
#     4  11  22  34  49  69  94 127 163 199 240 291
#
# _framework density 16.710419999999999
#
# number of rings (size 3 to 8) (size 9 to 14) (size 15 to 20)
#    0.000    3.000    0.000    3.462    0.000    4.308 
#    1.385    3.077    0.000    0.000    0.000    2.154 
#    0.000    0.615    0.000    6.462    0.000    3.077 
#
# Total GULP energy -289814.497629 kJ/mol
# GULP energy per Si atom -5573.355724 kJ/mol
# Density = 1.667239 g / cm^3
# Si number density = 16.710420 Si / 1000 Ang^3
#
#
#
# Elastic Constant Matrix: (Units=GPa)
#
#
# Indices 1 2 3 4 5 6 
#
# 1 128.0577 37.1437 57.5579 0.0000 0.0000 0.0000
# 2 37.1437 36.6412 30.3131 0.0000 0.0000 0.0000
# 3 57.5579 30.3131 51.2628 0.0000 0.0000 0.0000
# 4 0.0000 0.0000 0.0000 14.5379 0.0000 0.0000
# 5 0.0000 0.0000 0.0000 0.0000 23.6956 0.0000
# 6 0.0000 0.0000 0.0000 0.0000 0.0000 12.6039
#
#
#
# Elastic Compliance Matrix: (Units=1/GPa)
#
#
# Indices 1 2 3 4 5 6 
#
# 1 0.015894 -0.002640 -0.016285 0.000000 0.000000 0.000000
# 2 -0.002640 0.053868 -0.028890 0.000000 0.000000 0.000000
# 3 -0.016285 -0.028890 0.054876 0.000000 0.000000 0.000000
# 4 0.000000 0.000000 0.000000 0.068786 0.000000 0.000000
# 5 0.000000 0.000000 0.000000 0.000000 0.042202 0.000000
# 6 0.000000 0.000000 0.000000 0.000000 0.000000 0.079341
#
#
# Mechanical properties :
#
#
# Convention : Reuss Voigt Hill
#
# Bulk Modulus (GPa) = 34.47253 51.77677 43.12465
# Shear Modulus (GPa) = 11.89724 16.23060 14.06392
#
# Velocity S-wave (km/s) = 2.67116 3.11993 2.90423
# Velocity P-wave (km/s) = 5.49433 6.63555 6.09172
#
# Compressibility (1/GPa) = 0.02900860
#
# Stress axis : x y z
#
# Youngs Moduli (GPa) = 62.91543 18.56396 18.22292
#
# Poissons Ratio (x) = 0.04900 0.29677
# Poissons Ratio (y) = 0.16607 0.52646
# Poissons Ratio (z) = 1.02460 0.53631
#
# Static dielectric constant tensor:
#      x y z
#    x 1.573130 0.000000 0.000000 
#    y 0.000000 1.578050 0.000000 
#    z 0.000000 0.000000 1.553700 
# 
# From -- ./inp_files/10951.got.cif
#   From: 2010.05.17/outbox.cif.g08.bks.cpg/sg47_6_cif.got.tgz:10951.got - 2010.06.03 20:15:42.
