data_PCOD9384700
_publ_section_title
;
Structure prediction by ZEFSAII (Michael W. Deem and Ramdas Pophale) SiO2 
 PCOD9384700
Probable space group: P M M M
;
_chemical_formula_sum "Si O2"
_cell_formula_units_Z 48
_cell_length_a 7.520632
_cell_length_b 32.372182
_cell_length_c 9.428061
_cell_angle_alpha 90.000000
_cell_angle_beta 90.000000
_cell_angle_gamma 90.000000
_cell_volume 2295.348828
_symmetry_space_group_name_H-M "P M M M"
_symmetry_group_IT_number 47
_symmetry_cell_setting 'orthorhombic'
loop_
_space_group_symop_operation_xyz
x,y,z
-x,-y,z
x,-y,-z
-x,y,-z
-x,-y,-z
x,y,-z
-x,y,z
x,-y,z
loop_
_atom_site_type_symbol
_atom_site_label
_atom_site_fract_x
_atom_site_fract_y
_atom_site_fract_z
Si Si1 0.216917 0.453579 0.336295
Si Si2 0.213562 0.375153 0.160364
Si Si3 0.213704 0.955617 0.665185
Si Si4 0.712871 0.706756 0.660852
Si Si5 0.718035 0.786347 0.163143
Si Si6 0.710828 0.865171 0.338185
O O1 0.269588 0.446406 0.500000
O O2 0.272220 0.500000 0.295082
O O3 0.279727 0.416843 0.235958
O O4 0.000000 0.453300 0.334428
O O5 0.251822 0.335329 0.255442
O O6 0.000000 0.378717 0.152817
O O7 0.281084 0.370284 0.000000
O O8 0.273391 0.954876 0.500000
O O9 0.264823 0.911114 0.724903
O O10 0.000000 0.956424 0.664898
O O11 0.274513 0.000000 0.725975
O O12 0.782373 0.705470 0.500000
O O13 0.500000 0.711219 0.651960
O O14 0.777673 0.746290 0.749043
O O15 0.500000 0.786329 0.162486
O O16 0.778702 0.828069 0.241508
O O17 0.774743 0.784557 0.000000
O O18 0.783819 0.864153 0.500000
O O19 0.500000 0.858829 0.350069
#
# Coordination Sequence:
#
# PCOD9384700 Si02
#       6
#     8   8   8   8   8   8
#     4   8  14  26  45  68  94 126 163 200 238 281
#     4  10  20  32  48  73 103 131 159 195 240 287
#     4   8  14  25  41  62  89 119 148 179 219 267
#     4  10  20  34  53  74  95 124 163 201 238 285
#     4   9  17  30  48  68  91 120 152 187 230 279
#     4   9  16  26  43  67  90 111 143 188 228 262
#
# _framework density 20.911853000000001
#
# number of rings (size 3 to 8) (size 9 to 14) (size 15 to 20)
#    0.000    3.000    0.000    2.500    0.000    4.667 
#    0.000    4.167    0.000    4.500    0.000    7.000 
#    0.000    0.000    0.000    0.000    0.000    0.000 
#
# Total GULP energy -267741.285455 kJ/mol
# GULP energy per Si atom -5577.943447 kJ/mol
# Density = 2.086426 g / cm^3
# Si number density = 20.911853 Si / 1000 Ang^3
#
#
#
# Elastic Constant Matrix: (Units=GPa)
#
#
# Indices 1 2 3 4 5 6 
#
# 1 51.9369 1.4194 6.5914 0.0000 0.0000 0.0000
# 2 1.4194 239.1645 131.5683 0.0000 0.0000 0.0000
# 3 6.5914 131.5683 155.0255 0.0000 0.0000 0.0000
# 4 0.0000 0.0000 0.0000 -54.8747 0.0000 0.0000
# 5 0.0000 0.0000 0.0000 0.0000 6.3161 0.0000
# 6 0.0000 0.0000 0.0000 0.0000 0.0000 20.2958
#
#
#
# Elastic Compliance Matrix: (Units=1/GPa)
#
#
# Indices 1 2 3 4 5 6 
#
# 1 0.019410 0.000636 -0.001365 0.000000 0.000000 0.000000
# 2 0.000636 0.007864 -0.006701 0.000000 0.000000 0.000000
# 3 -0.001365 -0.006701 0.012195 0.000000 0.000000 0.000000
# 4 0.000000 0.000000 0.000000 -0.018223 0.000000 0.000000
# 5 0.000000 0.000000 0.000000 0.000000 0.158325 0.000000
# 6 0.000000 0.000000 0.000000 0.000000 0.000000 0.049271
#
#
# Mechanical properties :
#
#
# Convention : Reuss Voigt Hill
#
# Bulk Modulus (GPa) = 40.63514 80.58722 60.61118
# Shear Modulus (GPa) = 19.84877 14.78398 17.31637
#
# Velocity S-wave (km/s) = 3.08419 2.66177 2.88073
# Velocity P-wave (km/s) = 5.67070 6.93303 6.33339
#
# Compressibility (1/GPa) = 0.02460924
#
# Stress axis : x y z
#
# Youngs Moduli (GPa) = 51.51992 127.16678 81.99751
#
# Poissons Ratio (x) = -0.08082 0.11190
# Poissons Ratio (y) = -0.03274 0.54945
# Poissons Ratio (z) = 0.07031 0.85212
#
# Static dielectric constant tensor:
#      x y z
#    x 1.815060 0.000000 0.000000 
#    y 0.000000 1.746460 0.000000 
#    z 0.000000 0.000000 1.720050 
# 
# From -- ./inp_files/2481.got.cif
#   From: 2010.05.17/outbox.cif.g08.bks.cpg/sg47_2_cif.got.tgz:2481.got - 2010.06.03 20:15:42.
