data_PCOD9384003
_publ_section_title
;
Structure prediction by ZEFSAII (Michael W. Deem and Ramdas Pophale) SiO2 
 PCOD9384003
Probable space group: P M M M
;
_chemical_formula_sum "Si O2"
_cell_formula_units_Z 48
_cell_length_a 17.908082
_cell_length_b 7.893790
_cell_length_c 18.251759
_cell_angle_alpha 90.000000
_cell_angle_beta 90.000000
_cell_angle_gamma 90.000000
_cell_volume 2580.116812
_symmetry_space_group_name_H-M "P M M M"
_symmetry_group_IT_number 47
_symmetry_cell_setting 'orthorhombic'
loop_
_space_group_symop_operation_xyz
x,y,z
-x,-y,z
x,-y,-z
-x,y,-z
-x,-y,-z
x,y,-z
-x,y,z
x,-y,z
loop_
_atom_site_type_symbol
_atom_site_label
_atom_site_fract_x
_atom_site_fract_y
_atom_site_fract_z
Si Si1 0.000000 0.797513 0.584439
Si Si2 0.913484 0.000000 0.088038
Si Si3 0.260093 0.800350 0.283913
Si Si4 0.189943 0.694048 0.863290
Si Si5 0.418763 0.199906 0.764844
Si Si6 0.162253 0.700974 0.584109
Si Si7 0.356129 0.296343 0.081276
O O1 0.079146 0.737903 0.615157
O O2 0.000000 0.733796 0.500000
O O3 0.000000 0.000000 0.584410
O O4 0.871046 0.832875 0.116345
O O5 0.000000 0.000000 0.110926
O O6 0.910229 0.000000 0.000000
O O7 0.210587 0.708384 0.222519
O O8 0.344913 0.733783 0.276074
O O9 0.223904 0.778020 0.362920
O O10 0.260379 0.000000 0.264519
O O11 0.169497 0.500000 0.881462
O O12 0.268252 0.736793 0.904035
O O13 0.500000 0.274645 0.747344
O O14 0.401801 0.221440 0.851210
O O15 0.422037 0.000000 0.748704
O O16 0.165495 0.765910 0.500000
O O17 0.172420 0.500000 0.582248
O O18 0.365245 0.500000 0.084096
O O19 0.377056 0.237206 0.000000
#
# Coordination Sequence:
#
# PCOD9384003 Si02
#       7
#     4   4   8   8   8   8   8
#     4   9  17  31  51  77 109 141 173 212 261 318
#     4  11  24  40  58  82 110 144 190 239 288 338
#     4  10  19  35  58  81 107 143 186 228 273 331
#     4  10  20  38  58  79 109 144 187 234 282 334
#     4   9  19  34  51  74 104 137 173 217 271 328
#     4  10  20  34  53  80 113 146 181 223 273 329
#     4   9  18  31  50  76 102 134 174 216 267 326
#
# _framework density 18.603809999999999
#
# number of rings (size 3 to 8) (size 9 to 14) (size 15 to 20)
#    0.000    2.333    0.833    1.750    1.167    5.000 
#    1.500    2.500    0.000    0.500    0.000    3.500 
#    0.000    0.000    0.000    0.000    0.000    0.000 
#
# Total GULP energy -267767.509304 kJ/mol
# GULP energy per Si atom -5578.489777 kJ/mol
# Density = 1.856147 g / cm^3
# Si number density = 18.603810 Si / 1000 Ang^3
#
#
#
# Elastic Constant Matrix: (Units=GPa)
#
#
# Indices 1 2 3 4 5 6 
#
# 1 134.4759 32.5495 43.3466 0.0000 0.0000 0.0000
# 2 32.5495 59.8768 -2.2019 0.0000 0.0000 0.0000
# 3 43.3466 -2.2019 66.1081 0.0000 0.0000 0.0000
# 4 0.0000 0.0000 0.0000 21.7472 0.0000 0.0000
# 5 0.0000 0.0000 0.0000 0.0000 7.0670 0.0000
# 6 0.0000 0.0000 0.0000 0.0000 0.0000 -4.9288
#
#
#
# Elastic Compliance Matrix: (Units=1/GPa)
#
#
# Indices 1 2 3 4 5 6 
#
# 1 0.011530 -0.006554 -0.007778 0.000000 0.000000 0.000000
# 2 -0.006554 0.020447 0.004978 0.000000 0.000000 0.000000
# 3 -0.007778 0.004978 0.020393 0.000000 0.000000 0.000000
# 4 0.000000 0.000000 0.000000 0.045983 0.000000 0.000000
# 5 0.000000 0.000000 0.000000 0.000000 0.141503 0.000000
# 6 0.000000 0.000000 0.000000 0.000000 0.000000 -0.202889
#
#
# Mechanical properties :
#
#
# Convention : Reuss Voigt Hill
#
# Bulk Modulus (GPa) = 29.70736 45.31658 37.51197
# Shear Modulus (GPa) = 74.74453 17.22817 45.98635
#
# Velocity S-wave (km/s) = 6.34541 3.04642 4.97719
# Velocity P-wave (km/s) = 8.34798 6.06513 7.29639
#
# Compressibility (1/GPa) = 0.03366169
#
# Stress axis : x y z
#
# Youngs Moduli (GPa) = 86.73148 48.90767 49.03700
#
# Poissons Ratio (x) = 0.32053 0.38143
# Poissons Ratio (y) = 0.56842 -0.24412
# Poissons Ratio (z) = 0.67463 -0.24348
#
# Static dielectric constant tensor:
#      x y z
#    x 1.661800 0.000000 0.000000 
#    y 0.000000 1.667380 0.000000 
#    z 0.000000 0.000000 1.641680 
# 
# From -- ./inp_files/28036.got.cif
#   From: 2010.05.17/outbox.cif.g08.bks.cpg/sg47_15_cif.got.tgz:28036.got - 2010.06.03 20:15:42.
