data_PCOD9384978
_publ_section_title
;
Structure prediction by ZEFSAII (Michael W. Deem and Ramdas Pophale) SiO2 
 PCOD9384978
Probable space group: P M M M
;
_chemical_formula_sum "Si O2"
_cell_formula_units_Z 40
_cell_length_a 17.657789
_cell_length_b 7.765874
_cell_length_c 20.374166
_cell_angle_alpha 90.000000
_cell_angle_beta 90.000000
_cell_angle_gamma 90.000000
_cell_volume 2793.871987
_symmetry_space_group_name_H-M "P M M M"
_symmetry_group_IT_number 47
_symmetry_cell_setting 'orthorhombic'
loop_
_space_group_symop_operation_xyz
x,y,z
-x,-y,z
x,-y,-z
-x,y,-z
-x,-y,-z
x,y,-z
-x,y,z
x,-y,z
loop_
_atom_site_type_symbol
_atom_site_label
_atom_site_fract_x
_atom_site_fract_y
_atom_site_fract_z
Si Si1 0.847970 0.703051 0.351862
Si Si2 0.413825 0.500000 0.420378
Si Si3 0.908850 0.793611 0.070528
Si Si4 0.302878 0.805666 0.422961
Si Si5 0.000000 0.289702 0.424201
Si Si6 0.088266 0.791135 0.214100
O O1 0.841152 0.500000 0.365869
O O2 0.773085 0.788086 0.380721
O O3 0.923953 0.768876 0.387887
O O4 0.862276 0.729509 0.274841
O O5 0.500000 0.500000 0.395974
O O6 0.417434 0.500000 0.500000
O O7 0.365297 0.667394 0.401676
O O8 0.884050 0.730051 0.142158
O O9 0.000000 0.771078 0.070921
O O10 0.895621 0.000000 0.069851
O O11 0.880856 0.724525 0.000000
O O12 0.284028 0.771577 0.500000
O O13 0.332223 0.000000 0.418555
O O14 0.000000 0.500000 0.421537
O O15 0.000000 0.238482 0.500000
O O16 0.000000 0.737059 0.223373
O O17 0.088250 0.000000 0.213697
#
# Coordination Sequence:
#
# PCOD9384978 Si02
#       6
#     8   4   8   8   4   8
#     4  11  19  29  42  56  81 114 147 184 221 259
#     4   9  18  34  54  73  91 109 132 168 215 267
#     4   7  10  18  33  51  69  93 129 175 223 262
#     4  10  20  33  49  68  89 113 142 178 218 261
#     4   9  18  28  39  53  70 104 150 188 220 253
#     4   9  16  25  37  54  77 103 139 186 224 258
#
# _framework density 14.317048
#
# number of rings (size 3 to 8) (size 9 to 14) (size 15 to 20)
#    0.000    2.800    2.000    3.000    0.000    1.200 
#    0.000    2.000    0.000    3.000    0.000    2.800 
#    0.000    0.000    0.000    0.000    0.000    2.000 
#
# Total GULP energy -222796.489967 kJ/mol
# GULP energy per Si atom -5569.912249 kJ/mol
# Density = 1.428446 g / cm^3
# Si number density = 14.317048 Si / 1000 Ang^3
#
#
#
# Elastic Constant Matrix: (Units=GPa)
#
#
# Indices 1 2 3 4 5 6 
#
# 1 78.6484 28.5245 36.1831 0.0000 0.0000 0.0000
# 2 28.5245 50.4689 14.8078 0.0000 0.0000 0.0000
# 3 36.1831 14.8078 98.8707 0.0000 0.0000 0.0000
# 4 0.0000 0.0000 0.0000 7.5189 0.0000 0.0000
# 5 0.0000 0.0000 0.0000 0.0000 3.5819 0.0000
# 6 0.0000 0.0000 0.0000 0.0000 0.0000 4.6925
#
#
#
# Elastic Compliance Matrix: (Units=1/GPa)
#
#
# Indices 1 2 3 4 5 6 
#
# 1 0.018402 -0.008812 -0.005415 0.000000 0.000000 0.000000
# 2 -0.008812 0.024944 -0.000511 0.000000 0.000000 0.000000
# 3 -0.005415 -0.000511 0.012172 0.000000 0.000000 0.000000
# 4 0.000000 0.000000 0.000000 0.132999 0.000000 0.000000
# 5 0.000000 0.000000 0.000000 0.000000 0.279182 0.000000
# 6 0.000000 0.000000 0.000000 0.000000 0.000000 0.213105
#
#
# Mechanical properties :
#
#
# Convention : Reuss Voigt Hill
#
# Bulk Modulus (GPa) = 38.39736 43.00207 40.69971
# Shear Modulus (GPa) = 6.95448 13.05684 10.00566
#
# Velocity S-wave (km/s) = 2.20636 3.02317 2.64647
# Velocity P-wave (km/s) = 5.77653 6.50284 6.15041
#
# Compressibility (1/GPa) = 0.02604346
#
# Stress axis : x y z
#
# Youngs Moduli (GPa) = 54.34259 40.08907 82.15355
#
# Poissons Ratio (x) = 0.35326 0.44483
# Poissons Ratio (y) = 0.47886 0.04199
# Poissons Ratio (z) = 0.29425 0.02049
#
# Static dielectric constant tensor:
#      x y z
#    x 1.430340 0.000000 0.000000 
#    y 0.000000 1.522730 0.000000 
#    z 0.000000 0.000000 1.504350 
# 
# From -- ./inp_files/30713.got.cif
#   From: 2010.05.17/outbox.cif.g08.bks.cpg/sg47_16_cif.got.tgz:30713.got - 2010.06.03 20:15:42.
