data_PCOD9384114
_publ_section_title
;
Structure prediction by ZEFSAII (Michael W. Deem and Ramdas Pophale) SiO2 
 PCOD9384114
Probable space group: P M M M
;
_chemical_formula_sum "Si O2"
_cell_formula_units_Z 64
_cell_length_a 14.530494
_cell_length_b 29.274217
_cell_length_c 7.572994
_cell_angle_alpha 90.000000
_cell_angle_beta 90.000000
_cell_angle_gamma 90.000000
_cell_volume 3221.315631
_symmetry_space_group_name_H-M "P M M M"
_symmetry_group_IT_number 47
_symmetry_cell_setting 'orthorhombic'
loop_
_space_group_symop_operation_xyz
x,y,z
-x,-y,z
x,-y,-z
-x,y,-z
-x,-y,-z
x,y,-z
-x,y,z
x,-y,z
loop_
_atom_site_type_symbol
_atom_site_label
_atom_site_fract_x
_atom_site_fract_y
_atom_site_fract_z
Si Si1 0.102004 0.552065 0.710764
Si Si2 0.608161 0.301219 0.215362
Si Si3 0.896237 0.946862 0.215580
Si Si4 0.606949 0.801739 0.784523
Si Si5 0.105485 0.690110 0.699949
Si Si6 0.895561 0.789754 0.788886
Si Si7 0.242096 0.871003 0.213017
Si Si8 0.254065 0.375691 0.808295
O O1 0.095458 0.550265 0.500000
O O2 0.110814 0.500000 0.776947
O O3 0.193829 0.581262 0.745293
O O4 0.000000 0.569959 0.772355
O O5 0.500000 0.305552 0.257347
O O6 0.638040 0.249662 0.271425
O O7 0.666343 0.344884 0.282806
O O8 0.616755 0.301491 0.000000
O O9 0.809280 0.916785 0.277233
O O10 0.000000 0.931319 0.269682
O O11 0.887123 0.000000 0.264502
O O12 0.896444 0.944477 0.000000
O O13 0.500000 0.805990 0.737049
O O14 0.665050 0.845786 0.723258
O O15 0.613030 0.801270 0.000000
O O16 0.110067 0.671688 0.500000
O O17 0.132946 0.742755 0.701227
O O18 0.173554 0.661820 0.816332
O O19 0.000000 0.688300 0.759495
O O20 0.832349 0.831936 0.749996
O O21 0.000000 0.799652 0.737849
O O22 0.892370 0.782145 0.000000
O O23 0.252436 0.876433 0.000000
O O24 0.291042 0.388720 0.000000
#
# Coordination Sequence:
#
# PCOD9384114 Si02
#       8
#     8   8   8   8   8   8   8   8
#     4   9  19  36  54  70  93 127 159 183 216 266
#     4   8  15  28  44  64  91 118 143 176 221 270
#     4   8  13  20  29  43  67 100 133 163 205 265
#     4   8  13  21  33  49  71 101 135 167 201 249
#     4  10  20  31  41  57  88 126 152 170 206 266
#     4   9  16  25  38  57  79 102 134 177 216 248
#     4   9  14  20  33  52  73  96 126 169 217 255
#     4  11  20  29  48  74  93 113 148 192 228 255
#
# _framework density 19.867660000000001
#
# number of rings (size 3 to 8) (size 9 to 14) (size 15 to 20)
#    0.000    3.000    0.000    3.750    0.000    6.250 
#    0.000    0.625    0.000    2.250    0.000    5.250 
#    0.000    0.500    0.000    4.625    0.000    4.500 
#
# Total GULP energy -356293.595139 kJ/mol
# GULP energy per Si atom -5567.087424 kJ/mol
# Density = 1.982244 g / cm^3
# Si number density = 19.867660 Si / 1000 Ang^3
#
#
#
# Elastic Constant Matrix: (Units=GPa)
#
#
# Indices 1 2 3 4 5 6 
#
# 1 108.1876 67.2608 7.9510 0.0000 0.0000 0.0000
# 2 67.2608 95.5540 10.1896 0.0000 0.0000 0.0000
# 3 7.9510 10.1896 28.3653 0.0000 0.0000 0.0000
# 4 0.0000 0.0000 0.0000 1.8705 0.0000 0.0000
# 5 0.0000 0.0000 0.0000 0.0000 50.4940 0.0000
# 6 0.0000 0.0000 0.0000 0.0000 0.0000 37.9574
#
#
#
# Elastic Compliance Matrix: (Units=1/GPa)
#
#
# Indices 1 2 3 4 5 6 
#
# 1 0.016442 -0.011523 -0.000469 0.000000 0.000000 0.000000
# 2 -0.011523 0.018958 -0.003580 0.000000 0.000000 0.000000
# 3 -0.000469 -0.003580 0.036672 0.000000 0.000000 0.000000
# 4 0.000000 0.000000 0.000000 0.534607 0.000000 0.000000
# 5 0.000000 0.000000 0.000000 0.000000 0.019804 0.000000
# 6 0.000000 0.000000 0.000000 0.000000 0.000000 0.026345
#
#
# Mechanical properties :
#
#
# Convention : Reuss Voigt Hill
#
# Bulk Modulus (GPa) = 24.43411 44.76775 34.60093
# Shear Modulus (GPa) = 7.16726 27.84475 17.50601
#
# Velocity S-wave (km/s) = 1.90140 3.74774 2.97160
# Velocity P-wave (km/s) = 4.14072 6.42723 5.40624
#
# Compressibility (1/GPa) = 0.04092640
#
# Stress axis : x y z
#
# Youngs Moduli (GPa) = 60.82034 52.74690 27.26872
#
# Poissons Ratio (x) = 0.60783 0.01280
# Poissons Ratio (y) = 0.70086 0.09763
# Poissons Ratio (z) = 0.02854 0.18885
#
# Static dielectric constant tensor:
#      x y z
#    x 1.707830 0.000000 0.000000 
#    y 0.000000 1.715410 0.000000 
#    z 0.000000 0.000000 1.769150 
# 
# From -- ./inp_files/8232.got.cif
#   From: 2010.05.17/outbox.cif.g08.bks.cpg/sg47_5_cif.got.tgz:8232.got - 2010.06.03 20:15:42.
