data_PCOD9384334
_publ_section_title
;
Structure prediction by ZEFSAII (Michael W. Deem and Ramdas Pophale) SiO2 
 PCOD9384334
Probable space group: P M M M
;
_chemical_formula_sum "Si O2"
_cell_formula_units_Z 36
_cell_length_a 7.933304
_cell_length_b 26.344079
_cell_length_c 9.025415
_cell_angle_alpha 90.000000
_cell_angle_beta 90.000000
_cell_angle_gamma 90.000000
_cell_volume 1886.271909
_symmetry_space_group_name_H-M "P M M M"
_symmetry_group_IT_number 47
_symmetry_cell_setting 'orthorhombic'
loop_
_space_group_symop_operation_xyz
x,y,z
-x,-y,z
x,-y,-z
-x,y,-z
-x,-y,-z
x,y,-z
-x,y,z
x,-y,z
loop_
_atom_site_type_symbol
_atom_site_label
_atom_site_fract_x
_atom_site_fract_y
_atom_site_fract_z
Si Si1 0.698888 0.377111 0.180280
Si Si2 0.703006 0.055137 0.329129
Si Si3 0.800314 0.842324 0.833377
Si Si4 0.298433 0.264805 0.168739
Si Si5 0.000000 0.560402 0.676419
O O1 0.500000 0.386068 0.217324
O O2 0.750014 0.319778 0.230459
O O3 0.832494 0.415372 0.250409
O O4 0.709261 0.378168 0.000000
O O5 0.758823 0.058011 0.500000
O O6 0.500000 0.054332 0.328503
O O7 0.755962 0.105647 0.246344
O O8 0.760497 0.000000 0.268451
O O9 0.745442 0.789108 0.759465
O O10 0.000000 0.839942 0.843681
O O11 0.725611 0.843865 0.000000
O O12 0.500000 0.267045 0.159089
O O13 0.228542 0.262491 0.000000
O O14 0.000000 0.500000 0.700060
O O15 0.000000 0.570182 0.500000
#
# Coordination Sequence:
#
# PCOD9384334 Si02
#       5
#     8   8   8   8   4
#     4   9  19  37  63  91 115 147 195 246 290 335
#     4   9  19  36  54  69  90 128 177 222 263 310
#     4  10  20  31  48  78 109 135 165 206 260 321
#     4   8  15  30  53  80 107 135 170 216 270 321
#     4  11  25  41  57  83 121 163 198 231 282 343
#
# _framework density 19.085267000000002
#
# number of rings (size 3 to 8) (size 9 to 14) (size 15 to 20)
#    0.000    2.778    0.000    3.000    1.556    4.444 
#    0.000    6.667    0.000    1.333    0.000    0.000 
#    0.000    0.000    0.000    0.000    0.000    0.000 
#
# Total GULP energy -200481.977294 kJ/mol
# GULP energy per Si atom -5568.943814 kJ/mol
# Density = 1.904183 g / cm^3
# Si number density = 19.085267 Si / 1000 Ang^3
#
#
#
# Elastic Constant Matrix: (Units=GPa)
#
#
# Indices 1 2 3 4 5 6 
#
# 1 67.2088 65.3913 26.1634 0.0000 0.0000 0.0000
# 2 65.3913 195.8464 56.3972 0.0000 0.0000 0.0000
# 3 26.1634 56.3972 32.6321 0.0000 0.0000 0.0000
# 4 0.0000 0.0000 0.0000 56.1693 0.0000 0.0000
# 5 0.0000 0.0000 0.0000 0.0000 63.4114 0.0000
# 6 0.0000 0.0000 0.0000 0.0000 0.0000 46.6404
#
#
#
# Elastic Compliance Matrix: (Units=1/GPa)
#
#
# Indices 1 2 3 4 5 6 
#
# 1 0.023756 -0.004872 -0.010627 0.000000 0.000000 0.000000
# 2 -0.004872 0.011164 -0.015389 0.000000 0.000000 0.000000
# 3 -0.010627 -0.015389 0.065761 0.000000 0.000000 0.000000
# 4 0.000000 0.000000 0.000000 0.017803 0.000000 0.000000
# 5 0.000000 0.000000 0.000000 0.000000 0.015770 0.000000
# 6 0.000000 0.000000 0.000000 0.000000 0.000000 0.021441
#
#
# Mechanical properties :
#
#
# Convention : Reuss Voigt Hill
#
# Bulk Modulus (GPa) = 25.70310 65.73235 45.71773
# Shear Modulus (GPa) = 21.69778 43.09325 32.39552
#
# Velocity S-wave (km/s) = 3.37543 4.75693 4.12443
# Velocity P-wave (km/s) = 5.35613 8.04284 6.83284
#
# Compressibility (1/GPa) = 0.03890581
#
# Stress axis : x y z
#
# Youngs Moduli (GPa) = 42.09482 89.57386 15.20661
#
# Poissons Ratio (x) = 0.43636 0.16161
# Poissons Ratio (y) = 0.20507 0.23401
# Poissons Ratio (z) = 0.44736 1.37841
#
# Static dielectric constant tensor:
#      x y z
#    x 1.659470 0.000000 0.000000 
#    y 0.000000 1.711020 0.000000 
#    z 0.000000 0.000000 1.670610 
# 
# From -- ./inp_files/1393.got.cif
#   From: 2010.05.17/outbox.cif.g08.bks.cpg/sg47_1_cif.got.tgz:1393.got - 2010.06.03 20:15:42.
