data_PCOD9384780
_publ_section_title
;
Structure prediction by ZEFSAII (Michael W. Deem and Ramdas Pophale) SiO2 
 PCOD9384780
Probable space group: P M M M
;
_chemical_formula_sum "Si O2"
_cell_formula_units_Z 48
_cell_length_a 9.665574
_cell_length_b 31.890406
_cell_length_c 7.480818
_cell_angle_alpha 90.000000
_cell_angle_beta 90.000000
_cell_angle_gamma 90.000000
_cell_volume 2305.880451
_symmetry_space_group_name_H-M "P M M M"
_symmetry_group_IT_number 47
_symmetry_cell_setting 'orthorhombic'
loop_
_space_group_symop_operation_xyz
x,y,z
-x,-y,z
x,-y,-z
-x,y,-z
-x,-y,-z
x,y,-z
-x,y,z
x,-y,z
loop_
_atom_site_type_symbol
_atom_site_label
_atom_site_fract_x
_atom_site_fract_y
_atom_site_fract_z
Si Si1 0.656996 0.124449 0.714567
Si Si2 0.658090 0.282018 0.786579
Si Si3 0.158401 0.047663 0.281978
Si Si4 0.156996 0.794331 0.214115
Si Si5 0.160035 0.453476 0.718104
Si Si6 0.342608 0.376200 0.285351
O O1 0.648752 0.120761 0.500000
O O2 0.500000 0.129082 0.782249
O O3 0.734902 0.082735 0.780751
O O4 0.751673 0.164591 0.752161
O O5 0.500000 0.278439 0.716362
O O6 0.759857 0.246227 0.716446
O O7 0.708915 0.329334 0.754264
O O8 0.649570 0.276514 0.000000
O O9 0.159680 0.047973 0.500000
O O10 0.000000 0.057334 0.228364
O O11 0.190966 0.000000 0.226781
O O12 0.000000 0.797990 0.283199
O O13 0.147155 0.789782 0.000000
O O14 0.162322 0.453019 0.500000
O O15 0.208851 0.500000 0.772715
O O16 0.250325 0.414493 0.781649
O O17 0.000000 0.449007 0.771216
O O18 0.347480 0.379818 0.500000
O O19 0.500000 0.378905 0.217427
#
# Coordination Sequence:
#
# PCOD9384780 Si02
#       6
#     8   8   8   8   8   8
#     4  10  20  32  49  75 103 130 161 198 240 284
#     4   9  18  33  50  66  89 122 154 185 229 284
#     4   8  14  26  45  69  98 131 163 195 234 280
#     4  10  21  36  53  72  94 124 163 202 241 288
#     4   8  14  25  41  62  89 119 148 179 219 267
#     4   9  17  28  44  68  93 115 145 187 228 265
#
# _framework density 20.816344000000001
#
# number of rings (size 3 to 8) (size 9 to 14) (size 15 to 20)
#    0.000    3.000    0.000    2.000    0.000    4.000 
#    0.000    5.000    0.000    1.000    0.000    7.000 
#    0.000    0.000    0.000    0.000    0.000    0.000 
#
# Total GULP energy -267860.909440 kJ/mol
# GULP energy per Si atom -5580.435613 kJ/mol
# Density = 2.076897 g / cm^3
# Si number density = 20.816344 Si / 1000 Ang^3
#
#
#
# Elastic Constant Matrix: (Units=GPa)
#
#
# Indices 1 2 3 4 5 6 
#
# 1 156.4529 142.6997 6.0378 0.0000 0.0000 0.0000
# 2 142.6997 217.6357 -0.3608 0.0000 0.0000 0.0000
# 3 6.0378 -0.3608 59.5161 0.0000 0.0000 0.0000
# 4 0.0000 0.0000 0.0000 31.5761 0.0000 0.0000
# 5 0.0000 0.0000 0.0000 0.0000 6.6834 0.0000
# 6 0.0000 0.0000 0.0000 0.0000 0.0000 41.8365
#
#
#
# Elastic Compliance Matrix: (Units=1/GPa)
#
#
# Indices 1 2 3 4 5 6 
#
# 1 0.016070 -0.010540 -0.001694 0.000000 0.000000 0.000000
# 2 -0.010540 0.011508 0.001139 0.000000 0.000000 0.000000
# 3 -0.001694 0.001139 0.016981 0.000000 0.000000 0.000000
# 4 0.000000 0.000000 0.000000 0.031670 0.000000 0.000000
# 5 0.000000 0.000000 0.000000 0.000000 0.149625 0.000000
# 6 0.000000 0.000000 0.000000 0.000000 0.000000 0.023903
#
#
# Mechanical properties :
#
#
# Convention : Reuss Voigt Hill
#
# Bulk Modulus (GPa) = 44.70520 81.15088 62.92804
# Shear Modulus (GPa) = 17.89532 35.03439 26.46485
#
# Velocity S-wave (km/s) = 2.93521 4.10692 3.56947
# Velocity P-wave (km/s) = 5.74542 7.84588 6.87633
#
# Compressibility (1/GPa) = 0.02236876
#
# Stress axis : x y z
#
# Youngs Moduli (GPa) = 62.22596 86.89953 58.88945
#
# Poissons Ratio (x) = 0.91591 0.09977
# Poissons Ratio (y) = 0.65586 -0.06708
# Poissons Ratio (z) = 0.10542 -0.09898
#
# Static dielectric constant tensor:
#      x y z
#    x 1.738350 0.000000 0.000000 
#    y 0.000000 1.717010 0.000000 
#    z 0.000000 0.000000 1.803330 
# 
# From -- ./inp_files/2443.got.cif
#   From: 2010.05.17/outbox.cif.g08.bks.cpg/sg47_2_cif.got.tgz:2443.got - 2010.06.03 20:15:42.
