data_PCOD9384899
_publ_section_title
;
Structure prediction by ZEFSAII (Michael W. Deem and Ramdas Pophale) SiO2 
 PCOD9384899
Probable space group: P M M M
;
_chemical_formula_sum "Si O2"
_cell_formula_units_Z 44
_cell_length_a 23.930131
_cell_length_b 14.223908
_cell_length_c 9.094201
_cell_angle_alpha 90.000000
_cell_angle_beta 90.000000
_cell_angle_gamma 90.000000
_cell_volume 3095.483971
_symmetry_space_group_name_H-M "P M M M"
_symmetry_group_IT_number 47
_symmetry_cell_setting 'orthorhombic'
loop_
_space_group_symop_operation_xyz
x,y,z
-x,-y,z
x,-y,-z
-x,y,-z
-x,-y,-z
x,y,-z
-x,y,z
x,-y,z
loop_
_atom_site_type_symbol
_atom_site_label
_atom_site_fract_x
_atom_site_fract_y
_atom_site_fract_z
Si Si1 0.788424 0.612966 0.826664
Si Si2 0.106436 0.291046 0.675351
Si Si3 0.562031 0.385770 0.828112
Si Si4 0.000000 0.612768 0.172426
Si Si5 0.933278 0.108995 0.826221
Si Si6 0.326029 0.385642 0.331555
O O1 0.794414 0.500000 0.807483
O O2 0.836796 0.664524 0.737299
O O3 0.727433 0.640466 0.765921
O O4 0.793226 0.632929 0.000000
O O5 0.103787 0.298109 0.500000
O O6 0.054704 0.346489 0.749042
O O7 0.099228 0.183882 0.729075
O O8 0.500000 0.355227 0.778546
O O9 0.562111 0.500000 0.821712
O O10 0.615056 0.352759 0.735415
O O11 0.568665 0.361097 0.000000
O O12 0.000000 0.500000 0.180316
O O13 0.000000 0.640369 0.000000
O O14 0.000000 0.121659 0.802634
O O15 0.920170 0.000000 0.794621
O O16 0.922949 0.125704 0.000000
O O17 0.319057 0.355516 0.500000
O O18 0.327691 0.500000 0.330799
#
# Coordination Sequence:
#
# PCOD9384899 Si02
#       6
#     8   8   8   4   8   8
#     4  10  20  33  47  60  79 113 151 181 211 254
#     4  12  23  33  48  70  91 110 135 174 219 258
#     4   8  13  21  33  49  70  98 133 171 209 250
#     4  11  23  37  50  63  84 115 147 176 208 251
#     4   9  18  34  55  73  89 111 137 166 203 253
#     4   9  16  25  37  54  76 101 133 176 219 253
#
# _framework density 14.214255
#
# number of rings (size 3 to 8) (size 9 to 14) (size 15 to 20)
#    0.000    2.273    0.909    4.636    0.000    6.909 
#    0.000    2.727    0.000    0.000    0.000    0.000 
#    0.000    0.000    0.000    0.000    0.000    0.909 
#
# Total GULP energy -245337.875098 kJ/mol
# GULP energy per Si atom -5575.860798 kJ/mol
# Density = 1.418190 g / cm^3
# Si number density = 14.214255 Si / 1000 Ang^3
#
#
#
# Elastic Constant Matrix: (Units=GPa)
#
#
# Indices 1 2 3 4 5 6 
#
# 1 114.0723 32.8519 69.2114 0.0000 0.0000 0.0000
# 2 32.8519 41.9085 43.2117 0.0000 0.0000 0.0000
# 3 69.2114 43.2117 116.6239 0.0000 0.0000 0.0000
# 4 0.0000 0.0000 0.0000 11.0723 0.0000 0.0000
# 5 0.0000 0.0000 0.0000 0.0000 12.6448 0.0000
# 6 0.0000 0.0000 0.0000 0.0000 0.0000 0.6829
#
#
#
# Elastic Compliance Matrix: (Units=1/GPa)
#
#
# Indices 1 2 3 4 5 6 
#
# 1 0.014086 -0.003920 -0.006907 0.000000 0.000000 0.000000
# 2 -0.003920 0.039705 -0.012385 0.000000 0.000000 0.000000
# 3 -0.006907 -0.012385 0.017262 0.000000 0.000000 0.000000
# 4 0.000000 0.000000 0.000000 0.090315 0.000000 0.000000
# 5 0.000000 0.000000 0.000000 0.000000 0.079084 0.000000
# 6 0.000000 0.000000 0.000000 0.000000 0.000000 1.464320
#
#
# Mechanical properties :
#
#
# Convention : Reuss Voigt Hill
#
# Bulk Modulus (GPa) = 40.60273 62.57272 51.58773
# Shear Modulus (GPa) = 2.84187 13.36866 8.10526
#
# Velocity S-wave (km/s) = 1.41550 3.07010 2.39052
# Velocity P-wave (km/s) = 5.59449 7.52888 6.63259
#
# Compressibility (1/GPa) = 0.02462888
#
# Stress axis : x y z
#
# Youngs Moduli (GPa) = 70.99229 25.18597 57.92927
#
# Poissons Ratio (x) = 0.09874 0.40011
# Poissons Ratio (y) = 0.27831 0.71745
# Poissons Ratio (z) = 0.49034 0.31193
#
# Static dielectric constant tensor:
#      x y z
#    x 1.467350 0.000000 0.000000 
#    y 0.000000 1.448440 0.000000 
#    z 0.000000 0.000000 1.472220 
# 
# From -- ./inp_files/10887.got.cif
#   From: 2010.05.17/outbox.cif.g08.bks.cpg/sg47_6_cif.got.tgz:10887.got - 2010.06.03 20:15:42.
