data_PCOD9384654
_publ_section_title
;
Structure prediction by ZEFSAII (Michael W. Deem and Ramdas Pophale) SiO2 
 PCOD9384654
Probable space group: P M M M
;
_chemical_formula_sum "Si O2"
_cell_formula_units_Z 48
_cell_length_a 31.473172
_cell_length_b 9.799796
_cell_length_c 7.978264
_cell_angle_alpha 90.000000
_cell_angle_beta 90.000000
_cell_angle_gamma 90.000000
_cell_volume 2460.741272
_symmetry_space_group_name_H-M "P M M M"
_symmetry_group_IT_number 47
_symmetry_cell_setting 'orthorhombic'
loop_
_space_group_symop_operation_xyz
x,y,z
-x,-y,z
x,-y,-z
-x,y,-z
-x,-y,-z
x,y,-z
-x,y,z
x,-y,z
loop_
_atom_site_type_symbol
_atom_site_label
_atom_site_fract_x
_atom_site_fract_y
_atom_site_fract_z
Si Si1 0.000000 0.656832 0.705480
Si Si2 0.250254 0.654010 0.299558
Si Si3 0.673352 0.845332 0.801001
Si Si4 0.922188 0.156324 0.295559
Si Si5 0.500000 0.654446 0.199519
Si Si6 0.174279 0.843748 0.295205
Si Si7 0.577643 0.154694 0.700144
O O1 0.041866 0.739032 0.760419
O O2 0.000000 0.500000 0.759374
O O3 0.000000 0.657323 0.500000
O O4 0.244850 0.645031 0.500000
O O5 0.252440 0.500000 0.232491
O O6 0.292887 0.739148 0.268455
O O7 0.210014 0.739991 0.234059
O O8 0.624622 0.808029 0.762726
O O9 0.680334 0.000000 0.734064
O O10 0.678705 0.849445 0.000000
O O11 0.922479 0.157339 0.500000
O O12 0.873973 0.189951 0.243498
O O13 0.931582 0.000000 0.245010
O O14 0.500000 0.500000 0.268662
O O15 0.541505 0.739515 0.250443
O O16 0.500000 0.645672 0.000000
O O17 0.174683 0.842393 0.500000
O O18 0.183656 0.000000 0.244642
O O19 0.579120 0.149591 0.500000
O O20 0.568042 0.000000 0.762046
#
# Coordination Sequence:
#
# PCOD9384654 Si02
#       7
#     4   8   8   8   4   8   8
#     4   9  15  19  25  41  67 101 140 183 232 285
#     4  10  20  32  48  72 100 130 163 201 249 303
#     4  10  21  37  57  79 102 132 170 210 253 300
#     4   8  13  21  32  46  67 100 143 188 233 282
#     4  11  24  39  56  82 116 151 182 213 254 302
#     4   8  14  25  41  59  80 111 153 199 243 288
#     4  10  21  38  61  86 109 137 176 219 260 302
#
# _framework density 19.506318
#
# number of rings (size 3 to 8) (size 9 to 14) (size 15 to 20)
#    0.000    2.667    0.000    3.250    0.000    7.000 
#    0.000    3.333    0.000    0.000    0.000    0.000 
#    0.000    0.000    0.000    0.750    0.000   15.333 
#
# Total GULP energy -267852.943225 kJ/mol
# GULP energy per Si atom -5580.269651 kJ/mol
# Density = 1.946192 g / cm^3
# Si number density = 19.506318 Si / 1000 Ang^3
#
#
#
# Elastic Constant Matrix: (Units=GPa)
#
#
# Indices 1 2 3 4 5 6 
#
# 1 162.5867 141.7500 -0.8818 0.0000 0.0000 0.0000
# 2 141.7500 170.9250 6.1967 0.0000 0.0000 0.0000
# 3 -0.8818 6.1967 17.8875 0.0000 0.0000 0.0000
# 4 0.0000 0.0000 0.0000 11.4413 0.0000 0.0000
# 5 0.0000 0.0000 0.0000 0.0000 -70.4666 0.0000
# 6 0.0000 0.0000 0.0000 0.0000 0.0000 -6.7038
#
#
#
# Elastic Compliance Matrix: (Units=1/GPa)
#
#
# Indices 1 2 3 4 5 6 
#
# 1 0.023267 -0.019583 0.007931 0.000000 0.000000 0.000000
# 2 -0.019583 0.022407 -0.008728 0.000000 0.000000 0.000000
# 3 0.007931 -0.008728 0.059319 0.000000 0.000000 0.000000
# 4 0.000000 0.000000 0.000000 0.087402 0.000000 0.000000
# 5 0.000000 0.000000 0.000000 0.000000 -0.014191 0.000000
# 6 0.000000 0.000000 0.000000 0.000000 0.000000 -0.149170
#
#
# Mechanical properties :
#
#
# Convention : Reuss Voigt Hill
#
# Bulk Modulus (GPa) = 15.56810 71.72547 43.64678
# Shear Modulus (GPa) = 54.82068 0.47647 27.64858
#
# Velocity S-wave (km/s) = 5.30708 0.49477 3.76894
# Velocity P-wave (km/s) = 6.74921 6.09726 6.43150
#
# Compressibility (1/GPa) = 0.06423391
#
# Stress axis : x y z
#
# Youngs Moduli (GPa) = 42.97947 44.62815 16.85790
#
# Poissons Ratio (x) = 0.87396 -0.13370
# Poissons Ratio (y) = 0.84167 0.14713
# Poissons Ratio (z) = -0.34087 0.38951
#
# Static dielectric constant tensor:
#      x y z
#    x 1.588580 0.000000 0.000000 
#    y 0.000000 1.681590 0.000000 
#    z 0.000000 0.000000 1.705440 
# 
# From -- ./inp_files/13881.got.cif
#   From: 2010.05.17/outbox.cif.g08.bks.cpg/sg47_7_cif.got.tgz:13881.got - 2010.06.03 20:15:42.
