data_PCOD9384909
_publ_section_title
;
Structure prediction by ZEFSAII (Michael W. Deem and Ramdas Pophale) SiO2 
 PCOD9384909
Probable space group: P M M M
;
_chemical_formula_sum "Si O2"
_cell_formula_units_Z 52
_cell_length_a 9.168981
_cell_length_b 24.504507
_cell_length_c 14.251287
_cell_angle_alpha 90.000000
_cell_angle_beta 90.000000
_cell_angle_gamma 90.000000
_cell_volume 3201.998532
_symmetry_space_group_name_H-M "P M M M"
_symmetry_group_IT_number 47
_symmetry_cell_setting 'orthorhombic'
loop_
_space_group_symop_operation_xyz
x,y,z
-x,-y,z
x,-y,-z
-x,y,-z
-x,-y,-z
x,y,-z
-x,y,z
x,-y,z
loop_
_atom_site_type_symbol
_atom_site_label
_atom_site_fract_x
_atom_site_fract_y
_atom_site_fract_z
Si Si1 0.175887 0.217088 0.703504
Si Si2 0.328127 0.440078 0.613628
Si Si3 0.825660 0.830542 0.106309
Si Si4 0.825425 0.669613 0.610666
Si Si5 0.669286 0.940744 0.885869
Si Si6 0.169239 0.000000 0.385184
Si Si7 0.670710 0.887994 0.386611
O O1 0.209571 0.213222 0.814202
O O2 0.222397 0.274891 0.661033
O O3 0.251414 0.165622 0.653821
O O4 0.000000 0.212133 0.691196
O O5 0.313546 0.440371 0.500000
O O6 0.500000 0.435913 0.634167
O O7 0.275833 0.500000 0.646408
O O8 0.245831 0.386219 0.647219
O O9 0.759590 0.887915 0.140555
O O10 0.000000 0.836071 0.102890
O O11 0.774074 0.819096 0.000000
O O12 0.790901 0.674952 0.500000
O O13 0.000000 0.665261 0.619428
O O14 0.500000 0.935597 0.858424
O O15 0.725017 0.000000 0.854222
O O16 0.672249 0.941542 0.000000
O O17 0.251440 0.944418 0.356264
O O18 0.170720 0.000000 0.500000
O O19 0.000000 0.000000 0.355631
O O20 0.679793 0.885752 0.500000
O O21 0.500000 0.889065 0.360849
#
# Coordination Sequence:
#
# PCOD9384909 Si02
#       7
#     8   8   8   8   8   4   8
#     4  10  20  33  47  65  90 121 154 186 225 273
#     4   8  14  25  41  62  90 123 153 178 209 252
#     4   9  18  32  48  65  85 111 145 185 226 269
#     4   9  17  28  43  64  90 120 153 186 216 252
#     4   8  14  26  44  63  81 102 129 165 216 275
#     4   9  17  31  51  69  86 113 146 181 225 272
#     4  10  20  33  49  69  91 114 145 186 226 266
#
# _framework density 16.239858000000002
#
# number of rings (size 3 to 8) (size 9 to 14) (size 15 to 20)
#    0.000    3.000    0.000    2.077    0.000    4.308 
#    1.385    4.615    0.000    0.000    0.000    0.000 
#    0.000    0.615    0.000    7.692    0.000    1.538 
#
# Total GULP energy -289798.653547 kJ/mol
# GULP energy per Si atom -5573.051030 kJ/mol
# Density = 1.620290 g / cm^3
# Si number density = 16.239858 Si / 1000 Ang^3
#
#
#
# Elastic Constant Matrix: (Units=GPa)
#
#
# Indices 1 2 3 4 5 6 
#
# 1 36.9374 54.1862 23.1262 0.0000 0.0000 0.0000
# 2 54.1862 173.4079 53.5132 0.0000 0.0000 0.0000
# 3 23.1262 53.5132 49.9206 0.0000 0.0000 0.0000
# 4 0.0000 0.0000 0.0000 12.3736 0.0000 0.0000
# 5 0.0000 0.0000 0.0000 0.0000 7.9415 0.0000
# 6 0.0000 0.0000 0.0000 0.0000 0.0000 38.5961
#
#
#
# Elastic Compliance Matrix: (Units=1/GPa)
#
#
# Indices 1 2 3 4 5 6 
#
# 1 0.053255 -0.013490 -0.010210 0.000000 0.000000 0.000000
# 2 -0.013490 0.012035 -0.006651 0.000000 0.000000 0.000000
# 3 -0.010210 -0.006651 0.031892 0.000000 0.000000 0.000000
# 4 0.000000 0.000000 0.000000 0.080817 0.000000 0.000000
# 5 0.000000 0.000000 0.000000 0.000000 0.125920 0.000000
# 6 0.000000 0.000000 0.000000 0.000000 0.000000 0.025909
#
#
# Mechanical properties :
#
#
# Convention : Reuss Voigt Hill
#
# Bulk Modulus (GPa) = 27.41338 57.99078 42.70208
# Shear Modulus (GPa) = 12.41651 20.41161 16.41406
#
# Velocity S-wave (km/s) = 2.76809 3.54910 3.18264
# Velocity P-wave (km/s) = 5.20897 7.25129 6.31326
#
# Compressibility (1/GPa) = 0.03647854
#
# Stress axis : x y z
#
# Youngs Moduli (GPa) = 18.77760 83.09270 31.35631
#
# Poissons Ratio (x) = 1.12095 0.32014
# Poissons Ratio (y) = 0.25332 0.20856
# Poissons Ratio (z) = 0.19171 0.55268
#
# Static dielectric constant tensor:
#      x y z
#    x 1.542080 0.000000 0.000000 
#    y 0.000000 1.536330 0.000000 
#    z 0.000000 0.000000 1.576540 
# 
# From -- ./inp_files/21472.got.cif
#   From: 2010.05.17/outbox.cif.g08.bks.cpg/sg47_11_cif.got.tgz:21472.got - 2010.06.03 20:15:42.
