data_PCOD9384770
_publ_section_title
;
Structure prediction by ZEFSAII (Michael W. Deem and Ramdas Pophale) SiO2 
 PCOD9384770
Probable space group: P M M M
;
_chemical_formula_sum "Si O2"
_cell_formula_units_Z 64
_cell_length_a 8.350364
_cell_length_b 15.066362
_cell_length_c 29.830579
_cell_angle_alpha 90.000000
_cell_angle_beta 90.000000
_cell_angle_gamma 90.000000
_cell_volume 3752.973416
_symmetry_space_group_name_H-M "P M M M"
_symmetry_group_IT_number 47
_symmetry_cell_setting 'orthorhombic'
loop_
_space_group_symop_operation_xyz
x,y,z
-x,-y,z
x,-y,-z
-x,y,-z
-x,-y,-z
x,y,-z
-x,y,z
x,-y,z
loop_
_atom_site_type_symbol
_atom_site_label
_atom_site_fract_x
_atom_site_fract_y
_atom_site_fract_z
Si Si1 0.307044 0.397960 0.192208
Si Si2 0.810458 0.392603 0.548168
Si Si3 0.809879 0.725095 0.728356
Si Si4 0.196415 0.396757 0.353373
Si Si5 0.695149 0.599050 0.088832
Si Si6 0.693625 0.218448 0.950756
Si Si7 0.808792 0.102305 0.132184
Si Si8 0.690665 0.898988 0.769301
O O1 0.500000 0.390664 0.193931
O O2 0.264240 0.500000 0.203510
O O3 0.234252 0.330477 0.227325
O O4 0.258345 0.382602 0.140544
O O5 0.741792 0.362193 0.500000
O O6 0.800895 0.500000 0.548406
O O7 0.747333 0.366317 0.597075
O O8 0.000000 0.370628 0.547679
O O9 0.748590 0.668702 0.685810
O O10 0.747158 0.824667 0.734674
O O11 0.000000 0.729475 0.724546
O O12 0.243386 0.500000 0.345644
O O13 0.000000 0.396817 0.353980
O O14 0.500000 0.597251 0.088186
O O15 0.749620 0.500000 0.076387
O O16 0.746332 0.680152 0.058049
O O17 0.500000 0.217150 0.950372
O O18 0.751168 0.160257 0.909291
O O19 0.747717 0.187923 0.000000
O O20 0.742015 0.130158 0.180598
O O21 0.000000 0.105534 0.134563
O O22 0.757673 0.000000 0.125444
O O23 0.500000 0.902228 0.768241
O O24 0.752738 0.000000 0.762208
#
# Coordination Sequence:
#
# PCOD9384770 Si02
#       8
#     8   8   8   8   8   8   8   8
#     4   9  17  29  45  64  88 122 162 196 222 256
#     4   7   9  15  29  48  74 115 163 200 225 254
#     4  11  20  28  43  67  96 126 151 182 228 278
#     4   8  14  23  34  55  91 129 160 189 224 266
#     4   8  15  29  47  65  86 114 149 186 217 244
#     4  10  20  32  49  74  99 123 151 181 215 258
#     4  10  21  37  56  75  93 114 142 178 223 273
#     4  10  21  37  55  71  88 113 146 185 227 272
#
# _framework density 17.053144
#
# number of rings (size 3 to 8) (size 9 to 14) (size 15 to 20)
#    0.000    2.875    0.000    4.125    0.000    4.000 
#    0.000    2.500    0.000    1.125    0.000    0.875 
#    0.000    2.500    0.000   20.375    0.000   12.750 
#
# Total GULP energy -356622.832075 kJ/mol
# GULP energy per Si atom -5572.231751 kJ/mol
# Density = 1.701433 g / cm^3
# Si number density = 17.053144 Si / 1000 Ang^3
#
#
#
# Elastic Constant Matrix: (Units=GPa)
#
#
# Indices 1 2 3 4 5 6 
#
# 1 10.9399 14.5039 14.8708 0.0000 0.0000 0.0000
# 2 14.5039 76.8188 67.1324 0.0000 0.0000 0.0000
# 3 14.8708 67.1324 92.6481 0.0000 0.0000 0.0000
# 4 0.0000 0.0000 0.0000 15.7159 0.0000 0.0000
# 5 0.0000 0.0000 0.0000 0.0000 14.5497 0.0000
# 6 0.0000 0.0000 0.0000 0.0000 0.0000 16.1668
#
#
#
# Elastic Compliance Matrix: (Units=1/GPa)
#
#
# Indices 1 2 3 4 5 6 
#
# 1 0.124077 -0.016420 -0.008018 0.000000 0.000000 0.000000
# 2 -0.016420 0.037666 -0.024657 0.000000 0.000000 0.000000
# 3 -0.008018 -0.024657 0.029947 0.000000 0.000000 0.000000
# 4 0.000000 0.000000 0.000000 0.063630 0.000000 0.000000
# 5 0.000000 0.000000 0.000000 0.000000 0.068730 0.000000
# 6 0.000000 0.000000 0.000000 0.000000 0.000000 0.061855
#
#
# Mechanical properties :
#
#
# Convention : Reuss Voigt Hill
#
# Bulk Modulus (GPa) = 10.69515 41.49123 26.09319
# Shear Modulus (GPa) = 9.70385 14.87977 12.29181
#
# Velocity S-wave (km/s) = 2.38804 2.95711 2.68767
# Velocity P-wave (km/s) = 3.72678 6.00355 4.99658
#
# Compressibility (1/GPa) = 0.09350034
#
# Stress axis : x y z
#
# Youngs Moduli (GPa) = 8.05953 26.54948 33.39281
#
# Poissons Ratio (x) = 0.43594 0.26773
# Poissons Ratio (y) = 0.13234 0.82336
# Poissons Ratio (z) = 0.06462 0.65462
#
# Static dielectric constant tensor:
#      x y z
#    x 1.599880 0.000000 0.000000 
#    y 0.000000 1.584840 0.000000 
#    z 0.000000 0.000000 1.599960 
# 
# From -- ./inp_files/22152.got.cif
#   From: 2010.05.17/outbox.cif.g08.bks.cpg/sg47_12_cif.got.tgz:22152.got - 2010.06.03 20:15:42.
