data_PCOD9384900
_publ_section_title
;
Structure prediction by ZEFSAII (Michael W. Deem and Ramdas Pophale) SiO2 
 PCOD9384900
Probable space group: P M M M
;
_chemical_formula_sum "Si O2"
_cell_formula_units_Z 48
_cell_length_a 25.028473
_cell_length_b 9.070306
_cell_length_c 14.201016
_cell_angle_alpha 90.000000
_cell_angle_beta 90.000000
_cell_angle_gamma 90.000000
_cell_volume 3223.856553
_symmetry_space_group_name_H-M "P M M M"
_symmetry_group_IT_number 47
_symmetry_cell_setting 'orthorhombic'
loop_
_space_group_symop_operation_xyz
x,y,z
-x,-y,z
x,-y,-z
-x,y,-z
-x,-y,-z
x,y,-z
-x,y,z
x,-y,z
loop_
_atom_site_type_symbol
_atom_site_label
_atom_site_fract_x
_atom_site_fract_y
_atom_site_fract_z
Si Si1 0.334058 0.167515 0.886004
Si Si2 0.133723 0.171472 0.238535
Si Si3 0.939060 0.676813 0.388629
Si Si4 0.223136 0.323510 0.889321
Si Si5 0.440679 0.327682 0.114456
Si Si6 0.936362 0.338139 0.891984
O O1 0.282795 0.267890 0.865825
O O2 0.390070 0.234928 0.851665
O O3 0.326085 0.000000 0.853120
O O4 0.337561 0.163397 0.000000
O O5 0.108362 0.245564 0.331538
O O6 0.182972 0.251292 0.185857
O O7 0.086530 0.202702 0.164141
O O8 0.144799 0.000000 0.252587
O O9 0.935429 0.708147 0.500000
O O10 0.935490 0.500000 0.376617
O O11 0.000000 0.719192 0.357624
O O12 0.219852 0.500000 0.884916
O O13 0.212290 0.280852 0.000000
O O14 0.500000 0.277654 0.144742
O O15 0.434483 0.500000 0.139279
O O16 0.440455 0.321510 0.000000
O O17 0.918783 0.500000 0.853777
O O18 0.000000 0.337767 0.890023
O O19 0.918806 0.332607 0.000000
#
# Coordination Sequence:
#
# PCOD9384900 Si02
#       6
#     8   8   8   8   8   8
#     4   9  16  25  37  54  77 103 134 177 224 260
#     4  12  23  31  44  67  91 111 133 167 211 254
#     4   9  19  37  58  74  87 107 136 168 203 249
#     4  10  20  33  47  60  79 113 153 185 212 249
#     4   8  13  21  33  49  70  99 137 177 213 251
#     4   9  18  32  47  61  80 109 142 171 199 237
#
# _framework density 14.888999999999999
#
# number of rings (size 3 to 8) (size 9 to 14) (size 15 to 20)
#    0.000    2.500    0.000    5.000    0.000    8.667 
#    0.000    3.333    0.000    0.000    0.000    0.000 
#    0.000    0.000    0.000    0.000    0.000    0.833 
#
# Total GULP energy -267316.377750 kJ/mol
# GULP energy per Si atom -5569.091203 kJ/mol
# Density = 1.485511 g / cm^3
# Si number density = 14.889000 Si / 1000 Ang^3
#
#
#
# Elastic Constant Matrix: (Units=GPa)
#
#
# Indices 1 2 3 4 5 6 
#
# 1 110.5073 50.0955 31.9104 0.0000 0.0000 0.0000
# 2 50.0955 72.1777 24.6948 0.0000 0.0000 0.0000
# 3 31.9104 24.6948 50.1330 0.0000 0.0000 0.0000
# 4 0.0000 0.0000 0.0000 -12.8221 0.0000 0.0000
# 5 0.0000 0.0000 0.0000 0.0000 29.4563 0.0000
# 6 0.0000 0.0000 0.0000 0.0000 0.0000 6.7287
#
#
#
# Elastic Compliance Matrix: (Units=1/GPa)
#
#
# Indices 1 2 3 4 5 6 
#
# 1 0.014184 -0.008125 -0.005026 0.000000 0.000000 0.000000
# 2 -0.008125 0.021317 -0.005329 0.000000 0.000000 0.000000
# 3 -0.005026 -0.005329 0.025771 0.000000 0.000000 0.000000
# 4 0.000000 0.000000 0.000000 -0.077990 0.000000 0.000000
# 5 0.000000 0.000000 0.000000 0.000000 0.033949 0.000000
# 6 0.000000 0.000000 0.000000 0.000000 0.000000 0.148616
#
#
# Mechanical properties :
#
#
# Convention : Reuss Voigt Hill
#
# Bulk Modulus (GPa) = 41.13136 49.57995 45.35565
# Shear Modulus (GPa) = 23.70687 13.08040 18.39363
#
# Velocity S-wave (km/s) = 3.99462 2.96721 3.51862
# Velocity P-wave (km/s) = 6.99723 6.71648 6.85829
#
# Compressibility (1/GPa) = 0.02431235
#
# Stress axis : x y z
#
# Youngs Moduli (GPa) = 70.50400 46.91107 38.80327
#
# Poissons Ratio (x) = 0.38114 0.19502
# Poissons Ratio (y) = 0.57282 0.20678
# Poissons Ratio (z) = 0.35435 0.24999
#
# Static dielectric constant tensor:
#      x y z
#    x 1.517700 0.000000 0.000000 
#    y 0.000000 1.510550 0.000000 
#    z 0.000000 0.000000 1.487130 
# 
# From -- ./inp_files/7535.got.cif
#   From: 2010.05.17/outbox.cif.g08.bks.cpg/sg47_4_cif.got.tgz:7535.got - 2010.06.03 20:15:42.
