data_PCOD9384833
_publ_section_title
;
Structure prediction by ZEFSAII (Michael W. Deem and Ramdas Pophale) SiO2 
 PCOD9384833
Probable space group: P M M M
;
_chemical_formula_sum "Si O2"
_cell_formula_units_Z 36
_cell_length_a 25.127971
_cell_length_b 7.719188
_cell_length_c 9.243855
_cell_angle_alpha 90.000000
_cell_angle_beta 90.000000
_cell_angle_gamma 90.000000
_cell_volume 1793.007742
_symmetry_space_group_name_H-M "P M M M"
_symmetry_group_IT_number 47
_symmetry_cell_setting 'orthorhombic'
loop_
_space_group_symop_operation_xyz
x,y,z
-x,-y,z
x,-y,-z
-x,y,-z
-x,-y,-z
x,y,-z
-x,y,z
x,-y,z
loop_
_atom_site_type_symbol
_atom_site_label
_atom_site_fract_x
_atom_site_fract_y
_atom_site_fract_z
Si Si1 0.940521 0.711283 0.832453
Si Si2 0.563608 0.000000 0.169357
Si Si3 0.375222 0.303426 0.329813
Si Si4 0.729363 0.794953 0.166146
Si Si5 0.836157 0.290038 0.334738
O O1 0.940445 0.500000 0.829700
O O2 0.891970 0.770145 0.733527
O O3 0.000000 0.766729 0.788091
O O4 0.932205 0.761940 0.000000
O O5 0.588256 0.832523 0.246451
O O6 0.500000 0.000000 0.181025
O O7 0.578526 0.000000 0.000000
O O8 0.372622 0.261032 0.500000
O O9 0.394965 0.500000 0.314295
O O10 0.316467 0.291732 0.261210
O O11 0.786737 0.765539 0.236896
O O12 0.718108 0.000000 0.166175
O O13 0.728529 0.733534 0.000000
O O14 0.829724 0.231141 0.500000
O O15 0.836868 0.500000 0.335368
#
# Coordination Sequence:
#
# PCOD9384833 Si02
#       5
#     8   4   8   8   8
#     4   8  14  26  45  69  99 137 181 231 289 353
#     4  11  25  45  69  99 135 175 218 261 306 359
#     4  11  24  42  67  98 131 169 212 260 316 373
#     4  11  23  38  58  84 115 154 200 249 305 367
#     4  10  20  32  49  77 110 144 186 236 294 361
#
# _framework density 20.077994
#
# number of rings (size 3 to 8) (size 9 to 14) (size 15 to 20)
#    0.000    1.889    1.111    3.667    0.000    8.889 
#    0.000    4.444    0.000    0.667    0.000    4.667 
#    0.000    0.000    0.000    0.000    0.000    0.000 
#
# Total GULP energy -201235.812891 kJ/mol
# GULP energy per Si atom -5589.883691 kJ/mol
# Density = 2.003230 g / cm^3
# Si number density = 20.077994 Si / 1000 Ang^3
#
#
#
# Elastic Constant Matrix: (Units=GPa)
#
#
# Indices 1 2 3 4 5 6 
#
# 1 114.5781 39.0402 84.9342 0.0000 0.0000 0.0000
# 2 39.0402 71.2388 58.5463 0.0000 0.0000 0.0000
# 3 84.9342 58.5463 175.3767 0.0000 0.0000 0.0000
# 4 0.0000 0.0000 0.0000 -57.3936 0.0000 0.0000
# 5 0.0000 0.0000 0.0000 0.0000 -653.2077 0.0000
# 6 0.0000 0.0000 0.0000 0.0000 0.0000 20.5038
#
#
#
# Elastic Compliance Matrix: (Units=1/GPa)
#
#
# Indices 1 2 3 4 5 6 
#
# 1 0.014038 -0.002902 -0.005830 0.000000 0.000000 0.000000
# 2 -0.002902 0.019944 -0.005253 0.000000 0.000000 0.000000
# 3 -0.005830 -0.005253 0.010279 0.000000 0.000000 0.000000
# 4 0.000000 0.000000 0.000000 -0.017424 0.000000 0.000000
# 5 0.000000 0.000000 0.000000 0.000000 -0.001531 0.000000
# 6 0.000000 0.000000 0.000000 0.000000 0.000000 0.048772
#
#
# Mechanical properties :
#
#
# Convention : Reuss Voigt Hill
#
# Bulk Modulus (GPa) = 61.37820 80.69277 71.03549
# Shear Modulus (GPa) = 46.52122 -126.10798 -39.79338
#
# Velocity S-wave (km/s) = 4.81877 -7.93381 -4.45673
# Velocity P-wave (km/s) = 7.84838 6.60684 2.99555
#
# Compressibility (1/GPa) = 0.01629243
#
# Stress axis : x y z
#
# Youngs Moduli (GPa) = 71.23566 50.13930 97.28726
#
# Poissons Ratio (x) = 0.14550 0.56716
# Poissons Ratio (y) = 0.20672 0.51102
# Poissons Ratio (z) = 0.41528 0.26337
#
# Static dielectric constant tensor:
#      x y z
#    x 1.675910 0.000000 0.000000 
#    y 0.000000 1.740440 0.000000 
#    z 0.000000 0.000000 1.677480 
# 
# From -- ./inp_files/12052.got.cif
#   From: 2010.05.17/outbox.cif.g08.bks.cpg/sg47_7_cif.got.tgz:12052.got - 2010.06.03 20:15:42.
