data_PCOD9384868
_publ_section_title
;
Structure prediction by ZEFSAII (Michael W. Deem and Ramdas Pophale) SiO2 
 PCOD9384868
Probable space group: P M M M
;
_chemical_formula_sum "Si O2"
_cell_formula_units_Z 48
_cell_length_a 12.203439
_cell_length_b 20.744080
_cell_length_c 7.481529
_cell_angle_alpha 90.000000
_cell_angle_beta 90.000000
_cell_angle_gamma 90.000000
_cell_volume 1893.942444
_symmetry_space_group_name_H-M "P M M M"
_symmetry_group_IT_number 47
_symmetry_cell_setting 'orthorhombic'
loop_
_space_group_symop_operation_xyz
x,y,z
-x,-y,z
x,-y,-z
-x,y,-z
-x,-y,-z
x,y,-z
-x,y,z
x,-y,z
loop_
_atom_site_type_symbol
_atom_site_label
_atom_site_fract_x
_atom_site_fract_y
_atom_site_fract_z
Si Si1 0.116814 0.787084 0.284460
Si Si2 0.622941 0.602479 0.702748
Si Si3 0.125378 0.422447 0.707614
Si Si4 0.654254 0.256308 0.796032
Si Si5 0.616956 0.889347 0.216310
Si Si6 0.151037 0.931298 0.294122
O O1 0.129754 0.789616 0.500000
O O2 0.214764 0.746883 0.207693
O O3 0.119461 0.861507 0.218361
O O4 0.000000 0.758767 0.241624
O O5 0.626948 0.576996 0.500000
O O6 0.500000 0.582282 0.776381
O O7 0.748138 0.590867 0.780039
O O8 0.617487 0.680078 0.699365
O O9 0.128851 0.399129 0.500000
O O10 0.120926 0.500000 0.709458
O O11 0.000000 0.402738 0.774455
O O12 0.622541 0.185623 0.725238
O O13 0.617243 0.260436 0.000000
O O14 0.500000 0.916553 0.264911
O O15 0.718327 0.927235 0.290687
O O16 0.626894 0.888872 0.000000
O O17 0.115350 0.931394 0.500000
O O18 0.118452 0.000000 0.213127
#
# Coordination Sequence:
#
# PCOD9384868 Si02
#       6
#     8   8   8   8   8   8
#     4   9  18  33  52  72  95 126 164 206 254 308
#     4  10  20  32  50  80 112 139 173 219 267 313
#     4   8  15  30  52  77 106 141 179 217 259 308
#     4  10  20  34  51  71  99 133 169 209 254 307
#     4   9  18  32  48  64  85 119 160 198 240 294
#     4   9  18  31  46  67  93 118 149 193 246 303
#
# _framework density 25.343961
#
# number of rings (size 3 to 8) (size 9 to 14) (size 15 to 20)
#    0.000    2.833    0.000    1.500    0.000    4.333 
#    0.000    6.667    0.000    0.500    0.000    7.000 
#    0.000    0.000    0.000    0.000    0.000    0.000 
#
# Total GULP energy -267483.708947 kJ/mol
# GULP energy per Si atom -5572.577270 kJ/mol
# Density = 2.528628 g / cm^3
# Si number density = 25.343961 Si / 1000 Ang^3
#
#
#
# Elastic Constant Matrix: (Units=GPa)
#
#
# Indices 1 2 3 4 5 6 
#
# 1 300.9477 28.4773 20.1680 0.0000 0.0000 0.0000
# 2 28.4773 98.1429 6.7844 0.0000 0.0000 0.0000
# 3 20.1680 6.7844 67.4852 0.0000 0.0000 0.0000
# 4 0.0000 0.0000 0.0000 12.3635 0.0000 0.0000
# 5 0.0000 0.0000 0.0000 0.0000 -547.4513 0.0000
# 6 0.0000 0.0000 0.0000 0.0000 0.0000 316.9262
#
#
#
# Elastic Compliance Matrix: (Units=1/GPa)
#
#
# Indices 1 2 3 4 5 6 
#
# 1 0.003475 -0.000943 -0.000944 0.000000 0.000000 0.000000
# 2 -0.000943 0.010516 -0.000775 0.000000 0.000000 0.000000
# 3 -0.000944 -0.000775 0.015178 0.000000 0.000000 0.000000
# 4 0.000000 0.000000 0.000000 0.080883 0.000000 0.000000
# 5 0.000000 0.000000 0.000000 0.000000 -0.001827 0.000000
# 6 0.000000 0.000000 0.000000 0.000000 0.000000 0.003155
#
#
# Mechanical properties :
#
#
# Convention : Reuss Voigt Hill
#
# Bulk Modulus (GPa) = 41.93708 64.15946 53.04827
# Shear Modulus (GPa) = 40.11079 -16.22256 11.94412
#
# Velocity S-wave (km/s) = 3.98258 -2.53276 2.17325
# Velocity P-wave (km/s) = 6.14256 4.10089 5.22247
#
# Compressibility (1/GPa) = 0.02384525
#
# Stress axis : x y z
#
# Youngs Moduli (GPa) = 287.74233 95.08874 65.88452
#
# Poissons Ratio (x) = 0.08968 0.06218
# Poissons Ratio (y) = 0.27139 0.05108
# Poissons Ratio (z) = 0.27157 0.07373
#
# Static dielectric constant tensor:
#      x y z
#    x 2.074840 0.000000 0.000000 
#    y 0.000000 1.942490 0.000000 
#    z 0.000000 0.000000 1.996400 
# 
# From -- ./inp_files/4301.got.cif
#   From: 2010.05.17/outbox.cif.g08.bks.cpg/sg47_3_cif.got.tgz:4301.got - 2010.06.03 20:15:42.
