data_PCOD9384332
_publ_section_title
;
Structure prediction by ZEFSAII (Michael W. Deem and Ramdas Pophale) SiO2 
 PCOD9384332
Probable space group: P M M M
;
_chemical_formula_sum "Si O2"
_cell_formula_units_Z 44
_cell_length_a 13.989519
_cell_length_b 7.524014
_cell_length_c 19.419922
_cell_angle_alpha 90.000000
_cell_angle_beta 90.000000
_cell_angle_gamma 90.000000
_cell_volume 2044.089271
_symmetry_space_group_name_H-M "P M M M"
_symmetry_group_IT_number 47
_symmetry_cell_setting 'orthorhombic'
loop_
_space_group_symop_operation_xyz
x,y,z
-x,-y,z
x,-y,-z
-x,y,-z
-x,-y,-z
x,y,-z
-x,y,z
x,-y,z
loop_
_atom_site_type_symbol
_atom_site_label
_atom_site_fract_x
_atom_site_fract_y
_atom_site_fract_z
Si Si1 0.758528 0.711711 0.692249
Si Si2 0.889392 0.716281 0.426332
Si Si3 0.000000 0.282305 0.919181
Si Si4 0.395204 0.214276 0.920061
Si Si5 0.196939 0.709985 0.844386
Si Si6 0.609980 0.213748 0.423901
O O1 0.770672 0.500000 0.698706
O O2 0.836637 0.785876 0.639744
O O3 0.776250 0.784058 0.768593
O O4 0.663852 0.734565 0.646023
O O5 0.852173 0.780553 0.500000
O O6 0.881292 0.500000 0.426259
O O7 0.000000 0.758831 0.422941
O O8 0.099060 0.222767 0.881179
O O9 0.000000 0.500000 0.918976
O O10 0.000000 0.229069 0.000000
O O11 0.500000 0.273414 0.891411
O O12 0.295778 0.271514 0.886447
O O13 0.395814 0.000000 0.917161
O O14 0.393191 0.267687 0.000000
O O15 0.178752 0.500000 0.837388
O O16 0.644614 0.279091 0.500000
O O17 0.500000 0.268816 0.418883
O O18 0.613663 0.000000 0.426461
#
# Coordination Sequence:
#
# PCOD9384332 Si02
#       6
#     8   8   4   8   8   8
#     4  10  20  31  48  76 107 135 166 211 260 305
#     4   8  14  25  43  67  94 126 163 201 242 289
#     4   9  18  34  55  77 106 145 184 220 263 319
#     4   9  19  37  59  80 103 134 174 220 269 322
#     4  10  21  34  52  81 113 145 178 217 267 324
#     4   9  19  36  55  73  97 136 183 222 260 312
#
# _framework density 21.525479000000001
#
# number of rings (size 3 to 8) (size 9 to 14) (size 15 to 20)
#    0.000    2.818    0.000    2.727    1.273    4.364 
#    0.000    5.909    0.000    2.182    0.000    2.545 
#    0.000    0.000    0.000    0.000    0.000    0.000 
#
# Total GULP energy -245067.197850 kJ/mol
# GULP energy per Si atom -5569.709042 kJ/mol
# Density = 2.147649 g / cm^3
# Si number density = 21.525479 Si / 1000 Ang^3
#
#
#
# Elastic Constant Matrix: (Units=GPa)
#
#
# Indices 1 2 3 4 5 6 
#
# 1 189.6116 -0.4970 113.7544 0.0000 0.0000 0.0000
# 2 -0.4970 55.1492 8.2386 0.0000 0.0000 0.0000
# 3 113.7544 8.2386 189.6253 0.0000 0.0000 0.0000
# 4 0.0000 0.0000 0.0000 4.5393 0.0000 0.0000
# 5 0.0000 0.0000 0.0000 0.0000 27.8726 0.0000
# 6 0.0000 0.0000 0.0000 0.0000 0.0000 34.3061
#
#
#
# Elastic Compliance Matrix: (Units=1/GPa)
#
#
# Indices 1 2 3 4 5 6 
#
# 1 0.008276 0.000822 -0.005000 0.000000 0.000000 0.000000
# 2 0.000822 0.018333 -0.001289 0.000000 0.000000 0.000000
# 3 -0.005000 -0.001289 0.008329 0.000000 0.000000 0.000000
# 4 0.000000 0.000000 0.000000 0.220298 0.000000 0.000000
# 5 0.000000 0.000000 0.000000 0.000000 0.035878 0.000000
# 6 0.000000 0.000000 0.000000 0.000000 0.000000 0.029149
#
#
# Mechanical properties :
#
#
# Convention : Reuss Voigt Hill
#
# Bulk Modulus (GPa) = 41.66388 75.26422 58.46405
# Shear Modulus (GPa) = 14.74057 34.20294 24.47175
#
# Velocity S-wave (km/s) = 2.61970 3.99049 3.37541
# Velocity P-wave (km/s) = 5.34304 7.50154 6.51234
#
# Compressibility (1/GPa) = 0.02400161
#
# Stress axis : x y z
#
# Youngs Moduli (GPa) = 120.83139 54.54746 120.05871
#
# Poissons Ratio (x) = -0.04482 0.60034
# Poissons Ratio (y) = -0.09927 0.15480
# Poissons Ratio (z) = 0.60420 0.07033
#
# Static dielectric constant tensor:
#      x y z
#    x 1.800900 0.000000 0.000000 
#    y 0.000000 1.829470 0.000000 
#    z 0.000000 0.000000 1.785790 
# 
# From -- ./inp_files/27894.got.cif
#   From: 2010.05.17/outbox.cif.g08.bks.cpg/sg47_14_cif.got.tgz:27894.got - 2010.06.03 20:15:42.
