data_PCOD9384183
_publ_section_title
;
Structure prediction by ZEFSAII (Michael W. Deem and Ramdas Pophale) SiO2 
 PCOD9384183
Probable space group: P M M M
;
_chemical_formula_sum "Si O2"
_cell_formula_units_Z 64
_cell_length_a 14.870810
_cell_length_b 32.270424
_cell_length_c 8.012817
_cell_angle_alpha 90.000000
_cell_angle_beta 90.000000
_cell_angle_gamma 90.000000
_cell_volume 3845.249467
_symmetry_space_group_name_H-M "P M M M"
_symmetry_group_IT_number 47
_symmetry_cell_setting 'orthorhombic'
loop_
_space_group_symop_operation_xyz
x,y,z
-x,-y,z
x,-y,-z
-x,y,-z
-x,-y,-z
x,y,-z
-x,y,z
x,-y,z
loop_
_atom_site_type_symbol
_atom_site_label
_atom_site_fract_x
_atom_site_fract_y
_atom_site_fract_z
Si Si1 0.394075 0.455243 0.299119
Si Si2 0.603296 0.634680 0.802201
Si Si3 0.603656 0.953291 0.703637
Si Si4 0.286280 0.126088 0.704699
Si Si5 0.603555 0.207776 0.295956
Si Si6 0.099892 0.840385 0.697939
Si Si7 0.282559 0.713150 0.697177
Si Si8 0.899593 0.253161 0.802709
O O1 0.389188 0.454449 0.500000
O O2 0.500000 0.455497 0.252621
O O3 0.356352 0.500000 0.242610
O O4 0.359460 0.411375 0.234621
O O5 0.500000 0.637533 0.735427
O O6 0.665136 0.670885 0.732227
O O7 0.598848 0.639821 0.000000
O O8 0.604865 0.953069 0.500000
O O9 0.500000 0.945242 0.752594
O O10 0.668731 0.916697 0.760372
O O11 0.627925 0.000000 0.756732
O O12 0.285195 0.125890 0.500000
O O13 0.346957 0.165477 0.754139
O O14 0.184606 0.134062 0.764113
O O15 0.603028 0.208486 0.500000
O O16 0.500000 0.209090 0.241412
O O17 0.658975 0.247896 0.237136
O O18 0.095587 0.848328 0.500000
O O19 0.119392 0.791485 0.720260
O O20 0.000000 0.848319 0.769002
O O21 0.275327 0.718668 0.500000
O O22 0.181762 0.716091 0.765852
O O23 0.000000 0.266587 0.748614
O O24 0.902096 0.245998 0.000000
#
# Coordination Sequence:
#
# PCOD9384183 Si02
#       8
#     8   8   8   8   8   8   8   8
#     4   8  14  26  44  64  86 116 158 204 241 272
#     4  10  20  31  43  63  94 130 162 192 231 276
#     4   8  13  20  31  50  78 110 139 170 212 260
#     4   9  14  22  36  55  78 106 141 178 214 254
#     4   9  16  24  36  57  81 107 142 180 212 246
#     4   9  16  27  43  62  82 105 139 178 216 262
#     4  11  20  31  46  64  88 119 154 188 222 267
#     4  10  20  33  48  65  86 112 143 183 230 274
#
# _framework density 16.643915
#
# number of rings (size 3 to 8) (size 9 to 14) (size 15 to 20)
#    0.000    2.750    1.250    2.625    0.000    3.750 
#    0.000    1.250    0.000    0.375    0.000    2.625 
#    0.000    1.000    0.000    9.750    0.000    7.000 
#
# Total GULP energy -356598.976878 kJ/mol
# GULP energy per Si atom -5571.859014 kJ/mol
# Density = 1.660603 g / cm^3
# Si number density = 16.643915 Si / 1000 Ang^3
#
#
#
# Elastic Constant Matrix: (Units=GPa)
#
#
# Indices 1 2 3 4 5 6 
#
# 1 113.6212 66.8276 5.5723 0.0000 0.0000 0.0000
# 2 66.8276 110.3798 0.7673 0.0000 0.0000 0.0000
# 3 5.5723 0.7673 11.9541 0.0000 0.0000 0.0000
# 4 0.0000 0.0000 0.0000 -15.4280 0.0000 0.0000
# 5 0.0000 0.0000 0.0000 0.0000 9.8607 0.0000
# 6 0.0000 0.0000 0.0000 0.0000 0.0000 8.1369
#
#
#
# Elastic Compliance Matrix: (Units=1/GPa)
#
#
# Indices 1 2 3 4 5 6 
#
# 1 0.014089 -0.008488 -0.006023 0.000000 0.000000 0.000000
# 2 -0.008488 0.014177 0.003047 0.000000 0.000000 0.000000
# 3 -0.006023 0.003047 0.086265 0.000000 0.000000 0.000000
# 4 0.000000 0.000000 0.000000 -0.064817 0.000000 0.000000
# 5 0.000000 0.000000 0.000000 0.000000 0.101412 0.000000
# 6 0.000000 0.000000 0.000000 0.000000 0.000000 0.122897
#
#
# Mechanical properties :
#
#
# Convention : Reuss Voigt Hill
#
# Bulk Modulus (GPa) = 10.91662 42.47661 26.69662
# Shear Modulus (GPa) = 15.26785 11.36646 13.31716
#
# Velocity S-wave (km/s) = 3.03202 2.61611 2.83171
# Velocity P-wave (km/s) = 4.33944 5.89080 5.17360
#
# Compressibility (1/GPa) = 0.09160343
#
# Stress axis : x y z
#
# Youngs Moduli (GPa) = 70.97818 70.53501 11.59217
#
# Poissons Ratio (x) = 0.59870 0.06981
# Poissons Ratio (y) = 0.60246 -0.03532
# Poissons Ratio (z) = 0.42747 -0.21489
#
# Static dielectric constant tensor:
#      x y z
#    x 1.571260 0.000000 0.000000 
#    y 0.000000 1.556560 0.000000 
#    z 0.000000 0.000000 1.600090 
# 
# From -- ./inp_files/8249.got.cif
#   From: 2010.05.17/outbox.cif.g08.bks.cpg/sg47_5_cif.got.tgz:8249.got - 2010.06.03 20:15:42.
