data_PCOD9384024
_publ_section_title
;
Structure prediction by ZEFSAII (Michael W. Deem and Ramdas Pophale) SiO2 
 PCOD9384024
Probable space group: P M M M
;
_chemical_formula_sum "Si O2"
_cell_formula_units_Z 48
_cell_length_a 9.164000
_cell_length_b 15.767879
_cell_length_c 17.766526
_cell_angle_alpha 90.000000
_cell_angle_beta 90.000000
_cell_angle_gamma 90.000000
_cell_volume 2567.206921
_symmetry_space_group_name_H-M "P M M M"
_symmetry_group_IT_number 47
_symmetry_cell_setting 'orthorhombic'
loop_
_space_group_symop_operation_xyz
x,y,z
-x,-y,z
x,-y,-z
-x,y,-z
-x,-y,-z
x,y,-z
-x,y,z
x,-y,z
loop_
_atom_site_type_symbol
_atom_site_label
_atom_site_fract_x
_atom_site_fract_y
_atom_site_fract_z
Si Si1 0.667951 0.500000 0.371799
Si Si2 0.172087 0.169393 0.086743
Si Si3 0.173724 0.671315 0.632323
Si Si4 0.822789 0.000000 0.699357
Si Si5 0.331970 0.500000 0.188207
Si Si6 0.177370 0.855642 0.417400
Si Si7 0.826573 0.328247 0.811865
Si Si8 0.674405 0.000000 0.138299
O O1 0.500000 0.500000 0.394782
O O2 0.747297 0.586514 0.395152
O O3 0.674361 0.500000 0.279943
O O4 0.218814 0.244732 0.142583
O O5 0.263215 0.084419 0.099336
O O6 0.000000 0.151195 0.101921
O O7 0.184167 0.196992 0.000000
O O8 0.223928 0.758802 0.595021
O O9 0.197594 0.681716 0.722273
O O10 0.000000 0.661767 0.620405
O O11 0.781338 0.918058 0.649717
O O12 0.741156 0.000000 0.777887
O O13 0.000000 0.000000 0.710273
O O14 0.500000 0.500000 0.165761
O O15 0.253407 0.413924 0.163216
O O16 0.223633 0.886065 0.500000
O O17 0.000000 0.855200 0.416728
O O18 0.000000 0.338769 0.822973
O O19 0.500000 0.000000 0.138634
#
# Coordination Sequence:
#
# PCOD9384024 Si02
#       8
#     4   8   8   4   4   8   8   4
#     4   9  17  29  46  69  96 128 172 219 256 295
#     4  10  21  38  59  81 106 138 176 218 265 316
#     4   9  16  28  48  73 101 132 167 209 257 306
#     4  10  19  35  59  82 105 135 173 214 254 304
#     4   9  17  29  48  75 104 136 174 217 262 305
#     4   9  17  30  52  82 109 133 167 213 262 309
#     4   9  17  31  52  77 103 134 174 218 262 308
#     4  12  25  38  55  80 109 140 175 216 262 314
#
# _framework density 18.697361999999998
#
# number of rings (size 3 to 8) (size 9 to 14) (size 15 to 20)
#    0.000    2.500    0.000    2.750    0.000    7.667 
#    0.000    5.000    0.000    7.500    0.000    0.000 
#    0.000    0.000    0.000    0.000    0.000    0.000 
#
# Total GULP energy -267856.951031 kJ/mol
# GULP energy per Si atom -5580.353146 kJ/mol
# Density = 1.865481 g / cm^3
# Si number density = 18.697362 Si / 1000 Ang^3
#
#
#
# Elastic Constant Matrix: (Units=GPa)
#
#
# Indices 1 2 3 4 5 6 
#
# 1 36.4432 28.8890 17.2725 0.0000 0.0000 0.0000
# 2 28.8890 98.2620 11.9526 0.0000 0.0000 0.0000
# 3 17.2725 11.9526 34.9940 0.0000 0.0000 0.0000
# 4 0.0000 0.0000 0.0000 -29.0580 0.0000 0.0000
# 5 0.0000 0.0000 0.0000 0.0000 5.1494 0.0000
# 6 0.0000 0.0000 0.0000 0.0000 0.0000 -4.4992
#
#
#
# Elastic Compliance Matrix: (Units=1/GPa)
#
#
# Indices 1 2 3 4 5 6 
#
# 1 0.044831 -0.010943 -0.018390 0.000000 0.000000 0.000000
# 2 -0.010943 0.013289 0.000862 0.000000 0.000000 0.000000
# 3 -0.018390 0.000862 0.037359 0.000000 0.000000 0.000000
# 4 0.000000 0.000000 0.000000 -0.034414 0.000000 0.000000
# 5 0.000000 0.000000 0.000000 0.000000 0.194196 0.000000
# 6 0.000000 0.000000 0.000000 0.000000 0.000000 -0.222260
#
#
# Mechanical properties :
#
#
# Convention : Reuss Voigt Hill
#
# Bulk Modulus (GPa) = 25.94906 31.76970 28.85938
# Shear Modulus (GPa) = 48.64382 1.75744 25.20063
#
# Velocity S-wave (km/s) = 5.10616 0.97056 3.67525
# Velocity P-wave (km/s) = 6.97656 4.27603 5.78605
#
# Compressibility (1/GPa) = 0.03853704
#
# Stress axis : x y z
#
# Youngs Moduli (GPa) = 22.30608 75.24849 26.76747
#
# Poissons Ratio (x) = 0.82347 0.49225
# Poissons Ratio (y) = 0.24410 -0.02308
# Poissons Ratio (z) = 0.41021 -0.06489
#
# Static dielectric constant tensor:
#      x y z
#    x 1.623130 0.000000 0.000000 
#    y 0.000000 1.633070 0.000000 
#    z 0.000000 0.000000 1.642970 
# 
# From -- ./inp_files/26610.got.cif
#   From: 2010.05.17/outbox.cif.g08.bks.cpg/sg47_14_cif.got.tgz:26610.got - 2010.06.03 20:15:42.
