data_PCOD9384782
_publ_section_title
;
Structure prediction by ZEFSAII (Michael W. Deem and Ramdas Pophale) SiO2 
 PCOD9384782
Probable space group: P M M M
;
_chemical_formula_sum "Si O2"
_cell_formula_units_Z 44
_cell_length_a 9.251699
_cell_length_b 29.409928
_cell_length_c 9.247790
_cell_angle_alpha 90.000000
_cell_angle_beta 90.000000
_cell_angle_gamma 90.000000
_cell_volume 2516.247841
_symmetry_space_group_name_H-M "P M M M"
_symmetry_group_IT_number 47
_symmetry_cell_setting 'orthorhombic'
loop_
_space_group_symop_operation_xyz
x,y,z
-x,-y,z
x,-y,-z
-x,y,-z
-x,-y,-z
x,y,-z
-x,y,z
x,-y,z
loop_
_atom_site_type_symbol
_atom_site_label
_atom_site_fract_x
_atom_site_fract_y
_atom_site_fract_z
Si Si1 0.827974 0.182430 0.828270
Si Si2 0.166626 0.000000 0.823384
Si Si3 0.675679 0.550622 0.668020
Si Si4 0.333590 0.909332 0.823692
Si Si5 0.173188 0.275679 0.329643
Si Si6 0.674297 0.641336 0.830669
O O1 0.743752 0.137393 0.780036
O O2 0.785297 0.227755 0.743141
O O3 0.000000 0.175181 0.809274
O O4 0.802269 0.189230 0.000000
O O5 0.248111 0.045720 0.776286
O O6 0.000000 0.000000 0.778098
O O7 0.168121 0.000000 0.000000
O O8 0.716912 0.557174 0.500000
O O9 0.500000 0.550208 0.672017
O O10 0.723526 0.500000 0.714221
O O11 0.722762 0.593052 0.763813
O O12 0.500000 0.910763 0.777831
O O13 0.331503 0.909721 0.000000
O O14 0.204411 0.275118 0.500000
O O15 0.253176 0.317261 0.253457
O O16 0.000000 0.280715 0.310584
O O17 0.500000 0.644112 0.815299
O O18 0.709011 0.643622 0.000000
#
# Coordination Sequence:
#
# PCOD9384782 Si02
#       6
#     8   4   8   8   8   8
#     4   9  17  30  47  66  90 121 156 194 238 288
#     4   9  15  23  37  59  90 127 162 193 230 280
#     4   8  14  26  45  69  98 132 167 202 242 289
#     4   9  16  25  39  62  92 123 155 194 238 282
#     4  10  21  36  53  72  95 127 166 205 247 297
#     4  10  20  32  49  75 103 130 162 202 248 296
#
# _framework density 17.486353999999999
#
# number of rings (size 3 to 8) (size 9 to 14) (size 15 to 20)
#    0.000    2.818    0.000    2.455    0.000    6.545 
#    0.000    3.636    0.000    0.545    0.000    4.455 
#    0.000    5.091    0.000    0.000    0.000    0.000 
#
# Total GULP energy -245300.931811 kJ/mol
# GULP energy per Si atom -5575.021178 kJ/mol
# Density = 1.744655 g / cm^3
# Si number density = 17.486354 Si / 1000 Ang^3
#
#
#
# Elastic Constant Matrix: (Units=GPa)
#
#
# Indices 1 2 3 4 5 6 
#
# 1 55.6184 79.4034 43.7131 0.0000 0.0000 0.0000
# 2 79.4034 219.0075 86.9236 0.0000 0.0000 0.0000
# 3 43.7131 86.9236 64.5176 0.0000 0.0000 0.0000
# 4 0.0000 0.0000 0.0000 -20.4688 0.0000 0.0000
# 5 0.0000 0.0000 0.0000 0.0000 14.7421 0.0000
# 6 0.0000 0.0000 0.0000 0.0000 0.0000 52.7362
#
#
#
# Elastic Compliance Matrix: (Units=1/GPa)
#
#
# Indices 1 2 3 4 5 6 
#
# 1 0.045718 -0.009202 -0.018578 0.000000 0.000000 0.000000
# 2 -0.009202 0.011666 -0.009483 0.000000 0.000000 0.000000
# 3 -0.018578 -0.009483 0.040863 0.000000 0.000000 0.000000
# 4 0.000000 0.000000 0.000000 -0.048855 0.000000 0.000000
# 5 0.000000 0.000000 0.000000 0.000000 0.067833 0.000000
# 6 0.000000 0.000000 0.000000 0.000000 0.000000 0.018962
#
#
# Mechanical properties :
#
#
# Convention : Reuss Voigt Hill
#
# Bulk Modulus (GPa) = 42.15575 84.35819 63.25697
# Shear Modulus (GPa) = 22.87069 18.00880 20.43975
#
# Velocity S-wave (km/s) = 3.62044 3.21265 3.42262
# Velocity P-wave (km/s) = 6.45266 7.88090 7.20227
#
# Compressibility (1/GPa) = 0.02372156
#
# Stress axis : x y z
#
# Youngs Moduli (GPa) = 21.87311 85.71894 24.47205
#
# Poissons Ratio (x) = 0.78879 0.45464
# Poissons Ratio (y) = 0.20128 0.23206
# Poissons Ratio (z) = 0.40636 0.81285
#
# Static dielectric constant tensor:
#      x y z
#    x 1.588000 0.000000 0.000000 
#    y 0.000000 1.580660 0.000000 
#    z 0.000000 0.000000 1.578890 
# 
# From -- ./inp_files/2288.got.cif
#   From: 2010.05.17/outbox.cif.g08.bks.cpg/sg47_2_cif.got.tgz:2288.got - 2010.06.03 20:15:42.
