data_PCOD9384804
_publ_section_title
;
Structure prediction by ZEFSAII (Michael W. Deem and Ramdas Pophale) SiO2 
 PCOD9384804
Probable space group: P M M M
;
_chemical_formula_sum "Si O2"
_cell_formula_units_Z 44
_cell_length_a 7.645270
_cell_length_b 29.158744
_cell_length_c 9.946344
_cell_angle_alpha 90.000000
_cell_angle_beta 90.000000
_cell_angle_gamma 90.000000
_cell_volume 2217.303365
_symmetry_space_group_name_H-M "P M M M"
_symmetry_group_IT_number 47
_symmetry_cell_setting 'orthorhombic'
loop_
_space_group_symop_operation_xyz
x,y,z
-x,-y,z
x,-y,-z
-x,y,-z
-x,-y,-z
x,y,-z
-x,y,z
x,-y,z
loop_
_atom_site_type_symbol
_atom_site_label
_atom_site_fract_x
_atom_site_fract_y
_atom_site_fract_z
Si Si1 0.708363 0.134367 0.348027
Si Si2 0.202450 0.500000 0.663993
Si Si3 0.790118 0.400923 0.347806
Si Si4 0.286201 0.214635 0.154585
Si Si5 0.710147 0.682046 0.151639
Si Si6 0.210920 0.947619 0.151002
O O1 0.778607 0.132342 0.500000
O O2 0.500000 0.141257 0.358139
O O3 0.777803 0.176500 0.258342
O O4 0.735049 0.087952 0.264243
O O5 0.202443 0.500000 0.500000
O O6 0.279377 0.450518 0.702459
O O7 0.000000 0.500000 0.709673
O O8 0.725312 0.392804 0.500000
O O9 0.755693 0.358215 0.252824
O O10 0.000000 0.406114 0.356094
O O11 0.500000 0.213776 0.155562
O O12 0.230755 0.266547 0.189749
O O13 0.233673 0.205079 0.000000
O O14 0.500000 0.684148 0.146412
O O15 0.773745 0.672505 0.000000
O O16 0.000000 0.948169 0.148518
O O17 0.269508 0.000000 0.175670
O O18 0.270439 0.934011 0.000000
#
# Coordination Sequence:
#
# PCOD9384804 Si02
#       6
#     8   4   8   8   8   8
#     4  10  20  32  49  76 104 126 154 196 241 282
#     4   7  12  26  46  65  88 120 156 193 232 275
#     4   9  17  30  49  71  93 120 157 198 237 279
#     4   8  15  30  50  68  90 125 164 196 229 275
#     4   9  18  32  49  70  96 125 157 193 235 283
#     4   9  19  36  55  73  95 127 166 201 233 276
#
# _framework density 19.843924999999999
#
# number of rings (size 3 to 8) (size 9 to 14) (size 15 to 20)
#    0.000    3.182    0.000    3.273    0.000    3.636 
#    0.000    6.364    0.000    5.455    0.000    0.000 
#    0.000    0.000    0.000    0.000    0.000    0.000 
#
# Total GULP energy -245249.551551 kJ/mol
# GULP energy per Si atom -5573.853444 kJ/mol
# Density = 1.979876 g / cm^3
# Si number density = 19.843925 Si / 1000 Ang^3
#
#
#
# Elastic Constant Matrix: (Units=GPa)
#
#
# Indices 1 2 3 4 5 6 
#
# 1 35.3610 3.7439 5.9293 0.0000 0.0000 0.0000
# 2 3.7439 185.8882 136.6418 0.0000 0.0000 0.0000
# 3 5.9293 136.6418 150.6504 0.0000 0.0000 0.0000
# 4 0.0000 0.0000 0.0000 38.3326 0.0000 0.0000
# 5 0.0000 0.0000 0.0000 0.0000 17.8231 0.0000
# 6 0.0000 0.0000 0.0000 0.0000 0.0000 24.2920
#
#
#
# Elastic Compliance Matrix: (Units=1/GPa)
#
#
# Indices 1 2 3 4 5 6 
#
# 1 0.028503 0.000752 -0.001804 0.000000 0.000000 0.000000
# 2 0.000752 0.016161 -0.014688 0.000000 0.000000 0.000000
# 3 -0.001804 -0.014688 0.020031 0.000000 0.000000 0.000000
# 4 0.000000 0.000000 0.000000 0.026087 0.000000 0.000000
# 5 0.000000 0.000000 0.000000 0.000000 0.056107 0.000000
# 6 0.000000 0.000000 0.000000 0.000000 0.000000 0.041166
#
#
# Mechanical properties :
#
#
# Convention : Reuss Voigt Hill
#
# Bulk Modulus (GPa) = 30.10682 73.83662 51.97172
# Shear Modulus (GPa) = 21.68193 31.12852 26.40522
#
# Velocity S-wave (km/s) = 3.30907 3.96494 3.65176
# Velocity P-wave (km/s) = 5.45937 7.63220 6.63533
#
# Compressibility (1/GPa) = 0.03321507
#
# Stress axis : x y z
#
# Youngs Moduli (GPa) = 35.08454 61.87638 49.92234
#
# Poissons Ratio (x) = -0.04652 0.09004
# Poissons Ratio (y) = -0.02638 0.73326
# Poissons Ratio (z) = 0.06328 0.90884
#
# Static dielectric constant tensor:
#      x y z
#    x 1.760160 0.000000 0.000000 
#    y 0.000000 1.708370 0.000000 
#    z 0.000000 0.000000 1.682300 
# 
# From -- ./inp_files/2033.got.cif
#   From: 2010.05.17/outbox.cif.g08.bks.cpg/sg47_2_cif.got.tgz:2033.got - 2010.06.03 20:15:42.
