data_PCOD9384189
_publ_section_title
;
Structure prediction by ZEFSAII (Michael W. Deem and Ramdas Pophale) SiO2 
 PCOD9384189
Probable space group: P M M M
;
_chemical_formula_sum "Si O2"
_cell_formula_units_Z 64
_cell_length_a 29.767981
_cell_length_b 14.598983
_cell_length_c 9.008328
_cell_angle_alpha 90.000000
_cell_angle_beta 90.000000
_cell_angle_gamma 90.000000
_cell_volume 3914.859438
_symmetry_space_group_name_H-M "P M M M"
_symmetry_group_IT_number 47
_symmetry_cell_setting 'orthorhombic'
loop_
_space_group_symop_operation_xyz
x,y,z
-x,-y,z
x,-y,-z
-x,y,-z
-x,-y,-z
x,y,-z
-x,y,z
x,-y,z
loop_
_atom_site_type_symbol
_atom_site_label
_atom_site_fract_x
_atom_site_fract_y
_atom_site_fract_z
Si Si1 0.192477 0.889942 0.326902
Si Si2 0.134247 0.392189 0.677071
Si Si3 0.228941 0.604886 0.821511
Si Si4 0.275395 0.213188 0.177961
Si Si5 0.050039 0.730670 0.321311
Si Si6 0.450287 0.889005 0.827103
Si Si7 0.097073 0.892606 0.823653
Si Si8 0.357825 0.891943 0.677150
O O1 0.192697 0.862719 0.500000
O O2 0.232668 0.842355 0.239795
O O3 0.144436 0.868645 0.254095
O O4 0.198319 0.000000 0.319734
O O5 0.139680 0.379858 0.500000
O O6 0.127048 0.500000 0.705558
O O7 0.180754 0.366051 0.755488
O O8 0.090635 0.335746 0.725534
O O9 0.238142 0.500000 0.773001
O O10 0.265891 0.680693 0.781288
O O11 0.225283 0.604698 0.000000
O O12 0.319610 0.169006 0.247987
O O13 0.277311 0.205779 0.000000
O O14 0.052424 0.739781 0.500000
O O15 0.059677 0.827784 0.246034
O O16 0.000000 0.696989 0.284091
O O17 0.500000 0.857516 0.777667
O O18 0.407199 0.861961 0.732094
O O19 0.451288 0.000000 0.822470
O O20 0.444339 0.863223 0.000000
O O21 0.088390 0.000000 0.795967
O O22 0.100697 0.878963 0.000000
O O23 0.354694 0.885938 0.500000
O O24 0.351645 0.000000 0.717934
#
# Coordination Sequence:
#
# PCOD9384189 Si02
#       8
#     8   8   8   8   8   8   8   8
#     4  10  20  33  49  69  94 123 153 186 225 270
#     4   9  18  33  53  75  96 118 145 178 219 270
#     4   9  19  35  52  70  92 118 150 188 230 276
#     4  11  21  31  47  69  94 126 159 193 234 277
#     4  10  21  35  51  72  96 121 148 180 221 267
#     4   8  14  26  44  64  88 123 167 210 246 279
#     4  10  21  36  52  69  90 118 153 190 225 263
#     4  10  20  31  43  64  97 134 168 202 240 280
#
# _framework density 16.347968000000002
#
# number of rings (size 3 to 8) (size 9 to 14) (size 15 to 20)
#    0.000    2.375    0.000    3.000    0.000    8.250 
#    0.000    3.750    0.000    0.000    0.000    2.625 
#    0.000    0.500    0.000    5.750    0.000    1.875 
#
# Total GULP energy -357020.526193 kJ/mol
# GULP energy per Si atom -5578.445722 kJ/mol
# Density = 1.631076 g / cm^3
# Si number density = 16.347968 Si / 1000 Ang^3
#
#
#
# Elastic Constant Matrix: (Units=GPa)
#
#
# Indices 1 2 3 4 5 6 
#
# 1 113.7862 61.3214 40.9440 0.0000 0.0000 0.0000
# 2 61.3214 61.9930 33.1551 0.0000 0.0000 0.0000
# 3 40.9440 33.1551 36.9675 0.0000 0.0000 0.0000
# 4 0.0000 0.0000 0.0000 18.1149 0.0000 0.0000
# 5 0.0000 0.0000 0.0000 0.0000 27.9937 0.0000
# 6 0.0000 0.0000 0.0000 0.0000 0.0000 19.4259
#
#
#
# Elastic Compliance Matrix: (Units=1/GPa)
#
#
# Indices 1 2 3 4 5 6 
#
# 1 0.020130 -0.015351 -0.008527 0.000000 0.000000 0.000000
# 2 -0.015351 0.042708 -0.021301 0.000000 0.000000 0.000000
# 3 -0.008527 -0.021301 0.055599 0.000000 0.000000 0.000000
# 4 0.000000 0.000000 0.000000 0.055203 0.000000 0.000000
# 5 0.000000 0.000000 0.000000 0.000000 0.035722 0.000000
# 6 0.000000 0.000000 0.000000 0.000000 0.000000 0.051478
#
#
# Mechanical properties :
#
#
# Convention : Reuss Voigt Hill
#
# Bulk Modulus (GPa) = 35.61444 53.73198 44.67321
# Shear Modulus (GPa) = 13.86738 18.26199 16.06468
#
# Velocity S-wave (km/s) = 2.91566 3.34590 3.13816
# Velocity P-wave (km/s) = 5.75910 6.91851 6.36526
#
# Compressibility (1/GPa) = 0.02807850
#
# Stress axis : x y z
#
# Youngs Moduli (GPa) = 49.67762 23.41474 17.98585
#
# Poissons Ratio (x) = 0.35945 0.15336
# Poissons Ratio (y) = 0.76262 0.38312
# Poissons Ratio (z) = 0.42360 0.49876
#
# Static dielectric constant tensor:
#      x y z
#    x 1.537540 0.000000 0.000000 
#    y 0.000000 1.559890 0.000000 
#    z 0.000000 0.000000 1.543960 
# 
# From -- ./inp_files/14291.got.cif
#   From: 2010.05.17/outbox.cif.g08.bks.cpg/sg47_8_cif.got.tgz:14291.got - 2010.06.03 20:15:42.
