data_PCOD9384108
_publ_section_title
;
Structure prediction by ZEFSAII (Michael W. Deem and Ramdas Pophale) SiO2 
 PCOD9384108
Probable space group: P M M M
;
_chemical_formula_sum "Si O2"
_cell_formula_units_Z 52
_cell_length_a 22.752222
_cell_length_b 14.387790
_cell_length_c 9.127368
_cell_angle_alpha 90.000000
_cell_angle_beta 90.000000
_cell_angle_gamma 90.000000
_cell_volume 2987.882178
_symmetry_space_group_name_H-M "P M M M"
_symmetry_group_IT_number 47
_symmetry_cell_setting 'orthorhombic'
loop_
_space_group_symop_operation_xyz
x,y,z
-x,-y,z
x,-y,-z
-x,y,-z
-x,-y,-z
x,y,-z
-x,y,z
x,-y,z
loop_
_atom_site_type_symbol
_atom_site_label
_atom_site_fract_x
_atom_site_fract_y
_atom_site_fract_z
Si Si1 0.390995 0.103489 0.177885
Si Si2 0.677151 0.611812 0.668536
Si Si3 0.743598 0.889226 0.829646
Si Si4 0.564907 0.700046 0.176821
Si Si5 0.930142 0.890017 0.500000
Si Si6 0.200262 0.607989 0.174764
Si Si7 0.158122 0.773557 0.664922
O O1 0.323583 0.125188 0.220917
O O2 0.430432 0.190814 0.217407
O O3 0.407396 0.000000 0.230162
O O4 0.390668 0.099003 0.000000
O O5 0.680574 0.643655 0.500000
O O6 0.673919 0.500000 0.668745
O O7 0.619168 0.650094 0.746623
O O8 0.736517 0.635723 0.756644
O O9 0.791450 0.836545 0.735491
O O10 0.753563 0.000000 0.824495
O O11 0.747700 0.859540 0.000000
O O12 0.500000 0.664254 0.216251
O O13 0.571165 0.692889 0.000000
O O14 0.899311 0.837211 0.363018
O O15 0.000000 0.879787 0.500000
O O16 0.915782 0.000000 0.500000
O O17 0.188844 0.500000 0.213978
O O18 0.153728 0.680827 0.239330
O O19 0.203341 0.614510 0.000000
O O20 0.175668 0.744872 0.500000
#
# Coordination Sequence:
#
# PCOD9384108 Si02
#       7
#     8   8   8   8   4   8   8
#     4   8  15  28  45  66  94 127 161 204 262 321
#     4  10  21  36  54  75 102 134 170 216 273 333
#     4   9  16  27  46  73 104 135 172 223 280 334
#     4  10  20  32  48  70  95 130 179 227 268 320
#     4   9  20  38  57  81 117 159 195 224 256 296
#     4  10  20  35  56  83 114 142 171 218 282 341
#     4  10  20  30  53  81 108 145 186 223 259 309
#
# _framework density 17.403631000000001
#
# number of rings (size 3 to 8) (size 9 to 14) (size 15 to 20)
#    0.462    2.077    0.000    3.692    0.000    4.000 
#    0.000    3.077    0.000    3.231    0.000    7.538 
#    0.000    0.000    0.000    0.000    0.000    0.000 
#
# Total GULP energy -289759.220153 kJ/mol
# GULP energy per Si atom -5572.292695 kJ/mol
# Density = 1.736402 g / cm^3
# Si number density = 17.403631 Si / 1000 Ang^3
#
#
#
# Elastic Constant Matrix: (Units=GPa)
#
#
# Indices 1 2 3 4 5 6 
#
# 1 68.9526 54.4218 29.3655 0.0000 0.0000 0.0000
# 2 54.4218 69.6138 29.8161 0.0000 0.0000 0.0000
# 3 29.3655 29.8161 56.1326 0.0000 0.0000 0.0000
# 4 0.0000 0.0000 0.0000 27.2996 0.0000 0.0000
# 5 0.0000 0.0000 0.0000 0.0000 18.6074 0.0000
# 6 0.0000 0.0000 0.0000 0.0000 0.0000 21.4041
#
#
#
# Elastic Compliance Matrix: (Units=1/GPa)
#
#
# Indices 1 2 3 4 5 6 
#
# 1 0.039121 -0.028243 -0.005464 0.000000 0.000000 0.000000
# 2 -0.028243 0.038986 -0.005933 0.000000 0.000000 0.000000
# 3 -0.005464 -0.005933 0.023825 0.000000 0.000000 0.000000
# 4 0.000000 0.000000 0.000000 0.036631 0.000000 0.000000
# 5 0.000000 0.000000 0.000000 0.000000 0.053742 0.000000
# 6 0.000000 0.000000 0.000000 0.000000 0.000000 0.046720
#
#
# Mechanical properties :
#
#
# Convention : Reuss Voigt Hill
#
# Bulk Modulus (GPa) = 44.14728 46.87840 45.51284
# Shear Modulus (GPa) = 15.34423 18.86859 17.10641
#
# Velocity S-wave (km/s) = 2.97251 3.29625 3.13856
# Velocity P-wave (km/s) = 6.09942 6.44062 6.27234
#
# Compressibility (1/GPa) = 0.02265145
#
# Stress axis : x y z
#
# Youngs Moduli (GPa) = 25.56157 25.65034 41.97327
#
# Poissons Ratio (x) = 0.72445 0.22934
# Poissons Ratio (y) = 0.72195 0.24902
# Poissons Ratio (z) = 0.13967 0.15218
#
# Static dielectric constant tensor:
#      x y z
#    x 1.565290 0.000000 0.000000 
#    y 0.000000 1.632010 0.000000 
#    z 0.000000 0.000000 1.589250 
# 
# From -- ./inp_files/12522.got.cif
#   From: 2010.05.17/outbox.cif.g08.bks.cpg/sg47_7_cif.got.tgz:12522.got - 2010.06.03 20:15:42.
