data_PCOD9384801
_publ_section_title
;
Structure prediction by ZEFSAII (Michael W. Deem and Ramdas Pophale) SiO2 
 PCOD9384801
Probable space group: P M M M
;
_chemical_formula_sum "Si O2"
_cell_formula_units_Z 48
_cell_length_a 31.243681
_cell_length_b 7.781493
_cell_length_c 9.864952
_cell_angle_alpha 90.000000
_cell_angle_beta 90.000000
_cell_angle_gamma 90.000000
_cell_volume 2398.391645
_symmetry_space_group_name_H-M "P M M M"
_symmetry_group_IT_number 47
_symmetry_cell_setting 'orthorhombic'
loop_
_space_group_symop_operation_xyz
x,y,z
-x,-y,z
x,-y,-z
-x,y,-z
-x,-y,-z
x,y,-z
-x,y,z
x,-y,z
loop_
_atom_site_type_symbol
_atom_site_label
_atom_site_fract_x
_atom_site_fract_y
_atom_site_fract_z
Si Si1 0.124159 0.794983 0.847016
Si Si2 0.048820 0.209938 0.654606
Si Si3 0.700915 0.793203 0.653521
Si Si4 0.373925 0.205493 0.847026
Si Si5 0.548820 0.292603 0.347052
Si Si6 0.201589 0.704825 0.653526
O O1 0.083943 0.726994 0.760550
O O2 0.167000 0.767303 0.760719
O O3 0.118058 0.000000 0.857013
O O4 0.126801 0.725927 0.000000
O O5 0.059063 0.262519 0.500000
O O6 0.000000 0.261833 0.685473
O O7 0.049390 0.000000 0.655476
O O8 0.693325 0.728192 0.500000
O O9 0.665919 0.726218 0.758887
O O10 0.749768 0.751934 0.690535
O O11 0.697102 0.000000 0.649139
O O12 0.417173 0.236138 0.763481
O O13 0.368333 0.000000 0.856422
O O14 0.375642 0.274418 0.000000
O O15 0.560625 0.234699 0.500000
O O16 0.500000 0.235707 0.319765
O O17 0.548536 0.500000 0.348546
O O18 0.193464 0.772352 0.500000
O O19 0.198623 0.500000 0.648398
#
# Coordination Sequence:
#
# PCOD9384801 Si02
#       6
#     8   8   8   8   8   8
#     4  10  20  32  49  75 105 137 170 205 250 302
#     4   8  14  26  46  72 100 130 166 208 251 295
#     4   9  18  34  55  76 100 133 172 212 253 299
#     4  10  21  35  52  78 110 139 167 204 252 305
#     4   9  19  36  56  77 102 135 176 218 256 296
#     4  10  21  36  54  76 101 131 169 212 256 301
#
# _framework density 20.013413
#
# number of rings (size 3 to 8) (size 9 to 14) (size 15 to 20)
#    0.000    2.667    0.000    2.500    0.000    5.667 
#    0.000    7.500    0.000    0.500    0.000    3.500 
#    0.000    0.000    0.000    0.000    0.000    0.000 
#
# Total GULP energy -267893.568537 kJ/mol
# GULP energy per Si atom -5581.116011 kJ/mol
# Density = 1.996786 g / cm^3
# Si number density = 20.013413 Si / 1000 Ang^3
#
#
#
# Elastic Constant Matrix: (Units=GPa)
#
#
# Indices 1 2 3 4 5 6 
#
# 1 160.2221 -0.6531 150.3462 0.0000 0.0000 0.0000
# 2 -0.6531 25.9302 8.5322 0.0000 0.0000 0.0000
# 3 150.3462 8.5322 193.1873 0.0000 0.0000 0.0000
# 4 0.0000 0.0000 0.0000 11.8695 0.0000 0.0000
# 5 0.0000 0.0000 0.0000 0.0000 14.6598 0.0000
# 6 0.0000 0.0000 0.0000 0.0000 0.0000 66.6525
#
#
#
# Elastic Compliance Matrix: (Units=1/GPa)
#
#
# Indices 1 2 3 4 5 6 
#
# 1 0.024310 0.006938 -0.019226 0.000000 0.000000 0.000000
# 2 0.006938 0.041114 -0.007216 0.000000 0.000000 0.000000
# 3 -0.019226 -0.007216 0.020457 0.000000 0.000000 0.000000
# 4 0.000000 0.000000 0.000000 0.084250 0.000000 0.000000
# 5 0.000000 0.000000 0.000000 0.000000 0.068214 0.000000
# 6 0.000000 0.000000 0.000000 0.000000 0.000000 0.015003
#
#
# Mechanical properties :
#
#
# Convention : Reuss Voigt Hill
#
# Bulk Modulus (GPa) = 21.33298 77.31004 49.32151
# Shear Modulus (GPa) = 16.23490 33.37733 24.80611
#
# Velocity S-wave (km/s) = 2.85125 4.08824 3.52444
# Velocity P-wave (km/s) = 4.63918 7.81011 6.42339
#
# Compressibility (1/GPa) = 0.04687578
#
# Stress axis : x y z
#
# Youngs Moduli (GPa) = 41.13507 24.32261 48.88272
#
# Poissons Ratio (x) = -0.16876 0.93980
# Poissons Ratio (y) = -0.28541 0.35272
# Poissons Ratio (z) = 0.79085 0.17550
#
# Static dielectric constant tensor:
#      x y z
#    x 1.676100 0.000000 0.000000 
#    y 0.000000 1.738610 0.000000 
#    z 0.000000 0.000000 1.703080 
# 
# From -- ./inp_files/2484.got.cif
#   From: 2010.05.17/outbox.cif.g08.bks.cpg/sg47_2_cif.got.tgz:2484.got - 2010.06.03 20:15:42.
