data_PCOD9384477
_publ_section_title
;
Structure prediction by ZEFSAII (Michael W. Deem and Ramdas Pophale) SiO2 
 PCOD9384477
Probable space group: P M M M
;
_chemical_formula_sum "Si O2"
_cell_formula_units_Z 56
_cell_length_a 15.443552
_cell_length_b 21.156393
_cell_length_c 8.907441
_cell_angle_alpha 90.000000
_cell_angle_beta 90.000000
_cell_angle_gamma 90.000000
_cell_volume 2910.326910
_symmetry_space_group_name_H-M "P M M M"
_symmetry_group_IT_number 47
_symmetry_cell_setting 'orthorhombic'
loop_
_space_group_symop_operation_xyz
x,y,z
-x,-y,z
x,-y,-z
-x,y,-z
-x,-y,-z
x,y,-z
-x,y,z
x,-y,z
loop_
_atom_site_type_symbol
_atom_site_label
_atom_site_fract_x
_atom_site_fract_y
_atom_site_fract_z
Si Si1 0.218160 0.820416 0.822130
Si Si2 0.599758 0.187008 0.676420
Si Si3 0.877434 0.569008 0.326351
Si Si4 0.102674 0.073315 0.322747
Si Si5 0.398978 0.685318 0.164423
Si Si6 0.901560 0.287460 0.318545
Si Si7 0.329657 0.429767 0.669059
O O1 0.314553 0.837272 0.760604
O O2 0.156404 0.877746 0.773552
O O3 0.172762 0.757174 0.751647
O O4 0.220724 0.813368 0.000000
O O5 0.605104 0.173279 0.500000
O O6 0.500000 0.170673 0.726627
O O7 0.610382 0.261518 0.710032
O O8 0.906987 0.569247 0.500000
O O9 0.903868 0.500000 0.260489
O O10 0.899465 0.638873 0.265157
O O11 0.773779 0.567526 0.331824
O O12 0.118819 0.085406 0.500000
O O13 0.000000 0.080953 0.298146
O O14 0.124448 0.000000 0.292332
O O15 0.500000 0.671720 0.155915
O O16 0.353961 0.621658 0.210862
O O17 0.370373 0.709041 0.000000
O O18 0.889059 0.287787 0.500000
O O19 0.000000 0.263393 0.289227
O O20 0.358498 0.411892 0.500000
O O21 0.363371 0.500000 0.701229
#
# Coordination Sequence:
#
# PCOD9384477 Si02
#       7
#     8   8   8   8   8   8   8
#     4  12  24  36  56  86 121 157 189 230 284 339
#     4  10  21  38  60  82 105 139 184 232 280 332
#     4   8  15  29  48  69  93 125 172 230 284 328
#     4   9  19  38  64  92 123 161 203 242 278 323
#     4  10  20  32  46  67  96 127 162 212 277 342
#     4  10  20  33  52  79 110 146 190 239 287 338
#     4   9  17  29  45  63  85 121 171 221 267 325
#
# _framework density 19.241824000000001
#
# number of rings (size 3 to 8) (size 9 to 14) (size 15 to 20)
#    0.000    2.286    0.000    4.714    0.000    6.286 
#    0.000    3.571    0.000    1.714    0.000    4.000 
#    0.000    0.000    0.000    0.000    0.000    0.000 
#
# Total GULP energy -312004.454264 kJ/mol
# GULP energy per Si atom -5571.508112 kJ/mol
# Density = 1.919803 g / cm^3
# Si number density = 19.241824 Si / 1000 Ang^3
#
#
#
# Elastic Constant Matrix: (Units=GPa)
#
#
# Indices 1 2 3 4 5 6 
#
# 1 59.7722 49.1536 49.1913 0.0000 0.0000 0.0000
# 2 49.1536 63.4613 32.8310 0.0000 0.0000 0.0000
# 3 49.1913 32.8310 53.3523 0.0000 0.0000 0.0000
# 4 0.0000 0.0000 0.0000 -35.8486 0.0000 0.0000
# 5 0.0000 0.0000 0.0000 0.0000 161.9203 0.0000
# 6 0.0000 0.0000 0.0000 0.0000 0.0000 267.6418
#
#
#
# Elastic Compliance Matrix: (Units=1/GPa)
#
#
# Indices 1 2 3 4 5 6 
#
# 1 0.161957 -0.070697 -0.105821 0.000000 0.000000 0.000000
# 2 -0.070697 0.053978 0.031968 0.000000 0.000000 0.000000
# 3 -0.105821 0.031968 0.096640 0.000000 0.000000 0.000000
# 4 0.000000 0.000000 0.000000 -0.027895 0.000000 0.000000
# 5 0.000000 0.000000 0.000000 0.000000 0.006176 0.000000
# 6 0.000000 0.000000 0.000000 0.000000 0.000000 0.003736
#
#
# Mechanical properties :
#
#
# Convention : Reuss Voigt Hill
#
# Bulk Modulus (GPa) = 42.60277 48.77085 45.68681
# Shear Modulus (GPa) = 8.45284 81.77001 45.11143
#
# Velocity S-wave (km/s) = 2.09821 6.52597 4.84720
# Velocity P-wave (km/s) = 5.29705 9.06563 7.42443
#
# Compressibility (1/GPa) = 0.02347265
#
# Stress axis : x y z
#
# Youngs Moduli (GPa) = 6.17449 18.52624 10.34768
#
# Poissons Ratio (x) = 1.30975 1.09501
# Poissons Ratio (y) = 0.43652 -0.33079
# Poissons Ratio (z) = 0.65339 -0.59224
#
# Static dielectric constant tensor:
#      x y z
#    x 1.702740 0.000000 0.000000 
#    y 0.000000 1.358730 0.000000 
#    z 0.000000 0.000000 1.665690 
# 
# From -- ./inp_files/7296.got.cif
#   From: 2010.05.17/outbox.cif.g08.bks.cpg/sg47_4_cif.got.tgz:7296.got - 2010.06.03 20:15:42.
