data_PCOD9384847
_publ_section_title
;
Structure prediction by ZEFSAII (Michael W. Deem and Ramdas Pophale) SiO2 
 PCOD9384847
Probable space group: P M M M
;
_chemical_formula_sum "Si O2"
_cell_formula_units_Z 44
_cell_length_a 7.420126
_cell_length_b 29.695671
_cell_length_c 10.009416
_cell_angle_alpha 90.000000
_cell_angle_beta 90.000000
_cell_angle_gamma 90.000000
_cell_volume 2205.530979
_symmetry_space_group_name_H-M "P M M M"
_symmetry_group_IT_number 47
_symmetry_cell_setting 'orthorhombic'
loop_
_space_group_symop_operation_xyz
x,y,z
-x,-y,z
x,-y,-z
-x,y,-z
-x,-y,-z
x,y,-z
-x,y,z
x,-y,z
loop_
_atom_site_type_symbol
_atom_site_label
_atom_site_fract_x
_atom_site_fract_y
_atom_site_fract_z
Si Si1 0.000000 0.050757 0.661216
Si Si2 0.782779 0.208657 0.844938
Si Si3 0.708980 0.124096 0.345389
Si Si4 0.780159 0.550807 0.500000
Si Si5 0.220185 0.709191 0.655970
Si Si6 0.220431 0.447599 0.000000
Si Si7 0.219641 0.610458 0.252596
O O1 0.828379 0.081378 0.695406
O O2 0.000000 0.047291 0.500000
O O3 0.000000 0.000000 0.715213
O O4 0.736755 0.164352 0.759197
O O5 0.720974 0.250827 0.754395
O O6 0.000000 0.211232 0.850878
O O7 0.719512 0.208490 0.000000
O O8 0.759522 0.137316 0.500000
O O9 0.500000 0.112027 0.347427
O O10 0.716295 0.500000 0.500000
O O11 0.724537 0.579161 0.626220
O O12 0.000000 0.549433 0.500000
O O13 0.276377 0.713774 0.500000
O O14 0.277601 0.661381 0.718401
O O15 0.000000 0.709588 0.653529
O O16 0.277667 0.417295 0.124308
O O17 0.279101 0.500000 0.000000
O O18 0.000000 0.449495 0.000000
O O19 0.000000 0.612303 0.248525
#
# Coordination Sequence:
#
# PCOD9384847 Si02
#       7
#     4   8   8   4   8   4   8
#     4   9  18  34  59  91 127 161 197 245 290 329
#     4  10  20  32  50  75 103 140 186 233 288 346
#     4  10  20  35  58  86 118 157 198 239 288 341
#     4   9  14  20  30  42  62  96 145 201 255 319
#     4   9  16  26  40  59  84 118 161 219 281 339
#     4   9  16  22  28  40  64 102 147 201 263 325
#     4   9  15  22  31  45  68 100 147 204 263 326
#
# _framework density 19.949845
#
# number of rings (size 3 to 8) (size 9 to 14) (size 15 to 20)
#    0.000    2.636    1.818    1.091    1.273    3.636 
#    0.000    1.818    0.000    1.091    0.000    1.273 
#    0.000    0.000    0.000    0.000    0.000    5.455 
#
# Total GULP energy -245460.051122 kJ/mol
# GULP energy per Si atom -5578.637526 kJ/mol
# Density = 1.990444 g / cm^3
# Si number density = 19.949845 Si / 1000 Ang^3
#
#
#
# Elastic Constant Matrix: (Units=GPa)
#
#
# Indices 1 2 3 4 5 6 
#
# 1 75.0436 36.3055 25.2503 0.0000 0.0000 0.0000
# 2 36.3055 231.3608 117.0083 0.0000 0.0000 0.0000
# 3 25.2503 117.0083 186.7744 0.0000 0.0000 0.0000
# 4 0.0000 0.0000 0.0000 24.9709 0.0000 0.0000
# 5 0.0000 0.0000 0.0000 0.0000 0.3133 0.0000
# 6 0.0000 0.0000 0.0000 0.0000 0.0000 -31.6455
#
#
#
# Elastic Compliance Matrix: (Units=1/GPa)
#
#
# Indices 1 2 3 4 5 6 
#
# 1 0.014498 -0.001879 -0.000783 0.000000 0.000000 0.000000
# 2 -0.001879 0.006570 -0.003862 0.000000 0.000000 0.000000
# 3 -0.000783 -0.003862 0.007879 0.000000 0.000000 0.000000
# 4 0.000000 0.000000 0.000000 0.040047 0.000000 0.000000
# 5 0.000000 0.000000 0.000000 0.000000 3.192152 0.000000
# 6 0.000000 0.000000 0.000000 0.000000 0.000000 -0.031600
#
#
# Mechanical properties :
#
#
# Convention : Reuss Voigt Hill
#
# Bulk Modulus (GPa) = 62.89408 94.47855 78.68631
# Shear Modulus (GPa) = 1.53946 19.70205 10.62075
#
# Velocity S-wave (km/s) = 0.87940 3.14599 2.30982
# Velocity P-wave (km/s) = 5.71189 7.78827 6.82945
#
# Compressibility (1/GPa) = 0.01589975
#
# Stress axis : x y z
#
# Youngs Moduli (GPa) = 68.97452 152.19935 126.91433
#
# Poissons Ratio (x) = 0.28601 0.09934
# Poissons Ratio (y) = 0.12962 0.49015
# Poissons Ratio (z) = 0.05399 0.58780
#
# Static dielectric constant tensor:
#      x y z
#    x 1.811470 0.000000 0.000000 
#    y 0.000000 1.664930 0.000000 
#    z 0.000000 0.000000 1.694580 
# 
# From -- ./inp_files/2388.got.cif
#   From: 2010.05.17/outbox.cif.g08.bks.cpg/sg47_2_cif.got.tgz:2388.got - 2010.06.03 20:15:42.
