data_PCOD9384050
_publ_section_title
;
Structure prediction by ZEFSAII (Michael W. Deem and Ramdas Pophale) SiO2 
 PCOD9384050
Probable space group: P M M M
;
_chemical_formula_sum "Si O2"
_cell_formula_units_Z 64
_cell_length_a 9.173585
_cell_length_b 24.040182
_cell_length_c 15.629382
_cell_angle_alpha 90.000000
_cell_angle_beta 90.000000
_cell_angle_gamma 90.000000
_cell_volume 3446.820336
_symmetry_space_group_name_H-M "P M M M"
_symmetry_group_IT_number 47
_symmetry_cell_setting 'orthorhombic'
loop_
_space_group_symop_operation_xyz
x,y,z
-x,-y,z
x,-y,-z
-x,y,-z
-x,-y,-z
x,y,-z
-x,y,z
x,-y,z
loop_
_atom_site_type_symbol
_atom_site_label
_atom_site_fract_x
_atom_site_fract_y
_atom_site_fract_z
Si Si1 0.329726 0.742098 0.146986
Si Si2 0.670898 0.433592 0.250000
Si Si3 0.173148 0.630470 0.902456
Si Si4 0.826852 0.369530 0.402456
Si Si5 0.670274 0.257902 0.353014
Si Si6 0.674594 0.131713 0.401928
Si Si7 0.325406 0.131713 0.098072
Si Si8 0.173929 0.065564 0.250000
O O1 0.500000 0.731941 0.125149
O O2 0.232007 0.693046 0.110090
O O3 0.317545 0.742053 0.250000
O O4 0.290239 0.803246 0.113485
O O5 0.500000 0.418601 0.250000
O O6 0.685008 0.500000 0.250000
O O7 0.746054 0.407337 0.166788
O O8 0.746054 0.407337 0.333212
O O9 0.000000 0.628955 0.887745
O O10 0.202327 0.612714 0.000000
O O11 0.797673 0.387286 0.500000
O O12 0.767993 0.306954 0.389910
O O13 0.000000 0.371045 0.387745
O O14 0.500000 0.268060 0.374850
O O15 0.709761 0.196754 0.386515
O O16 0.707586 0.116764 0.500000
O O17 0.500000 0.126303 0.388533
O O18 0.757613 0.094727 0.333172
O O19 0.500000 0.126303 0.111467
O O20 0.242387 0.094727 0.166828
O O21 0.292414 0.116764 0.000000
O O22 0.000000 0.072849 0.250000
O O23 0.206856 0.000000 0.250000
#
# Coordination Sequence:
#
# PCOD9384050 Si02
#       8
#     8   8   8   8   8   8   8   8
#     4  10  19  35  62  92 122 156 193 238 293 351
#     4  11  25  44  65  88 115 154 204 253 298 345
#     4  11  24  40  61  91 125 160 196 238 293 354
#     4  11  24  40  61  91 125 160 196 238 293 354
#     4  10  19  35  62  92 122 156 193 238 293 351
#     4  10  21  39  64  91 118 152 196 246 297 348
#     4  10  21  39  64  91 118 152 196 246 297 348
#     4  11  25  42  59  82 117 160 200 243 296 353
#
# _framework density 18.567836
#
# number of rings (size 3 to 8) (size 9 to 14) (size 15 to 20)
#    0.000    1.500    2.500    2.250    0.000    7.500 
#    0.000    5.000    0.000    0.000    0.000    0.000 
#    0.000    0.000    0.000    0.000    0.000    0.000 
#
# Total GULP energy -357812.874423 kJ/mol
# GULP energy per Si atom -5590.826163 kJ/mol
# Density = 1.852557 g / cm^3
# Si number density = 18.567836 Si / 1000 Ang^3
#
#
#
# Elastic Constant Matrix: (Units=GPa)
#
#
# Indices 1 2 3 4 5 6 
#
# 1 98.0571 80.0203 97.6782 0.0000 0.0000 0.0000
# 2 80.0203 108.8195 86.6705 0.0000 0.0000 0.0000
# 3 97.6782 86.6705 162.8158 0.0000 0.0000 0.0000
# 4 0.0000 0.0000 0.0000 -10.0249 0.0000 0.0000
# 5 0.0000 0.0000 0.0000 0.0000 48.2044 0.0000
# 6 0.0000 0.0000 0.0000 0.0000 0.0000 70.4346
#
#
#
# Elastic Compliance Matrix: (Units=1/GPa)
#
#
# Indices 1 2 3 4 5 6 
#
# 1 0.037136 -0.016603 -0.013441 0.000000 0.000000 0.000000
# 2 -0.016603 0.023376 -0.002483 0.000000 0.000000 0.000000
# 3 -0.013441 -0.002483 0.015527 0.000000 0.000000 0.000000
# 4 0.000000 0.000000 0.000000 -0.099752 0.000000 0.000000
# 5 0.000000 0.000000 0.000000 0.000000 0.020745 0.000000
# 6 0.000000 0.000000 0.000000 0.000000 0.000000 0.014198
#
#
# Mechanical properties :
#
#
# Convention : Reuss Voigt Hill
#
# Bulk Modulus (GPa) = 91.02695 99.82560 95.42627
# Shear Modulus (GPa) = 62.54275 28.74439 45.64357
#
# Velocity S-wave (km/s) = 5.81004 3.93883 4.96341
# Velocity P-wave (km/s) = 9.70253 8.63511 9.18434
#
# Compressibility (1/GPa) = 0.01098576
#
# Stress axis : x y z
#
# Youngs Moduli (GPa) = 26.92813 42.77908 64.40210
#
# Poissons Ratio (x) = 0.71024 0.86563
# Poissons Ratio (y) = 0.44708 0.15992
# Poissons Ratio (z) = 0.36194 0.10623
#
# Static dielectric constant tensor:
#      x y z
#    x 1.617870 0.000000 0.000000 
#    y 0.000000 1.610990 0.000000 
#    z 0.000000 0.000000 1.639310 
# 
# From -- ./inp_files/7816.got.cif
#   From: 2010.05.17/outbox.cif.g08.bks.cpg/sg47_4_cif.got.tgz:7816.got - 2010.06.03 20:15:42.
