data_PCOD9384615
_publ_section_title
;
Structure prediction by ZEFSAII (Michael W. Deem and Ramdas Pophale) SiO2 
 PCOD9384615
Probable space group: P M M M
;
_chemical_formula_sum "Si O2"
_cell_formula_units_Z 52
_cell_length_a 7.540219
_cell_length_b 14.653733
_cell_length_c 25.653816
_cell_angle_alpha 90.000000
_cell_angle_beta 90.000000
_cell_angle_gamma 90.000000
_cell_volume 2834.550570
_symmetry_space_group_name_H-M "P M M M"
_symmetry_group_IT_number 47
_symmetry_cell_setting 'orthorhombic'
loop_
_space_group_symop_operation_xyz
x,y,z
-x,-y,z
x,-y,-z
-x,y,-z
-x,-y,-z
x,y,-z
-x,y,z
x,-y,z
loop_
_atom_site_type_symbol
_atom_site_label
_atom_site_fract_x
_atom_site_fract_y
_atom_site_fract_z
Si Si1 0.790938 0.897909 0.235715
Si Si2 0.707578 0.208981 0.340680
Si Si3 0.500000 0.892407 0.062266
Si Si4 0.213665 0.398232 0.293864
Si Si5 0.716370 0.894293 0.558474
Si Si6 0.215590 0.793711 0.868946
Si Si7 0.215657 0.602299 0.826035
O O1 0.772661 0.843675 0.289467
O O2 0.728493 0.841538 0.185652
O O3 0.000000 0.906616 0.226885
O O4 0.714454 0.000000 0.239093
O O5 0.500000 0.190576 0.342276
O O6 0.733688 0.316066 0.331055
O O7 0.781878 0.168904 0.394539
O O8 0.672966 0.843660 0.086636
O O9 0.500000 0.000000 0.076231
O O10 0.500000 0.884843 0.000000
O O11 0.273556 0.500000 0.308877
O O12 0.272822 0.381100 0.234028
O O13 0.000000 0.398966 0.292487
O O14 0.775238 0.869098 0.500000
O O15 0.500000 0.891346 0.557609
O O16 0.765136 0.000000 0.568201
O O17 0.264752 0.687079 0.862101
O O18 0.000000 0.800694 0.875290
O O19 0.273111 0.500000 0.841083
O O20 0.000000 0.601806 0.824936
#
# Coordination Sequence:
#
# PCOD9384615 Si02
#       7
#     8   8   4   8   8   8   8
#     4  10  20  32  47  72 107 143 172 204 256 320
#     4  11  20  28  46  75 103 129 164 217 271 317
#     4  11  26  44  61  83 111 147 193 237 269 310
#     4   9  17  31  49  68  98 138 170 199 247 315
#     4   8  15  29  46  64  91 130 175 216 256 309
#     4  10  20  37  60  83 112 147 183 225 276 328
#     4   8  14  28  53  81 107 139 178 215 259 323
#
# _framework density 18.345061000000001
#
# number of rings (size 3 to 8) (size 9 to 14) (size 15 to 20)
#    0.000    2.538    1.538    2.769    1.077    2.462 
#    0.000    1.154    0.000    3.231    0.000   10.769 
#    0.000    0.000    0.000    0.000    0.000    0.000 
#
# Total GULP energy -289969.380438 kJ/mol
# GULP energy per Si atom -5576.334239 kJ/mol
# Density = 1.830331 g / cm^3
# Si number density = 18.345061 Si / 1000 Ang^3
#
#
#
# Elastic Constant Matrix: (Units=GPa)
#
#
# Indices 1 2 3 4 5 6 
#
# 1 50.8848 15.1118 19.1530 0.0000 0.0000 0.0000
# 2 15.1118 145.7826 77.4496 0.0000 0.0000 0.0000
# 3 19.1530 77.4496 106.7509 0.0000 0.0000 0.0000
# 4 0.0000 0.0000 0.0000 42.3353 0.0000 0.0000
# 5 0.0000 0.0000 0.0000 0.0000 18.5888 0.0000
# 6 0.0000 0.0000 0.0000 0.0000 0.0000 8.2979
#
#
#
# Elastic Compliance Matrix: (Units=1/GPa)
#
#
# Indices 1 2 3 4 5 6 
#
# 1 0.021083 -0.000286 -0.003575 0.000000 0.000000 0.000000
# 2 -0.000286 0.011166 -0.008050 0.000000 0.000000 0.000000
# 3 -0.003575 -0.008050 0.015849 0.000000 0.000000 0.000000
# 4 0.000000 0.000000 0.000000 0.023621 0.000000 0.000000
# 5 0.000000 0.000000 0.000000 0.000000 0.053796 0.000000
# 6 0.000000 0.000000 0.000000 0.000000 0.000000 0.120512
#
#
# Mechanical properties :
#
#
# Convention : Reuss Voigt Hill
#
# Bulk Modulus (GPa) = 41.19260 58.53855 49.86558
# Shear Modulus (GPa) = 17.98949 26.62467 22.30708
#
# Velocity S-wave (km/s) = 3.13488 3.81376 3.49086
# Velocity P-wave (km/s) = 5.96711 7.16743 6.59463
#
# Compressibility (1/GPa) = 0.02427620
#
# Stress axis : x y z
#
# Youngs Moduli (GPa) = 47.43189 89.56048 63.09515
#
# Poissons Ratio (x) = 0.02563 0.22557
# Poissons Ratio (y) = 0.01357 0.50789
# Poissons Ratio (z) = 0.16957 0.72092
#
# Static dielectric constant tensor:
#      x y z
#    x 2.299750 0.000000 0.000000 
#    y 0.000000 1.672860 0.000000 
#    z 0.000000 0.000000 1.611570 
# 
# From -- ./inp_files/29615.got.cif
#   From: 2010.05.17/outbox.cif.g08.bks.cpg/sg47_15_cif.got.tgz:29615.got - 2010.06.03 20:15:42.
