data_PCOD9384613
_publ_section_title
;
Structure prediction by ZEFSAII (Michael W. Deem and Ramdas Pophale) SiO2 
 PCOD9384613
Probable space group: P M M M
;
_chemical_formula_sum "Si O2"
_cell_formula_units_Z 44
_cell_length_a 31.775312
_cell_length_b 7.804782
_cell_length_c 9.143128
_cell_angle_alpha 90.000000
_cell_angle_beta 90.000000
_cell_angle_gamma 90.000000
_cell_volume 2267.490104
_symmetry_space_group_name_H-M "P M M M"
_symmetry_group_IT_number 47
_symmetry_cell_setting 'orthorhombic'
loop_
_space_group_symop_operation_xyz
x,y,z
-x,-y,z
x,-y,-z
-x,y,-z
-x,-y,-z
x,y,-z
-x,y,z
x,-y,z
loop_
_atom_site_type_symbol
_atom_site_label
_atom_site_fract_x
_atom_site_fract_y
_atom_site_fract_z
Si Si1 0.102386 0.703492 0.674888
Si Si2 0.370000 0.797512 0.836049
Si Si3 0.949747 0.000000 0.172810
Si Si4 0.719644 0.705312 0.169245
Si Si5 0.454236 0.705985 0.332463
Si Si6 0.811318 0.708309 0.170234
O O1 0.100343 0.721413 0.500000
O O2 0.095867 0.500000 0.709563
O O3 0.069807 0.830876 0.752166
O O4 0.148616 0.756129 0.733979
O O5 0.325392 0.749491 0.762587
O O6 0.412616 0.752441 0.754117
O O7 0.369124 0.000000 0.848958
O O8 0.371052 0.719622 0.000000
O O9 0.000000 0.000000 0.189177
O O10 0.939478 0.000000 0.000000
O O11 0.721424 0.500000 0.166353
O O12 0.765147 0.765727 0.226115
O O13 0.717883 0.767106 0.000000
O O14 0.450893 0.766843 0.500000
O O15 0.500000 0.765245 0.273602
O O16 0.455640 0.500000 0.335681
O O17 0.810759 0.500000 0.169518
O O18 0.816209 0.761734 0.000000
#
# Coordination Sequence:
#
# PCOD9384613 Si02
#       6
#     8   8   4   8   8   8
#     4  10  21  38  61  89 123 160 195 239 298 357
#     4  10  20  32  47  72 106 137 166 205 254 310
#     4  11  25  43  63  89 119 155 203 253 296 343
#     4   8  14  27  48  72 100 137 178 218 259 304
#     4   9  19  36  55  72  90 118 162 213 262 314
#     4   8  14  28  52  79 107 142 186 230 270 320
#
# _framework density 19.404716000000001
#
# number of rings (size 3 to 8) (size 9 to 14) (size 15 to 20)
#    0.000    2.818    0.000    3.000    0.000    4.364 
#    1.636    5.455    0.000    3.273    0.000    0.000 
#    0.000    0.000    0.000    0.000    0.000    0.000 
#
# Total GULP energy -245091.476597 kJ/mol
# GULP energy per Si atom -5570.260832 kJ/mol
# Density = 1.936055 g / cm^3
# Si number density = 19.404716 Si / 1000 Ang^3
#
#
#
# Elastic Constant Matrix: (Units=GPa)
#
#
# Indices 1 2 3 4 5 6 
#
# 1 188.0993 52.3684 73.2801 0.0000 0.0000 0.0000
# 2 52.3684 56.5503 30.9884 0.0000 0.0000 0.0000
# 3 73.2801 30.9884 63.7607 0.0000 0.0000 0.0000
# 4 0.0000 0.0000 0.0000 20.1272 0.0000 0.0000
# 5 0.0000 0.0000 0.0000 0.0000 -102.4229 0.0000
# 6 0.0000 0.0000 0.0000 0.0000 0.0000 86.8425
#
#
#
# Elastic Compliance Matrix: (Units=1/GPa)
#
#
# Indices 1 2 3 4 5 6 
#
# 1 0.010297 -0.004158 -0.009814 0.000000 0.000000 0.000000
# 2 -0.004158 0.025781 -0.007751 0.000000 0.000000 0.000000
# 3 -0.009814 -0.007751 0.030730 0.000000 0.000000 0.000000
# 4 0.000000 0.000000 0.000000 0.049684 0.000000 0.000000
# 5 0.000000 0.000000 0.000000 0.000000 -0.009763 0.000000
# 6 0.000000 0.000000 0.000000 0.000000 0.000000 0.011515
#
#
# Mechanical properties :
#
#
# Convention : Reuss Voigt Hill
#
# Bulk Modulus (GPa) = 42.80379 69.07601 55.93990
# Shear Modulus (GPa) = 29.50241 11.02758 20.26499
#
# Velocity S-wave (km/s) = 3.90343 2.38648 3.23512
# Velocity P-wave (km/s) = 6.51322 6.57788 6.54563
#
# Compressibility (1/GPa) = 0.02336242
#
# Stress axis : x y z
#
# Youngs Moduli (GPa) = 97.11337 38.78759 32.54171
#
# Poissons Ratio (x) = 0.16128 0.31936
# Poissons Ratio (y) = 0.40380 0.25224
# Poissons Ratio (z) = 0.95305 0.30065
#
# Static dielectric constant tensor:
#      x y z
#    x 1.722440 0.000000 0.000000 
#    y 0.000000 1.693510 0.000000 
#    z 0.000000 0.000000 1.677150 
# 
# From -- ./inp_files/13619.got.cif
#   From: 2010.05.17/outbox.cif.g08.bks.cpg/sg47_7_cif.got.tgz:13619.got - 2010.06.03 20:15:42.
