data_PCOD9384559
_publ_section_title
;
Structure prediction by ZEFSAII (Michael W. Deem and Ramdas Pophale) SiO2 
 PCOD9384559
Probable space group: P M M M
;
_chemical_formula_sum "Si O2"
_cell_formula_units_Z 64
_cell_length_a 9.262342
_cell_length_b 15.382198
_cell_length_c 23.771231
_cell_angle_alpha 90.000000
_cell_angle_beta 90.000000
_cell_angle_gamma 90.000000
_cell_volume 3386.810382
_symmetry_space_group_name_H-M "P M M M"
_symmetry_group_IT_number 47
_symmetry_cell_setting 'orthorhombic'
loop_
_space_group_symop_operation_xyz
x,y,z
-x,-y,z
x,-y,-z
-x,y,-z
-x,-y,-z
x,y,-z
-x,y,z
x,-y,z
loop_
_atom_site_type_symbol
_atom_site_label
_atom_site_fract_x
_atom_site_fract_y
_atom_site_fract_z
Si Si1 0.172011 0.102505 0.610746
Si Si2 0.836438 0.837826 0.820655
Si Si3 0.671393 0.595974 0.890914
Si Si4 0.833999 0.360987 0.221831
Si Si5 0.327410 0.601472 0.661654
Si Si6 0.327927 0.736029 0.563045
Si Si7 0.658423 0.101990 0.720686
Si Si8 0.827826 0.237530 0.062825
O O1 0.247757 0.172116 0.570752
O O2 0.230457 0.130021 0.672551
O O3 0.000000 0.110021 0.608509
O O4 0.207392 0.000000 0.600145
O O5 0.837923 0.740907 0.794299
O O6 0.723690 0.886830 0.782141
O O7 0.793830 0.826941 0.885750
O O8 0.000000 0.873144 0.816731
O O9 0.500000 0.610356 0.886315
O O10 0.695779 0.500000 0.915534
O O11 0.742619 0.598194 0.829014
O O12 0.744241 0.673025 0.925836
O O13 0.758087 0.376477 0.281339
O O14 0.000000 0.391829 0.222342
O O15 0.500000 0.611110 0.671537
O O16 0.301516 0.500000 0.647226
O O17 0.286251 0.666809 0.611182
O O18 0.300548 0.702187 0.500000
O O19 0.500000 0.750975 0.568624
O O20 0.500000 0.144017 0.714864
O O21 0.643062 0.000000 0.710886
O O22 0.000000 0.254760 0.067791
O O23 0.798290 0.205142 0.000000
#
# Coordination Sequence:
#
# PCOD9384559 Si02
#       8
#     8   8   8   8   8   8   8   8
#     4  10  21  37  58  84 113 143 173 209 259 318
#     4   9  18  32  51  75 102 133 168 209 256 304
#     4  10  20  32  47  70 100 131 164 205 253 305
#     4  10  20  33  51  76 103 131 168 213 260 311
#     4  10  21  36  54  77 106 140 178 222 270 316
#     4  10  22  39  58  80 106 140 182 223 262 308
#     4  10  20  33  52  80 110 136 164 201 247 302
#     4   9  19  35  52  70  94 128 171 213 251 295
#
# _framework density 18.896837000000001
#
# number of rings (size 3 to 8) (size 9 to 14) (size 15 to 20)
#    0.000    2.250    0.000    3.375    0.000   10.500 
#    0.000    3.750    0.000    0.375    0.000    4.375 
#    0.000    0.000    0.000    0.000    0.000    0.000 
#
# Total GULP energy -356993.559663 kJ/mol
# GULP energy per Si atom -5578.024370 kJ/mol
# Density = 1.885383 g / cm^3
# Si number density = 18.896837 Si / 1000 Ang^3
#
#
#
# Elastic Constant Matrix: (Units=GPa)
#
#
# Indices 1 2 3 4 5 6 
#
# 1 33.3561 15.5525 19.4667 0.0000 0.0000 0.0000
# 2 15.5525 33.7491 24.3008 0.0000 0.0000 0.0000
# 3 19.4667 24.3008 99.2119 0.0000 0.0000 0.0000
# 4 0.0000 0.0000 0.0000 5.9723 0.0000 0.0000
# 5 0.0000 0.0000 0.0000 0.0000 24.0913 0.0000
# 6 0.0000 0.0000 0.0000 0.0000 0.0000 17.8645
#
#
#
# Elastic Compliance Matrix: (Units=1/GPa)
#
#
# Indices 1 2 3 4 5 6 
#
# 1 0.039444 -0.015303 -0.003991 0.000000 0.000000 0.000000
# 2 -0.015303 0.041912 -0.007263 0.000000 0.000000 0.000000
# 3 -0.003991 -0.007263 0.012642 0.000000 0.000000 0.000000
# 4 0.000000 0.000000 0.000000 0.167440 0.000000 0.000000
# 5 0.000000 0.000000 0.000000 0.000000 0.041509 0.000000
# 6 0.000000 0.000000 0.000000 0.000000 0.000000 0.055977
#
#
# Mechanical properties :
#
#
# Convention : Reuss Voigt Hill
#
# Bulk Modulus (GPa) = 24.46003 31.66188 28.06096
# Shear Modulus (GPa) = 11.74631 16.71875 14.23253
#
# Velocity S-wave (km/s) = 2.49590 2.97768 2.74737
# Velocity P-wave (km/s) = 4.61282 5.34917 4.99458
#
# Compressibility (1/GPa) = 0.04088302
#
# Stress axis : x y z
#
# Youngs Moduli (GPa) = 25.35251 23.85930 79.10383
#
# Poissons Ratio (x) = 0.36512 0.31571
# Poissons Ratio (y) = 0.38797 0.57456
# Poissons Ratio (z) = 0.10118 0.17330
#
# Static dielectric constant tensor:
#      x y z
#    x 1.650100 0.000000 0.000000 
#    y 0.000000 1.681940 0.000000 
#    z 0.000000 0.000000 1.657690 
# 
# From -- ./inp_files/7801.got.cif
#   From: 2010.05.17/outbox.cif.g08.bks.cpg/sg47_4_cif.got.tgz:7801.got - 2010.06.03 20:15:42.
