data_PCOD9384428
_publ_section_title
;
Structure prediction by ZEFSAII (Michael W. Deem and Ramdas Pophale) SiO2 
 PCOD9384428
Probable space group: P M M M
;
_chemical_formula_sum "Si O2"
_cell_formula_units_Z 40
_cell_length_a 9.407508
_cell_length_b 12.733858
_cell_length_c 23.275610
_cell_angle_alpha 90.000000
_cell_angle_beta 90.000000
_cell_angle_gamma 90.000000
_cell_volume 2788.275422
_symmetry_space_group_name_H-M "P M M M"
_symmetry_group_IT_number 47
_symmetry_cell_setting 'orthorhombic'
loop_
_space_group_symop_operation_xyz
x,y,z
-x,-y,z
x,-y,-z
-x,y,-z
-x,-y,-z
x,y,-z
-x,y,z
x,-y,z
loop_
_atom_site_type_symbol
_atom_site_label
_atom_site_fract_x
_atom_site_fract_y
_atom_site_fract_z
Si Si1 0.162909 0.372395 0.776377
Si Si2 0.836192 0.000000 0.430251
Si Si3 0.169766 0.375284 0.354609
Si Si4 0.663334 0.628096 0.887092
Si Si5 0.667909 0.210412 0.431070
Si Si6 0.836303 0.627983 0.000000
O O1 0.162620 0.500000 0.777013
O O2 0.203436 0.343483 0.711346
O O3 0.264642 0.337094 0.827565
O O4 0.000000 0.339426 0.787116
O O5 0.751130 0.895435 0.413390
O O6 0.839199 0.000000 0.500000
O O7 0.000000 0.000000 0.410349
O O8 0.196621 0.500000 0.360708
O O9 0.260458 0.307279 0.398454
O O10 0.000000 0.359343 0.362993
O O11 0.500000 0.661250 0.891582
O O12 0.664450 0.500000 0.886821
O O13 0.754116 0.661034 0.942472
O O14 0.683698 0.222389 0.500000
O O15 0.500000 0.202091 0.418827
O O16 0.836509 0.500000 0.000000
O O17 0.000000 0.661847 0.000000
#
# Coordination Sequence:
#
# PCOD9384428 Si02
#       6
#     8   4   8   8   8   4
#     4   8  14  25  38  50  67  94 128 163 197 234
#     4   9  17  31  51  69  83 103 133 166 201 246
#     4   9  18  31  45  61  82 110 144 177 206 243
#     4   9  15  21  30  45  64  86 116 156 198 236
#     4  10  20  32  46  65  88 110 133 167 211 254
#     4   9  15  21  29  41  59  85 117 154 195 234
#
# _framework density 14.345784999999999
#
# number of rings (size 3 to 8) (size 9 to 14) (size 15 to 20)
#    0.000    3.000    0.000    3.000    0.000    7.600 
#    0.000    4.000    0.000    0.000    0.000    0.000 
#    0.000    0.000    0.000    0.000    0.000    1.000 
#
# Total GULP energy -222699.947488 kJ/mol
# GULP energy per Si atom -5567.498687 kJ/mol
# Density = 1.431313 g / cm^3
# Si number density = 14.345785 Si / 1000 Ang^3
#
#
#
# Elastic Constant Matrix: (Units=GPa)
#
#
# Indices 1 2 3 4 5 6 
#
# 1 126.9776 46.6245 76.9845 0.0000 0.0000 0.0000
# 2 46.6245 42.7928 36.7217 0.0000 0.0000 0.0000
# 3 76.9845 36.7217 79.0233 0.0000 0.0000 0.0000
# 4 0.0000 0.0000 0.0000 -1.0824 0.0000 0.0000
# 5 0.0000 0.0000 0.0000 0.0000 22.7420 0.0000
# 6 0.0000 0.0000 0.0000 0.0000 0.0000 15.9256
#
#
#
# Elastic Compliance Matrix: (Units=1/GPa)
#
#
# Indices 1 2 3 4 5 6 
#
# 1 0.021096 -0.008896 -0.016417 0.000000 0.000000 0.000000
# 2 -0.008896 0.042619 -0.011138 0.000000 0.000000 0.000000
# 3 -0.016417 -0.011138 0.033824 0.000000 0.000000 0.000000
# 4 0.000000 0.000000 0.000000 -0.923904 0.000000 0.000000
# 5 0.000000 0.000000 0.000000 0.000000 0.043971 0.000000
# 6 0.000000 0.000000 0.000000 0.000000 0.000000 0.062792
#
#
# Mechanical properties :
#
#
# Convention : Reuss Voigt Hill
#
# Bulk Modulus (GPa) = 40.59187 63.27278 51.93233
# Shear Modulus (GPa) = -7.83102 13.41458 2.79178
#
# Velocity S-wave (km/s) = -2.33893 3.06124 1.39653
# Velocity P-wave (km/s) = 4.58940 7.52968 6.23533
#
# Compressibility (1/GPa) = 0.02463547
#
# Stress axis : x y z
#
# Youngs Moduli (GPa) = 47.40341 23.46352 29.56486
#
# Poissons Ratio (x) = 0.20874 0.48537
# Poissons Ratio (y) = 0.42172 0.32930
# Poissons Ratio (z) = 0.77823 0.26134
#
# Static dielectric constant tensor:
#      x y z
#    x 1.479600 0.000000 0.000000 
#    y 0.000000 1.438860 0.000000 
#    z 0.000000 0.000000 1.475860 
# 
# From -- ./inp_files/10792.got.cif
#   From: 2010.05.17/outbox.cif.g08.bks.cpg/sg47_6_cif.got.tgz:10792.got - 2010.06.03 20:15:42.
