data_PCOD9384391
_publ_section_title
;
Structure prediction by ZEFSAII (Michael W. Deem and Ramdas Pophale) SiO2 
 PCOD9384391
Probable space group: P M M M
;
_chemical_formula_sum "Si O2"
_cell_formula_units_Z 64
_cell_length_a 14.455683
_cell_length_b 9.081224
_cell_length_c 31.948502
_cell_angle_alpha 90.000000
_cell_angle_beta 90.000000
_cell_angle_gamma 90.000000
_cell_volume 4194.049038
_symmetry_space_group_name_H-M "P M M M"
_symmetry_group_IT_number 47
_symmetry_cell_setting 'orthorhombic'
loop_
_space_group_symop_operation_xyz
x,y,z
-x,-y,z
x,-y,-z
-x,y,-z
-x,-y,-z
x,y,-z
-x,y,z
x,-y,z
loop_
_atom_site_type_symbol
_atom_site_label
_atom_site_fract_x
_atom_site_fract_y
_atom_site_fract_z
Si Si1 0.894055 0.175243 0.575170
Si Si2 0.895717 0.326755 0.335261
Si Si3 0.387472 0.668793 0.130363
Si Si4 0.712008 0.325026 0.547048
Si Si5 0.387621 0.827680 0.046342
Si Si6 0.609970 0.824736 0.216421
Si Si7 0.389359 0.173361 0.624349
Si Si8 0.295776 0.324519 0.704530
O O1 0.884552 0.228283 0.623335
O O2 0.815901 0.262226 0.550377
O O3 0.000000 0.207372 0.562281
O O4 0.879539 0.000000 0.571994
O O5 0.887568 0.500000 0.347657
O O6 0.813211 0.296627 0.303263
O O7 0.000000 0.304556 0.318993
O O8 0.500000 0.670800 0.129053
O O9 0.358152 0.500000 0.134873
O O10 0.354889 0.737202 0.086450
O O11 0.361566 0.762426 0.171107
O O12 0.676511 0.298548 0.500000
O O13 0.712457 0.500000 0.554808
O O14 0.653244 0.244326 0.582652
O O15 0.500000 0.820538 0.046394
O O16 0.363728 0.000000 0.050844
O O17 0.357433 0.776700 0.000000
O O18 0.500000 0.793734 0.221914
O O19 0.665411 0.747914 0.253575
O O20 0.621912 0.000000 0.217849
O O21 0.500000 0.187789 0.624360
O O22 0.347649 0.255118 0.664602
O O23 0.365859 0.000000 0.626194
O O24 0.310740 0.500000 0.705466
#
# Coordination Sequence:
#
# PCOD9384391 Si02
#       8
#     8   8   8   8   8   8   8   8
#     4  10  20  34  55  81 105 128 153 183 220 264
#     4   9  18  33  53  76 101 126 150 178 218 269
#     4   9  16  25  37  54  78 108 146 194 241 281
#     4  11  24  40  57  77 100 127 157 188 225 269
#     4   8  13  21  33  49  71 103 144 188 234 283
#     4  10  20  32  45  62  88 123 159 195 236 278
#     4  11  24  40  57  76  98 124 154 190 231 272
#     4  11  21  33  53  77  98 122 152 187 226 269
#
# _framework density 15.259717
#
# number of rings (size 3 to 8) (size 9 to 14) (size 15 to 20)
#    0.000    2.125    1.250    3.000    0.000    7.750 
#    0.000    3.750    0.000    0.000    0.000    0.000 
#    0.000    0.000    0.000    0.000    0.000    0.625 
#
# Total GULP energy -357006.862900 kJ/mol
# GULP energy per Si atom -5578.232233 kJ/mol
# Density = 1.522498 g / cm^3
# Si number density = 15.259717 Si / 1000 Ang^3
#
#
#
# Elastic Constant Matrix: (Units=GPa)
#
#
# Indices 1 2 3 4 5 6 
#
# 1 50.1273 37.9031 44.1454 0.0000 0.0000 0.0000
# 2 37.9031 76.3735 62.0648 0.0000 0.0000 0.0000
# 3 44.1454 62.0648 127.0569 0.0000 0.0000 0.0000
# 4 0.0000 0.0000 0.0000 30.0352 0.0000 0.0000
# 5 0.0000 0.0000 0.0000 0.0000 -1.0858 0.0000
# 6 0.0000 0.0000 0.0000 0.0000 0.0000 19.4775
#
#
#
# Elastic Compliance Matrix: (Units=1/GPa)
#
#
# Indices 1 2 3 4 5 6 
#
# 1 0.034491 -0.012236 -0.006007 0.000000 0.000000 0.000000
# 2 -0.012236 0.026054 -0.008475 0.000000 0.000000 0.000000
# 3 -0.006007 -0.008475 0.014097 0.000000 0.000000 0.000000
# 4 0.000000 0.000000 0.000000 0.033294 0.000000 0.000000
# 5 0.000000 0.000000 0.000000 0.000000 -0.920994 0.000000
# 6 0.000000 0.000000 0.000000 0.000000 0.000000 0.051341
#
#
# Mechanical properties :
#
#
# Convention : Reuss Voigt Hill
#
# Bulk Modulus (GPa) = 47.15627 60.19824 53.67726
# Shear Modulus (GPa) = -7.13052 16.98168 4.92558
#
# Velocity S-wave (km/s) = -2.16401 3.33955 1.79857
# Velocity P-wave (km/s) = 4.97249 7.37597 6.29009
#
# Compressibility (1/GPa) = 0.02120609
#
# Stress axis : x y z
#
# Youngs Moduli (GPa) = 28.99273 38.38244 70.93459
#
# Poissons Ratio (x) = 0.46966 0.42609
# Poissons Ratio (y) = 0.35476 0.60119
# Poissons Ratio (z) = 0.17415 0.32530
#
# Static dielectric constant tensor:
#      x y z
#    x 1.499350 0.000000 0.000000 
#    y 0.000000 1.509860 0.000000 
#    z 0.000000 0.000000 1.499370 
# 
# From -- ./inp_files/14314.got.cif
#   From: 2010.05.17/outbox.cif.g08.bks.cpg/sg47_8_cif.got.tgz:14314.got - 2010.06.03 20:15:42.
