data_PCOD9384351
_publ_section_title
;
Structure prediction by ZEFSAII (Michael W. Deem and Ramdas Pophale) SiO2 
 PCOD9384351
Probable space group: P M M M
;
_chemical_formula_sum "Si O2"
_cell_formula_units_Z 48
_cell_length_a 20.081467
_cell_length_b 9.103364
_cell_length_c 21.140703
_cell_angle_alpha 90.000000
_cell_angle_beta 90.000000
_cell_angle_gamma 90.000000
_cell_volume 3864.708740
_symmetry_space_group_name_H-M "P M M M"
_symmetry_group_IT_number 47
_symmetry_cell_setting 'orthorhombic'
loop_
_space_group_symop_operation_xyz
x,y,z
-x,-y,z
x,-y,-z
-x,y,-z
-x,-y,-z
x,y,-z
-x,y,z
x,-y,z
loop_
_atom_site_type_symbol
_atom_site_label
_atom_site_fract_x
_atom_site_fract_y
_atom_site_fract_z
Si Si1 0.420149 0.825643 0.759058
Si Si2 0.207648 0.675762 0.073923
Si Si3 0.927068 0.173383 0.923509
Si Si4 0.580935 0.330778 0.628353
Si Si5 0.352399 0.676896 0.121006
Si Si6 0.418794 0.170000 0.500000
Si Si7 0.579830 0.173337 0.000000
O O1 0.500000 0.803955 0.766796
O O2 0.400560 0.758542 0.691161
O O3 0.382470 0.743105 0.815179
O O4 0.407709 0.000000 0.761051
O O5 0.200643 0.500000 0.074458
O O6 0.139399 0.746160 0.098667
O O7 0.274376 0.713784 0.111701
O O8 0.217424 0.720212 0.000000
O O9 0.000000 0.226577 0.901078
O O10 0.922525 0.000000 0.910199
O O11 0.927405 0.189669 0.000000
O O12 0.500000 0.331648 0.626803
O O13 0.602860 0.500000 0.631448
O O14 0.602967 0.252573 0.563707
O O15 0.359347 0.500000 0.119532
O O16 0.390822 0.747866 0.061753
O O17 0.500000 0.171721 0.500000
O O18 0.398390 0.000000 0.500000
O O19 0.500000 0.184954 0.000000
O O20 0.597170 0.000000 0.000000
#
# Coordination Sequence:
#
# PCOD9384351 Si02
#       7
#     8   8   8   8   8   4   4
#     4  10  20  32  43  56  74  95 123 159 197 236
#     4   9  17  29  41  55  74  93 117 148 183 224
#     4   8  14  24  38  57  77  94 113 137 169 213
#     4   9  16  26  40  57  75  96 121 148 182 225
#     4  11  21  33  45  57  73  94 122 157 195 235
#     4   9  15  23  37  57  79  99 117 143 180 219
#     4  11  23  35  45  57  70  87 118 159 201 242
#
# _framework density 12.420082000000001
#
# number of rings (size 3 to 8) (size 9 to 14) (size 15 to 20)
#    0.000    2.500    0.833    3.000    0.000    8.333 
#    0.000    1.667    0.000    0.000    0.000    0.000 
#    0.000    0.000    0.000    0.000    0.000    0.000 
#
# Total GULP energy -267434.994262 kJ/mol
# GULP energy per Si atom -5571.562380 kJ/mol
# Density = 1.239181 g / cm^3
# Si number density = 12.420082 Si / 1000 Ang^3
#
#
#
# Elastic Constant Matrix: (Units=GPa)
#
#
# Indices 1 2 3 4 5 6 
#
# 1 72.0849 47.8911 41.3955 0.0000 0.0000 0.0000
# 2 47.8911 76.5174 50.2016 0.0000 0.0000 0.0000
# 3 41.3955 50.2016 96.3995 0.0000 0.0000 0.0000
# 4 0.0000 0.0000 0.0000 21.0139 0.0000 0.0000
# 5 0.0000 0.0000 0.0000 0.0000 0.1431 0.0000
# 6 0.0000 0.0000 0.0000 0.0000 0.0000 18.6198
#
#
#
# Elastic Compliance Matrix: (Units=1/GPa)
#
#
# Indices 1 2 3 4 5 6 
#
# 1 0.024665 -0.012894 -0.003877 0.000000 0.000000 0.000000
# 2 -0.012894 0.026592 -0.008311 0.000000 0.000000 0.000000
# 3 -0.003877 -0.008311 0.016367 0.000000 0.000000 0.000000
# 4 0.000000 0.000000 0.000000 0.047588 0.000000 0.000000
# 5 0.000000 0.000000 0.000000 0.000000 6.986268 0.000000
# 6 0.000000 0.000000 0.000000 0.000000 0.000000 0.053706
#
#
# Mechanical properties :
#
#
# Convention : Reuss Voigt Hill
#
# Bulk Modulus (GPa) = 57.27596 58.21981 57.74789
# Shear Modulus (GPa) = 0.69337 14.98960 7.84149
#
# Velocity S-wave (km/s) = 0.74798 3.47779 2.51540
# Velocity P-wave (km/s) = 6.85286 7.94380 7.41841
#
# Compressibility (1/GPa) = 0.01745933
#
# Stress axis : x y z
#
# Youngs Moduli (GPa) = 40.54266 37.60525 61.10036
#
# Poissons Ratio (x) = 0.48489 0.23688
# Poissons Ratio (y) = 0.52276 0.50782
# Poissons Ratio (z) = 0.15718 0.31255
#
# Static dielectric constant tensor:
#      x y z
#    x 1.397240 0.000000 0.000000 
#    y 0.000000 1.415320 0.000000 
#    z 0.000000 0.000000 1.385070 
# 
# From -- ./inp_files/11434.got.cif
#   From: 2010.05.17/outbox.cif.g08.bks.cpg/sg47_6_cif.got.tgz:11434.got - 2010.06.03 20:15:42.
