data_PCOD9384709
_publ_section_title
;
Structure prediction by ZEFSAII (Michael W. Deem and Ramdas Pophale) SiO2 
 PCOD9384709
Probable space group: P M M M
;
_chemical_formula_sum "Si O2"
_cell_formula_units_Z 44
_cell_length_a 9.641263
_cell_length_b 30.550989
_cell_length_c 7.422572
_cell_angle_alpha 90.000000
_cell_angle_beta 90.000000
_cell_angle_gamma 90.000000
_cell_volume 2186.319472
_symmetry_space_group_name_H-M "P M M M"
_symmetry_group_IT_number 47
_symmetry_cell_setting 'orthorhombic'
loop_
_space_group_symop_operation_xyz
x,y,z
-x,-y,z
x,-y,-z
-x,y,-z
-x,-y,-z
x,y,-z
-x,y,z
x,-y,z
loop_
_atom_site_type_symbol
_atom_site_label
_atom_site_fract_x
_atom_site_fract_y
_atom_site_fract_z
Si Si1 0.655928 0.367842 0.787179
Si Si2 0.156856 0.549493 0.716845
Si Si3 0.663835 0.894694 0.214979
Si Si4 0.841012 0.712857 0.220635
Si Si5 0.657624 0.794227 0.219035
Si Si6 0.163828 0.947759 0.500000
O O1 0.500000 0.368317 0.712581
O O2 0.733176 0.413985 0.767778
O O3 0.752529 0.328861 0.716336
O O4 0.644052 0.359418 0.000000
O O5 0.153342 0.548448 0.500000
O O6 0.189310 0.500000 0.778235
O O7 0.000000 0.560614 0.778435
O O8 0.500000 0.902860 0.249494
O O9 0.691300 0.844119 0.269323
O O10 0.760123 0.926598 0.328031
O O11 0.685626 0.898666 0.000000
O O12 0.764727 0.757370 0.277784
O O13 0.000000 0.710522 0.278958
O O14 0.841993 0.712610 0.000000
O O15 0.500000 0.784066 0.276878
O O16 0.656222 0.793755 0.000000
O O17 0.000000 0.937707 0.500000
O O18 0.180400 0.000000 0.500000
#
# Coordination Sequence:
#
# PCOD9384709 Si02
#       6
#     8   8   8   8   8   4
#     4  10  20  32  48  73 104 135 167 207 254 304
#     4   9  19  36  55  72  92 123 163 207 258 314
#     4   9  19  37  62  89 115 150 197 245 293 347
#     4   9  16  26  44  72 104 138 174 209 252 310
#     4   8  14  27  49  77 107 137 172 217 268 320
#     4  11  25  41  57  83 121 161 197 241 298 351
#
# _framework density 20.125145
#
# number of rings (size 3 to 8) (size 9 to 14) (size 15 to 20)
#    0.000    2.818    0.000    3.000    0.000    6.545 
#    0.000    6.364    2.000    0.000    0.000    0.000 
#    0.000    0.000    0.000    0.000    0.000    0.000 
#
# Total GULP energy -245666.899985 kJ/mol
# GULP energy per Si atom -5583.338636 kJ/mol
# Density = 2.007934 g / cm^3
# Si number density = 20.125145 Si / 1000 Ang^3
#
#
#
# Elastic Constant Matrix: (Units=GPa)
#
#
# Indices 1 2 3 4 5 6 
#
# 1 195.3440 139.9325 38.5564 0.0000 0.0000 0.0000
# 2 139.9325 150.7060 29.3744 0.0000 0.0000 0.0000
# 3 38.5564 29.3744 72.6095 0.0000 0.0000 0.0000
# 4 0.0000 0.0000 0.0000 38.6108 0.0000 0.0000
# 5 0.0000 0.0000 0.0000 0.0000 8.9883 0.0000
# 6 0.0000 0.0000 0.0000 0.0000 0.0000 39.2964
#
#
#
# Elastic Compliance Matrix: (Units=1/GPa)
#
#
# Indices 1 2 3 4 5 6 
#
# 1 0.015745 -0.014102 -0.002656 0.000000 0.000000 0.000000
# 2 -0.014102 0.019834 -0.000535 0.000000 0.000000 0.000000
# 3 -0.002656 -0.000535 0.015399 0.000000 0.000000 0.000000
# 4 0.000000 0.000000 0.000000 0.025899 0.000000 0.000000
# 5 0.000000 0.000000 0.000000 0.000000 0.111255 0.000000
# 6 0.000000 0.000000 0.000000 0.000000 0.000000 0.025448
#
#
# Mechanical properties :
#
#
# Convention : Reuss Voigt Hill
#
# Bulk Modulus (GPa) = 61.00737 92.70958 76.85847
# Shear Modulus (GPa) = 19.71371 31.43219 25.57295
#
# Velocity S-wave (km/s) = 3.13318 3.95630 3.56855
# Velocity P-wave (km/s) = 6.59310 8.18757 7.43321
#
# Compressibility (1/GPa) = 0.01639146
#
# Stress axis : x y z
#
# Youngs Moduli (GPa) = 63.51183 50.41954 64.93832
#
# Poissons Ratio (x) = 0.71101 0.17247
# Poissons Ratio (y) = 0.89564 0.03477
# Poissons Ratio (z) = 0.16868 0.02700
#
# Static dielectric constant tensor:
#      x y z
#    x 1.682270 0.000000 0.000000 
#    y 0.000000 1.678190 0.000000 
#    z 0.000000 0.000000 1.762110 
# 
# From -- ./inp_files/2014.got.cif
#   From: 2010.05.17/outbox.cif.g08.bks.cpg/sg47_2_cif.got.tgz:2014.got - 2010.06.03 20:15:42.
