data_PCOD9384988
_publ_section_title
;
Structure prediction by ZEFSAII (Michael W. Deem and Ramdas Pophale) SiO2 
 PCOD9384988
Probable space group: P M M M
;
_chemical_formula_sum "Si O2"
_cell_formula_units_Z 44
_cell_length_a 29.276833
_cell_length_b 7.342228
_cell_length_c 9.350597
_cell_angle_alpha 90.000000
_cell_angle_beta 90.000000
_cell_angle_gamma 90.000000
_cell_volume 2009.977991
_symmetry_space_group_name_H-M "P M M M"
_symmetry_group_IT_number 47
_symmetry_cell_setting 'orthorhombic'
loop_
_space_group_symop_operation_xyz
x,y,z
-x,-y,z
x,-y,-z
-x,y,-z
-x,-y,-z
x,y,-z
-x,y,z
x,-y,z
loop_
_atom_site_type_symbol
_atom_site_label
_atom_site_fract_x
_atom_site_fract_y
_atom_site_fract_z
Si Si1 0.179320 0.717210 0.662366
Si Si2 0.359946 0.777342 0.335762
Si Si3 0.271451 0.217696 0.162028
Si Si4 0.551098 0.221634 0.165354
Si Si5 0.909427 0.277502 0.834913
Si Si6 0.000000 0.277958 0.334945
O O1 0.180886 0.788122 0.500000
O O2 0.173470 0.500000 0.652446
O O3 0.226241 0.748270 0.746148
O O4 0.136050 0.784538 0.752897
O O5 0.356025 0.720572 0.500000
O O6 0.316605 0.715736 0.243253
O O7 0.407436 0.718458 0.264356
O O8 0.359843 0.000000 0.334672
O O9 0.276331 0.000000 0.152573
O O10 0.267356 0.287680 0.000000
O O11 0.500000 0.279062 0.208838
O O12 0.551199 0.000000 0.167236
O O13 0.558434 0.275149 0.000000
O O14 0.909214 0.500000 0.835902
O O15 0.954589 0.221238 0.749197
O O16 0.910102 0.219707 0.000000
O O17 0.000000 0.500000 0.336057
O O18 0.000000 0.219458 0.500000
#
# Coordination Sequence:
#
# PCOD9384988 Si02
#       6
#     8   8   8   8   8   4
#     4  10  20  33  49  70  96 124 154 191 235 278
#     4   9  16  25  38  57  82 112 146 185 227 270
#     4  10  20  33  49  68  91 122 159 195 231 274
#     4   8  13  21  33  50  75 108 143 178 219 268
#     4   9  16  26  41  62  89 120 152 186 226 272
#     4   9  15  23  37  59  88 119 150 185 226 271
#
# _framework density 21.890788000000001
#
# number of rings (size 3 to 8) (size 9 to 14) (size 15 to 20)
#    0.000    2.818    0.000    3.000    0.000    8.000 
#    0.000    1.818    0.000    0.000    0.000    0.636 
#    0.000    5.818    0.000    7.636    0.000   10.545 
#
# Total GULP energy -245893.258176 kJ/mol
# GULP energy per Si atom -5588.483140 kJ/mol
# Density = 2.184096 g / cm^3
# Si number density = 21.890788 Si / 1000 Ang^3
#
#
#
# Elastic Constant Matrix: (Units=GPa)
#
#
# Indices 1 2 3 4 5 6 
#
# 1 242.8184 2.4656 164.3008 0.0000 0.0000 0.0000
# 2 2.4656 83.9456 8.2095 0.0000 0.0000 0.0000
# 3 164.3008 8.2095 250.8393 0.0000 0.0000 0.0000
# 4 0.0000 0.0000 0.0000 -2.2909 0.0000 0.0000
# 5 0.0000 0.0000 0.0000 0.0000 47.5633 0.0000
# 6 0.0000 0.0000 0.0000 0.0000 0.0000 9.1885
#
#
#
# Elastic Compliance Matrix: (Units=1/GPa)
#
#
# Indices 1 2 3 4 5 6 
#
# 1 0.007402 0.000258 -0.004857 0.000000 0.000000 0.000000
# 2 0.000258 0.011960 -0.000560 0.000000 0.000000 0.000000
# 3 -0.004857 -0.000560 0.007186 0.000000 0.000000 0.000000
# 4 0.000000 0.000000 0.000000 -0.436515 0.000000 0.000000
# 5 0.000000 0.000000 0.000000 0.000000 0.021025 0.000000
# 6 0.000000 0.000000 0.000000 0.000000 0.000000 0.108831
#
#
# Mechanical properties :
#
#
# Convention : Reuss Voigt Hill
#
# Bulk Modulus (GPa) = 61.61744 103.06167 82.33955
# Shear Modulus (GPa) = -18.91194 37.73402 9.41104
#
# Velocity S-wave (km/s) = -2.94244 4.15630 2.07567
# Velocity P-wave (km/s) = 4.08225 8.37945 6.59090
#
# Compressibility (1/GPa) = 0.01622917
#
# Stress axis : x y z
#
# Youngs Moduli (GPa) = 135.09938 83.61423 139.15686
#
# Poissons Ratio (x) = -0.02154 0.67585
# Poissons Ratio (y) = -0.03480 0.07794
# Poissons Ratio (z) = 0.65614 0.04683
#
# Static dielectric constant tensor:
#      x y z
#    x 1.738630 0.000000 0.000000 
#    y 0.000000 1.943640 0.000000 
#    z 0.000000 0.000000 1.723690 
# 
# From -- ./inp_files/13557.got.cif
#   From: 2010.05.17/outbox.cif.g08.bks.cpg/sg47_7_cif.got.tgz:13557.got - 2010.06.03 20:15:42.
