data_PCOD9384902
_publ_section_title
;
Structure prediction by ZEFSAII (Michael W. Deem and Ramdas Pophale) SiO2 
 PCOD9384902
Probable space group: P M M M
;
_chemical_formula_sum "Si O2"
_cell_formula_units_Z 52
_cell_length_a 27.630794
_cell_length_b 9.071649
_cell_length_c 14.196771
_cell_angle_alpha 90.000000
_cell_angle_beta 90.000000
_cell_angle_gamma 90.000000
_cell_volume 3558.518109
_symmetry_space_group_name_H-M "P M M M"
_symmetry_group_IT_number 47
_symmetry_cell_setting 'orthorhombic'
loop_
_space_group_symop_operation_xyz
x,y,z
-x,-y,z
x,-y,-z
-x,y,-z
-x,-y,-z
x,y,-z
-x,y,z
x,-y,z
loop_
_atom_site_type_symbol
_atom_site_label
_atom_site_fract_x
_atom_site_fract_y
_atom_site_fract_z
Si Si1 0.621121 0.328500 0.261607
Si Si2 0.297594 0.176771 0.389128
Si Si3 0.098722 0.170368 0.385120
Si Si4 0.442358 0.838200 0.608070
Si Si5 0.000000 0.329801 0.385261
Si Si6 0.444777 0.176764 0.111439
Si Si7 0.803629 0.668358 0.613946
O O1 0.631353 0.500000 0.247921
O O2 0.665582 0.247703 0.314198
O O3 0.578300 0.297434 0.335877
O O4 0.598128 0.254857 0.168442
O O5 0.307776 0.217595 0.500000
O O6 0.243990 0.236415 0.365944
O O7 0.299414 0.000000 0.384087
O O8 0.098953 0.172588 0.500000
O O9 0.048980 0.248050 0.355066
O O10 0.146657 0.256459 0.353155
O O11 0.100075 0.000000 0.356383
O O12 0.426526 0.832612 0.500000
O O13 0.500000 0.838105 0.610164
O O14 0.426311 0.000000 0.646212
O O15 0.000000 0.500000 0.356045
O O16 0.000000 0.327897 0.500000
O O17 0.500000 0.218988 0.142374
O O18 0.441462 0.000000 0.123655
O O19 0.441498 0.207786 0.000000
O O20 0.806747 0.662973 0.500000
O O21 0.798871 0.500000 0.647499
#
# Coordination Sequence:
#
# PCOD9384902 Si02
#       7
#     8   8   8   8   4   8   8
#     4  12  23  31  44  67  91 111 131 162 204 244
#     4  10  20  33  47  61  80 110 146 178 206 241
#     4   9  15  22  32  46  65  91 124 161 203 251
#     4   9  18  32  47  61  80 109 141 167 192 229
#     4   9  15  21  29  43  63  87 119 163 212 251
#     4   9  19  37  58  74  87 107 135 164 196 240
#     4   9  16  26  39  54  73  97 127 166 210 250
#
# _framework density 14.612824
#
# number of rings (size 3 to 8) (size 9 to 14) (size 15 to 20)
#    0.000    2.385    0.000    4.846    0.000   10.462 
#    0.000    1.538    0.000    0.000    0.000    0.000 
#    0.000    0.000    0.000    0.000    0.000    0.000 
#
# Total GULP energy -289695.452943 kJ/mol
# GULP energy per Si atom -5571.066403 kJ/mol
# Density = 1.457956 g / cm^3
# Si number density = 14.612824 Si / 1000 Ang^3
#
#
#
# Elastic Constant Matrix: (Units=GPa)
#
#
# Indices 1 2 3 4 5 6 
#
# 1 120.9306 59.2666 31.6578 0.0000 0.0000 0.0000
# 2 59.2666 95.8420 24.9047 0.0000 0.0000 0.0000
# 3 31.6578 24.9047 45.3348 0.0000 0.0000 0.0000
# 4 0.0000 0.0000 0.0000 -8.3886 0.0000 0.0000
# 5 0.0000 0.0000 0.0000 0.0000 26.5939 0.0000
# 6 0.0000 0.0000 0.0000 0.0000 0.0000 19.5996
#
#
#
# Elastic Compliance Matrix: (Units=1/GPa)
#
#
# Indices 1 2 3 4 5 6 
#
# 1 0.012906 -0.006578 -0.005399 0.000000 0.000000 0.000000
# 2 -0.006578 0.015524 -0.003935 0.000000 0.000000 0.000000
# 3 -0.005399 -0.003935 0.027990 0.000000 0.000000 0.000000
# 4 0.000000 0.000000 0.000000 -0.119209 0.000000 0.000000
# 5 0.000000 0.000000 0.000000 0.000000 0.037603 0.000000
# 6 0.000000 0.000000 0.000000 0.000000 0.000000 0.051021
#
#
# Mechanical properties :
#
#
# Convention : Reuss Voigt Hill
#
# Bulk Modulus (GPa) = 40.65566 54.86286 47.75926
# Shear Modulus (GPa) = 75.92191 17.31286 46.61738
#
# Velocity S-wave (km/s) = 7.21585 3.44579 5.65429
# Velocity P-wave (km/s) = 9.86443 7.31143 8.68228
#
# Compressibility (1/GPa) = 0.02459682
#
# Stress axis : x y z
#
# Youngs Moduli (GPa) = 77.48065 64.41636 35.72739
#
# Poissons Ratio (x) = 0.42374 0.19289
# Poissons Ratio (y) = 0.50968 0.14057
# Poissons Ratio (z) = 0.41832 0.25345
#
# Static dielectric constant tensor:
#      x y z
#    x 1.497190 0.000000 0.000000 
#    y 0.000000 1.500520 0.000000 
#    z 0.000000 0.000000 1.470770 
# 
# From -- ./inp_files/25706.got.cif
#   From: 2010.05.17/outbox.cif.g08.bks.cpg/sg47_13_cif.got.tgz:25706.got - 2010.06.03 20:15:42.
