data_PCOD9384947
_publ_section_title
;
Structure prediction by ZEFSAII (Michael W. Deem and Ramdas Pophale) SiO2 
 PCOD9384947
Probable space group: P M M M
;
_chemical_formula_sum "Si O2"
_cell_formula_units_Z 64
_cell_length_a 7.753273
_cell_length_b 21.616191
_cell_length_c 20.299384
_cell_angle_alpha 90.000000
_cell_angle_beta 90.000000
_cell_angle_gamma 90.000000
_cell_volume 3402.100231
_symmetry_space_group_name_H-M "P M M M"
_symmetry_group_IT_number 47
_symmetry_cell_setting 'orthorhombic'
loop_
_space_group_symop_operation_xyz
x,y,z
-x,-y,z
x,-y,-z
-x,y,-z
-x,-y,-z
x,y,-z
-x,y,z
x,-y,z
loop_
_atom_site_type_symbol
_atom_site_label
_atom_site_fract_x
_atom_site_fract_y
_atom_site_fract_z
Si Si1 0.291403 0.118505 0.573641
Si Si2 0.795588 0.932594 0.712583
Si Si3 0.707218 0.622245 0.072645
Si Si4 0.202232 0.311803 0.711367
Si Si5 0.706081 0.567826 0.208660
Si Si6 0.207893 0.232851 0.072646
Si Si7 0.292044 0.738348 0.573259
Si Si8 0.787924 0.189354 0.212824
O O1 0.236623 0.099158 0.500000
O O2 0.500000 0.117347 0.574577
O O3 0.227596 0.079256 0.634834
O O4 0.236217 0.190180 0.583434
O O5 0.726399 0.872898 0.751411
O O6 0.000000 0.934166 0.725919
O O7 0.722741 0.000000 0.730117
O O8 0.500000 0.614666 0.071309
O O9 0.775316 0.586472 0.136299
O O10 0.744472 0.695093 0.081515
O O11 0.773219 0.603909 0.000000
O O12 0.264308 0.376060 0.741422
O O13 0.234011 0.302775 0.634049
O O14 0.273691 0.250868 0.748655
O O15 0.000000 0.310650 0.723724
O O16 0.500000 0.563640 0.202048
O O17 0.771157 0.500000 0.228915
O O18 0.266237 0.195580 0.136772
O O19 0.000000 0.229504 0.071744
O O20 0.271283 0.213479 0.000000
O O21 0.234264 0.719194 0.500000
O O22 0.500000 0.738811 0.573083
O O23 0.000000 0.189283 0.214944
#
# Coordination Sequence:
#
# PCOD9384947 Si02
#       8
#     8   8   8   8   8   8   8   8
#     4   9  18  32  49  70  98 130 162 198 239 286
#     4  10  20  33  48  67  96 133 168 204 246 293
#     4   9  17  29  46  70  99 129 164 203 241 286
#     4  11  20  32  53  77 101 130 166 209 250 291
#     4  10  21  35  50  71 102 138 171 203 245 297
#     4   9  16  28  48  70  94 125 160 201 249 296
#     4   9  18  33  53  77 103 130 162 201 247 298
#     4   9  17  30  47  71  97 124 162 205 248 289
#
# _framework density 18.811909
#
# number of rings (size 3 to 8) (size 9 to 14) (size 15 to 20)
#    0.000    2.500    2.500    1.125    0.000    1.500 
#    0.000    4.375    0.000    0.750    0.000    7.875 
#    0.000    0.000    0.000    4.250    0.000    4.500 
#
# Total GULP energy -356925.281563 kJ/mol
# GULP energy per Si atom -5576.957524 kJ/mol
# Density = 1.876909 g / cm^3
# Si number density = 18.811909 Si / 1000 Ang^3
#
#
#
# Elastic Constant Matrix: (Units=GPa)
#
#
# Indices 1 2 3 4 5 6 
#
# 1 24.3425 7.7892 1.1343 0.0000 0.0000 0.0000
# 2 7.7892 139.2843 88.1299 0.0000 0.0000 0.0000
# 3 1.1343 88.1299 127.4808 0.0000 0.0000 0.0000
# 4 0.0000 0.0000 0.0000 17.1379 0.0000 0.0000
# 5 0.0000 0.0000 0.0000 0.0000 11.1539 0.0000
# 6 0.0000 0.0000 0.0000 0.0000 0.0000 12.8956
#
#
#
# Elastic Compliance Matrix: (Units=1/GPa)
#
#
# Indices 1 2 3 4 5 6 
#
# 1 0.042183 -0.003771 0.002232 0.000000 0.000000 0.000000
# 2 -0.003771 0.013099 -0.009022 0.000000 0.000000 0.000000
# 3 0.002232 -0.009022 0.014062 0.000000 0.000000 0.000000
# 4 0.000000 0.000000 0.000000 0.058350 0.000000 0.000000
# 5 0.000000 0.000000 0.000000 0.000000 0.089655 0.000000
# 6 0.000000 0.000000 0.000000 0.000000 0.000000 0.077546
#
#
# Mechanical properties :
#
#
# Convention : Reuss Voigt Hill
#
# Bulk Modulus (GPa) = 20.73791 53.91272 37.32531
# Shear Modulus (GPa) = 15.05609 21.17441 18.11525
#
# Velocity S-wave (km/s) = 2.83211 3.35861 3.10654
# Velocity P-wave (km/s) = 4.66286 6.61524 5.72292
#
# Compressibility (1/GPa) = 0.04822086
#
# Stress axis : x y z
#
# Youngs Moduli (GPa) = 23.70613 76.34175 71.11590
#
# Poissons Ratio (x) = 0.28789 -0.15871
# Poissons Ratio (y) = 0.08940 0.64161
# Poissons Ratio (z) = -0.05290 0.68876
#
# Static dielectric constant tensor:
#      x y z
#    x 1.709340 0.000000 0.000000 
#    y 0.000000 1.651440 0.000000 
#    z 0.000000 0.000000 1.672150 
# 
# From -- ./inp_files/9929.got.cif
#   From: 2010.05.17/outbox.cif.g08.bks.cpg/sg47_5_cif.got.tgz:9929.got - 2010.06.03 20:15:42.
