data_PCOD9384297
_publ_section_title
;
Structure prediction by ZEFSAII (Michael W. Deem and Ramdas Pophale) SiO2 
 PCOD9384297
Probable space group: P M M M
;
_chemical_formula_sum "Si O2"
_cell_formula_units_Z 52
_cell_length_a 24.908082
_cell_length_b 14.174618
_cell_length_c 7.901006
_cell_angle_alpha 90.000000
_cell_angle_beta 90.000000
_cell_angle_gamma 90.000000
_cell_volume 2789.549306
_symmetry_space_group_name_H-M "P M M M"
_symmetry_group_IT_number 47
_symmetry_cell_setting 'orthorhombic'
loop_
_space_group_symop_operation_xyz
x,y,z
-x,-y,z
x,-y,-z
-x,y,-z
-x,-y,-z
x,y,-z
-x,y,z
x,-y,z
loop_
_atom_site_type_symbol
_atom_site_label
_atom_site_fract_x
_atom_site_fract_y
_atom_site_fract_z
Si Si1 0.558354 0.385319 0.801147
Si Si2 0.328158 0.112355 0.187455
Si Si3 0.757521 0.760525 0.687088
Si Si4 0.557581 0.114522 0.697708
Si Si5 0.857007 0.888045 0.296066
Si Si6 0.324778 0.393317 0.798020
Si Si7 0.939408 0.886481 0.000000
O O1 0.500000 0.357407 0.725559
O O2 0.559599 0.500000 0.796033
O O3 0.616983 0.357482 0.729124
O O4 0.556891 0.358369 0.000000
O O5 0.289136 0.161000 0.316664
O O6 0.389419 0.144348 0.206605
O O7 0.326941 0.000000 0.205655
O O8 0.308682 0.137851 0.000000
O O9 0.773034 0.729484 0.500000
O O10 0.808670 0.817760 0.755947
O O11 0.726207 0.673132 0.768736
O O12 0.561365 0.140449 0.500000
O O13 0.500000 0.145477 0.767041
O O14 0.557406 0.000000 0.702818
O O15 0.866969 0.878201 0.500000
O O16 0.906286 0.864267 0.171273
O O17 0.843207 0.000000 0.269799
O O18 0.315709 0.500000 0.734806
O O19 0.332272 0.398344 0.000000
O O20 0.000000 0.847970 0.000000
O O21 0.943150 0.000000 0.000000
#
# Coordination Sequence:
#
# PCOD9384297 Si02
#       7
#     8   8   8   8   8   8   4
#     4   7  10  20  41  66  88 111 144 192 254 319
#     4  10  20  31  46  68  90 117 156 203 250 297
#     4  11  22  34  49  69  97 135 172 205 249 304
#     4   8  14  26  43  60  81 112 148 190 244 301
#     4   9  19  34  52  78 112 149 186 221 255 296
#     4   9  18  32  50  72  96 124 163 214 268 318
#     4   9  18  32  54  84 115 151 186 215 253 295
#
# _framework density 18.641003999999999
#
# number of rings (size 3 to 8) (size 9 to 14) (size 15 to 20)
#    0.000    3.000    0.000    3.231    2.154    2.462 
#    0.000    3.846    0.000    3.231    0.000    2.154 
#    0.000    1.231    0.000    3.385    0.000    0.154 
#
# Total GULP energy -289540.688322 kJ/mol
# GULP energy per Si atom -5568.090160 kJ/mol
# Density = 1.859858 g / cm^3
# Si number density = 18.641004 Si / 1000 Ang^3
#
#
#
# Elastic Constant Matrix: (Units=GPa)
#
#
# Indices 1 2 3 4 5 6 
#
# 1 145.4315 43.0777 37.4220 0.0000 0.0000 0.0000
# 2 43.0777 78.3098 20.8624 0.0000 0.0000 0.0000
# 3 37.4220 20.8624 41.6574 0.0000 0.0000 0.0000
# 4 0.0000 0.0000 0.0000 12.1582 0.0000 0.0000
# 5 0.0000 0.0000 0.0000 0.0000 12.3127 0.0000
# 6 0.0000 0.0000 0.0000 0.0000 0.0000 31.5831
#
#
#
# Elastic Compliance Matrix: (Units=1/GPa)
#
#
# Indices 1 2 3 4 5 6 
#
# 1 0.009701 -0.003479 -0.006972 0.000000 0.000000 0.000000
# 2 -0.003479 0.015983 -0.004880 0.000000 0.000000 0.000000
# 3 -0.006972 -0.004880 0.032712 0.000000 0.000000 0.000000
# 4 0.000000 0.000000 0.000000 0.082249 0.000000 0.000000
# 5 0.000000 0.000000 0.000000 0.000000 0.081217 0.000000
# 6 0.000000 0.000000 0.000000 0.000000 0.000000 0.031662
#
#
# Mechanical properties :
#
#
# Convention : Reuss Voigt Hill
#
# Bulk Modulus (GPa) = 36.05495 52.01366 44.03430
# Shear Modulus (GPa) = 17.03979 22.14657 19.59318
#
# Velocity S-wave (km/s) = 3.02669 3.45056 3.24555
# Velocity P-wave (km/s) = 5.62123 6.62107 6.14153
#
# Compressibility (1/GPa) = 0.02773545
#
# Stress axis : x y z
#
# Youngs Moduli (GPa) = 103.08664 62.56491 30.56953
#
# Poissons Ratio (x) = 0.21765 0.21313
# Poissons Ratio (y) = 0.35862 0.14916
# Poissons Ratio (z) = 0.71873 0.30529
#
# Static dielectric constant tensor:
#      x y z
#    x 1.662730 0.000000 0.000000 
#    y 0.000000 1.695310 0.000000 
#    z 0.000000 0.000000 1.724400 
# 
# From -- ./inp_files/11009.got.cif
#   From: 2010.05.17/outbox.cif.g08.bks.cpg/sg47_6_cif.got.tgz:11009.got - 2010.06.03 20:15:42.
