data_PCOD9384894
_publ_section_title
;
Structure prediction by ZEFSAII (Michael W. Deem and Ramdas Pophale) SiO2 
 PCOD9384894
Probable space group: P M M M
;
_chemical_formula_sum "Si O2"
_cell_formula_units_Z 48
_cell_length_a 8.962757
_cell_length_b 16.817622
_cell_length_c 22.456418
_cell_angle_alpha 90.000000
_cell_angle_beta 90.000000
_cell_angle_gamma 90.000000
_cell_volume 3384.906621
_symmetry_space_group_name_H-M "P M M M"
_symmetry_group_IT_number 47
_symmetry_cell_setting 'orthorhombic'
loop_
_space_group_symop_operation_xyz
x,y,z
-x,-y,z
x,-y,-z
-x,y,-z
-x,-y,-z
x,y,-z
-x,y,z
x,-y,z
loop_
_atom_site_type_symbol
_atom_site_label
_atom_site_fract_x
_atom_site_fract_y
_atom_site_fract_z
Si Si1 0.821365 0.406645 0.752859
Si Si2 0.669946 0.596045 0.121353
Si Si3 0.163225 0.594682 0.431795
Si Si4 0.172664 0.597065 0.000000
Si Si5 0.670344 0.000000 0.428232
Si Si6 0.820893 0.832544 0.429709
Si Si7 0.672524 0.302789 0.651139
O O1 0.778795 0.500000 0.738858
O O2 0.764943 0.388392 0.819504
O O3 0.749891 0.341816 0.708854
O O4 0.000000 0.403339 0.749620
O O5 0.500000 0.624901 0.127330
O O6 0.663707 0.500000 0.116938
O O7 0.745557 0.624065 0.060200
O O8 0.167244 0.621114 0.500000
O O9 0.162795 0.500000 0.430579
O O10 0.302079 0.627478 0.396820
O O11 0.000000 0.620826 0.406780
O O12 0.175641 0.500000 0.000000
O O13 0.000000 0.620765 0.000000
O O14 0.757749 0.080517 0.413197
O O15 0.500000 0.000000 0.405405
O O16 0.662237 0.000000 0.500000
O O17 0.779650 0.816618 0.500000
O O18 0.752993 0.770106 0.382772
O O19 0.000000 0.831254 0.427050
O O20 0.500000 0.285136 0.662132
#
# Coordination Sequence:
#
# PCOD9384894 Si02
#       7
#     8   8   8   4   4   8   8
#     4  10  20  33  46  58  77 109 146 180 215 257
#     4   9  16  26  40  58  79 102 132 173 216 251
#     4   9  18  32  46  57  72  98 132 169 209 251
#     4   9  15  23  37  57  79 103 133 168 207 250
#     4   9  17  31  51  73  93 107 123 156 203 250
#     4  10  20  34  51  68  86 109 136 165 202 252
#     4  12  23  31  42  61  83 106 135 172 211 248
#
# _framework density 14.180598
#
# number of rings (size 3 to 8) (size 9 to 14) (size 15 to 20)
#    0.000    2.167    0.000    5.000    0.000   10.667 
#    0.000    0.833    0.000    0.000    0.000    0.000 
#    0.000    0.000    0.000    0.000    0.000    0.833 
#
# Total GULP energy -267423.121379 kJ/mol
# GULP energy per Si atom -5571.315029 kJ/mol
# Density = 1.414832 g / cm^3
# Si number density = 14.180598 Si / 1000 Ang^3
#
#
#
# Elastic Constant Matrix: (Units=GPa)
#
#
# Indices 1 2 3 4 5 6 
#
# 1 92.6544 36.0023 49.6399 0.0000 0.0000 0.0000
# 2 36.0023 65.5428 41.7676 0.0000 0.0000 0.0000
# 3 49.6399 41.7676 97.0001 0.0000 0.0000 0.0000
# 4 0.0000 0.0000 0.0000 9.1551 0.0000 0.0000
# 5 0.0000 0.0000 0.0000 0.0000 19.5806 0.0000
# 6 0.0000 0.0000 0.0000 0.0000 0.0000 17.3833
#
#
#
# Elastic Compliance Matrix: (Units=1/GPa)
#
#
# Indices 1 2 3 4 5 6 
#
# 1 0.015936 -0.004901 -0.006045 0.000000 0.000000 0.000000
# 2 -0.004901 0.022535 -0.007195 0.000000 0.000000 0.000000
# 3 -0.006045 -0.007195 0.016501 0.000000 0.000000 0.000000
# 4 0.000000 0.000000 0.000000 0.109228 0.000000 0.000000
# 5 0.000000 0.000000 0.000000 0.000000 0.051071 0.000000
# 6 0.000000 0.000000 0.000000 0.000000 0.000000 0.057526
#
#
# Mechanical properties :
#
#
# Convention : Reuss Voigt Hill
#
# Bulk Modulus (GPa) = 53.50727 56.66855 55.08791
# Shear Modulus (GPa) = 15.85751 17.74299 16.80025
#
# Velocity S-wave (km/s) = 3.34766 3.54109 3.44573
# Velocity P-wave (km/s) = 7.26341 7.53445 7.40017
#
# Compressibility (1/GPa) = 0.01868905
#
# Stress axis : x y z
#
# Youngs Moduli (GPa) = 62.75207 44.37628 60.60362
#
# Poissons Ratio (x) = 0.21751 0.36632
# Poissons Ratio (y) = 0.30758 0.43604
# Poissons Ratio (z) = 0.37931 0.31928
#
# Static dielectric constant tensor:
#      x y z
#    x 1.495250 0.000000 0.000000 
#    y 0.000000 1.463580 0.000000 
#    z 0.000000 0.000000 1.471660 
# 
# From -- ./inp_files/29852.got.cif
#   From: 2010.05.17/outbox.cif.g08.bks.cpg/sg47_15_cif.got.tgz:29852.got - 2010.06.03 20:15:42.
