data_PCOD9384083
_publ_section_title
;
Structure prediction by ZEFSAII (Michael W. Deem and Ramdas Pophale) SiO2 
 PCOD9384083
Probable space group: P M M M
;
_chemical_formula_sum "Si O2"
_cell_formula_units_Z 64
_cell_length_a 7.563810
_cell_length_b 18.610568
_cell_length_c 20.673287
_cell_angle_alpha 90.000000
_cell_angle_beta 90.000000
_cell_angle_gamma 90.000000
_cell_volume 2910.112464
_symmetry_space_group_name_H-M "P M M M"
_symmetry_group_IT_number 47
_symmetry_cell_setting 'orthorhombic'
loop_
_space_group_symop_operation_xyz
x,y,z
-x,-y,z
x,-y,-z
-x,y,-z
-x,-y,-z
x,y,-z
-x,y,z
x,-y,z
loop_
_atom_site_type_symbol
_atom_site_label
_atom_site_fract_x
_atom_site_fract_y
_atom_site_fract_z
Si Si1 0.786739 0.921678 0.399988
Si Si2 0.295973 0.923627 0.117967
Si Si3 0.785810 0.879300 0.255527
Si Si4 0.700490 0.773671 0.923302
Si Si5 0.216977 0.421754 0.213424
Si Si6 0.793188 0.279309 0.714304
Si Si7 0.202588 0.386561 0.072857
Si Si8 0.294063 0.759542 0.569623
O O1 0.743948 0.914873 0.324000
O O2 0.721334 0.846445 0.428197
O O3 0.000000 0.920138 0.407092
O O4 0.725741 0.000000 0.423791
O O5 0.500000 0.921217 0.094677
O O6 0.292502 0.920314 0.195218
O O7 0.212959 0.847540 0.099377
O O8 0.219429 0.000000 0.096110
O O9 0.721886 0.796272 0.257950
O O10 0.000000 0.880176 0.249823
O O11 0.500000 0.767390 0.896536
O O12 0.796012 0.698768 0.912271
O O13 0.687318 0.780311 0.000000
O O14 0.265787 0.500000 0.240663
O O15 0.278550 0.352446 0.254219
O O16 0.279738 0.418462 0.138624
O O17 0.000000 0.419135 0.211788
O O18 0.781026 0.272055 0.636394
O O19 0.000000 0.278338 0.730743
O O20 0.000000 0.411212 0.068703
O O21 0.280103 0.397257 0.000000
O O22 0.218144 0.736007 0.500000
O O23 0.500000 0.741145 0.570575
#
# Coordination Sequence:
#
# PCOD9384083 Si02
#       8
#     8   8   8   8   8   8   8   8
#     4   9  18  32  49  70  98 132 167 201 240 290
#     4  10  20  30  41  61  86 113 152 202 250 291
#     4   9  17  30  47  66  90 121 156 191 231 281
#     4   9  18  32  47  61  82 117 158 198 240 285
#     4   9  17  30  51  80 109 132 158 197 242 286
#     4   9  18  33  53  74  97 129 166 202 240 288
#     4   9  17  30  50  75 102 132 163 194 231 281
#     4  10  21  35  51  73 100 130 166 209 254 296
#
# _framework density 21.992276
#
# number of rings (size 3 to 8) (size 9 to 14) (size 15 to 20)
#    0.000    2.750    0.000    2.250    0.000    6.250 
#    0.000    4.375    0.000    1.875    0.000    7.000 
#    0.000    0.000    0.000    0.000    0.000    0.000 
#
# Total GULP energy -356901.767115 kJ/mol
# GULP energy per Si atom -5576.590111 kJ/mol
# Density = 2.194222 g / cm^3
# Si number density = 21.992276 Si / 1000 Ang^3
#
#
#
# Elastic Constant Matrix: (Units=GPa)
#
#
# Indices 1 2 3 4 5 6 
#
# 1 48.1918 4.1867 -3.0973 0.0000 0.0000 0.0000
# 2 4.1867 149.9141 57.7198 0.0000 0.0000 0.0000
# 3 -3.0973 57.7198 62.0387 0.0000 0.0000 0.0000
# 4 0.0000 0.0000 0.0000 1.3385 0.0000 0.0000
# 5 0.0000 0.0000 0.0000 0.0000 9.7853 0.0000
# 6 0.0000 0.0000 0.0000 0.0000 0.0000 -10.1747
#
#
#
# Elastic Compliance Matrix: (Units=1/GPa)
#
#
# Indices 1 2 3 4 5 6 
#
# 1 0.021045 -0.001546 0.002489 0.000000 0.000000 0.000000
# 2 -0.001546 0.010507 -0.009853 0.000000 0.000000 0.000000
# 3 0.002489 -0.009853 0.025410 0.000000 0.000000 0.000000
# 4 0.000000 0.000000 0.000000 0.747092 0.000000 0.000000
# 5 0.000000 0.000000 0.000000 0.000000 0.102194 0.000000
# 6 0.000000 0.000000 0.000000 0.000000 0.000000 -0.098283
#
#
# Mechanical properties :
#
#
# Convention : Reuss Voigt Hill
#
# Bulk Modulus (GPa) = 25.54779 41.97368 33.76073
# Shear Modulus (GPa) = 5.96066 13.61219 9.78643
#
# Velocity S-wave (km/s) = 1.64810 2.49058 2.11178
# Velocity P-wave (km/s) = 3.90686 5.23428 4.61851
#
# Compressibility (1/GPa) = 0.03914233
#
# Stress axis : x y z
#
# Youngs Moduli (GPa) = 47.51792 95.17256 39.35423
#
# Poissons Ratio (x) = 0.14714 -0.09796
# Poissons Ratio (y) = 0.07347 0.38775
# Poissons Ratio (z) = -0.11828 0.93773
#
# Static dielectric constant tensor:
#      x y z
#    x 1.852940 0.000000 0.000000 
#    y 0.000000 1.839000 0.000000 
#    z 0.000000 0.000000 1.820050 
# 
# From -- ./inp_files/29994.got.cif
#   From: 2010.05.17/outbox.cif.g08.bks.cpg/sg47_15_cif.got.tgz:29994.got - 2010.06.03 20:15:42.
