data_PCOD9384067
_publ_section_title
;
Structure prediction by ZEFSAII (Michael W. Deem and Ramdas Pophale) SiO2 
 PCOD9384067
Probable space group: P M M M
;
_chemical_formula_sum "Si O2"
_cell_formula_units_Z 52
_cell_length_a 15.481961
_cell_length_b 20.105539
_cell_length_c 8.223399
_cell_angle_alpha 90.000000
_cell_angle_beta 90.000000
_cell_angle_gamma 90.000000
_cell_volume 2559.723481
_symmetry_space_group_name_H-M "P M M M"
_symmetry_group_IT_number 47
_symmetry_cell_setting 'orthorhombic'
loop_
_space_group_symop_operation_xyz
x,y,z
-x,-y,z
x,-y,-z
-x,y,-z
-x,-y,-z
x,y,-z
-x,y,z
x,-y,z
loop_
_atom_site_type_symbol
_atom_site_label
_atom_site_fract_x
_atom_site_fract_y
_atom_site_fract_z
Si Si1 0.398945 0.000000 0.194961
Si Si2 0.332942 0.640299 0.805858
Si Si3 0.903407 0.831949 0.196052
Si Si4 0.592273 0.771018 0.694803
Si Si5 0.143406 0.318019 0.801563
Si Si6 0.598820 0.500000 0.305712
Si Si7 0.000000 0.423410 0.198551
Si Si8 0.722563 0.878556 0.305220
O O1 0.341552 0.937325 0.252019
O O2 0.500000 0.000000 0.253405
O O3 0.402029 0.000000 0.000000
O O4 0.399330 0.694272 0.738876
O O5 0.239332 0.664420 0.746738
O O6 0.354489 0.566329 0.752828
O O7 0.333779 0.643380 0.000000
O O8 0.886243 0.755475 0.251828
O O9 0.821538 0.876553 0.246654
O O10 0.000000 0.852302 0.250995
O O11 0.904465 0.831013 0.000000
O O12 0.592980 0.777316 0.500000
O O13 0.500000 0.797914 0.755051
O O14 0.674003 0.812069 0.758078
O O15 0.081307 0.378356 0.751413
O O16 0.141756 0.316573 0.000000
O O17 0.500000 0.500000 0.244671
O O18 0.597038 0.500000 0.500000
O O19 0.000000 0.500000 0.254920
O O20 0.000000 0.425829 0.000000
O O21 0.725500 0.878349 0.500000
#
# Coordination Sequence:
#
# PCOD9384067 Si02
#       8
#     4   8   8   8   8   4   4   8
#     4  11  25  45  70  99 132 169 209 254 306 367
#     4  11  22  35  56  84 112 142 190 251 303 354
#     4  10  19  36  62  90 124 165 209 257 309 363
#     4  10  21  37  57  83 117 157 198 239 292 360
#     4   9  17  30  49  80 116 148 187 242 301 354
#     4  11  25  43  57  70 101 150 196 241 303 379
#     4   9  16  26  46  76 112 151 190 235 296 364
#     4  11  23  40  64  94 130 168 208 252 304 369
#
# _framework density 20.314695
#
# number of rings (size 3 to 8) (size 9 to 14) (size 15 to 20)
#    0.000    1.769    2.308    2.308    1.077    4.923 
#    0.000    0.385    0.000    2.308    0.000    0.538 
#    0.000    0.000    0.000    0.000    0.000    0.000 
#
# Total GULP energy -290255.723561 kJ/mol
# GULP energy per Si atom -5581.840838 kJ/mol
# Density = 2.026846 g / cm^3
# Si number density = 20.314695 Si / 1000 Ang^3
#
#
#
# Elastic Constant Matrix: (Units=GPa)
#
#
# Indices 1 2 3 4 5 6 
#
# 1 191.4894 59.8019 27.0060 0.0000 0.0000 0.0000
# 2 59.8019 95.8835 -0.6093 0.0000 0.0000 0.0000
# 3 27.0060 -0.6093 17.6711 0.0000 0.0000 0.0000
# 4 0.0000 0.0000 0.0000-1657.2347 0.0000 0.0000
# 5 0.0000 0.0000 0.0000 0.0000 6.8161 0.0000
# 6 0.0000 0.0000 0.0000 0.0000 0.0000 34.3572
#
#
#
# Elastic Compliance Matrix: (Units=1/GPa)
#
#
# Indices 1 2 3 4 5 6 
#
# 1 0.008949 -0.005670 -0.013872 0.000000 0.000000 0.000000
# 2 -0.005670 0.014024 0.009148 0.000000 0.000000 0.000000
# 3 -0.013872 0.009148 0.078105 0.000000 0.000000 0.000000
# 4 0.000000 0.000000 0.000000 -0.000603 0.000000 0.000000
# 5 0.000000 0.000000 0.000000 0.000000 0.146712 0.000000
# 6 0.000000 0.000000 0.000000 0.000000 0.000000 0.029106
#
#
# Mechanical properties :
#
#
# Convention : Reuss Voigt Hill
#
# Bulk Modulus (GPa) = 12.45472 53.04903 32.75188
# Shear Modulus (GPa) = 15.43956 -308.62258 -146.59151
#
# Velocity S-wave (km/s) = 2.75984 -12.33899 -8.50394
# Velocity P-wave (km/s) = 4.03730 13.29777 8.95910
#
# Compressibility (1/GPa) = 0.08029085
#
# Stress axis : x y z
#
# Youngs Moduli (GPa) = 111.74027 71.30810 12.80322
#
# Poissons Ratio (x) = 0.40430 0.17761
# Poissons Ratio (y) = 0.63354 -0.11713
# Poissons Ratio (z) = 1.55010 -0.65235
#
# Static dielectric constant tensor:
#      x y z
#    x 1.761480 0.000000 0.000000 
#    y 0.000000 1.704730 0.000000 
#    z 0.000000 0.000000 1.704010 
# 
# From -- ./inp_files/7113.got.cif
#   From: 2010.05.17/outbox.cif.g08.bks.cpg/sg47_4_cif.got.tgz:7113.got - 2010.06.03 20:15:42.
