data_PCOD9384737
_publ_section_title
;
Structure prediction by ZEFSAII (Michael W. Deem and Ramdas Pophale) SiO2 
 PCOD9384737
Probable space group: P M M M
;
_chemical_formula_sum "Si O2"
_cell_formula_units_Z 52
_cell_length_a 15.449018
_cell_length_b 7.492500
_cell_length_c 19.537927
_cell_angle_alpha 90.000000
_cell_angle_beta 90.000000
_cell_angle_gamma 90.000000
_cell_volume 2261.549581
_symmetry_space_group_name_H-M "P M M M"
_symmetry_group_IT_number 47
_symmetry_cell_setting 'orthorhombic'
loop_
_space_group_symop_operation_xyz
x,y,z
-x,-y,z
x,-y,-z
-x,y,-z
-x,-y,-z
x,y,-z
-x,y,z
x,-y,z
loop_
_atom_site_type_symbol
_atom_site_label
_atom_site_fract_x
_atom_site_fract_y
_atom_site_fract_z
Si Si1 0.338101 0.295704 0.076127
Si Si2 0.173777 0.796356 0.846227
Si Si3 0.219248 0.284899 0.575197
Si Si4 0.100188 0.788089 0.294183
Si Si5 0.602060 0.298163 0.216458
Si Si6 0.000000 0.714894 0.079529
Si Si7 0.600065 0.718801 0.634732
O O1 0.370909 0.500000 0.071735
O O2 0.239271 0.297331 0.101641
O O3 0.381770 0.211378 0.143113
O O4 0.347058 0.218112 0.000000
O O5 0.155929 0.717653 0.770676
O O6 0.082487 0.791512 0.882883
O O7 0.205140 0.000000 0.838702
O O8 0.190567 0.223099 0.500000
O O9 0.221290 0.500000 0.574832
O O10 0.153803 0.236201 0.636105
O O11 0.319213 0.227595 0.587901
O O12 0.000000 0.720629 0.296483
O O13 0.093524 0.000000 0.281641
O O14 0.500000 0.314518 0.223804
O O15 0.639911 0.500000 0.213565
O O16 0.627958 0.217745 0.288969
O O17 0.000000 0.500000 0.086221
O O18 0.000000 0.760115 0.000000
O O19 0.500000 0.773690 0.619124
O O20 0.597593 0.500000 0.636295
#
# Coordination Sequence:
#
# PCOD9384737 Si02
#       7
#     8   8   8   8   8   4   8
#     4  10  20  32  48  75 110 144 180 223 273 327
#     4  11  22  38  57  77 103 137 180 224 265 318
#     4  10  21  35  54  85 118 144 177 221 269 324
#     4  10  22  41  60  78 103 139 186 230 273 329
#     4   8  14  26  46  72 102 139 183 226 266 312
#     4  11  23  37  55  81 110 137 168 211 265 320
#     4   8  14  27  49  77 110 146 180 216 263 320
#
# _framework density 22.993084
#
# number of rings (size 3 to 8) (size 9 to 14) (size 15 to 20)
#    0.000    2.385    0.769    3.000    0.000    6.769 
#    0.000    4.615    0.000    0.923    0.000    6.462 
#    0.000    0.000    0.000    0.000    0.000    0.000 
#
# Total GULP energy -289959.131296 kJ/mol
# GULP energy per Si atom -5576.137140 kJ/mol
# Density = 2.294075 g / cm^3
# Si number density = 22.993084 Si / 1000 Ang^3
#
#
#
# Elastic Constant Matrix: (Units=GPa)
#
#
# Indices 1 2 3 4 5 6 
#
# 1 36.3191 0.4411 4.2187 0.0000 0.0000 0.0000
# 2 0.4411 66.8382 9.2964 0.0000 0.0000 0.0000
# 3 4.2187 9.2964 137.2390 0.0000 0.0000 0.0000
# 4 0.0000 0.0000 0.0000 10.9210 0.0000 0.0000
# 5 0.0000 0.0000 0.0000 0.0000 48.7444 0.0000
# 6 0.0000 0.0000 0.0000 0.0000 0.0000 77.9147
#
#
#
# Elastic Compliance Matrix: (Units=1/GPa)
#
#
# Indices 1 2 3 4 5 6 
#
# 1 0.027633 -0.000065 -0.000845 0.000000 0.000000 0.000000
# 2 -0.000065 0.015104 -0.001021 0.000000 0.000000 0.000000
# 3 -0.000845 -0.001021 0.007382 0.000000 0.000000 0.000000
# 4 0.000000 0.000000 0.000000 0.091567 0.000000 0.000000
# 5 0.000000 0.000000 0.000000 0.000000 0.020515 0.000000
# 6 0.000000 0.000000 0.000000 0.000000 0.000000 0.012835
#
#
# Mechanical properties :
#
#
# Convention : Reuss Voigt Hill
#
# Bulk Modulus (GPa) = 21.61864 29.81208 25.71536
# Shear Modulus (GPa) = 25.73135 42.61205 34.17170
#
# Velocity S-wave (km/s) = 3.34891 4.30962 3.85927
# Velocity P-wave (km/s) = 4.93723 6.14472 5.57377
#
# Compressibility (1/GPa) = 0.04625639
#
# Stress axis : x y z
#
# Youngs Moduli (GPa) = 36.18901 66.20785 135.47011
#
# Poissons Ratio (x) = 0.00429 0.11448
# Poissons Ratio (y) = 0.00235 0.13833
# Poissons Ratio (z) = 0.03058 0.06761
#
# Static dielectric constant tensor:
#      x y z
#    x 2.140400 0.000000 0.000000 
#    y 0.000000 2.151660 0.000000 
#    z 0.000000 0.000000 1.872240 
# 
# From -- ./inp_files/30875.got.cif
#   From: 2010.05.17/outbox.cif.g08.bks.cpg/sg47_16_cif.got.tgz:30875.got - 2010.06.03 20:15:42.
