data_PCOD9384037
_publ_section_title
;
Structure prediction by ZEFSAII (Michael W. Deem and Ramdas Pophale) SiO2 
 PCOD9384037
Probable space group: P M M M
;
_chemical_formula_sum "Si O2"
_cell_formula_units_Z 46
_cell_length_a 16.172344
_cell_length_b 7.353583
_cell_length_c 17.004799
_cell_angle_alpha 90.000000
_cell_angle_beta 90.000000
_cell_angle_gamma 90.000000
_cell_volume 2022.290176
_symmetry_space_group_name_H-M "P M M M"
_symmetry_group_IT_number 47
_symmetry_cell_setting 'orthorhombic'
loop_
_space_group_symop_operation_xyz
x,y,z
-x,-y,z
x,-y,-z
-x,y,-z
-x,-y,-z
x,y,-z
-x,y,z
x,-y,z
loop_
_atom_site_type_symbol
_atom_site_label
_atom_site_fract_x
_atom_site_fract_y
_atom_site_fract_z
Si Si1 0.404457 0.278393 0.000000
Si Si2 0.500000 0.500000 0.240822
Si Si3 0.090268 0.290373 0.880849
Si Si4 0.243782 0.778446 0.589811
Si Si5 0.639593 0.207362 0.724292
Si Si6 0.091460 0.219580 0.303883
Si Si7 0.268653 0.279123 0.874547
O O1 0.348086 0.223912 0.926011
O O2 0.408200 0.500000 0.000000
O O3 0.500000 0.216900 0.000000
O O4 0.571571 0.657632 0.243607
O O5 0.088201 0.500000 0.906707
O O6 0.096109 0.287897 0.785635
O O7 0.179508 0.215041 0.905897
O O8 0.000000 0.210250 0.901431
O O9 0.245018 0.717270 0.500000
O O10 0.324320 0.729733 0.640612
O O11 0.163548 0.717364 0.638491
O O12 0.241726 0.000000 0.589310
O O13 0.714806 0.212915 0.786535
O O14 0.610341 0.000000 0.717840
O O15 0.000000 0.267127 0.334195
O O16 0.096246 0.000000 0.298857
O O17 0.266395 0.500000 0.874902
#
# Coordination Sequence:
#
# PCOD9384037 Si02
#       7
#     4   2   8   8   8   8   8
#     4   9  20  34  56  86 118 157 198 254 324 377
#     4  12  26  44  65  89 120 150 202 260 308 371
#     4   9  17  29  49  78 115 158 201 247 298 354
#     4   9  18  34  55  82 118 155 194 247 305 356
#     4  11  23  40  65  92 118 157 203 248 307 373
#     4   9  16  27  48  79 112 150 196 240 287 349
#     4  10  19  35  59  85 122 160 202 249 306 367
#
# _framework density 22.746489
#
# number of rings (size 3 to 8) (size 9 to 14) (size 15 to 20)
#    0.000    2.348    2.609    0.261    1.217    0.348 
#    0.000    3.913    0.000    5.217    0.000    2.435 
#    0.000    4.174    0.000    0.000    0.000    0.000 
#
# Total GULP energy -256428.897085 kJ/mol
# GULP energy per Si atom -5574.541241 kJ/mol
# Density = 2.269472 g / cm^3
# Si number density = 22.746489 Si / 1000 Ang^3
#
#
#
# Elastic Constant Matrix: (Units=GPa)
#
#
# Indices 1 2 3 4 5 6 
#
# 1 184.2025 24.4116 32.2603 0.0000 0.0000 0.0000
# 2 24.4116 106.1755 -0.8637 0.0000 0.0000 0.0000
# 3 32.2603 -0.8637 109.2806 0.0000 0.0000 0.0000
# 4 0.0000 0.0000 0.0000 -10.1571 0.0000 0.0000
# 5 0.0000 0.0000 0.0000 0.0000 27.6589 0.0000
# 6 0.0000 0.0000 0.0000 0.0000 0.0000 6.2987
#
#
#
# Elastic Compliance Matrix: (Units=1/GPa)
#
#
# Indices 1 2 3 4 5 6 
#
# 1 0.005919 -0.001375 -0.001758 0.000000 0.000000 0.000000
# 2 -0.001375 0.009738 0.000483 0.000000 0.000000 0.000000
# 3 -0.001758 0.000483 0.009674 0.000000 0.000000 0.000000
# 4 0.000000 0.000000 0.000000 -0.098454 0.000000 0.000000
# 5 0.000000 0.000000 0.000000 0.000000 0.036155 0.000000
# 6 0.000000 0.000000 0.000000 0.000000 0.000000 0.158762
#
#
# Mechanical properties :
#
#
# Convention : Reuss Voigt Hill
#
# Bulk Modulus (GPa) = 49.92465 56.80832 53.36649
# Shear Modulus (GPa) = 37.37707 27.68348 32.53027
#
# Velocity S-wave (km/s) = 4.05804 3.49240 3.78580
# Velocity P-wave (km/s) = 6.62970 6.42583 6.52856
#
# Compressibility (1/GPa) = 0.02003018
#
# Stress axis : x y z
#
# Youngs Moduli (GPa) = 168.94821 102.68545 103.37416
#
# Poissons Ratio (x) = 0.14121 0.18175
# Poissons Ratio (y) = 0.23233 -0.04992
# Poissons Ratio (z) = 0.29704 -0.04959
#
# Static dielectric constant tensor:
#      x y z
#    x 1.878180 0.000000 0.000000 
#    y 0.000000 1.855210 0.000000 
#    z 0.000000 0.000000 1.833960 
# 
# From -- ./inp_files/30810.got.cif
#   From: 2010.05.17/outbox.cif.g08.bks.cpg/sg47_16_cif.got.tgz:30810.got - 2010.06.03 20:15:42.
