data_PCOD9384148
_publ_section_title
;
Structure prediction by ZEFSAII (Michael W. Deem and Ramdas Pophale) SiO2 
 PCOD9384148
Probable space group: P M M M
;
_chemical_formula_sum "Si O2"
_cell_formula_units_Z 64
_cell_length_a 20.517226
_cell_length_b 13.332167
_cell_length_c 13.865342
_cell_angle_alpha 90.000000
_cell_angle_beta 90.000000
_cell_angle_gamma 90.000000
_cell_volume 3792.712942
_symmetry_space_group_name_H-M "P M M M"
_symmetry_group_IT_number 47
_symmetry_cell_setting 'orthorhombic'
loop_
_space_group_symop_operation_xyz
x,y,z
-x,-y,z
x,-y,-z
-x,y,-z
-x,-y,-z
x,y,-z
-x,y,z
x,-y,z
loop_
_atom_site_type_symbol
_atom_site_label
_atom_site_fract_x
_atom_site_fract_y
_atom_site_fract_z
Si Si1 0.423191 0.879799 0.609757
Si Si2 0.926868 0.820143 0.614417
Si Si3 0.303563 0.384090 0.889858
Si Si4 0.786768 0.886127 0.615283
Si Si5 0.154704 0.681548 0.890578
Si Si6 0.220419 0.110513 0.113916
Si Si7 0.077387 0.390003 0.292972
Si Si8 0.316154 0.205944 0.747954
O O1 0.403411 0.851134 0.500000
O O2 0.500000 0.857928 0.620370
O O3 0.379437 0.828656 0.690612
O O4 0.415262 0.000000 0.616521
O O5 0.930666 0.836288 0.500000
O O6 0.862335 0.878592 0.647035
O O7 0.911658 0.703549 0.636412
O O8 0.000000 0.843532 0.653767
O O9 0.321104 0.500000 0.874498
O O10 0.225045 0.372157 0.889143
O O11 0.325954 0.309932 0.804927
O O12 0.323868 0.355171 0.000000
O O13 0.783876 0.871183 0.500000
O O14 0.742725 0.804618 0.669933
O O15 0.762544 0.000000 0.634556
O O16 0.171242 0.797849 0.866808
O O17 0.110224 0.635139 0.808850
O O18 0.128860 0.674806 0.000000
O O19 0.287276 0.132223 0.169985
O O20 0.195386 0.000000 0.138270
O O21 0.233019 0.115030 0.000000
O O22 0.099460 0.500000 0.327587
O O23 0.000000 0.393920 0.279494
#
# Coordination Sequence:
#
# PCOD9384148 Si02
#       8
#     8   8   8   8   8   8   8   8
#     4   9  18  32  50  74 104 136 166 193 227 277
#     4   9  18  32  47  62  84 116 152 189 230 278
#     4   9  18  32  50  72  96 123 157 197 240 284
#     4  10  20  31  45  69  97 123 155 194 234 278
#     4   9  17  29  45  64  87 116 147 180 224 278
#     4   9  17  28  44  68  94 118 146 182 226 277
#     4  10  20  31  43  60  81 107 143 188 234 278
#     4  11  18  28  50  74  96 125 159 197 237 273
#
# _framework density 16.874464
#
# number of rings (size 3 to 8) (size 9 to 14) (size 15 to 20)
#    0.000    2.500    0.000    4.875    0.000    2.500 
#    0.000    3.125    0.000    5.250    0.000    7.875 
#    0.000    0.000    0.000    1.125    0.000    0.125 
#
# Total GULP energy -356391.394514 kJ/mol
# GULP energy per Si atom -5568.615539 kJ/mol
# Density = 1.683606 g / cm^3
# Si number density = 16.874464 Si / 1000 Ang^3
#
#
#
# Elastic Constant Matrix: (Units=GPa)
#
#
# Indices 1 2 3 4 5 6 
#
# 1 37.8621 20.1571 18.4351 0.0000 0.0000 0.0000
# 2 20.1571 74.8463 22.8452 0.0000 0.0000 0.0000
# 3 18.4351 22.8452 66.0025 0.0000 0.0000 0.0000
# 4 0.0000 0.0000 0.0000 27.1237 0.0000 0.0000
# 5 0.0000 0.0000 0.0000 0.0000 24.9898 0.0000
# 6 0.0000 0.0000 0.0000 0.0000 0.0000 4.0647
#
#
#
# Elastic Compliance Matrix: (Units=1/GPa)
#
#
# Indices 1 2 3 4 5 6 
#
# 1 0.033470 -0.006888 -0.006964 0.000000 0.000000 0.000000
# 2 -0.006888 0.016357 -0.003738 0.000000 0.000000 0.000000
# 3 -0.006964 -0.003738 0.018390 0.000000 0.000000 0.000000
# 4 0.000000 0.000000 0.000000 0.036868 0.000000 0.000000
# 5 0.000000 0.000000 0.000000 0.000000 0.040016 0.000000
# 6 0.000000 0.000000 0.000000 0.000000 0.000000 0.246021
#
#
# Mechanical properties :
#
#
# Convention : Reuss Voigt Hill
#
# Bulk Modulus (GPa) = 30.26982 33.50954 31.88968
# Shear Modulus (GPa) = 11.43345 19.05387 15.24366
#
# Velocity S-wave (km/s) = 2.60582 3.36393 3.00885
# Velocity P-wave (km/s) = 5.19913 5.91518 5.56867
#
# Compressibility (1/GPa) = 0.03303621
#
# Stress axis : x y z
#
# Youngs Moduli (GPa) = 29.87783 61.13743 54.37806
#
# Poissons Ratio (x) = 0.42112 0.37870
# Poissons Ratio (y) = 0.20580 0.20324
# Poissons Ratio (z) = 0.20808 0.22850
#
# Static dielectric constant tensor:
#      x y z
#    x 1.565150 0.000000 0.000000 
#    y 0.000000 1.611640 0.000000 
#    z 0.000000 0.000000 1.594860 
# 
# From -- ./inp_files/24798.got.cif
#   From: 2010.05.17/outbox.cif.g08.bks.cpg/sg47_13_cif.got.tgz:24798.got - 2010.06.03 20:15:42.
