data_PCOD9384968
_publ_section_title
;
Structure prediction by ZEFSAII (Michael W. Deem and Ramdas Pophale) SiO2 
 PCOD9384968
Probable space group: P M M M
;
_chemical_formula_sum "Si O2"
_cell_formula_units_Z 48
_cell_length_a 18.260408
_cell_length_b 21.663439
_cell_length_c 7.476558
_cell_angle_alpha 90.000000
_cell_angle_beta 90.000000
_cell_angle_gamma 90.000000
_cell_volume 2957.600999
_symmetry_space_group_name_H-M "P M M M"
_symmetry_group_IT_number 47
_symmetry_cell_setting 'orthorhombic'
loop_
_space_group_symop_operation_xyz
x,y,z
-x,-y,z
x,-y,-z
-x,y,-z
-x,-y,-z
x,y,-z
-x,y,z
x,-y,z
loop_
_atom_site_type_symbol
_atom_site_label
_atom_site_fract_x
_atom_site_fract_y
_atom_site_fract_z
Si Si1 0.688753 0.755082 0.203472
Si Si2 0.586932 0.805211 0.500000
Si Si3 0.084525 0.430609 0.781958
Si Si4 0.830728 0.310273 0.218547
Si Si5 0.324251 0.067293 0.500000
Si Si6 0.778714 0.115718 0.796875
Si Si7 0.916565 0.187284 0.218371
O O1 0.621204 0.769852 0.330034
O O2 0.747452 0.704863 0.271887
O O3 0.737022 0.818040 0.198914
O O4 0.667007 0.740801 0.000000
O O5 0.500000 0.806564 0.500000
O O6 0.620295 0.874849 0.500000
O O7 0.105002 0.500000 0.725469
O O8 0.136300 0.375199 0.721905
O O9 0.000000 0.419395 0.729516
O O10 0.085467 0.430160 0.000000
O O11 0.882950 0.253369 0.274325
O O12 0.830406 0.309447 0.000000
O O13 0.270322 0.074586 0.330868
O O14 0.359938 0.000000 0.500000
O O15 0.859685 0.133661 0.728984
O O16 0.782684 0.092367 0.000000
O O17 0.000000 0.179681 0.276882
O O18 0.915860 0.187435 0.000000
#
# Coordination Sequence:
#
# PCOD9384968 Si02
#       7
#     8   4   8   8   4   8   8
#     4   8  15  28  45  65  88 113 140 171 208 249
#     4  10  20  33  50  71  92 109 125 156 205 256
#     4   8  12  16  24  46  85 127 160 190 221 249
#     4   8  12  19  33  54  82 115 150 184 214 249
#     4  10  20  33  49  66  84 110 139 160 187 240
#     4   8  15  28  44  62  84 110 141 176 210 240
#     4   8  12  19  35  57  78 104 141 184 224 253
#
# _framework density 16.229369999999999
#
# number of rings (size 3 to 8) (size 9 to 14) (size 15 to 20)
#    0.000    3.667    0.000    3.000    0.000    2.833 
#    0.000    0.417    0.000    1.000    0.000    9.333 
#    0.000    2.667    0.000    6.667    0.000    0.000 
#
# Total GULP energy -267273.622269 kJ/mol
# GULP energy per Si atom -5568.200464 kJ/mol
# Density = 1.619243 g / cm^3
# Si number density = 16.229370 Si / 1000 Ang^3
#
#
#
# Elastic Constant Matrix: (Units=GPa)
#
#
# Indices 1 2 3 4 5 6 
#
# 1 131.4572 41.5087 36.9761 0.0000 0.0000 0.0000
# 2 41.5087 65.5334 17.5001 0.0000 0.0000 0.0000
# 3 36.9761 17.5001 61.8345 0.0000 0.0000 0.0000
# 4 0.0000 0.0000 0.0000 13.2824 0.0000 0.0000
# 5 0.0000 0.0000 0.0000 0.0000 27.6277 0.0000
# 6 0.0000 0.0000 0.0000 0.0000 0.0000 12.8248
#
#
#
# Elastic Compliance Matrix: (Units=1/GPa)
#
#
# Indices 1 2 3 4 5 6 
#
# 1 0.010702 -0.005484 -0.004848 0.000000 0.000000 0.000000
# 2 -0.005484 0.019317 -0.002188 0.000000 0.000000 0.000000
# 3 -0.004848 -0.002188 0.019690 0.000000 0.000000 0.000000
# 4 0.000000 0.000000 0.000000 0.075287 0.000000 0.000000
# 5 0.000000 0.000000 0.000000 0.000000 0.036196 0.000000
# 6 0.000000 0.000000 0.000000 0.000000 0.000000 0.077974
#
#
# Mechanical properties :
#
#
# Convention : Reuss Voigt Hill
#
# Bulk Modulus (GPa) = 40.53394 50.08832 45.31113
# Shear Modulus (GPa) = 18.35338 21.60299 19.97818
#
# Velocity S-wave (km/s) = 3.36650 3.65239 3.51235
# Velocity P-wave (km/s) = 6.33569 6.97971 6.66548
#
# Compressibility (1/GPa) = 0.02467069
#
# Stress axis : x y z
#
# Youngs Moduli (GPa) = 93.43795 51.76712 50.78675
#
# Poissons Ratio (x) = 0.28390 0.24620
# Poissons Ratio (y) = 0.51244 0.11110
# Poissons Ratio (z) = 0.45296 0.11325
#
# Static dielectric constant tensor:
#      x y z
#    x 1.521630 0.000000 0.000000 
#    y 0.000000 1.541500 0.000000 
#    z 0.000000 0.000000 1.620750 
# 
# From -- ./inp_files/9757.got.cif
#   From: 2010.05.17/outbox.cif.g08.bks.cpg/sg47_5_cif.got.tgz:9757.got - 2010.06.03 20:15:42.
