data_PCOD9384272
_publ_section_title
;
Structure prediction by ZEFSAII (Michael W. Deem and Ramdas Pophale) SiO2 
 PCOD9384272
Probable space group: P M M M
;
_chemical_formula_sum "Si O2"
_cell_formula_units_Z 52
_cell_length_a 21.053179
_cell_length_b 15.155566
_cell_length_c 8.036736
_cell_angle_alpha 90.000000
_cell_angle_beta 90.000000
_cell_angle_gamma 90.000000
_cell_volume 2564.304211
_symmetry_space_group_name_H-M "P M M M"
_symmetry_group_IT_number 47
_symmetry_cell_setting 'orthorhombic'
loop_
_space_group_symop_operation_xyz
x,y,z
-x,-y,z
x,-y,-z
-x,y,-z
-x,-y,-z
x,y,-z
-x,y,z
x,-y,z
loop_
_atom_site_type_symbol
_atom_site_label
_atom_site_fract_x
_atom_site_fract_y
_atom_site_fract_z
Si Si1 0.269464 0.898715 0.200655
Si Si2 0.122116 0.097881 0.797056
Si Si3 0.814071 0.599834 0.299906
Si Si4 0.500000 0.900578 0.195775
Si Si5 0.931166 0.279639 0.799540
Si Si6 0.330537 0.600862 0.703808
Si Si7 0.383788 0.220141 0.694065
O O1 0.195894 0.886041 0.248380
O O2 0.317063 0.829871 0.280705
O O3 0.286990 0.000000 0.243198
O O4 0.273655 0.890670 0.000000
O O5 0.080304 0.179517 0.740360
O O6 0.103480 0.000000 0.740197
O O7 0.120366 0.096453 0.000000
O O8 0.812125 0.599670 0.500000
O O9 0.827753 0.500000 0.243065
O O10 0.870120 0.663652 0.247157
O O11 0.742286 0.621576 0.243930
O O12 0.438244 0.842915 0.237187
O O13 0.500000 0.000000 0.271520
O O14 0.500000 0.911763 0.000000
O O15 0.000000 0.312869 0.740053
O O16 0.932913 0.277881 0.000000
O O17 0.331316 0.601396 0.500000
O O18 0.345584 0.500000 0.754421
O O19 0.375271 0.680487 0.763185
O O20 0.397425 0.229477 0.500000
#
# Coordination Sequence:
#
# PCOD9384272 Si02
#       7
#     8   8   8   4   8   8   8
#     4   9  17  30  49  72  99 132 166 202 252 310
#     4   8  15  29  48  69  94 127 168 209 249 302
#     4   9  18  34  55  75  97 130 169 205 245 301
#     4  11  25  43  58  73 104 150 183 199 230 285
#     4  10  20  31  45  69  99 130 166 211 260 302
#     4   8  16  33  56  81 106 130 161 204 254 304
#     4  11  21  33  55  83 106 131 166 210 252 286
#
# _framework density 20.278403999999998
#
# number of rings (size 3 to 8) (size 9 to 14) (size 15 to 20)
#    0.000    2.692    0.000    3.923    0.000    4.000 
#    0.000    4.231    0.000    7.385    0.000    1.077 
#    0.000    0.000    0.000    0.000    0.000    0.000 
#
# Total GULP energy -290039.790350 kJ/mol
# GULP energy per Si atom -5577.688276 kJ/mol
# Density = 2.023225 g / cm^3
# Si number density = 20.278404 Si / 1000 Ang^3
#
#
#
# Elastic Constant Matrix: (Units=GPa)
#
#
# Indices 1 2 3 4 5 6 
#
# 1 62.7584 78.8205 12.7246 0.0000 0.0000 0.0000
# 2 78.8205 147.9441 15.7755 0.0000 0.0000 0.0000
# 3 12.7246 15.7755 13.8953 0.0000 0.0000 0.0000
# 4 0.0000 0.0000 0.0000 16.6276 0.0000 0.0000
# 5 0.0000 0.0000 0.0000 0.0000 26.0045 0.0000
# 6 0.0000 0.0000 0.0000 0.0000 0.0000 22.0735
#
#
#
# Elastic Compliance Matrix: (Units=1/GPa)
#
#
# Indices 1 2 3 4 5 6 
#
# 1 0.051983 -0.025734 -0.018386 0.000000 0.000000 0.000000
# 2 -0.025734 0.020430 0.000371 0.000000 0.000000 0.000000
# 3 -0.018386 0.000371 0.088383 0.000000 0.000000 0.000000
# 4 0.000000 0.000000 0.000000 0.060141 0.000000 0.000000
# 5 0.000000 0.000000 0.000000 0.000000 0.038455 0.000000
# 6 0.000000 0.000000 0.000000 0.000000 0.000000 0.045303
#
#
# Mechanical properties :
#
#
# Convention : Reuss Voigt Hill
#
# Bulk Modulus (GPa) = 13.64318 48.80432 31.22375
# Shear Modulus (GPa) = 12.00117 20.75960 16.38038
#
# Velocity S-wave (km/s) = 2.43537 3.20305 2.84522
# Velocity P-wave (km/s) = 3.82761 6.14807 5.12100
#
# Compressibility (1/GPa) = 0.07329672
#
# Stress axis : x y z
#
# Youngs Moduli (GPa) = 19.23710 48.94690 11.31445
#
# Poissons Ratio (x) = 1.25962 0.20803
# Poissons Ratio (y) = 0.49506 -0.00420
# Poissons Ratio (z) = 0.35370 -0.01818
#
# Static dielectric constant tensor:
#      x y z
#    x 1.707290 0.000000 0.000000 
#    y 0.000000 1.749820 0.000000 
#    z 0.000000 0.000000 1.736440 
# 
# From -- ./inp_files/11084.got.cif
#   From: 2010.05.17/outbox.cif.g08.bks.cpg/sg47_6_cif.got.tgz:11084.got - 2010.06.03 20:15:42.
