data_PCOD9384564
_publ_section_title
;
Structure prediction by ZEFSAII (Michael W. Deem and Ramdas Pophale) SiO2 
 PCOD9384564
Probable space group: P M M M
;
_chemical_formula_sum "Si O2"
_cell_formula_units_Z 56
_cell_length_a 8.512263
_cell_length_b 15.122660
_cell_length_c 24.047981
_cell_angle_alpha 90.000000
_cell_angle_beta 90.000000
_cell_angle_gamma 90.000000
_cell_volume 3095.649921
_symmetry_space_group_name_H-M "P M M M"
_symmetry_group_IT_number 47
_symmetry_cell_setting 'orthorhombic'
loop_
_space_group_symop_operation_xyz
x,y,z
-x,-y,z
x,-y,-z
-x,y,-z
-x,-y,-z
x,y,-z
-x,y,z
x,-y,z
loop_
_atom_site_type_symbol
_atom_site_label
_atom_site_fract_x
_atom_site_fract_y
_atom_site_fract_z
Si Si1 0.310199 0.599505 0.116537
Si Si2 0.691517 0.600390 0.563804
Si Si3 0.811057 0.897291 0.160590
Si Si4 0.310553 0.777025 0.061288
Si Si5 0.810461 0.898524 0.713346
Si Si6 0.687480 0.726104 0.662113
Si Si7 0.187775 0.397415 0.240410
O O1 0.500000 0.599386 0.118860
O O2 0.258626 0.500000 0.101775
O O3 0.261160 0.676495 0.074813
O O4 0.247007 0.620548 0.178070
O O5 0.739619 0.616871 0.500000
O O6 0.500000 0.600746 0.564542
O O7 0.740005 0.500000 0.579269
O O8 0.746074 0.673398 0.607637
O O9 0.744815 0.837497 0.111849
O O10 0.758991 0.874089 0.223476
O O11 0.000000 0.890593 0.159895
O O12 0.769219 0.000000 0.151530
O O13 0.500000 0.779022 0.060702
O O14 0.254311 0.804681 0.000000
O O15 0.751171 0.824564 0.671317
O O16 0.000000 0.897850 0.713375
O O17 0.760618 0.000000 0.702328
O O18 0.500000 0.730047 0.659472
O O19 0.737440 0.667575 0.715036
O O20 0.228256 0.500000 0.253075
O O21 0.000000 0.388000 0.241865
#
# Coordination Sequence:
#
# PCOD9384564 Si02
#       7
#     8   8   8   8   8   8   8
#     4   9  18  33  51  69  92 124 161 200 240 284
#     4   8  15  29  48  71 102 139 174 205 239 281
#     4   9  19  36  55  72  91 120 158 196 237 288
#     4  10  21  34  48  70  97 123 154 193 239 290
#     4   9  19  36  55  74  99 131 164 200 246 299
#     4  11  20  29  49  79 105 129 163 208 251 291
#     4  10  20  32  47  70 101 133 162 196 243 298
#
# _framework density 18.0899
#
# number of rings (size 3 to 8) (size 9 to 14) (size 15 to 20)
#    0.000    2.571    0.000    3.429    0.000    6.286 
#    0.000    4.286    0.000    2.143    0.000   11.000 
#    0.000    0.000    0.000    0.000    0.000    0.000 
#
# Total GULP energy -312398.742897 kJ/mol
# GULP energy per Si atom -5578.548980 kJ/mol
# Density = 1.804873 g / cm^3
# Si number density = 18.089900 Si / 1000 Ang^3
#
#
#
# Elastic Constant Matrix: (Units=GPa)
#
#
# Indices 1 2 3 4 5 6 
#
# 1 8.0356 22.9733 13.8603 0.0000 0.0000 0.0000
# 2 22.9733 114.5448 86.3920 0.0000 0.0000 0.0000
# 3 13.8603 86.3920 91.9439 0.0000 0.0000 0.0000
# 4 0.0000 0.0000 0.0000 23.1416 0.0000 0.0000
# 5 0.0000 0.0000 0.0000 0.0000 -0.8619 0.0000
# 6 0.0000 0.0000 0.0000 0.0000 0.0000 26.1105
#
#
#
# Elastic Compliance Matrix: (Units=1/GPa)
#
#
# Indices 1 2 3 4 5 6 
#
# 1 0.335642 -0.100080 0.043439 0.000000 0.000000 0.000000
# 2 -0.100080 0.059809 -0.041110 0.000000 0.000000 0.000000
# 3 0.043439 -0.041110 0.042956 0.000000 0.000000 0.000000
# 4 0.000000 0.000000 0.000000 0.043212 0.000000 0.000000
# 5 0.000000 0.000000 0.000000 0.000000 -1.160287 0.000000
# 6 0.000000 0.000000 0.000000 0.000000 0.000000 0.038299
#
#
# Mechanical properties :
#
#
# Convention : Reuss Voigt Hill
#
# Bulk Modulus (GPa) = 4.11684 51.21950 27.66817
# Shear Modulus (GPa) = -13.74004 15.76463 1.01229
#
# Velocity S-wave (km/s) = -2.75897 2.95525 0.74887
# Velocity P-wave (km/s) = 2.80509 6.32614 4.00946
#
# Compressibility (1/GPa) = 0.24290482
#
# Stress axis : x y z
#
# Youngs Moduli (GPa) = 2.97937 16.72000 23.27970
#
# Poissons Ratio (x) = 1.67333 -1.01125
# Poissons Ratio (y) = 0.29817 0.95704
# Poissons Ratio (z) = -0.12942 0.68737
#
# Static dielectric constant tensor:
#      x y z
#    x 1.620210 0.000000 0.000000 
#    y 0.000000 1.632580 0.000000 
#    z 0.000000 0.000000 1.607040 
# 
# From -- ./inp_files/7361.got.cif
#   From: 2010.05.17/outbox.cif.g08.bks.cpg/sg47_4_cif.got.tgz:7361.got - 2010.06.03 20:15:42.
