data_PCOD9384289
_publ_section_title
;
Structure prediction by ZEFSAII (Michael W. Deem and Ramdas Pophale) SiO2 
 PCOD9384289
Probable space group: P M M M
;
_chemical_formula_sum "Si O2"
_cell_formula_units_Z 44
_cell_length_a 9.546444
_cell_length_b 7.603217
_cell_length_c 30.424706
_cell_angle_alpha 90.000000
_cell_angle_beta 90.000000
_cell_angle_gamma 90.000000
_cell_volume 2208.337286
_symmetry_space_group_name_H-M "P M M M"
_symmetry_group_IT_number 47
_symmetry_cell_setting 'orthorhombic'
loop_
_space_group_symop_operation_xyz
x,y,z
-x,-y,z
x,-y,-z
-x,y,-z
-x,-y,-z
x,y,-z
-x,y,z
x,-y,z
loop_
_atom_site_type_symbol
_atom_site_label
_atom_site_fract_x
_atom_site_fract_y
_atom_site_fract_z
Si Si1 0.163347 0.000000 0.552603
Si Si2 0.343051 0.290103 0.130711
Si Si3 0.158165 0.788317 0.785391
Si Si4 0.838321 0.285258 0.950916
Si Si5 0.335698 0.701486 0.398583
Si Si6 0.162696 0.786820 0.685935
O O1 0.244564 0.831873 0.571732
O O2 0.167229 0.000000 0.500000
O O3 0.000000 0.000000 0.566911
O O4 0.500000 0.218574 0.132427
O O5 0.351902 0.500000 0.124538
O O6 0.262340 0.261834 0.176158
O O7 0.255930 0.220909 0.089101
O O8 0.195786 0.730826 0.735920
O O9 0.000000 0.725541 0.795176
O O10 0.153545 0.000000 0.783858
O O11 0.837098 0.500000 0.950408
O O12 0.000000 0.232107 0.944844
O O13 0.792606 0.231765 0.000000
O O14 0.500000 0.751505 0.397952
O O15 0.325558 0.500000 0.413834
O O16 0.268338 0.714429 0.350079
O O17 0.000000 0.738276 0.676919
O O18 0.169697 0.000000 0.683820
#
# Coordination Sequence:
#
# PCOD9384289 Si02
#       6
#     4   8   8   8   8   8
#     4  11  25  45  69  95 125 165 213 263 308 353
#     4  10  20  31  45  70 103 135 168 212 267 326
#     4   9  19  35  54  76 103 140 185 227 269 322
#     4   8  14  26  45  67  90 121 164 212 263 321
#     4  11  24  40  62  95 131 166 204 249 306 369
#     4   9  18  35  59  84 111 148 195 243 290 343
#
# _framework density 19.924492000000001
#
# number of rings (size 3 to 8) (size 9 to 14) (size 15 to 20)
#    0.000    2.455    0.909    3.000    0.000    5.818 
#    0.000    9.091    0.000    0.545    0.000    3.818 
#    0.000    0.000    0.000    0.000    0.000    0.000 
#
# Total GULP energy -245680.324413 kJ/mol
# GULP energy per Si atom -5583.643737 kJ/mol
# Density = 1.987914 g / cm^3
# Si number density = 19.924492 Si / 1000 Ang^3
#
#
#
# Elastic Constant Matrix: (Units=GPa)
#
#
# Indices 1 2 3 4 5 6 
#
# 1 156.2507 43.5472 103.8787 0.0000 0.0000 0.0000
# 2 43.5472 65.9743 28.8585 0.0000 0.0000 0.0000
# 3 103.8787 28.8585 134.0068 0.0000 0.0000 0.0000
# 4 0.0000 0.0000 0.0000 15.9827 0.0000 0.0000
# 5 0.0000 0.0000 0.0000 0.0000 -20.4325 0.0000
# 6 0.0000 0.0000 0.0000 0.0000 0.0000 14.3601
#
#
#
# Elastic Compliance Matrix: (Units=1/GPa)
#
#
# Indices 1 2 3 4 5 6 
#
# 1 0.014658 -0.005194 -0.010244 0.000000 0.000000 0.000000
# 2 -0.005194 0.018574 0.000026 0.000000 0.000000 0.000000
# 3 -0.010244 0.000026 0.015397 0.000000 0.000000 0.000000
# 4 0.000000 0.000000 0.000000 0.062568 0.000000 0.000000
# 5 0.000000 0.000000 0.000000 0.000000 -0.048942 0.000000
# 6 0.000000 0.000000 0.000000 0.000000 0.000000 0.069637
#
#
# Mechanical properties :
#
#
# Convention : Reuss Voigt Hill
#
# Bulk Modulus (GPa) = 56.15976 78.75562 67.45769
# Shear Modulus (GPa) = 29.64687 13.97857 21.81272
#
# Velocity S-wave (km/s) = 3.86159 2.65160 3.31232
# Velocity P-wave (km/s) = 6.93758 6.99911 6.96841
#
# Compressibility (1/GPa) = 0.01780634
#
# Stress axis : x y z
#
# Youngs Moduli (GPa) = 68.22215 53.83757 64.94587
#
# Poissons Ratio (x) = 0.27965 0.66530
# Poissons Ratio (y) = 0.35437 -0.00172
# Poissons Ratio (z) = 0.69886 -0.00143
#
# Static dielectric constant tensor:
#      x y z
#    x 1.679770 0.000000 0.000000 
#    y 0.000000 1.754070 0.000000 
#    z 0.000000 0.000000 1.684790 
# 
# From -- ./inp_files/33923.got.cif
#   From: 2010.05.17/outbox.cif.g08.bks.cpg/sg47_17_cif.got.tgz:33923.got - 2010.06.03 20:15:42.
