data_PCOD9384726
_publ_section_title
;
Structure prediction by ZEFSAII (Michael W. Deem and Ramdas Pophale) SiO2 
 PCOD9384726
Probable space group: P M M M
;
_chemical_formula_sum "Si O2"
_cell_formula_units_Z 48
_cell_length_a 7.707280
_cell_length_b 10.465475
_cell_length_c 30.982233
_cell_angle_alpha 90.000000
_cell_angle_beta 90.000000
_cell_angle_gamma 90.000000
_cell_volume 2499.037639
_symmetry_space_group_name_H-M "P M M M"
_symmetry_group_IT_number 47
_symmetry_cell_setting 'orthorhombic'
loop_
_space_group_symop_operation_xyz
x,y,z
-x,-y,z
x,-y,-z
-x,y,-z
-x,-y,-z
x,y,-z
-x,y,z
x,-y,z
loop_
_atom_site_type_symbol
_atom_site_label
_atom_site_fract_x
_atom_site_fract_y
_atom_site_fract_z
Si Si1 0.787763 0.749983 0.101728
Si Si2 0.208370 0.352347 0.713547
Si Si3 0.207889 0.143142 0.548793
Si Si4 0.211964 0.500000 0.950658
Si Si5 0.211738 0.650250 0.807619
Si Si6 0.704360 0.645355 0.619159
Si Si7 0.787487 0.000000 0.950018
O O1 0.733962 0.625754 0.074844
O O2 0.730027 0.730679 0.151102
O O3 0.000000 0.752038 0.102272
O O4 0.731291 0.875505 0.076416
O O5 0.268768 0.500000 0.712436
O O6 0.268386 0.301810 0.760187
O O7 0.256800 0.299144 0.666924
O O8 0.000000 0.352678 0.715005
O O9 0.271917 0.170166 0.500000
O O10 0.245053 0.255455 0.582241
O O11 0.000000 0.135644 0.546489
O O12 0.270567 0.000000 0.561335
O O13 0.000000 0.500000 0.951023
O O14 0.270094 0.500000 0.000000
O O15 0.260230 0.500000 0.812471
O O16 0.000000 0.651398 0.808052
O O17 0.500000 0.631573 0.616315
O O18 0.780725 0.500000 0.615416
O O19 0.000000 0.000000 0.950816
O O20 0.731661 0.000000 0.000000
#
# Coordination Sequence:
#
# PCOD9384726 Si02
#       7
#     8   8   8   4   8   8   4
#     4   9  14  20  29  41  59  85 121 164 205 249
#     4   8  14  25  43  64  86 115 152 192 234 277
#     4   9  19  36  56  76  99 130 168 206 242 282
#     4   9  14  18  26  40  58  82 117 161 202 243
#     4   8  12  20  35  53  68  89 130 180 220 254
#     4  10  20  32  48  74 105 133 163 199 240 287
#     4   9  16  22  26  36  60  94 125 153 196 257
#
# _framework density 19.207393
#
# number of rings (size 3 to 8) (size 9 to 14) (size 15 to 20)
#    0.000    3.167    0.833    2.500    0.000    4.000 
#    0.000    2.500    1.833    0.000    0.000    0.000 
#    0.000    0.000    0.000    0.000    0.000    5.000 
#
# Total GULP energy -267325.333786 kJ/mol
# GULP energy per Si atom -5569.277787 kJ/mol
# Density = 1.916368 g / cm^3
# Si number density = 19.207393 Si / 1000 Ang^3
#
#
#
# Elastic Constant Matrix: (Units=GPa)
#
#
# Indices 1 2 3 4 5 6 
#
# 1 28.6392 6.4336 11.8094 0.0000 0.0000 0.0000
# 2 6.4336 123.7947 108.5353 0.0000 0.0000 0.0000
# 3 11.8094 108.5353 222.0675 0.0000 0.0000 0.0000
# 4 0.0000 0.0000 0.0000 19.1396 0.0000 0.0000
# 5 0.0000 0.0000 0.0000 0.0000 -50.5645 0.0000
# 6 0.0000 0.0000 0.0000 0.0000 0.0000 28.8093
#
#
#
# Elastic Compliance Matrix: (Units=1/GPa)
#
#
# Indices 1 2 3 4 5 6 
#
# 1 0.035708 -0.000334 -0.001736 0.000000 0.000000 0.000000
# 2 -0.000334 0.014138 -0.006892 0.000000 0.000000 0.000000
# 3 -0.001736 -0.006892 0.007964 0.000000 0.000000 0.000000
# 4 0.000000 0.000000 0.000000 0.052248 0.000000 0.000000
# 5 0.000000 0.000000 0.000000 0.000000 -0.019777 0.000000
# 6 0.000000 0.000000 0.000000 0.000000 0.000000 0.034711
#
#
# Mechanical properties :
#
#
# Convention : Reuss Voigt Hill
#
# Bulk Modulus (GPa) = 25.07139 69.78425 47.42782
# Shear Modulus (GPa) = 32.00811 15.99176 23.99993
#
# Velocity S-wave (km/s) = 4.08664 2.88858 3.53868
# Velocity P-wave (km/s) = 5.94549 6.89464 6.43758
#
# Compressibility (1/GPa) = 0.03988610
#
# Stress axis : x y z
#
# Youngs Moduli (GPa) = 28.00501 70.73248 125.56615
#
# Poissons Ratio (x) = 0.02363 0.21794
# Poissons Ratio (y) = 0.00935 0.86541
# Poissons Ratio (z) = 0.04861 0.48749
#
# Static dielectric constant tensor:
#      x y z
#    x 1.706320 0.000000 0.000000 
#    y 0.000000 1.746260 0.000000 
#    z 0.000000 0.000000 1.699050 
# 
# From -- ./inp_files/34052.got.cif
#   From: 2010.05.17/outbox.cif.g08.bks.cpg/sg47_18_cif.got.tgz:34052.got - 2010.06.03 20:15:42.
