data_PCOD9384439
_publ_section_title
;
Structure prediction by ZEFSAII (Michael W. Deem and Ramdas Pophale) SiO2 
 PCOD9384439
Probable space group: P M M M
;
_chemical_formula_sum "Si O2"
_cell_formula_units_Z 64
_cell_length_a 15.154355
_cell_length_b 7.840609
_cell_length_c 29.523139
_cell_angle_alpha 90.000000
_cell_angle_beta 90.000000
_cell_angle_gamma 90.000000
_cell_volume 3507.920841
_symmetry_space_group_name_H-M "P M M M"
_symmetry_group_IT_number 47
_symmetry_cell_setting 'orthorhombic'
loop_
_space_group_symop_operation_xyz
x,y,z
-x,-y,z
x,-y,-z
-x,y,-z
-x,-y,-z
x,y,-z
-x,y,z
x,-y,z
loop_
_atom_site_type_symbol
_atom_site_label
_atom_site_fract_x
_atom_site_fract_y
_atom_site_fract_z
Si Si1 0.785679 0.700534 0.266711
Si Si2 0.897209 0.290914 0.647872
Si Si3 0.281979 0.290634 0.950540
Si Si4 0.097423 0.698630 0.919088
Si Si5 0.099495 0.199358 0.181888
Si Si6 0.601348 0.294060 0.866590
Si Si7 0.106515 0.703335 0.451324
Si Si8 0.400176 0.799075 0.236406
O O1 0.802761 0.500000 0.265240
O O2 0.835273 0.768280 0.311297
O O3 0.831176 0.772626 0.221574
O O4 0.680813 0.727847 0.265265
O O5 0.896212 0.500000 0.646830
O O6 0.865743 0.231026 0.598024
O O7 0.000000 0.241998 0.654912
O O8 0.281736 0.500000 0.948977
O O9 0.181537 0.229310 0.944687
O O10 0.337647 0.232580 0.907342
O O11 0.316864 0.241923 0.000000
O O12 0.092008 0.500000 0.932099
O O13 0.117556 0.706439 0.865273
O O14 0.000000 0.775073 0.926124
O O15 0.000000 0.248915 0.197191
O O16 0.098539 0.000000 0.170526
O O17 0.500000 0.246489 0.875671
O O18 0.606753 0.500000 0.864845
O O19 0.623300 0.229937 0.816458
O O20 0.138014 0.773934 0.500000
O O21 0.124975 0.500000 0.451868
O O22 0.000000 0.720142 0.451042
O O23 0.500000 0.728856 0.243401
O O24 0.403684 0.000000 0.244564
#
# Coordination Sequence:
#
# PCOD9384439 Si02
#       8
#     8   8   8   8   8   8   8   8
#     4  11  20  29  45  67  93 122 149 182 224 268
#     4   8  14  23  35  57  90 124 155 184 216 256
#     4   9  17  28  43  65  89 109 132 166 208 251
#     4   9  17  29  45  63  82 108 144 181 213 246
#     4  10  20  32  46  65  90 120 153 186 218 256
#     4   9  17  30  49  70  88 107 134 168 207 254
#     4   7   9  15  29  49  77 116 156 187 214 248
#     4  10  21  36  52  68  87 113 146 184 224 266
#
# _framework density 18.244426000000001
#
# number of rings (size 3 to 8) (size 9 to 14) (size 15 to 20)
#    0.000    2.875    0.000    3.375    0.000    3.500 
#    0.000    2.500    0.000    1.500    0.000    3.500 
#    0.000    2.500    0.000   20.375    0.000   12.750 
#
# Total GULP energy -356681.623181 kJ/mol
# GULP energy per Si atom -5573.150362 kJ/mol
# Density = 1.820290 g / cm^3
# Si number density = 18.244426 Si / 1000 Ang^3
#
#
#
# Elastic Constant Matrix: (Units=GPa)
#
#
# Indices 1 2 3 4 5 6 
#
# 1 66.3747 1.1307 41.8620 0.0000 0.0000 0.0000
# 2 1.1307 21.5714 -2.8266 0.0000 0.0000 0.0000
# 3 41.8620 -2.8266 52.5361 0.0000 0.0000 0.0000
# 4 0.0000 0.0000 0.0000 -124.9227 0.0000 0.0000
# 5 0.0000 0.0000 0.0000 0.0000 14.2361 0.0000
# 6 0.0000 0.0000 0.0000 0.0000 0.0000 11.2478
#
#
#
# Elastic Compliance Matrix: (Units=1/GPa)
#
#
# Indices 1 2 3 4 5 6 
#
# 1 0.030785 -0.004862 -0.024792 0.000000 0.000000 0.000000
# 2 -0.004862 0.047455 0.006427 0.000000 0.000000 0.000000
# 3 -0.024792 0.006427 0.039135 0.000000 0.000000 0.000000
# 4 0.000000 0.000000 0.000000 -0.008005 0.000000 0.000000
# 5 0.000000 0.000000 0.000000 0.000000 0.070244 0.000000
# 6 0.000000 0.000000 0.000000 0.000000 0.000000 0.088906
#
#
# Mechanical properties :
#
#
# Convention : Reuss Voigt Hill
#
# Bulk Modulus (GPa) = 14.10003 24.53494 19.31748
# Shear Modulus (GPa) = 14.76615 -13.20002 0.78306
#
# Velocity S-wave (km/s) = 2.84800 -2.69273 0.65585
# Velocity P-wave (km/s) = 4.30813 1.95176 3.34435
#
# Compressibility (1/GPa) = 0.07092185
#
# Stress axis : x y z
#
# Youngs Moduli (GPa) = 32.48375 21.07268 25.55270
#
# Poissons Ratio (x) = 0.10246 0.63349
# Poissons Ratio (y) = 0.15794 -0.16424
# Poissons Ratio (z) = 0.80532 -0.13544
#
# Static dielectric constant tensor:
#      x y z
#    x 1.639880 0.000000 0.000000 
#    y 0.000000 1.675880 0.000000 
#    z 0.000000 0.000000 1.654990 
# 
# From -- ./inp_files/14364.got.cif
#   From: 2010.05.17/outbox.cif.g08.bks.cpg/sg47_8_cif.got.tgz:14364.got - 2010.06.03 20:15:42.
