data_PCOD9384337
_publ_section_title
;
Structure prediction by ZEFSAII (Michael W. Deem and Ramdas Pophale) SiO2 
 PCOD9384337
Probable space group: P M M M
;
_chemical_formula_sum "Si O2"
_cell_formula_units_Z 52
_cell_length_a 18.998055
_cell_length_b 19.468359
_cell_length_c 8.111659
_cell_angle_alpha 90.000000
_cell_angle_beta 90.000000
_cell_angle_gamma 90.000000
_cell_volume 3000.185945
_symmetry_space_group_name_H-M "P M M M"
_symmetry_group_IT_number 47
_symmetry_cell_setting 'orthorhombic'
loop_
_space_group_symop_operation_xyz
x,y,z
-x,-y,z
x,-y,-z
-x,y,-z
-x,-y,-z
x,y,-z
-x,y,z
x,-y,z
loop_
_atom_site_type_symbol
_atom_site_label
_atom_site_fract_x
_atom_site_fract_y
_atom_site_fract_z
Si Si1 0.655362 0.639356 0.695615
Si Si2 0.738717 0.080208 0.000000
Si Si3 0.424554 0.123812 0.000000
Si Si4 0.767863 0.830931 0.318103
Si Si5 0.081437 0.577854 0.300745
Si Si6 0.193345 0.310457 0.190419
Si Si7 0.395117 0.215801 0.312520
Si Si8 0.419374 0.500000 0.802669
O O1 0.667308 0.640566 0.500000
O O2 0.730783 0.654473 0.776757
O O3 0.603914 0.703659 0.732058
O O4 0.621217 0.567931 0.745542
O O5 0.769163 0.117714 0.836773
O O6 0.652493 0.087815 0.000000
O O7 0.755382 0.000000 0.000000
O O8 0.424591 0.170326 0.834938
O O9 0.500000 0.084954 0.000000
O O10 0.783098 0.860471 0.500000
O O11 0.811352 0.760882 0.289921
O O12 0.687310 0.804072 0.319315
O O13 0.084627 0.579618 0.500000
O O14 0.101083 0.500000 0.249293
O O15 0.133393 0.635020 0.232951
O O16 0.000000 0.589331 0.252907
O O17 0.190424 0.291117 0.000000
O O18 0.421938 0.205354 0.500000
O O19 0.500000 0.500000 0.740736
O O20 0.421010 0.500000 0.000000
#
# Coordination Sequence:
#
# PCOD9384337 Si02
#       8
#     8   4   4   8   8   8   8   4
#     4  10  21  36  53  70  91 126 172 220 272 329
#     4  10  20  35  54  78 109 139 169 213 268 326
#     4  10  20  31  50  73  98 133 164 200 251 316
#     4   9  17  33  54  78 105 134 173 218 263 311
#     4   9  19  35  52  74 111 156 195 229 269 318
#     4  11  20  32  55  81 108 140 181 231 273 312
#     4   8  17  32  50  70  91 119 161 212 259 305
#     4  11  25  39  49  65  92 123 160 219 287 341
#
# _framework density 17.332257999999999
#
# number of rings (size 3 to 8) (size 9 to 14) (size 15 to 20)
#    0.000    2.385    0.769    3.462    5.385    2.615 
#    0.000    2.308    0.000    0.000    0.000    4.308 
#    0.000    1.231    0.000    3.231    0.000    0.000 
#
# Total GULP energy -289864.168395 kJ/mol
# GULP energy per Si atom -5574.310931 kJ/mol
# Density = 1.729281 g / cm^3
# Si number density = 17.332258 Si / 1000 Ang^3
#
#
#
# Elastic Constant Matrix: (Units=GPa)
#
#
# Indices 1 2 3 4 5 6 
#
# 1 46.4117 27.4258 20.7522 0.0000 0.0000 0.0000
# 2 27.4258 110.0449 45.3277 0.0000 0.0000 0.0000
# 3 20.7522 45.3277 90.5633 0.0000 0.0000 0.0000
# 4 0.0000 0.0000 0.0000 10.2747 0.0000 0.0000
# 5 0.0000 0.0000 0.0000 0.0000 16.2779 0.0000
# 6 0.0000 0.0000 0.0000 0.0000 0.0000 -5.4575
#
#
#
# Elastic Compliance Matrix: (Units=1/GPa)
#
#
# Indices 1 2 3 4 5 6 
#
# 1 0.026087 -0.005088 -0.003431 0.000000 0.000000 0.000000
# 2 -0.005088 0.012440 -0.005060 0.000000 0.000000 0.000000
# 3 -0.003431 -0.005060 0.014361 0.000000 0.000000 0.000000
# 4 0.000000 0.000000 0.000000 0.097326 0.000000 0.000000
# 5 0.000000 0.000000 0.000000 0.000000 0.061433 0.000000
# 6 0.000000 0.000000 0.000000 0.000000 0.000000 -0.183234
#
#
# Mechanical properties :
#
#
# Convention : Reuss Voigt Hill
#
# Bulk Modulus (GPa) = 38.86714 48.22571 43.54643
# Shear Modulus (GPa) = 77.94395 14.45330 46.19863
#
# Velocity S-wave (km/s) = 6.71328 2.89086 5.16842
# Velocity P-wave (km/s) = 9.08648 6.24719 7.79717
#
# Compressibility (1/GPa) = 0.02572867
#
# Stress axis : x y z
#
# Youngs Moduli (GPa) = 38.33296 80.38834 69.63372
#
# Poissons Ratio (x) = 0.40904 0.23892
# Poissons Ratio (y) = 0.19505 0.35236
# Poissons Ratio (z) = 0.13152 0.40678
#
# Static dielectric constant tensor:
#      x y z
#    x 1.579580 0.000000 0.000000 
#    y 0.000000 1.602680 0.000000 
#    z 0.000000 0.000000 1.611310 
# 
# From -- ./inp_files/9648.got.cif
#   From: 2010.05.17/outbox.cif.g08.bks.cpg/sg47_5_cif.got.tgz:9648.got - 2010.06.03 20:15:42.
