data_PCOD9384004
_publ_section_title
;
Structure prediction by ZEFSAII (Michael W. Deem and Ramdas Pophale) SiO2 
 PCOD9384004
Probable space group: P M M M
;
_chemical_formula_sum "Si O2"
_cell_formula_units_Z 64
_cell_length_a 25.409232
_cell_length_b 8.720714
_cell_length_c 15.770156
_cell_angle_alpha 90.000000
_cell_angle_beta 90.000000
_cell_angle_gamma 90.000000
_cell_volume 3494.455963
_symmetry_space_group_name_H-M "P M M M"
_symmetry_group_IT_number 47
_symmetry_cell_setting 'orthorhombic'
loop_
_space_group_symop_operation_xyz
x,y,z
-x,-y,z
x,-y,-z
-x,y,-z
-x,-y,-z
x,y,-z
-x,y,z
x,-y,z
loop_
_atom_site_type_symbol
_atom_site_label
_atom_site_fract_x
_atom_site_fract_y
_atom_site_fract_z
Si Si1 0.561757 0.815481 0.903137
Si Si2 0.785998 0.820554 0.629107
Si Si3 0.097639 0.187520 0.408132
Si Si4 0.354873 0.682255 0.773387
Si Si5 0.058876 0.185303 0.775040
Si Si6 0.143673 0.683047 0.095277
Si Si7 0.243510 0.178627 0.824068
Si Si8 0.669005 0.814058 0.593664
O O1 0.500000 0.779205 0.891345
O O2 0.598050 0.738413 0.833083
O O3 0.567216 0.000000 0.897196
O O4 0.576266 0.771252 0.000000
O O5 0.841588 0.757929 0.598407
O O6 0.783054 0.812669 0.730747
O O7 0.730082 0.758801 0.597401
O O8 0.786094 0.000000 0.604559
O O9 0.075759 0.233244 0.500000
O O10 0.068754 0.235039 0.322327
O O11 0.098027 0.000000 0.406525
O O12 0.353196 0.500000 0.769482
O O13 0.300291 0.744498 0.813509
O O14 0.358201 0.747960 0.677447
O O15 0.103438 0.249258 0.836446
O O16 0.000000 0.230606 0.801471
O O17 0.062138 0.000000 0.776638
O O18 0.143353 0.500000 0.101696
O O19 0.202524 0.742201 0.113711
O O20 0.127982 0.728295 0.000000
O O21 0.250368 0.000000 0.845331
O O22 0.647623 0.775893 0.500000
O O23 0.669445 0.000000 0.601662
#
# Coordination Sequence:
#
# PCOD9384004 Si02
#       8
#     8   8   8   8   8   8   8   8
#     4   9  19  38  63  87 111 145 194 246 288 331
#     4   8  13  24  46  75 103 132 170 217 265 311
#     4   9  15  25  47  79 109 134 166 213 266 316
#     4  11  22  34  53  85 124 159 189 227 280 340
#     4  10  21  37  56  79 106 137 178 224 266 319
#     4  11  24  40  58  80 106 136 173 222 283 343
#     4  10  19  35  58  81 109 144 183 223 266 322
#     4   9  17  30  50  77 110 151 199 243 279 322
#
# _framework density 18.314723999999998
#
# number of rings (size 3 to 8) (size 9 to 14) (size 15 to 20)
#    0.000    2.375    1.250    3.375    0.000    4.500 
#    0.000    3.125    0.000    0.750    0.000    3.500 
#    0.000    0.000    0.000    0.000    0.000    0.000 
#
# Total GULP energy -356910.745579 kJ/mol
# GULP energy per Si atom -5576.730400 kJ/mol
# Density = 1.827304 g / cm^3
# Si number density = 18.314724 Si / 1000 Ang^3
#
#
#
# Elastic Constant Matrix: (Units=GPa)
#
#
# Indices 1 2 3 4 5 6 
#
# 1 78.3772 33.8403 64.0714 0.0000 0.0000 0.0000
# 2 33.8403 39.8081 41.8665 0.0000 0.0000 0.0000
# 3 64.0714 41.8665 131.4223 0.0000 0.0000 0.0000
# 4 0.0000 0.0000 0.0000 3.1083 0.0000 0.0000
# 5 0.0000 0.0000 0.0000 0.0000 4.1976 0.0000
# 6 0.0000 0.0000 0.0000 0.0000 0.0000 9.8168
#
#
#
# Elastic Compliance Matrix: (Units=1/GPa)
#
#
# Indices 1 2 3 4 5 6 
#
# 1 0.024797 -0.012580 -0.008081 0.000000 0.000000 0.000000
# 2 -0.012580 0.044160 -0.007935 0.000000 0.000000 0.000000
# 3 -0.008081 -0.007935 0.014077 0.000000 0.000000 0.000000
# 4 0.000000 0.000000 0.000000 0.321714 0.000000 0.000000
# 5 0.000000 0.000000 0.000000 0.000000 0.238231 0.000000
# 6 0.000000 0.000000 0.000000 0.000000 0.000000 0.101866
#
#
# Mechanical properties :
#
#
# Convention : Reuss Voigt Hill
#
# Bulk Modulus (GPa) = 38.69857 58.79600 48.74729
# Shear Modulus (GPa) = 6.16790 10.74652 8.45721
#
# Velocity S-wave (km/s) = 1.83713 2.42496 2.15122
# Velocity P-wave (km/s) = 5.06712 6.32561 5.73102
#
# Compressibility (1/GPa) = 0.02584075
#
# Stress axis : x y z
#
# Youngs Moduli (GPa) = 40.32782 22.64515 71.03979
#
# Poissons Ratio (x) = 0.28488 0.57410
# Poissons Ratio (y) = 0.50733 0.56367
# Poissons Ratio (z) = 0.32591 0.17968
#
# Static dielectric constant tensor:
#      x y z
#    x 1.615480 0.000000 0.000000 
#    y 0.000000 1.620030 0.000000 
#    z 0.000000 0.000000 1.648970 
# 
# From -- ./inp_files/25594.got.cif
#   From: 2010.05.17/outbox.cif.g08.bks.cpg/sg47_13_cif.got.tgz:25594.got - 2010.06.03 20:15:42.
