data_PCOD9384144
_publ_section_title
;
Structure prediction by ZEFSAII (Michael W. Deem and Ramdas Pophale) SiO2 
 PCOD9384144
Probable space group: P M M M
;
_chemical_formula_sum "Si O2"
_cell_formula_units_Z 52
_cell_length_a 15.435584
_cell_length_b 28.712158
_cell_length_c 9.260902
_cell_angle_alpha 90.000000
_cell_angle_beta 90.000000
_cell_angle_gamma 90.000000
_cell_volume 4104.329217
_symmetry_space_group_name_H-M "P M M M"
_symmetry_group_IT_number 47
_symmetry_cell_setting 'orthorhombic'
loop_
_space_group_symop_operation_xyz
x,y,z
-x,-y,z
x,-y,-z
-x,y,-z
-x,-y,-z
x,y,-z
-x,y,z
x,-y,z
loop_
_atom_site_type_symbol
_atom_site_label
_atom_site_fract_x
_atom_site_fract_y
_atom_site_fract_z
Si Si1 0.396668 0.375152 0.671266
Si Si2 0.605572 0.000000 0.333015
Si Si3 0.605336 0.280068 0.166450
Si Si4 0.270087 0.555751 0.829544
Si Si5 0.096854 0.556515 0.667236
Si Si6 0.605558 0.093444 0.166972
Si Si7 0.605618 0.813035 0.667069
O O1 0.380830 0.372890 0.500000
O O2 0.500000 0.381391 0.692935
O O3 0.370660 0.326674 0.747515
O O4 0.343482 0.416624 0.743820
O O5 0.633026 0.046688 0.249807
O O6 0.500000 0.000000 0.332838
O O7 0.632904 0.000000 0.500000
O O8 0.500000 0.278915 0.164919
O O9 0.633796 0.233335 0.248605
O O10 0.634166 0.281192 0.000000
O O11 0.278546 0.500000 0.807568
O O12 0.176315 0.570709 0.767588
O O13 0.276037 0.564928 0.000000
O O14 0.111788 0.570077 0.500000
O O15 0.095412 0.500000 0.669862
O O16 0.000000 0.572091 0.710366
O O17 0.500000 0.093410 0.167050
O O18 0.632868 0.140061 0.250657
O O19 0.632954 0.093602 0.000000
O O20 0.632813 0.812774 0.500000
O O21 0.500000 0.812881 0.667346
#
# Coordination Sequence:
#
# PCOD9384144 Si02
#       7
#     8   4   8   8   8   8   8
#     4  10  20  32  44  56  71  94 123 152 181 214
#     4   9  15  21  27  35  49  69  91 115 147 189
#     4   9  16  26  39  52  65  81 103 134 171 207
#     4  10  20  31  43  60  80 100 121 146 176 211
#     4   8  14  26  44  63  81 100 120 142 169 202
#     4   9  15  21  28  38  52  70  92 118 150 189
#     4   9  15  22  32  45  59  74  95 124 157 194
#
# _framework density 12.669549
#
# number of rings (size 3 to 8) (size 9 to 14) (size 15 to 20)
#    0.000    2.846    0.000    3.000    0.000    8.923 
#    0.000    3.077    0.000    0.000    0.000    0.000 
#    0.000    0.000    0.000    0.000    0.000    0.000 
#
# Total GULP energy -289525.010593 kJ/mol
# GULP energy per Si atom -5567.788665 kJ/mol
# Density = 1.264071 g / cm^3
# Si number density = 12.669549 Si / 1000 Ang^3
#
#
#
# Elastic Constant Matrix: (Units=GPa)
#
#
# Indices 1 2 3 4 5 6 
#
# 1 27.6086 29.6755 37.4876 0.0000 0.0000 0.0000
# 2 29.6755 79.3986 69.7598 0.0000 0.0000 0.0000
# 3 37.4876 69.7598 130.6109 0.0000 0.0000 0.0000
# 4 0.0000 0.0000 0.0000 24.9738 0.0000 0.0000
# 5 0.0000 0.0000 0.0000 0.0000 11.2059 0.0000
# 6 0.0000 0.0000 0.0000 0.0000 0.0000 -0.4187
#
#
#
# Elastic Compliance Matrix: (Units=1/GPa)
#
#
# Indices 1 2 3 4 5 6 
#
# 1 0.068317 -0.015650 -0.011249 0.000000 0.000000 0.000000
# 2 -0.015650 0.027316 -0.010098 0.000000 0.000000 0.000000
# 3 -0.011249 -0.010098 0.016278 0.000000 0.000000 0.000000
# 4 0.000000 0.000000 0.000000 0.040042 0.000000 0.000000
# 5 0.000000 0.000000 0.000000 0.000000 0.089239 0.000000
# 6 0.000000 0.000000 0.000000 0.000000 0.000000 -2.388567
#
#
# Mechanical properties :
#
#
# Convention : Reuss Voigt Hill
#
# Bulk Modulus (GPa) = 26.37339 56.82930 41.60135
# Shear Modulus (GPa) = -2.42631 13.86522 5.71946
#
# Velocity S-wave (km/s) = -1.38536 3.31172 2.12700
# Velocity P-wave (km/s) = 4.27815 7.71853 6.24012
#
# Compressibility (1/GPa) = 0.03791701
#
# Stress axis : x y z
#
# Youngs Moduli (GPa) = 14.63765 36.60903 61.43142
#
# Poissons Ratio (x) = 0.57293 0.69107
# Poissons Ratio (y) = 0.22908 0.62031
# Poissons Ratio (z) = 0.16467 0.36966
#
# Static dielectric constant tensor:
#      x y z
#    x 1.380900 0.000000 0.000000 
#    y 0.000000 1.410120 0.000000 
#    z 0.000000 0.000000 1.423560 
# 
# From -- ./inp_files/8047.got.cif
#   From: 2010.05.17/outbox.cif.g08.bks.cpg/sg47_5_cif.got.tgz:8047.got - 2010.06.03 20:15:42.
