data_PCOD9384728
_publ_section_title
;
Structure prediction by ZEFSAII (Michael W. Deem and Ramdas Pophale) SiO2 
 PCOD9384728
Probable space group: P M M M
;
_chemical_formula_sum "Si O2"
_cell_formula_units_Z 44
_cell_length_a 9.433486
_cell_length_b 31.191919
_cell_length_c 7.460699
_cell_angle_alpha 90.000000
_cell_angle_beta 90.000000
_cell_angle_gamma 90.000000
_cell_volume 2195.299722
_symmetry_space_group_name_H-M "P M M M"
_symmetry_group_IT_number 47
_symmetry_cell_setting 'orthorhombic'
loop_
_space_group_symop_operation_xyz
x,y,z
-x,-y,z
x,-y,-z
-x,y,-z
-x,-y,-z
x,y,-z
-x,y,z
x,-y,z
loop_
_atom_site_type_symbol
_atom_site_label
_atom_site_fract_x
_atom_site_fract_y
_atom_site_fract_z
Si Si1 0.659240 0.368478 0.787805
Si Si2 0.161301 0.548096 0.715775
Si Si3 0.831627 0.881709 0.212443
Si Si4 0.837049 0.712761 0.219449
Si Si5 0.663045 0.796530 0.218434
Si Si6 0.828083 0.951415 0.500000
O O1 0.500000 0.367735 0.713442
O O2 0.732800 0.414391 0.766475
O O3 0.758639 0.330359 0.718175
O O4 0.648068 0.360659 0.000000
O O5 0.157791 0.547033 0.500000
O O6 0.200269 0.500000 0.776925
O O7 0.000000 0.557217 0.777317
O O8 0.743593 0.840004 0.269892
O O9 0.789135 0.923131 0.327037
O O10 0.000000 0.873801 0.241032
O O11 0.810889 0.888503 0.000000
O O12 0.749417 0.754581 0.275807
O O13 0.000000 0.714245 0.277373
O O14 0.838628 0.712689 0.000000
O O15 0.500000 0.795610 0.277483
O O16 0.662416 0.795935 0.000000
O O17 0.000000 0.953865 0.500000
O O18 0.773696 0.000000 0.500000
#
# Coordination Sequence:
#
# PCOD9384728 Si02
#       6
#     8   8   8   8   8   4
#     4  10  20  32  48  74 106 135 164 203 252 305
#     4   9  19  36  55  72  92 124 167 211 255 305
#     4   9  17  30  50  75 102 135 175 216 260 312
#     4   9  16  27  46  72 101 133 168 204 246 299
#     4   9  16  27  46  72 101 132 166 205 249 298
#     4   9  18  32  51  77 107 137 173 221 268 307
#
# _framework density 20.042819999999999
#
# number of rings (size 3 to 8) (size 9 to 14) (size 15 to 20)
#    0.000    2.818    0.000    2.182    0.000    6.909 
#    0.000    5.000    2.000    1.091    0.000    2.545 
#    0.000    0.000    0.000    0.000    0.000    0.000 
#
# Total GULP energy -245619.368529 kJ/mol
# GULP energy per Si atom -5582.258376 kJ/mol
# Density = 1.999720 g / cm^3
# Si number density = 20.042820 Si / 1000 Ang^3
#
#
#
# Elastic Constant Matrix: (Units=GPa)
#
#
# Indices 1 2 3 4 5 6 
#
# 1 155.2740 122.4244 27.7152 0.0000 0.0000 0.0000
# 2 122.4244 202.5860 27.5345 0.0000 0.0000 0.0000
# 3 27.7152 27.5345 61.5783 0.0000 0.0000 0.0000
# 4 0.0000 0.0000 0.0000 40.2073 0.0000 0.0000
# 5 0.0000 0.0000 0.0000 0.0000 -2.1246 0.0000
# 6 0.0000 0.0000 0.0000 0.0000 0.0000 -10.8313
#
#
#
# Elastic Compliance Matrix: (Units=1/GPa)
#
#
# Indices 1 2 3 4 5 6 
#
# 1 0.012631 -0.007304 -0.002419 0.000000 0.000000 0.000000
# 2 -0.007304 0.009479 -0.000951 0.000000 0.000000 0.000000
# 3 -0.002419 -0.000951 0.017754 0.000000 0.000000 0.000000
# 4 0.000000 0.000000 0.000000 0.024871 0.000000 0.000000
# 5 0.000000 0.000000 0.000000 0.000000 -0.470684 0.000000
# 6 0.000000 0.000000 0.000000 0.000000 0.000000 -0.092325
#
#
# Mechanical properties :
#
#
# Convention : Reuss Voigt Hill
#
# Bulk Modulus (GPa) = 54.00945 86.08737 70.04841
# Shear Modulus (GPa) = -10.62126 21.56789 5.47332
#
# Velocity S-wave (km/s) = -2.30451 3.28394 1.65431
# Velocity P-wave (km/s) = 4.46368 7.57786 6.21886
#
# Compressibility (1/GPa) = 0.01851528
#
# Stress axis : x y z
#
# Youngs Moduli (GPa) = 79.17080 105.49131 56.32684
#
# Poissons Ratio (x) = 0.77053 0.13625
# Poissons Ratio (y) = 0.57828 0.05358
# Poissons Ratio (z) = 0.19150 0.10035
#
# Static dielectric constant tensor:
#      x y z
#    x 1.680610 0.000000 0.000000 
#    y 0.000000 1.669760 0.000000 
#    z 0.000000 0.000000 1.770350 
# 
# From -- ./inp_files/2018.got.cif
#   From: 2010.05.17/outbox.cif.g08.bks.cpg/sg47_2_cif.got.tgz:2018.got - 2010.06.03 20:15:42.
