data_PCOD9384655
_publ_section_title
;
Structure prediction by ZEFSAII (Michael W. Deem and Ramdas Pophale) SiO2 
 PCOD9384655
Probable space group: P M M M
;
_chemical_formula_sum "Si O2"
_cell_formula_units_Z 36
_cell_length_a 9.326292
_cell_length_b 24.367382
_cell_length_c 7.824583
_cell_angle_alpha 90.000000
_cell_angle_beta 90.000000
_cell_angle_gamma 90.000000
_cell_volume 1778.193761
_symmetry_space_group_name_H-M "P M M M"
_symmetry_group_IT_number 47
_symmetry_cell_setting 'orthorhombic'
loop_
_space_group_symop_operation_xyz
x,y,z
-x,-y,z
x,-y,-z
-x,y,-z
-x,-y,-z
x,y,-z
-x,y,z
x,-y,z
loop_
_atom_site_type_symbol
_atom_site_label
_atom_site_fract_x
_atom_site_fract_y
_atom_site_fract_z
Si Si1 0.832021 0.559100 0.205740
Si Si2 0.163899 0.321659 0.702116
Si Si3 0.165024 0.891163 0.790566
Si Si4 0.334910 0.000000 0.208876
Si Si5 0.661573 0.785186 0.203487
O O1 0.771045 0.500000 0.263824
O O2 0.773330 0.617634 0.263339
O O3 0.000000 0.559443 0.259060
O O4 0.828687 0.559039 0.000000
O O5 0.154670 0.314992 0.500000
O O6 0.259181 0.272344 0.770019
O O7 0.000000 0.319248 0.772944
O O8 0.251590 0.945242 0.737321
O O9 0.244287 0.836013 0.730609
O O10 0.000000 0.892706 0.735389
O O11 0.164102 0.890871 0.000000
O O12 0.500000 0.000000 0.264700
O O13 0.335712 0.000000 0.000000
O O14 0.500000 0.784761 0.273794
O O15 0.650981 0.793576 0.000000
#
# Coordination Sequence:
#
# PCOD9384655 Si02
#       5
#     8   8   8   4   8
#     4   8  14  26  46  72 100 129 161 198 241 289
#     4  10  20  32  48  72 100 130 164 202 246 295
#     4   9  16  26  42  65  93 125 161 202 248 295
#     4   9  15  23  37  61  96 131 160 195 242 295
#     4  10  20  33  49  69  94 127 167 208 251 298
#
# _framework density 20.245263000000001
#
# number of rings (size 3 to 8) (size 9 to 14) (size 15 to 20)
#    0.000    2.778    0.000    3.000    0.000    7.111 
#    0.000    2.222    0.000    0.667    0.000    5.444 
#    0.000    6.222    0.000    0.000    0.000    0.000 
#
# Total GULP energy -200762.438079 kJ/mol
# GULP energy per Si atom -5576.734391 kJ/mol
# Density = 2.019918 g / cm^3
# Si number density = 20.245263 Si / 1000 Ang^3
#
#
#
# Elastic Constant Matrix: (Units=GPa)
#
#
# Indices 1 2 3 4 5 6 
#
# 1 144.3048 110.2729 6.1205 0.0000 0.0000 0.0000
# 2 110.2729 218.2005 -0.3972 0.0000 0.0000 0.0000
# 3 6.1205 -0.3972 20.4458 0.0000 0.0000 0.0000
# 4 0.0000 0.0000 0.0000 -38.1932 0.0000 0.0000
# 5 0.0000 0.0000 0.0000 0.0000 4.4176 0.0000
# 6 0.0000 0.0000 0.0000 0.0000 0.0000 -15.4100
#
#
#
# Elastic Compliance Matrix: (Units=1/GPa)
#
#
# Indices 1 2 3 4 5 6 
#
# 1 0.011544 -0.005841 -0.003569 0.000000 0.000000 0.000000
# 2 -0.005841 0.007538 0.001895 0.000000 0.000000 0.000000
# 3 -0.003569 0.001895 0.050015 0.000000 0.000000 0.000000
# 4 0.000000 0.000000 0.000000 -0.026183 0.000000 0.000000
# 5 0.000000 0.000000 0.000000 0.000000 0.226368 0.000000
# 6 0.000000 0.000000 0.000000 0.000000 0.000000 -0.064893
#
#
# Mechanical properties :
#
#
# Convention : Reuss Voigt Hill
#
# Bulk Modulus (GPa) = 18.49547 68.32705 43.41126
# Shear Modulus (GPa) = 21.05764 7.95988 14.50876
#
# Velocity S-wave (km/s) = 3.22860 1.98501 2.67994
# Velocity P-wave (km/s) = 4.80146 6.25113 5.57363
#
# Compressibility (1/GPa) = 0.05406729
#
# Stress axis : x y z
#
# Youngs Moduli (GPa) = 86.62140 132.65821 19.99397
#
# Poissons Ratio (x) = 0.77483 0.07137
# Poissons Ratio (y) = 0.50594 -0.03789
# Poissons Ratio (z) = 0.30918 -0.25137
#
# Static dielectric constant tensor:
#      x y z
#    x 1.699990 0.000000 0.000000 
#    y 0.000000 1.719860 0.000000 
#    z 0.000000 0.000000 1.730820 
# 
# From -- ./inp_files/1449.got.cif
#   From: 2010.05.17/outbox.cif.g08.bks.cpg/sg47_1_cif.got.tgz:1449.got - 2010.06.03 20:15:42.
