data_PCOD9384397
_publ_section_title
;
Structure prediction by ZEFSAII (Michael W. Deem and Ramdas Pophale) SiO2 
 PCOD9384397
Probable space group: P M M M
;
_chemical_formula_sum "Si O2"
_cell_formula_units_Z 60
_cell_length_a 7.635410
_cell_length_b 20.194589
_cell_length_c 20.231891
_cell_angle_alpha 90.000000
_cell_angle_beta 90.000000
_cell_angle_gamma 90.000000
_cell_volume 3119.635529
_symmetry_space_group_name_H-M "P M M M"
_symmetry_group_IT_number 47
_symmetry_cell_setting 'orthorhombic'
loop_
_space_group_symop_operation_xyz
x,y,z
-x,-y,z
x,-y,-z
-x,y,-z
-x,-y,-z
x,y,-z
-x,y,z
x,-y,z
loop_
_atom_site_type_symbol
_atom_site_label
_atom_site_fract_x
_atom_site_fract_y
_atom_site_fract_z
Si Si1 0.800955 0.356468 0.630399
Si Si2 0.289927 0.190474 0.074552
Si Si3 0.210010 0.829158 0.712674
Si Si4 0.296460 0.425207 0.763206
Si Si5 0.788873 0.075048 0.827513
Si Si6 0.301488 0.422320 0.500000
Si Si7 0.214536 0.784996 0.424283
Si Si8 0.711439 0.287765 0.188473
O O1 0.709110 0.396572 0.688626
O O2 0.796395 0.400127 0.565148
O O3 0.729199 0.286735 0.603538
O O4 0.000000 0.344891 0.653025
O O5 0.500000 0.197930 0.071838
O O6 0.253811 0.120389 0.109504
O O7 0.223352 0.247056 0.124836
O O8 0.221688 0.194362 0.000000
O O9 0.277599 0.885059 0.762971
O O10 0.269640 0.832164 0.636499
O O11 0.248460 0.758521 0.747967
O O12 0.000000 0.834914 0.711038
O O13 0.500000 0.430805 0.782310
O O14 0.221296 0.500000 0.767080
O O15 0.220732 0.362751 0.804084
O O16 0.000000 0.072700 0.822833
O O17 0.723921 0.000000 0.831679
O O18 0.315169 0.500000 0.500000
O O19 0.500000 0.394363 0.500000
O O20 0.272884 0.796402 0.500000
O O21 0.000000 0.784485 0.426699
O O22 0.500000 0.291160 0.185079
#
# Coordination Sequence:
#
# PCOD9384397 Si02
#       8
#     8   8   8   8   8   4   8   8
#     4  11  20  31  46  64  85 112 150 195 239 285
#     4   9  18  32  50  73  99 126 156 189 225 266
#     4   9  16  29  49  67  88 120 155 191 229 270
#     4  10  20  32  45  63  89 119 150 189 239 287
#     4   9  18  31  48  73 102 129 155 183 219 267
#     4  11  23  35  43  55  83 121 154 185 234 296
#     4   9  16  27  44  65  86 110 145 191 236 271
#     4   9  17  30  48  67  89 119 155 193 230 273
#
# _framework density 19.233015999999999
#
# number of rings (size 3 to 8) (size 9 to 14) (size 15 to 20)
#    0.000    2.467    2.000    1.000    0.000    3.200 
#    0.000    1.333    0.000    0.800    0.000    5.600 
#    0.000    0.000    0.000   14.533    0.000   15.200 
#
# Total GULP energy -334337.554581 kJ/mol
# GULP energy per Si atom -5572.292576 kJ/mol
# Density = 1.918924 g / cm^3
# Si number density = 19.233016 Si / 1000 Ang^3
#
#
#
# Elastic Constant Matrix: (Units=GPa)
#
#
# Indices 1 2 3 4 5 6 
#
# 1 42.1089 2.4629 2.1955 0.0000 0.0000 0.0000
# 2 2.4629 122.2146 83.2676 0.0000 0.0000 0.0000
# 3 2.1955 83.2676 165.4607 0.0000 0.0000 0.0000
# 4 0.0000 0.0000 0.0000 16.3317 0.0000 0.0000
# 5 0.0000 0.0000 0.0000 0.0000 18.7843 0.0000
# 6 0.0000 0.0000 0.0000 0.0000 0.0000 12.3494
#
#
#
# Elastic Compliance Matrix: (Units=1/GPa)
#
#
# Indices 1 2 3 4 5 6 
#
# 1 0.023777 -0.000402 -0.000113 0.000000 0.000000 0.000000
# 2 -0.000402 0.012458 -0.006264 0.000000 0.000000 0.000000
# 3 -0.000113 -0.006264 0.009198 0.000000 0.000000 0.000000
# 4 0.000000 0.000000 0.000000 0.061231 0.000000 0.000000
# 5 0.000000 0.000000 0.000000 0.000000 0.053236 0.000000
# 6 0.000000 0.000000 0.000000 0.000000 0.000000 0.080976
#
#
# Mechanical properties :
#
#
# Convention : Reuss Voigt Hill
#
# Bulk Modulus (GPa) = 31.37312 56.18181 43.77746
# Shear Modulus (GPa) = 18.86365 25.61694 22.24030
#
# Velocity S-wave (km/s) = 3.13516 3.65351 3.40422
# Velocity P-wave (km/s) = 5.42708 6.86091 6.18568
#
# Compressibility (1/GPa) = 0.03187442
#
# Stress axis : x y z
#
# Youngs Moduli (GPa) = 42.05682 80.26662 108.72220
#
# Poissons Ratio (x) = 0.03227 0.01230
# Poissons Ratio (y) = 0.01691 0.68107
# Poissons Ratio (z) = 0.00476 0.50282
#
# Static dielectric constant tensor:
#      x y z
#    x 1.763540 0.000000 0.000000 
#    y 0.000000 1.689190 0.000000 
#    z 0.000000 0.000000 1.670350 
# 
# From -- ./inp_files/11615.got.cif
#   From: 2010.05.17/outbox.cif.g08.bks.cpg/sg47_6_cif.got.tgz:11615.got - 2010.06.03 20:15:42.
