data_PCOD9384948
_publ_section_title
;
Structure prediction by ZEFSAII (Michael W. Deem and Ramdas Pophale) SiO2 
 PCOD9384948
Probable space group: P M M M
;
_chemical_formula_sum "Si O2"
_cell_formula_units_Z 40
_cell_length_a 7.532794
_cell_length_b 10.214593
_cell_length_c 25.483201
_cell_angle_alpha 90.000000
_cell_angle_beta 90.000000
_cell_angle_gamma 90.000000
_cell_volume 1960.790245
_symmetry_space_group_name_H-M "P M M M"
_symmetry_group_IT_number 47
_symmetry_cell_setting 'orthorhombic'
loop_
_space_group_symop_operation_xyz
x,y,z
-x,-y,z
x,-y,-z
-x,y,-z
-x,-y,-z
x,y,-z
-x,y,z
x,-y,z
loop_
_atom_site_type_symbol
_atom_site_label
_atom_site_fract_x
_atom_site_fract_y
_atom_site_fract_z
Si Si1 0.781972 0.500000 0.439119
Si Si2 0.287397 0.657292 0.943682
Si Si3 0.204407 0.252897 0.627005
Si Si4 0.707463 0.851447 0.740175
Si Si5 0.286088 0.000000 0.439582
Si Si6 0.717916 0.347760 0.828204
O O1 0.724796 0.500000 0.500000
O O2 0.721523 0.373749 0.406313
O O3 0.000000 0.500000 0.440662
O O4 0.500000 0.679649 0.944205
O O5 0.262102 0.500000 0.943740
O O6 0.223484 0.699330 0.886295
O O7 0.217383 0.707115 0.000000
O O8 0.283858 0.213565 0.682808
O O9 0.217942 0.127151 0.590006
O O10 0.000000 0.284254 0.638057
O O11 0.500000 0.864620 0.753161
O O12 0.781253 0.751009 0.783306
O O13 0.782340 0.000000 0.738926
O O14 0.500000 0.000000 0.436721
O O15 0.231997 0.000000 0.500000
O O16 0.500000 0.349585 0.828201
O O17 0.771204 0.500000 0.820045
#
# Coordination Sequence:
#
# PCOD9384948 Si02
#       6
#     4   8   8   8   4   8
#     4   9  20  38  57  79 105 129 158 201 252 302
#     4   7   9  15  30  54  84 116 155 204 250 294
#     4  11  22  37  58  80 103 135 172 208 249 299
#     4  10  20  33  48  68 100 135 167 208 253 295
#     4  11  23  39  59  83 109 133 164 207 250 297
#     4   8  14  24  40  63  89 125 169 206 250 305
#
# _framework density 20.399937000000001
#
# number of rings (size 3 to 8) (size 9 to 14) (size 15 to 20)
#    0.000    2.800    1.000    3.300    1.400    1.600 
#    0.000    1.500    0.000    4.200    0.000    4.200 
#    0.000    0.800    0.000    6.800    0.000    6.000 
#
# Total GULP energy -222952.154718 kJ/mol
# GULP energy per Si atom -5573.803868 kJ/mol
# Density = 2.035351 g / cm^3
# Si number density = 20.399937 Si / 1000 Ang^3
#
#
#
# Elastic Constant Matrix: (Units=GPa)
#
#
# Indices 1 2 3 4 5 6 
#
# 1 46.1790 -1.5301 -1.7689 0.0000 0.0000 0.0000
# 2 -1.5301 142.9417 101.4022 0.0000 0.0000 0.0000
# 3 -1.7689 101.4022 220.3822 0.0000 0.0000 0.0000
# 4 0.0000 0.0000 0.0000 27.2953 0.0000 0.0000
# 5 0.0000 0.0000 0.0000 0.0000 -157.1312 0.0000
# 6 0.0000 0.0000 0.0000 0.0000 0.0000 8.4490
#
#
#
# Elastic Compliance Matrix: (Units=1/GPa)
#
#
# Indices 1 2 3 4 5 6 
#
# 1 0.021664 0.000161 0.000100 0.000000 0.000000 0.000000
# 2 0.000161 0.010387 -0.004778 0.000000 0.000000 0.000000
# 3 0.000100 -0.004778 0.006737 0.000000 0.000000 0.000000
# 4 0.000000 0.000000 0.000000 0.036636 0.000000 0.000000
# 5 0.000000 0.000000 0.000000 0.000000 -0.006364 0.000000
# 6 0.000000 0.000000 0.000000 0.000000 0.000000 0.118357
#
#
# Mechanical properties :
#
#
# Convention : Reuss Voigt Hill
#
# Bulk Modulus (GPa) = 33.60928 67.30103 50.45516
# Shear Modulus (GPa) = 24.22843 -3.51741 10.35551
#
# Velocity S-wave (km/s) = 3.45000 -1.31452 2.25550
# Velocity P-wave (km/s) = 5.69043 5.54603 5.61869
#
# Compressibility (1/GPa) = 0.02975368
#
# Stress axis : x y z
#
# Youngs Moduli (GPa) = 46.15948 96.27352 148.43789
#
# Poissons Ratio (x) = -0.01551 -0.01481
# Poissons Ratio (y) = -0.00744 0.70924
# Poissons Ratio (z) = -0.00460 0.46000
#
# Static dielectric constant tensor:
#      x y z
#    x 1.819420 0.000000 0.000000 
#    y 0.000000 1.647260 0.000000 
#    z 0.000000 0.000000 1.727630 
# 
# From -- ./inp_files/33046.got.cif
#   From: 2010.05.17/outbox.cif.g08.bks.cpg/sg47_17_cif.got.tgz:33046.got - 2010.06.03 20:15:42.
