data_PCOD9384533
_publ_section_title
;
Structure prediction by ZEFSAII (Michael W. Deem and Ramdas Pophale) SiO2 
 PCOD9384533
Probable space group: P M M M
;
_chemical_formula_sum "Si O2"
_cell_formula_units_Z 44
_cell_length_a 29.517759
_cell_length_b 9.490932
_cell_length_c 7.344260
_cell_angle_alpha 90.000000
_cell_angle_beta 90.000000
_cell_angle_gamma 90.000000
_cell_volume 2057.502102
_symmetry_space_group_name_H-M "P M M M"
_symmetry_group_IT_number 47
_symmetry_cell_setting 'orthorhombic'
loop_
_space_group_symop_operation_xyz
x,y,z
-x,-y,z
x,-y,-z
-x,y,-z
-x,-y,-z
x,y,-z
-x,y,z
x,-y,z
loop_
_atom_site_type_symbol
_atom_site_label
_atom_site_fract_x
_atom_site_fract_y
_atom_site_fract_z
Si Si1 0.913133 0.660328 0.783154
Si Si2 0.737301 0.663455 0.278052
Si Si3 0.000000 0.162955 0.222762
Si Si4 0.549834 0.836376 0.721723
Si Si5 0.636351 0.663051 0.721585
Si Si6 0.823105 0.159799 0.282041
O O1 0.911819 0.500000 0.712033
O O2 0.866667 0.743810 0.753183
O O3 0.955436 0.752656 0.716170
O O4 0.919245 0.649768 0.000000
O O5 0.737807 0.663996 0.500000
O O6 0.744093 0.500000 0.223922
O O7 0.686765 0.709640 0.221906
O O8 0.777804 0.762667 0.214471
O O9 0.000000 0.000000 0.280504
O O10 0.000000 0.161201 0.000000
O O11 0.550227 0.831851 0.500000
O O12 0.500000 0.783144 0.778393
O O13 0.593511 0.751686 0.785551
O O14 0.553231 0.000000 0.773423
O O15 0.636089 0.668147 0.500000
O O16 0.631383 0.500000 0.773301
O O17 0.818705 0.150930 0.500000
O O18 0.828573 0.000000 0.213340
#
# Coordination Sequence:
#
# PCOD9384533 Si02
#       6
#     8   8   4   8   8   8
#     4  10  20  34  53  75  97 123 155 187 221 265
#     4   8  14  25  39  54  75 104 137 174 216 261
#     4   9  17  31  52  75  98 123 150 184 224 263
#     4   8  13  19  25  35  54  81 114 155 203 250
#     4   8  13  20  30  44  61  85 121 163 205 249
#     4  10  20  32  47  69  95 122 153 189 229 270
#
# _framework density 21.385154
#
# number of rings (size 3 to 8) (size 9 to 14) (size 15 to 20)
#    0.000    3.182    0.000    3.000    0.000    4.364 
#    0.000    5.909    0.000    2.727    0.000    0.000 
#    0.000    0.000    0.000    0.000    0.000    0.909 
#
# Total GULP energy -245599.964147 kJ/mol
# GULP energy per Si atom -5581.817367 kJ/mol
# Density = 2.133648 g / cm^3
# Si number density = 21.385154 Si / 1000 Ang^3
#
#
#
# Elastic Constant Matrix: (Units=GPa)
#
#
# Indices 1 2 3 4 5 6 
#
# 1 257.4424 148.2651 2.8392 0.0000 0.0000 0.0000
# 2 148.2651 172.8710 6.5802 0.0000 0.0000 0.0000
# 3 2.8392 6.5802 81.1584 0.0000 0.0000 0.0000
# 4 0.0000 0.0000 0.0000 -2.0619 0.0000 0.0000
# 5 0.0000 0.0000 0.0000 0.0000 16.9234 0.0000
# 6 0.0000 0.0000 0.0000 0.0000 0.0000 45.7690
#
#
#
# Elastic Compliance Matrix: (Units=1/GPa)
#
#
# Indices 1 2 3 4 5 6 
#
# 1 0.007681 -0.006598 0.000266 0.000000 0.000000 0.000000
# 2 -0.006598 0.011470 -0.000699 0.000000 0.000000 0.000000
# 3 0.000266 -0.000699 0.012369 0.000000 0.000000 0.000000
# 4 0.000000 0.000000 0.000000 -0.484998 0.000000 0.000000
# 5 0.000000 0.000000 0.000000 0.000000 0.059090 0.000000
# 6 0.000000 0.000000 0.000000 0.000000 0.000000 0.021849
#
#
# Mechanical properties :
#
#
# Convention : Reuss Voigt Hill
#
# Bulk Modulus (GPa) = 57.27889 91.87120 74.57505
# Shear Modulus (GPa) = -14.17808 35.71193 10.76693
#
# Velocity S-wave (km/s) = -2.57765 4.09092 2.24626
# Velocity P-wave (km/s) = 4.24070 8.08503 6.45567
#
# Compressibility (1/GPa) = 0.01745844
#
# Stress axis : x y z
#
# Youngs Moduli (GPa) = 130.18366 87.18136 80.84759
#
# Poissons Ratio (x) = 0.57524 -0.02153
# Poissons Ratio (y) = 0.85898 0.05653
# Poissons Ratio (z) = -0.03466 0.06095
#
# Static dielectric constant tensor:
#      x y z
#    x 1.745040 0.000000 0.000000 
#    y 0.000000 2.073720 0.000000 
#    z 0.000000 0.000000 1.889410 
# 
# From -- ./inp_files/13564.got.cif
#   From: 2010.05.17/outbox.cif.g08.bks.cpg/sg47_7_cif.got.tgz:13564.got - 2010.06.03 20:15:42.
