data_PCOD9384159
_publ_section_title
;
Structure prediction by ZEFSAII (Michael W. Deem and Ramdas Pophale) SiO2 
 PCOD9384159
Probable space group: P M M M
;
_chemical_formula_sum "Si O2"
_cell_formula_units_Z 48
_cell_length_a 7.526339
_cell_length_b 19.441063
_cell_length_c 13.344917
_cell_angle_alpha 90.000000
_cell_angle_beta 90.000000
_cell_angle_gamma 90.000000
_cell_volume 1952.628665
_symmetry_space_group_name_H-M "P M M M"
_symmetry_group_IT_number 47
_symmetry_cell_setting 'orthorhombic'
loop_
_space_group_symop_operation_xyz
x,y,z
-x,-y,z
x,-y,-z
-x,y,-z
-x,-y,-z
x,y,-z
-x,y,z
x,-y,z
loop_
_atom_site_type_symbol
_atom_site_label
_atom_site_fract_x
_atom_site_fract_y
_atom_site_fract_z
Si Si1 0.298331 0.917996 0.391377
Si Si2 0.710476 0.226144 0.177605
Si Si3 0.200561 0.076403 0.163970
Si Si4 0.283386 0.723467 0.608905
Si Si5 0.283040 0.625589 0.107867
Si Si6 0.283358 0.425689 0.322901
O O1 0.225075 0.895903 0.500000
O O2 0.500000 0.889160 0.381754
O O3 0.205816 0.912315 0.284530
O O4 0.314629 0.000000 0.399737
O O5 0.500000 0.234610 0.184201
O O6 0.735308 0.151251 0.128878
O O7 0.776597 0.234721 0.293006
O O8 0.774486 0.294568 0.121137
O O9 0.000000 0.071017 0.129388
O O10 0.284425 0.000000 0.144437
O O11 0.224480 0.747678 0.500000
O O12 0.500000 0.724176 0.609071
O O13 0.227873 0.644054 0.622765
O O14 0.500000 0.624564 0.108096
O O15 0.230110 0.584637 0.206807
O O16 0.224197 0.599207 0.000000
O O17 0.500000 0.425667 0.326726
O O18 0.223655 0.500000 0.360776
#
# Coordination Sequence:
#
# PCOD9384159 Si02
#       6
#     8   8   8   8   8   8
#     4   8  14  25  40  57  78 106 140 174 208 253
#     4   9  17  29  45  63  83 112 151 187 218 263
#     4  10  20  31  43  61  85 111 139 179 234 284
#     4   8  14  24  37  55  82 117 154 186 212 242
#     4   8  14  25  41  61  85 113 145 182 222 261
#     4   8  13  20  32  56  90 123 151 176 208 256
#
# _framework density 24.582246000000001
#
# number of rings (size 3 to 8) (size 9 to 14) (size 15 to 20)
#    0.000    3.500    0.000    3.000    0.000    2.667 
#    0.000    6.667    0.000    1.000    0.000    3.500 
#    0.000   10.667    0.000   12.000    0.000   13.333 
#
# Total GULP energy -267448.499773 kJ/mol
# GULP energy per Si atom -5571.843745 kJ/mol
# Density = 2.452630 g / cm^3
# Si number density = 24.582246 Si / 1000 Ang^3
#
#
#
# Elastic Constant Matrix: (Units=GPa)
#
#
# Indices 1 2 3 4 5 6 
#
# 1 51.2815 -4.3507 0.1858 0.0000 0.0000 0.0000
# 2 -4.3507 180.4086 -2.9263 0.0000 0.0000 0.0000
# 3 0.1858 -2.9263 69.9678 0.0000 0.0000 0.0000
# 4 0.0000 0.0000 0.0000 -17.8438 0.0000 0.0000
# 5 0.0000 0.0000 0.0000 0.0000 -9.1936 0.0000
# 6 0.0000 0.0000 0.0000 0.0000 0.0000 21.0861
#
#
#
# Elastic Compliance Matrix: (Units=1/GPa)
#
#
# Indices 1 2 3 4 5 6 
#
# 1 0.019540 0.000471 -0.000032 0.000000 0.000000 0.000000
# 2 0.000471 0.005558 0.000231 0.000000 0.000000 0.000000
# 3 -0.000032 0.000231 0.014302 0.000000 0.000000 0.000000
# 4 0.000000 0.000000 0.000000 -0.056042 0.000000 0.000000
# 5 0.000000 0.000000 0.000000 0.000000 -0.108771 0.000000
# 6 0.000000 0.000000 0.000000 0.000000 0.000000 0.047425
#
#
# Mechanical properties :
#
#
# Convention : Reuss Voigt Hill
#
# Bulk Modulus (GPa) = 24.54600 31.94171 28.24385
# Shear Modulus (GPa) = -76.04841 19.39302 -28.32770
#
# Velocity S-wave (km/s) = -5.56808 2.81179 -3.39833
# Velocity P-wave (km/s) = 5.59741 4.85423 1.97072
#
# Compressibility (1/GPa) = 0.04073984
#
# Stress axis : x y z
#
# Youngs Moduli (GPa) = 51.17639 179.91845 69.92006
#
# Poissons Ratio (x) = -0.08469 0.00225
# Poissons Ratio (y) = -0.02409 -0.01617
# Poissons Ratio (z) = 0.00165 -0.04160
#
# Static dielectric constant tensor:
#      x y z
#    x 2.004660 0.000000 0.000000 
#    y 0.000000 1.979500 0.000000 
#    z 0.000000 0.000000 1.988230 
# 
# From -- ./inp_files/10873.got.cif
#   From: 2010.05.17/outbox.cif.g08.bks.cpg/sg47_6_cif.got.tgz:10873.got - 2010.06.03 20:15:42.
