data_PCOD9384056
_publ_section_title
;
Structure prediction by ZEFSAII (Michael W. Deem and Ramdas Pophale) SiO2 
 PCOD9384056
Probable space group: P M M M
;
_chemical_formula_sum "Si O2"
_cell_formula_units_Z 52
_cell_length_a 7.478641
_cell_length_b 26.600002
_cell_length_c 12.004583
_cell_angle_alpha 90.000000
_cell_angle_beta 90.000000
_cell_angle_gamma 90.000000
_cell_volume 2388.094091
_symmetry_space_group_name_H-M "P M M M"
_symmetry_group_IT_number 47
_symmetry_cell_setting 'orthorhombic'
loop_
_space_group_symop_operation_xyz
x,y,z
-x,-y,z
x,-y,-z
-x,y,-z
-x,-y,-z
x,y,-z
-x,y,z
x,-y,z
loop_
_atom_site_type_symbol
_atom_site_label
_atom_site_fract_x
_atom_site_fract_y
_atom_site_fract_z
Si Si1 0.713954 0.417519 0.000000
Si Si2 0.715828 0.699563 0.000000
Si Si3 0.218787 0.345323 0.370579
Si Si4 0.786875 0.845321 0.875030
Si Si5 0.209222 0.445651 0.248766
Si Si6 0.284357 0.057009 0.742143
Si Si7 0.705045 0.061137 0.500000
Si Si8 0.794769 0.749141 0.234404
O O1 0.765504 0.358939 0.000000
O O2 0.778487 0.440878 0.115345
O O3 0.500000 0.421120 0.000000
O O4 0.789101 0.724973 0.888877
O O5 0.500000 0.703555 0.000000
O O6 0.265423 0.348433 0.500000
O O7 0.282848 0.394812 0.304195
O O8 0.284193 0.293479 0.314634
O O9 0.000000 0.344631 0.362107
O O10 0.759609 0.901683 0.833156
O O11 0.714288 0.804313 0.787132
O O12 0.000000 0.836623 0.880489
O O13 0.714922 0.837997 0.000000
O O14 0.286530 0.500000 0.282151
O O15 0.000000 0.446630 0.279205
O O16 0.500000 0.054632 0.733454
O O17 0.215080 0.074121 0.620003
O O18 0.222549 0.000000 0.765633
O O19 0.500000 0.079615 0.500000
O O20 0.699878 0.000000 0.500000
O O21 0.000000 0.756095 0.271632
#
# Coordination Sequence:
#
# PCOD9384056 Si02
#       8
#     4   4   8   8   8   8   4   8
#     4  11  22  34  51  78 110 139 171 215 266 317
#     4  11  21  32  54  83 103 129 176 223 264 308
#     4   9  18  33  55  80 104 135 175 219 264 308
#     4  10  21  35  51  76 108 140 174 212 260 315
#     4  10  20  33  53  80 107 138 177 218 260 310
#     4   9  18  34  56  79 104 138 179 217 257 308
#     4   7  12  28  53  75  97 131 173 213 250 295
#     4  10  19  36  58  76 102 140 177 210 258 322
#
# _framework density 21.774687
#
# number of rings (size 3 to 8) (size 9 to 14) (size 15 to 20)
#    0.000    2.385    2.308    1.615    0.000    3.692 
#    1.385    3.462    0.000    3.231    0.000    1.077 
#    0.000    0.000    0.000    0.000    0.000    0.000 
#
# Total GULP energy -290153.644893 kJ/mol
# GULP energy per Si atom -5579.877786 kJ/mol
# Density = 2.172513 g / cm^3
# Si number density = 21.774687 Si / 1000 Ang^3
#
#
#
# Elastic Constant Matrix: (Units=GPa)
#
#
# Indices 1 2 3 4 5 6 
#
# 1 65.9472 4.3259 -6.9506 0.0000 0.0000 0.0000
# 2 4.3259 167.2657 65.5094 0.0000 0.0000 0.0000
# 3 -6.9506 65.5094 109.2589 0.0000 0.0000 0.0000
# 4 0.0000 0.0000 0.0000 23.4068 0.0000 0.0000
# 5 0.0000 0.0000 0.0000 0.0000 -3.2583 0.0000
# 6 0.0000 0.0000 0.0000 0.0000 0.0000 23.4781
#
#
#
# Elastic Compliance Matrix: (Units=1/GPa)
#
#
# Indices 1 2 3 4 5 6 
#
# 1 0.015398 -0.001022 0.001592 0.000000 0.000000 0.000000
# 2 -0.001022 0.007881 -0.004790 0.000000 0.000000 0.000000
# 3 0.001592 -0.004790 0.012126 0.000000 0.000000 0.000000
# 4 0.000000 0.000000 0.000000 0.042723 0.000000 0.000000
# 5 0.000000 0.000000 0.000000 0.000000 -0.306909 0.000000
# 6 0.000000 0.000000 0.000000 0.000000 0.000000 0.042593
#
#
# Mechanical properties :
#
#
# Convention : Reuss Voigt Hill
#
# Bulk Modulus (GPa) = 37.08404 52.02681 44.55542
# Shear Modulus (GPa) = -29.62801 27.36447 -1.13177
#
# Velocity S-wave (km/s) = -3.69272 3.54886 -0.72173
# Velocity P-wave (km/s) = 1.05536 6.38260 4.45106
#
# Compressibility (1/GPa) = 0.02696578
#
# Stress axis : x y z
#
# Youngs Moduli (GPa) = 64.94140 126.88646 82.46716
#
# Poissons Ratio (x) = 0.12966 -0.13131
# Poissons Ratio (y) = 0.06636 0.39504
# Poissons Ratio (z) = -0.10340 0.60783
#
# Static dielectric constant tensor:
#      x y z
#    x 1.850620 0.000000 0.000000 
#    y 0.000000 1.812120 0.000000 
#    z 0.000000 0.000000 1.764440 
# 
# From -- ./inp_files/15595.got.cif
#   From: 2010.05.17/outbox.cif.g08.bks.cpg/sg47_8_cif.got.tgz:15595.got - 2010.06.03 20:15:42.
