data_PCOD9384281
_publ_section_title
;
Structure prediction by ZEFSAII (Michael W. Deem and Ramdas Pophale) SiO2 
 PCOD9384281
Probable space group: P M M M
;
_chemical_formula_sum "Si O2"
_cell_formula_units_Z 44
_cell_length_a 7.761873
_cell_length_b 30.724407
_cell_length_c 9.816631
_cell_angle_alpha 90.000000
_cell_angle_beta 90.000000
_cell_angle_gamma 90.000000
_cell_volume 2341.059806
_symmetry_space_group_name_H-M "P M M M"
_symmetry_group_IT_number 47
_symmetry_cell_setting 'orthorhombic'
loop_
_space_group_symop_operation_xyz
x,y,z
-x,-y,z
x,-y,-z
-x,y,-z
-x,-y,-z
x,y,-z
-x,y,z
x,-y,z
loop_
_atom_site_type_symbol
_atom_site_label
_atom_site_fract_x
_atom_site_fract_y
_atom_site_fract_z
Si Si1 0.706230 0.372897 0.846102
Si Si2 0.792192 0.292861 0.345267
Si Si3 0.000000 0.049606 0.834322
Si Si4 0.694891 0.113270 0.839256
Si Si5 0.289581 0.450512 0.344231
Si Si6 0.791664 0.194287 0.658143
O O1 0.500000 0.378222 0.854668
O O2 0.738539 0.329213 0.761145
O O3 0.773005 0.414115 0.760109
O O4 0.774441 0.370757 0.000000
O O5 0.732298 0.302818 0.500000
O O6 0.736022 0.243735 0.309248
O O7 0.000000 0.292117 0.349054
O O8 0.832970 0.077405 0.793615
O O9 0.000000 0.000000 0.784825
O O10 0.000000 0.047848 0.000000
O O11 0.500000 0.097180 0.823928
O O12 0.718290 0.157522 0.755552
O O13 0.725045 0.122019 0.000000
O O14 0.236985 0.440789 0.500000
O O15 0.500000 0.450005 0.343221
O O16 0.237196 0.500000 0.311069
O O17 0.746570 0.186129 0.500000
O O18 0.000000 0.192741 0.668336
#
# Coordination Sequence:
#
# PCOD9384281 Si02
#       6
#     8   8   4   8   8   8
#     4  10  20  31  45  70 102 131 160 200 252 307
#     4   9  19  35  53  72  95 129 172 210 247 299
#     4   9  18  34  55  79 111 149 185 225 272 317
#     4  10  20  33  53  82 111 141 180 224 270 321
#     4   8  14  26  45  67  90 121 163 207 251 301
#     4   9  18  34  55  76 100 134 175 217 263 316
#
# _framework density 18.794908
#
# number of rings (size 3 to 8) (size 9 to 14) (size 15 to 20)
#    0.000    2.818    0.909    2.182    0.000    4.000 
#    0.000    9.091    0.000    1.636    0.000    5.091 
#    0.000    0.000    0.000    0.000    0.000    0.000 
#
# Total GULP energy -245442.196533 kJ/mol
# GULP energy per Si atom -5578.231739 kJ/mol
# Density = 1.875213 g / cm^3
# Si number density = 18.794908 Si / 1000 Ang^3
#
#
#
# Elastic Constant Matrix: (Units=GPa)
#
#
# Indices 1 2 3 4 5 6 
#
# 1 52.0749 42.0792 35.7239 0.0000 0.0000 0.0000
# 2 42.0792 168.4852 105.2761 0.0000 0.0000 0.0000
# 3 35.7239 105.2761 101.4971 0.0000 0.0000 0.0000
# 4 0.0000 0.0000 0.0000 29.2768 0.0000 0.0000
# 5 0.0000 0.0000 0.0000 0.0000 17.4247 0.0000
# 6 0.0000 0.0000 0.0000 0.0000 0.0000 17.6298
#
#
#
# Elastic Compliance Matrix: (Units=1/GPa)
#
#
# Indices 1 2 3 4 5 6 
#
# 1 0.025592 -0.002169 -0.006758 0.000000 0.000000 0.000000
# 2 -0.002169 0.017050 -0.016922 0.000000 0.000000 0.000000
# 3 -0.006758 -0.016922 0.029783 0.000000 0.000000 0.000000
# 4 0.000000 0.000000 0.000000 0.034157 0.000000 0.000000
# 5 0.000000 0.000000 0.000000 0.000000 0.057390 0.000000
# 6 0.000000 0.000000 0.000000 0.000000 0.000000 0.056722
#
#
# Mechanical properties :
#
#
# Convention : Reuss Voigt Hill
#
# Bulk Modulus (GPa) = 48.24429 76.46840 62.35634
# Shear Modulus (GPa) = 17.90196 22.13147 20.01672
#
# Velocity S-wave (km/s) = 3.08959 3.43523 3.26699
# Velocity P-wave (km/s) = 6.20097 7.51721 6.89059
#
# Compressibility (1/GPa) = 0.02072784
#
# Stress axis : x y z
#
# Youngs Moduli (GPa) = 39.07530 58.65019 33.57664
#
# Poissons Ratio (x) = 0.12722 0.22690
# Poissons Ratio (y) = 0.08476 0.56817
# Poissons Ratio (z) = 0.26406 0.99246
#
# Static dielectric constant tensor:
#      x y z
#    x 1.700830 0.000000 0.000000 
#    y 0.000000 1.624070 0.000000 
#    z 0.000000 0.000000 1.637730 
# 
# From -- ./inp_files/2150.got.cif
#   From: 2010.05.17/outbox.cif.g08.bks.cpg/sg47_2_cif.got.tgz:2150.got - 2010.06.03 20:15:42.
