data_PCOD9384518
_publ_section_title
;
Structure prediction by ZEFSAII (Michael W. Deem and Ramdas Pophale) SiO2 
 PCOD9384518
Probable space group: P M M M
;
_chemical_formula_sum "Si O2"
_cell_formula_units_Z 64
_cell_length_a 14.528218
_cell_length_b 7.648049
_cell_length_c 29.409402
_cell_angle_alpha 90.000000
_cell_angle_beta 90.000000
_cell_angle_gamma 90.000000
_cell_volume 3267.752860
_symmetry_space_group_name_H-M "P M M M"
_symmetry_group_IT_number 47
_symmetry_cell_setting 'orthorhombic'
loop_
_space_group_symop_operation_xyz
x,y,z
-x,-y,z
x,-y,-z
-x,y,-z
-x,-y,-z
x,y,-z
-x,y,z
x,-y,z
loop_
_atom_site_type_symbol
_atom_site_label
_atom_site_fract_x
_atom_site_fract_y
_atom_site_fract_z
Si Si1 0.280394 0.789227 0.637345
Si Si2 0.222767 0.706657 0.775070
Si Si3 0.899276 0.789936 0.859704
Si Si4 0.895830 0.290579 0.310137
Si Si5 0.396729 0.207571 0.275973
Si Si6 0.394448 0.786624 0.448380
Si Si7 0.800063 0.785438 0.947935
Si Si8 0.401790 0.206718 0.055078
O O1 0.175219 0.744492 0.648992
O O2 0.343648 0.722896 0.679292
O O3 0.323522 0.726666 0.590010
O O4 0.286140 0.000000 0.637290
O O5 0.224875 0.500000 0.769337
O O6 0.178481 0.746148 0.823345
O O7 0.155514 0.779262 0.735256
O O8 0.326290 0.768118 0.765579
O O9 0.872524 0.729498 0.910200
O O10 0.000000 0.723581 0.845545
O O11 0.903431 0.000000 0.861451
O O12 0.902207 0.500000 0.305529
O O13 0.000000 0.223300 0.315174
O O14 0.500000 0.277983 0.270307
O O15 0.404877 0.000000 0.282775
O O16 0.373932 0.730310 0.500000
O O17 0.500000 0.736032 0.437340
O O18 0.393223 0.000000 0.448455
O O19 0.698318 0.724505 0.931955
O O20 0.798061 0.000000 0.948757
O O21 0.816965 0.730392 0.000000
O O22 0.500000 0.281505 0.071066
O O23 0.402516 0.000000 0.066362
O O24 0.401840 0.217793 0.000000
#
# Coordination Sequence:
#
# PCOD9384518 Si02
#       8
#     8   8   8   8   8   8   8   8
#     4   9  16  26  44  71  97 121 154 194 233 272
#     4  10  20  34  51  69  91 121 156 191 228 276
#     4  10  20  32  47  68  93 120 152 193 238 280
#     4   9  18  32  48  65  86 115 153 196 240 283
#     4   9  17  30  49  73 101 128 152 185 230 276
#     4   8  13  22  39  65  96 127 156 186 223 271
#     4   8  14  25  41  62  88 116 147 184 225 270
#     4   7   9  15  30  52  77 104 132 163 201 244
#
# _framework density 19.585324
#
# number of rings (size 3 to 8) (size 9 to 14) (size 15 to 20)
#    0.000    3.250    0.000    2.625    0.000    3.500 
#    0.000    1.875    0.000    4.500    0.000    4.375 
#    0.000    0.000    0.000    4.250    0.000    4.125 
#
# Total GULP energy -356529.764191 kJ/mol
# GULP energy per Si atom -5570.777565 kJ/mol
# Density = 1.954075 g / cm^3
# Si number density = 19.585324 Si / 1000 Ang^3
#
#
#
# Elastic Constant Matrix: (Units=GPa)
#
#
# Indices 1 2 3 4 5 6 
#
# 1 154.1311 7.3846 60.3189 0.0000 0.0000 0.0000
# 2 7.3846 36.2723 -1.9604 0.0000 0.0000 0.0000
# 3 60.3189 -1.9604 84.9612 0.0000 0.0000 0.0000
# 4 0.0000 0.0000 0.0000 -28.9557 0.0000 0.0000
# 5 0.0000 0.0000 0.0000 0.0000 25.3189 0.0000
# 6 0.0000 0.0000 0.0000 0.0000 0.0000-1858.0497
#
#
#
# Elastic Compliance Matrix: (Units=1/GPa)
#
#
# Indices 1 2 3 4 5 6 
#
# 1 0.009159 -0.002219 -0.006554 0.000000 0.000000 0.000000
# 2 -0.002219 0.028141 0.002225 0.000000 0.000000 0.000000
# 3 -0.006554 0.002225 0.016474 0.000000 0.000000 0.000000
# 4 0.000000 0.000000 0.000000 -0.034536 0.000000 0.000000
# 5 0.000000 0.000000 0.000000 0.000000 0.039496 0.000000
# 6 0.000000 0.000000 0.000000 0.000000 0.000000 -0.000538
#
#
# Mechanical properties :
#
#
# Convention : Reuss Voigt Hill
#
# Bulk Modulus (GPa) = 24.58293 45.20563 34.89428
# Shear Modulus (GPa) = 58.92570 -358.36252 -149.71841
#
# Velocity S-wave (km/s) = 5.49108 -13.54150 -8.75272
# Velocity P-wave (km/s) = 7.26509 14.87833 9.18105
#
# Compressibility (1/GPa) = 0.04067864
#
# Stress axis : x y z
#
# Youngs Moduli (GPa) = 109.18103 35.53503 60.70057
#
# Poissons Ratio (x) = 0.07885 0.39782
# Poissons Ratio (y) = 0.24226 -0.13504
# Poissons Ratio (z) = 0.71555 -0.07905
#
# Static dielectric constant tensor:
#      x y z
#    x 1.709220 0.000000 0.000000 
#    y 0.000000 1.746640 0.000000 
#    z 0.000000 0.000000 1.673760 
# 
# From -- ./inp_files/34703.got.cif
#   From: 2010.05.17/outbox.cif.g08.bks.cpg/sg47_18_cif.got.tgz:34703.got - 2010.06.03 20:15:42.
