data_PCOD9384973
_publ_section_title
;
Structure prediction by ZEFSAII (Michael W. Deem and Ramdas Pophale) SiO2 
 PCOD9384973
Probable space group: P M M M
;
_chemical_formula_sum "Si O2"
_cell_formula_units_Z 48
_cell_length_a 13.840806
_cell_length_b 8.443855
_cell_length_c 24.910621
_cell_angle_alpha 90.000000
_cell_angle_beta 90.000000
_cell_angle_gamma 90.000000
_cell_volume 2911.298271
_symmetry_space_group_name_H-M "P M M M"
_symmetry_group_IT_number 47
_symmetry_cell_setting 'orthorhombic'
loop_
_space_group_symop_operation_xyz
x,y,z
-x,-y,z
x,-y,-z
-x,y,-z
-x,-y,-z
x,y,-z
-x,y,z
x,-y,z
loop_
_atom_site_type_symbol
_atom_site_label
_atom_site_fract_x
_atom_site_fract_y
_atom_site_fract_z
Si Si1 0.890747 0.311949 0.831709
Si Si2 0.615894 0.309273 0.442274
Si Si3 0.385389 0.308902 0.324933
Si Si4 0.390461 0.687964 0.892194
Si Si5 0.195408 0.188167 0.939336
Si Si6 0.303068 0.185231 0.785076
O O1 0.881712 0.500000 0.823204
O O2 0.866320 0.274441 0.893746
O O3 0.808150 0.225524 0.797806
O O4 0.000000 0.262651 0.819333
O O5 0.653096 0.247924 0.500000
O O6 0.500000 0.283938 0.442152
O O7 0.629402 0.500000 0.442511
O O8 0.650356 0.252745 0.383898
O O9 0.500000 0.273822 0.320896
O O10 0.375719 0.500000 0.322792
O O11 0.332159 0.234633 0.274498
O O12 0.500000 0.738703 0.903913
O O13 0.382878 0.500000 0.901736
O O14 0.307334 0.774145 0.925905
O O15 0.365232 0.721603 0.829835
O O16 0.180127 0.000000 0.934407
O O17 0.172798 0.237354 0.000000
O O18 0.320252 0.000000 0.793550
#
# Coordination Sequence:
#
# PCOD9384973 Si02
#       6
#     8   8   8   8   8   8
#     4  10  21  37  56  73  88 110 141 180 226 271
#     4   7  10  18  34  57  84 116 156 196 227 253
#     4   9  16  26  42  64  92 126 160 193 225 257
#     4  10  20  33  49  67  89 120 155 189 223 257
#     4  10  21  35  51  72  96 120 145 175 213 261
#     4  11  21  31  46  67  92 120 149 184 224 269
#
# _framework density 16.487489
#
# number of rings (size 3 to 8) (size 9 to 14) (size 15 to 20)
#    0.000    2.500    0.000    7.000    0.000    7.000 
#    0.000    3.333    0.000    0.500    0.000    2.333 
#    0.000    0.667    0.000    7.667    0.000    2.500 
#
# Total GULP energy -267565.071783 kJ/mol
# GULP energy per Si atom -5574.272329 kJ/mol
# Density = 1.644996 g / cm^3
# Si number density = 16.487489 Si / 1000 Ang^3
#
#
#
# Elastic Constant Matrix: (Units=GPa)
#
#
# Indices 1 2 3 4 5 6 
#
# 1 35.4150 1.9775 -5.8885 0.0000 0.0000 0.0000
# 2 1.9775 15.2001 3.1666 0.0000 0.0000 0.0000
# 3 -5.8885 3.1666 80.9538 0.0000 0.0000 0.0000
# 4 0.0000 0.0000 0.0000 80.0090 0.0000 0.0000
# 5 0.0000 0.0000 0.0000 0.0000 6.3394 0.0000
# 6 0.0000 0.0000 0.0000 0.0000 0.0000 151.1616
#
#
#
# Elastic Compliance Matrix: (Units=1/GPa)
#
#
# Indices 1 2 3 4 5 6 
#
# 1 0.028849 -0.004225 0.002264 0.000000 0.000000 0.000000
# 2 -0.004225 0.066948 -0.002926 0.000000 0.000000 0.000000
# 3 0.002264 -0.002926 0.012632 0.000000 0.000000 0.000000
# 4 0.000000 0.000000 0.000000 0.012499 0.000000 0.000000
# 5 0.000000 0.000000 0.000000 0.000000 0.157743 0.000000
# 6 0.000000 0.000000 0.000000 0.000000 0.000000 0.006615
#
#
# Mechanical properties :
#
#
# Convention : Reuss Voigt Hill
#
# Bulk Modulus (GPa) = 10.13636 14.45335 12.29486
# Shear Modulus (GPa) = 15.24643 56.32287 35.78465
#
# Velocity S-wave (km/s) = 3.04423 5.85108 4.66382
# Velocity P-wave (km/s) = 4.30322 7.37781 6.03945
#
# Compressibility (1/GPa) = 0.09865470
#
# Stress axis : x y z
#
# Youngs Moduli (GPa) = 34.66338 14.93689 79.16503
#
# Poissons Ratio (x) = 0.06311 -0.17920
# Poissons Ratio (y) = 0.14645 0.23164
# Poissons Ratio (z) = -0.07847 0.04371
#
# Static dielectric constant tensor:
#      x y z
#    x 1.538260 0.000000 0.000000 
#    y 0.000000 1.558680 0.000000 
#    z 0.000000 0.000000 1.584680 
# 
# From -- ./inp_files/32601.got.cif
#   From: 2010.05.17/outbox.cif.g08.bks.cpg/sg47_17_cif.got.tgz:32601.got - 2010.06.03 20:15:42.
