data_PCOD9384453
_publ_section_title
;
Structure prediction by ZEFSAII (Michael W. Deem and Ramdas Pophale) SiO2 
 PCOD9384453
Probable space group: P M M M
;
_chemical_formula_sum "Si O2"
_cell_formula_units_Z 64
_cell_length_a 14.516354
_cell_length_b 31.924761
_cell_length_c 8.922458
_cell_angle_alpha 90.000000
_cell_angle_beta 90.000000
_cell_angle_gamma 90.000000
_cell_volume 4134.944812
_symmetry_space_group_name_H-M "P M M M"
_symmetry_group_IT_number 47
_symmetry_cell_setting 'orthorhombic'
loop_
_space_group_symop_operation_xyz
x,y,z
-x,-y,z
x,-y,-z
-x,y,-z
-x,-y,-z
x,y,-z
-x,y,z
x,-y,z
loop_
_atom_site_type_symbol
_atom_site_label
_atom_site_fract_x
_atom_site_fract_y
_atom_site_fract_z
Si Si1 0.710641 0.288739 0.678268
Si Si2 0.611672 0.453664 0.324889
Si Si3 0.894474 0.260466 0.820810
Si Si4 0.894813 0.838987 0.820867
Si Si5 0.287156 0.129485 0.679946
Si Si6 0.390102 0.632804 0.822501
Si Si7 0.390149 0.208696 0.178054
Si Si8 0.393569 0.046907 0.317716
O O1 0.705987 0.286020 0.500000
O O2 0.815726 0.285008 0.734157
O O3 0.663803 0.331153 0.736013
O O4 0.656306 0.249548 0.750299
O O5 0.636433 0.448411 0.500000
O O6 0.500000 0.454398 0.318460
O O7 0.643266 0.500000 0.274744
O O8 0.640491 0.413402 0.230541
O O9 0.882656 0.210712 0.790371
O O10 0.000000 0.271516 0.782041
O O11 0.883334 0.266024 0.000000
O O12 0.816973 0.864147 0.734606
O O13 0.000000 0.850053 0.781160
O O14 0.884065 0.844358 0.000000
O O15 0.291944 0.131926 0.500000
O O16 0.346271 0.167371 0.749398
O O17 0.329706 0.085136 0.730453
O O18 0.500000 0.636761 0.791783
O O19 0.376978 0.637631 0.000000
O O20 0.500000 0.209519 0.201248
O O21 0.371635 0.208669 0.000000
O O22 0.392542 0.046700 0.500000
O O23 0.500000 0.054084 0.272840
O O24 0.366353 0.000000 0.268603
#
# Coordination Sequence:
#
# PCOD9384453 Si02
#       8
#     8   8   8   8   8   8   8   8
#     4  12  23  33  48  70  96 126 160 201 242 282
#     4   8  14  26  44  65  90 121 159 205 252 291
#     4   9  18  34  54  71  91 123 159 194 235 285
#     4   9  18  33  52  71  94 126 158 189 232 286
#     4  11  20  30  50  78  99 118 153 200 241 278
#     4  10  20  32  46  65  93 132 172 205 240 287
#     4  11  23  36  48  64  93 132 165 192 228 278
#     4   8  15  29  48  70  98 129 156 186 230 282
#
# _framework density 15.477836999999999
#
# number of rings (size 3 to 8) (size 9 to 14) (size 15 to 20)
#    0.000    2.250    1.250    4.500    0.000    4.500 
#    0.000    2.500    0.000    1.875    0.000    7.000 
#    0.000    0.500    0.000    5.250    0.000    2.500 
#
# Total GULP energy -356976.031992 kJ/mol
# GULP energy per Si atom -5577.750500 kJ/mol
# Density = 1.544261 g / cm^3
# Si number density = 15.477837 Si / 1000 Ang^3
#
#
#
# Elastic Constant Matrix: (Units=GPa)
#
#
# Indices 1 2 3 4 5 6 
#
# 1 91.7373 64.9035 56.2883 0.0000 0.0000 0.0000
# 2 64.9035 117.8288 51.8222 0.0000 0.0000 0.0000
# 3 56.2883 51.8222 61.1610 0.0000 0.0000 0.0000
# 4 0.0000 0.0000 0.0000 -1.2231 0.0000 0.0000
# 5 0.0000 0.0000 0.0000 0.0000 20.0794 0.0000
# 6 0.0000 0.0000 0.0000 0.0000 0.0000 5.4881
#
#
#
# Elastic Compliance Matrix: (Units=1/GPa)
#
#
# Indices 1 2 3 4 5 6 
#
# 1 0.027834 -0.006480 -0.020126 0.000000 0.000000 0.000000
# 2 -0.006480 0.015037 -0.006777 0.000000 0.000000 0.000000
# 3 -0.020126 -0.006777 0.040615 0.000000 0.000000 0.000000
# 4 0.000000 0.000000 0.000000 -0.817572 0.000000 0.000000
# 5 0.000000 0.000000 0.000000 0.000000 0.049802 0.000000
# 6 0.000000 0.000000 0.000000 0.000000 0.000000 0.182214
#
#
# Mechanical properties :
#
#
# Convention : Reuss Voigt Hill
#
# Bulk Modulus (GPa) = 59.80905 68.52835 64.16870
# Shear Modulus (GPa) = -11.63521 11.38308 -0.12607
#
# Velocity S-wave (km/s) = -2.74475 2.71485 -0.28571
# Velocity P-wave (km/s) = 5.35544 7.36196 6.43736
#
# Compressibility (1/GPa) = 0.01671988
#
# Stress axis : x y z
#
# Youngs Moduli (GPa) = 35.92667 66.50256 24.62148
#
# Poissons Ratio (x) = 0.43096 0.49553
# Poissons Ratio (y) = 0.23282 0.16686
# Poissons Ratio (z) = 0.72306 0.45068
#
# Static dielectric constant tensor:
#      x y z
#    x 1.507220 0.000000 0.000000 
#    y 0.000000 1.508070 0.000000 
#    z 0.000000 0.000000 1.515880 
# 
# From -- ./inp_files/8258.got.cif
#   From: 2010.05.17/outbox.cif.g08.bks.cpg/sg47_5_cif.got.tgz:8258.got - 2010.06.03 20:15:42.
