data_PCOD9384467
_publ_section_title
;
Structure prediction by ZEFSAII (Michael W. Deem and Ramdas Pophale) SiO2 
 PCOD9384467
Probable space group: P M M M
;
_chemical_formula_sum "Si O2"
_cell_formula_units_Z 64
_cell_length_a 8.625362
_cell_length_b 29.490556
_cell_length_c 15.098842
_cell_angle_alpha 90.000000
_cell_angle_beta 90.000000
_cell_angle_gamma 90.000000
_cell_volume 3840.642932
_symmetry_space_group_name_H-M "P M M M"
_symmetry_group_IT_number 47
_symmetry_cell_setting 'orthorhombic'
loop_
_space_group_symop_operation_xyz
x,y,z
-x,-y,z
x,-y,-z
-x,y,-z
-x,-y,-z
x,y,-z
-x,y,z
x,-y,z
loop_
_atom_site_type_symbol
_atom_site_label
_atom_site_fract_x
_atom_site_fract_y
_atom_site_fract_z
Si Si1 0.316806 0.774483 0.223353
Si Si2 0.810320 0.450111 0.719840
Si Si3 0.811260 0.409809 0.098476
Si Si4 0.811529 0.366111 0.602183
Si Si5 0.184525 0.854274 0.897229
Si Si6 0.681779 0.950341 0.892849
Si Si7 0.185923 0.304793 0.103210
Si Si8 0.187211 0.736846 0.602210
O O1 0.500000 0.776957 0.228213
O O2 0.254390 0.817019 0.167662
O O3 0.265933 0.729901 0.168662
O O4 0.249461 0.769721 0.322224
O O5 0.761208 0.500000 0.689043
O O6 0.762476 0.441337 0.821149
O O7 0.756155 0.407269 0.662655
O O8 0.000000 0.449537 0.717348
O O9 0.769409 0.357325 0.117030
O O10 0.000000 0.410609 0.096447
O O11 0.757126 0.422240 0.000000
O O12 0.770671 0.374313 0.500000
O O13 0.761932 0.314930 0.625075
O O14 0.000000 0.365698 0.607702
O O15 0.229210 0.905009 0.866706
O O16 0.000000 0.849371 0.898007
O O17 0.239169 0.848263 0.000000
O O18 0.500000 0.946114 0.869843
O O19 0.737784 0.000000 0.861423
O O20 0.690733 0.951455 0.000000
O O21 0.000000 0.301634 0.116126
O O22 0.217597 0.293624 0.000000
O O23 0.233587 0.746081 0.500000
O O24 0.000000 0.737468 0.604426
#
# Coordination Sequence:
#
# PCOD9384467 Si02
#       8
#     8   8   8   8   8   8   8   8
#     4  12  23  31  44  67  96 124 147 184 239 288
#     4   9  15  20  29  50  81 112 135 160 203 259
#     4   8  14  24  37  52  71 101 142 181 212 247
#     4   8  14  25  41  59  77 101 135 171 208 256
#     4  10  20  32  46  66  95 132 172 207 234 269
#     4   8  14  26  44  65  92 128 167 206 247 284
#     4   9  17  30  47  63  82 115 157 192 221 263
#     4   9  18  34  54  69  83 112 153 190 224 271
#
# _framework density 16.663878
#
# number of rings (size 3 to 8) (size 9 to 14) (size 15 to 20)
#    0.000    2.875    0.000    4.500    0.000    5.500 
#    0.000    3.750    0.000    0.000    0.000    0.000 
#    0.000    8.500    0.000   27.250    0.000   24.500 
#
# Total GULP energy -356630.822644 kJ/mol
# GULP energy per Si atom -5572.356604 kJ/mol
# Density = 1.662595 g / cm^3
# Si number density = 16.663878 Si / 1000 Ang^3
#
#
#
# Elastic Constant Matrix: (Units=GPa)
#
#
# Indices 1 2 3 4 5 6 
#
# 1 20.5682 19.4788 25.1327 0.0000 0.0000 0.0000
# 2 19.4788 77.9871 66.5662 0.0000 0.0000 0.0000
# 3 25.1327 66.5662 79.4313 0.0000 0.0000 0.0000
# 4 0.0000 0.0000 0.0000 16.4400 0.0000 0.0000
# 5 0.0000 0.0000 0.0000 0.0000 6.1386 0.0000
# 6 0.0000 0.0000 0.0000 0.0000 0.0000 64.1120
#
#
#
# Elastic Compliance Matrix: (Units=1/GPa)
#
#
# Indices 1 2 3 4 5 6 
#
# 1 0.079980 0.005703 -0.030086 0.000000 0.000000 0.000000
# 2 0.005703 0.045447 -0.039891 0.000000 0.000000 0.000000
# 3 -0.030086 -0.039891 0.055539 0.000000 0.000000 0.000000
# 4 0.000000 0.000000 0.000000 0.060827 0.000000 0.000000
# 5 0.000000 0.000000 0.000000 0.000000 0.162903 0.000000
# 6 0.000000 0.000000 0.000000 0.000000 0.000000 0.015598
#
#
# Mechanical properties :
#
#
# Convention : Reuss Voigt Hill
#
# Bulk Modulus (GPa) = 19.07704 44.48246 31.77975
# Shear Modulus (GPa) = 8.82905 21.79207 15.31056
#
# Velocity S-wave (km/s) = 2.30430 3.62020 3.03444
# Velocity P-wave (km/s) = 4.30729 6.65029 5.60264
#
# Compressibility (1/GPa) = 0.05241903
#
# Stress axis : x y z
#
# Youngs Moduli (GPa) = 12.50317 22.00365 18.00547
#
# Poissons Ratio (x) = -0.12549 0.54171
# Poissons Ratio (y) = -0.07131 0.71825
# Poissons Ratio (z) = 0.37617 0.87774
#
# Static dielectric constant tensor:
#      x y z
#    x 1.566260 0.000000 0.000000 
#    y 0.000000 1.570870 0.000000 
#    z 0.000000 0.000000 1.563410 
# 
# From -- ./inp_files/22200.got.cif
#   From: 2010.05.17/outbox.cif.g08.bks.cpg/sg47_12_cif.got.tgz:22200.got - 2010.06.03 20:15:42.
