data_PCOD9384627
_publ_section_title
;
Structure prediction by ZEFSAII (Michael W. Deem and Ramdas Pophale) SiO2 
 PCOD9384627
Probable space group: P M M M
;
_chemical_formula_sum "Si O2"
_cell_formula_units_Z 44
_cell_length_a 31.305885
_cell_length_b 9.403303
_cell_length_c 7.438500
_cell_angle_alpha 90.000000
_cell_angle_beta 90.000000
_cell_angle_gamma 90.000000
_cell_volume 2189.736126
_symmetry_space_group_name_H-M "P M M M"
_symmetry_group_IT_number 47
_symmetry_cell_setting 'orthorhombic'
loop_
_space_group_symop_operation_xyz
x,y,z
-x,-y,z
x,-y,-z
-x,y,-z
-x,-y,-z
x,y,-z
-x,y,z
x,-y,z
loop_
_atom_site_type_symbol
_atom_site_label
_atom_site_fract_x
_atom_site_fract_y
_atom_site_fract_z
Si Si1 0.047855 0.335733 0.218965
Si Si2 0.548403 0.672484 0.000000
Si Si3 0.618205 0.668827 0.286394
Si Si4 0.297876 0.161473 0.284473
Si Si5 0.787432 0.339214 0.785531
Si Si6 0.869480 0.836680 0.220079
O O1 0.055027 0.500000 0.272006
O O2 0.086354 0.236094 0.278263
O O3 0.000000 0.293428 0.275901
O O4 0.047939 0.333931 0.000000
O O5 0.576590 0.711589 0.826455
O O6 0.545965 0.500000 0.000000
O O7 0.500000 0.727060 0.000000
O O8 0.611988 0.689400 0.500000
O O9 0.625933 0.500000 0.257024
O O10 0.659581 0.756478 0.224184
O O11 0.301067 0.154327 0.500000
O O12 0.255578 0.250974 0.244699
O O13 0.295059 0.000000 0.215679
O O14 0.784380 0.500000 0.714531
O O15 0.828796 0.254342 0.718200
O O16 0.792886 0.349597 0.000000
O O17 0.866253 0.000000 0.276567
O O18 0.869352 0.835879 0.000000
#
# Coordination Sequence:
#
# PCOD9384627 Si02
#       6
#     8   4   8   8   8   8
#     4   8  13  21  33  49  73 110 154 197 243 297
#     4   9  18  32  53  83 113 141 181 229 270 315
#     4   9  18  33  53  77 107 142 179 222 270 318
#     4  10  21  36  53  74 101 132 167 209 256 305
#     4  10  20  32  48  70  96 128 164 203 249 302
#     4   9  16  25  37  56  85 118 154 198 247 300
#
# _framework density 20.093744999999998
#
# number of rings (size 3 to 8) (size 9 to 14) (size 15 to 20)
#    0.000    2.818    0.000    2.182    1.273    5.091 
#    0.000    3.636    0.000    1.091    0.000    2.545 
#    0.000    0.727    0.000    7.636    0.000   10.545 
#
# Total GULP energy -245626.012777 kJ/mol
# GULP energy per Si atom -5582.409381 kJ/mol
# Density = 2.004801 g / cm^3
# Si number density = 20.093745 Si / 1000 Ang^3
#
#
#
# Elastic Constant Matrix: (Units=GPa)
#
#
# Indices 1 2 3 4 5 6 
#
# 1 227.1221 125.3734 30.9264 0.0000 0.0000 0.0000
# 2 125.3734 151.1593 28.0751 0.0000 0.0000 0.0000
# 3 30.9264 28.0751 66.0509 0.0000 0.0000 0.0000
# 4 0.0000 0.0000 0.0000 4.6475 0.0000 0.0000
# 5 0.0000 0.0000 0.0000 0.0000 148.3604 0.0000
# 6 0.0000 0.0000 0.0000 0.0000 0.0000 -489.0058
#
#
#
# Elastic Compliance Matrix: (Units=1/GPa)
#
#
# Indices 1 2 3 4 5 6 
#
# 1 0.008185 -0.006598 -0.001028 0.000000 0.000000 0.000000
# 2 -0.006598 0.012501 -0.002224 0.000000 0.000000 0.000000
# 3 -0.001028 -0.002224 0.016567 0.000000 0.000000 0.000000
# 4 0.000000 0.000000 0.000000 0.215169 0.000000 0.000000
# 5 0.000000 0.000000 0.000000 0.000000 0.006740 0.000000
# 6 0.000000 0.000000 0.000000 0.000000 0.000000 -0.002045
#
#
# Mechanical properties :
#
#
# Convention : Reuss Voigt Hill
#
# Bulk Modulus (GPa) = 56.97243 90.34246 73.65744
# Shear Modulus (GPa) = 17.68863 -49.86908 -16.09023
#
# Velocity S-wave (km/s) = 2.97021 -4.98719 -2.83284
# Velocity P-wave (km/s) = 6.33859 3.44896 5.10260
#
# Compressibility (1/GPa) = 0.01755235
#
# Stress axis : x y z
#
# Youngs Moduli (GPa) = 122.17623 79.99412 60.36235
#
# Poissons Ratio (x) = 0.52778 0.06205
# Poissons Ratio (y) = 0.80609 0.13427
# Poissons Ratio (z) = 0.12559 0.17794
#
# Static dielectric constant tensor:
#      x y z
#    x 1.671000 0.000000 0.000000 
#    y 0.000000 1.692240 0.000000 
#    z 0.000000 0.000000 1.849360 
# 
# From -- ./inp_files/13677.got.cif
#   From: 2010.05.17/outbox.cif.g08.bks.cpg/sg47_7_cif.got.tgz:13677.got - 2010.06.03 20:15:42.
