data_PCOD9384537
_publ_section_title
;
Structure prediction by ZEFSAII (Michael W. Deem and Ramdas Pophale) SiO2 
 PCOD9384537
Probable space group: P M M M
;
_chemical_formula_sum "Si O2"
_cell_formula_units_Z 44
_cell_length_a 28.902336
_cell_length_b 9.707469
_cell_length_c 7.351731
_cell_angle_alpha 90.000000
_cell_angle_beta 90.000000
_cell_angle_gamma 90.000000
_cell_volume 2062.664365
_symmetry_space_group_name_H-M "P M M M"
_symmetry_group_IT_number 47
_symmetry_cell_setting 'orthorhombic'
loop_
_space_group_symop_operation_xyz
x,y,z
-x,-y,z
x,-y,-z
-x,y,-z
-x,-y,-z
x,y,-z
-x,y,z
x,-y,z
loop_
_atom_site_type_symbol
_atom_site_label
_atom_site_fract_x
_atom_site_fract_y
_atom_site_fract_z
Si Si1 0.190488 0.842017 0.778694
Si Si2 0.552502 0.655252 0.281217
Si Si3 0.000000 0.341963 0.777616
Si Si4 0.723536 0.341749 0.777430
Si Si5 0.085791 0.157884 0.778571
Si Si6 0.638950 0.155111 0.785903
O O1 0.229795 0.736452 0.720251
O O2 0.138138 0.807088 0.721643
O O3 0.200612 0.000000 0.723794
O O4 0.190634 0.841663 0.000000
O O5 0.551399 0.651613 0.500000
O O6 0.500000 0.684445 0.219355
O O7 0.565280 0.500000 0.219325
O O8 0.590101 0.767902 0.230674
O O9 0.045846 0.260624 0.718614
O O10 0.000000 0.500000 0.720060
O O11 0.000000 0.340771 0.000000
O O12 0.721499 0.500000 0.718644
O O13 0.679445 0.253571 0.713891
O O14 0.723212 0.343356 0.000000
O O15 0.076059 0.000000 0.724462
O O16 0.085705 0.159372 0.000000
O O17 0.638449 0.000000 0.710676
O O18 0.648604 0.142600 0.000000
#
# Coordination Sequence:
#
# PCOD9384537 Si02
#       6
#     8   8   4   8   8   8
#     4   8  13  21  32  45  62  86 117 154 198 248
#     4   9  19  36  55  73  94 121 152 185 222 265
#     4   9  15  19  23  33  49  69  99 145 194 235
#     4   9  16  25  38  56  78 104 133 167 209 255
#     4   8  13  20  28  36  49  74 107 143 188 242
#     4  10  20  32  47  69  96 123 151 185 223 263
#
# _framework density 21.331631999999999
#
# number of rings (size 3 to 8) (size 9 to 14) (size 15 to 20)
#    0.000    3.182    0.000    3.000    0.000    6.182 
#    0.000    6.364    0.000    0.000    0.000    0.000 
#    0.000    0.000    0.000    0.000    0.000    0.000 
#
# Total GULP energy -245653.917602 kJ/mol
# GULP energy per Si atom -5583.043582 kJ/mol
# Density = 2.128308 g / cm^3
# Si number density = 21.331632 Si / 1000 Ang^3
#
#
#
# Elastic Constant Matrix: (Units=GPa)
#
#
# Indices 1 2 3 4 5 6 
#
# 1 182.5836 164.1246 0.8074 0.0000 0.0000 0.0000
# 2 164.1246 224.3540 7.1712 0.0000 0.0000 0.0000
# 3 0.8074 7.1712 78.1258 0.0000 0.0000 0.0000
# 4 0.0000 0.0000 0.0000 -17.6928 0.0000 0.0000
# 5 0.0000 0.0000 0.0000 0.0000 97.7217 0.0000
# 6 0.0000 0.0000 0.0000 0.0000 0.0000 39.5580
#
#
#
# Elastic Compliance Matrix: (Units=1/GPa)
#
#
# Indices 1 2 3 4 5 6 
#
# 1 0.016060 -0.011778 0.000915 0.000000 0.000000 0.000000
# 2 -0.011778 0.013108 -0.001081 0.000000 0.000000 0.000000
# 3 0.000915 -0.001081 0.012890 0.000000 0.000000 0.000000
# 4 0.000000 0.000000 0.000000 -0.056520 0.000000 0.000000
# 5 0.000000 0.000000 0.000000 0.000000 0.010233 0.000000
# 6 0.000000 0.000000 0.000000 0.000000 0.000000 0.025279
#
#
# Mechanical properties :
#
#
# Convention : Reuss Voigt Hill
#
# Bulk Modulus (GPa) = 55.03833 92.14109 73.58971
# Shear Modulus (GPa) = 98.04942 44.78137 71.41539
#
# Velocity S-wave (km/s) = 6.78705 4.58678 5.79235
# Velocity P-wave (km/s) = 9.34217 8.44628 8.90550
#
# Compressibility (1/GPa) = 0.01816915
#
# Stress axis : x y z
#
# Youngs Moduli (GPa) = 62.26640 76.29033 77.58142
#
# Poissons Ratio (x) = 0.89854 -0.07100
# Poissons Ratio (y) = 0.73336 0.08390
# Poissons Ratio (z) = -0.05698 0.08250
#
# Static dielectric constant tensor:
#      x y z
#    x 1.733300 0.000000 0.000000 
#    y 0.000000 1.724940 0.000000 
#    z 0.000000 0.000000 1.882320 
# 
# From -- ./inp_files/2016.got.cif
#   From: 2010.05.17/outbox.cif.g08.bks.cpg/sg47_2_cif.got.tgz:2016.got - 2010.06.03 20:15:42.
