data_PCOD9384363
_publ_section_title
;
Structure prediction by ZEFSAII (Michael W. Deem and Ramdas Pophale) SiO2 
 PCOD9384363
Probable space group: P M M M
;
_chemical_formula_sum "Si O2"
_cell_formula_units_Z 52
_cell_length_a 14.450406
_cell_length_b 9.170679
_cell_length_c 29.351766
_cell_angle_alpha 90.000000
_cell_angle_beta 90.000000
_cell_angle_gamma 90.000000
_cell_volume 3889.697053
_symmetry_space_group_name_H-M "P M M M"
_symmetry_group_IT_number 47
_symmetry_cell_setting 'orthorhombic'
loop_
_space_group_symop_operation_xyz
x,y,z
-x,-y,z
x,-y,-z
-x,y,-z
-x,-y,-z
x,y,-z
-x,y,z
x,-y,z
loop_
_atom_site_type_symbol
_atom_site_label
_atom_site_fract_x
_atom_site_fract_y
_atom_site_fract_z
Si Si1 0.283322 0.175416 0.409018
Si Si2 0.389625 0.326331 0.326352
Si Si3 0.107357 0.673786 0.553923
Si Si4 0.612411 0.829698 0.949424
Si Si5 0.387095 0.668002 0.858424
Si Si6 0.387596 0.167240 0.232783
Si Si7 0.394452 0.823113 0.500000
O O1 0.332612 0.246673 0.365698
O O2 0.180377 0.235698 0.417053
O O3 0.340816 0.219951 0.454327
O O4 0.284060 0.000000 0.405576
O O5 0.500000 0.299406 0.332858
O O6 0.375160 0.500000 0.327368
O O7 0.362929 0.260785 0.277173
O O8 0.120713 0.705975 0.500000
O O9 0.122195 0.500000 0.559854
O O10 0.000000 0.704989 0.564731
O O11 0.500000 0.823626 0.949421
O O12 0.644239 0.737350 0.906197
O O13 0.636939 0.000000 0.943916
O O14 0.642537 0.780640 0.000000
O O15 0.500000 0.671615 0.858655
O O16 0.359422 0.500000 0.854419
O O17 0.356666 0.759640 0.814435
O O18 0.500000 0.165546 0.231371
O O19 0.356518 0.000000 0.236711
O O20 0.500000 0.770080 0.500000
O O21 0.396744 0.000000 0.500000
#
# Coordination Sequence:
#
# PCOD9384363 Si02
#       7
#     8   8   8   8   8   8   4
#     4  11  20  31  47  66  86 108 132 161 194 229
#     4  10  20  32  44  59  80 105 132 162 195 233
#     4   9  18  33  51  68  87 109 130 156 191 230
#     4   8  13  20  28  38  54  77 105 138 178 224
#     4   9  15  21  30  44  61  81 107 142 183 226
#     4   9  16  26  39  52  66  88 119 153 188 226
#     4   9  18  30  42  59  84 110 133 157 186 223
#
# _framework density 13.368651
#
# number of rings (size 3 to 8) (size 9 to 14) (size 15 to 20)
#    0.000    2.692    0.769    3.231    0.000    5.846 
#    0.000    2.308    0.000    1.846    0.000    0.000 
#    0.000    0.000    0.000    0.000    0.000    0.000 
#
# Total GULP energy -289645.972792 kJ/mol
# GULP energy per Si atom -5570.114861 kJ/mol
# Density = 1.333822 g / cm^3
# Si number density = 13.368651 Si / 1000 Ang^3
#
#
#
# Elastic Constant Matrix: (Units=GPa)
#
#
# Indices 1 2 3 4 5 6 
#
# 1 41.1057 32.8889 35.0207 0.0000 0.0000 0.0000
# 2 32.8889 82.5319 65.8054 0.0000 0.0000 0.0000
# 3 35.0207 65.8054 126.0802 0.0000 0.0000 0.0000
# 4 0.0000 0.0000 0.0000 23.4402 0.0000 0.0000
# 5 0.0000 0.0000 0.0000 0.0000 1.1021 0.0000
# 6 0.0000 0.0000 0.0000 0.0000 0.0000 13.5218
#
#
#
# Elastic Compliance Matrix: (Units=1/GPa)
#
#
# Indices 1 2 3 4 5 6 
#
# 1 0.037108 -0.011252 -0.004435 0.000000 0.000000 0.000000
# 2 -0.011252 0.024165 -0.009487 0.000000 0.000000 0.000000
# 3 -0.004435 -0.009487 0.014115 0.000000 0.000000 0.000000
# 4 0.000000 0.000000 0.000000 0.042662 0.000000 0.000000
# 5 0.000000 0.000000 0.000000 0.000000 0.907375 0.000000
# 6 0.000000 0.000000 0.000000 0.000000 0.000000 0.073955
#
#
# Mechanical properties :
#
#
# Convention : Reuss Voigt Hill
#
# Bulk Modulus (GPa) = 39.93461 57.46086 48.69773
# Shear Modulus (GPa) = 4.31752 15.34633 9.83193
#
# Velocity S-wave (km/s) = 1.79905 3.39179 2.71485
# Velocity P-wave (km/s) = 5.85253 7.64291 6.80684
#
# Compressibility (1/GPa) = 0.02504093
#
# Stress axis : x y z
#
# Youngs Moduli (GPa) = 26.94817 41.38294 70.84728
#
# Poissons Ratio (x) = 0.46562 0.31420
# Poissons Ratio (y) = 0.30321 0.67213
# Poissons Ratio (z) = 0.11951 0.39260
#
# Static dielectric constant tensor:
#      x y z
#    x 1.404960 0.000000 0.000000 
#    y 0.000000 1.445240 0.000000 
#    z 0.000000 0.000000 1.440190 
# 
# From -- ./inp_files/13426.got.cif
#   From: 2010.05.17/outbox.cif.g08.bks.cpg/sg47_7_cif.got.tgz:13426.got - 2010.06.03 20:15:42.
