data_PCOD9384429
_publ_section_title
;
Structure prediction by ZEFSAII (Michael W. Deem and Ramdas Pophale) SiO2 
 PCOD9384429
Probable space group: P M M M
;
_chemical_formula_sum "Si O2"
_cell_formula_units_Z 60
_cell_length_a 9.329563
_cell_length_b 18.547878
_cell_length_c 24.335623
_cell_angle_alpha 90.000000
_cell_angle_beta 90.000000
_cell_angle_gamma 90.000000
_cell_volume 4211.123723
_symmetry_space_group_name_H-M "P M M M"
_symmetry_group_IT_number 47
_symmetry_cell_setting 'orthorhombic'
loop_
_space_group_symop_operation_xyz
x,y,z
-x,-y,z
x,-y,-z
-x,y,-z
-x,-y,-z
x,y,-z
-x,y,z
x,-y,z
loop_
_atom_site_type_symbol
_atom_site_label
_atom_site_fract_x
_atom_site_fract_y
_atom_site_fract_z
Si Si1 0.671737 0.667141 0.778217
Si Si2 0.331059 0.915267 0.666987
Si Si3 0.172301 0.146797 0.562125
Si Si4 0.834891 0.412313 0.000000
Si Si5 0.163172 0.293931 0.611367
Si Si6 0.328204 0.582702 0.334021
Si Si7 0.329057 0.585081 0.109820
Si Si8 0.835189 0.205661 0.726729
O O1 0.500000 0.679367 0.776677
O O2 0.705854 0.614473 0.726672
O O3 0.708283 0.628891 0.835428
O O4 0.755064 0.741555 0.768713
O O5 0.500000 0.897195 0.664929
O O6 0.257545 0.896184 0.608581
O O7 0.251905 0.866259 0.712197
O O8 0.315610 0.000000 0.677813
O O9 0.201203 0.122792 0.500000
O O10 0.209248 0.231784 0.569050
O O11 0.000000 0.141063 0.572219
O O12 0.754256 0.390008 0.944421
O O13 0.831046 0.500000 0.000000
O O14 0.000000 0.389651 0.000000
O O15 0.259304 0.363516 0.621688
O O16 0.163496 0.250433 0.669285
O O17 0.000000 0.315381 0.598970
O O18 0.500000 0.584399 0.339275
O O19 0.279943 0.500000 0.338797
O O20 0.500000 0.591463 0.100690
O O21 0.298779 0.500000 0.118773
O O22 0.000000 0.191378 0.741741
#
# Coordination Sequence:
#
# PCOD9384429 Si02
#       8
#     8   8   8   4   8   8   8   8
#     4   9  16  26  41  60  82 107 136 173 212 247
#     4  10  20  32  46  65  88 111 134 161 193 232
#     4   9  18  32  48  64  82 105 133 164 197 236
#     4   9  17  27  37  51  75 109 148 189 228 259
#     4   8  15  27  41  57  76  99 128 160 195 237
#     4   9  16  25  38  57  79 101 127 162 204 246
#     4   9  16  26  40  57  79 111 150 186 219 256
#     4   9  17  29  44  61  82 108 136 164 197 241
#
# _framework density 14.247978
#
# number of rings (size 3 to 8) (size 9 to 14) (size 15 to 20)
#    0.000    3.000    0.000    2.200    0.000    8.000 
#    0.000    1.333    0.000    2.800    0.000    2.800 
#    0.000    0.000    0.000    0.600    0.000   11.600 
#
# Total GULP energy -334099.540941 kJ/mol
# GULP energy per Si atom -5568.325682 kJ/mol
# Density = 1.421555 g / cm^3
# Si number density = 14.247978 Si / 1000 Ang^3
#
#
#
# Elastic Constant Matrix: (Units=GPa)
#
#
# Indices 1 2 3 4 5 6 
#
# 1 54.8569 46.8984 27.9499 0.0000 0.0000 0.0000
# 2 46.8984 77.4653 23.5192 0.0000 0.0000 0.0000
# 3 27.9499 23.5192 45.3545 0.0000 0.0000 0.0000
# 4 0.0000 0.0000 0.0000 13.8601 0.0000 0.0000
# 5 0.0000 0.0000 0.0000 0.0000 17.2696 0.0000
# 6 0.0000 0.0000 0.0000 0.0000 0.0000 18.2848
#
#
#
# Elastic Compliance Matrix: (Units=1/GPa)
#
#
# Indices 1 2 3 4 5 6 
#
# 1 0.046415 -0.023044 -0.016654 0.000000 0.000000 0.000000
# 2 -0.023044 0.026762 0.000323 0.000000 0.000000 0.000000
# 3 -0.016654 0.000323 0.032144 0.000000 0.000000 0.000000
# 4 0.000000 0.000000 0.000000 0.072149 0.000000 0.000000
# 5 0.000000 0.000000 0.000000 0.000000 0.057905 0.000000
# 6 0.000000 0.000000 0.000000 0.000000 0.000000 0.054690
#
#
# Mechanical properties :
#
#
# Convention : Reuss Voigt Hill
#
# Bulk Modulus (GPa) = 37.63381 41.60131 39.61756
# Shear Modulus (GPa) = 13.23897 15.17020 14.20458
#
# Velocity S-wave (km/s) = 3.05156 3.26655 3.16088
# Velocity P-wave (km/s) = 6.23593 6.59459 6.41776
#
# Compressibility (1/GPa) = 0.02657185
#
# Stress axis : x y z
#
# Youngs Moduli (GPa) = 21.54457 37.36623 31.11018
#
# Poissons Ratio (x) = 0.86108 0.51810
# Poissons Ratio (y) = 0.49648 -0.01005
# Poissons Ratio (z) = 0.35880 -0.01208
#
# Static dielectric constant tensor:
#      x y z
#    x 1.480710 0.000000 0.000000 
#    y 0.000000 1.463360 0.000000 
#    z 0.000000 0.000000 1.455110 
# 
# From -- ./inp_files/27176.got.cif
#   From: 2010.05.17/outbox.cif.g08.bks.cpg/sg47_14_cif.got.tgz:27176.got - 2010.06.03 20:15:42.
