data_PCOD9384440
_publ_section_title
;
Structure prediction by ZEFSAII (Michael W. Deem and Ramdas Pophale) SiO2 
 PCOD9384440
Probable space group: P M M M
;
_chemical_formula_sum "Si O2"
_cell_formula_units_Z 44
_cell_length_a 29.817801
_cell_length_b 7.351107
_cell_length_c 9.315323
_cell_angle_alpha 90.000000
_cell_angle_beta 90.000000
_cell_angle_gamma 90.000000
_cell_volume 2041.861472
_symmetry_space_group_name_H-M "P M M M"
_symmetry_group_IT_number 47
_symmetry_cell_setting 'orthorhombic'
loop_
_space_group_symop_operation_xyz
x,y,z
-x,-y,z
x,-y,-z
-x,y,-z
-x,-y,-z
x,y,-z
-x,y,z
x,-y,z
loop_
_atom_site_type_symbol
_atom_site_label
_atom_site_fract_x
_atom_site_fract_y
_atom_site_fract_z
Si Si1 0.176325 0.716878 0.837445
Si Si2 0.548217 0.219070 0.828192
Si Si3 0.353903 0.777750 0.832707
Si Si4 0.910909 0.277725 0.334561
Si Si5 0.733152 0.217718 0.337742
Si Si6 0.000000 0.721823 0.834553
O O1 0.170427 0.500000 0.847257
O O2 0.133978 0.784446 0.746231
O O3 0.222804 0.747255 0.755710
O O4 0.177488 0.788338 0.000000
O O5 0.500000 0.286526 0.771758
O O6 0.597008 0.282100 0.776726
O O7 0.547768 0.000000 0.810757
O O8 0.548459 0.253262 0.000000
O O9 0.311775 0.714919 0.740402
O O10 0.354158 0.000000 0.831527
O O11 0.348946 0.724989 0.000000
O O12 0.911767 0.219983 0.500000
O O13 0.910725 0.500000 0.335214
O O14 0.955277 0.221274 0.248915
O O15 0.738066 0.286935 0.500000
O O16 0.728596 0.000000 0.345943
O O17 0.000000 0.500000 0.835210
O O18 0.000000 0.780176 0.000000
#
# Coordination Sequence:
#
# PCOD9384440 Si02
#       6
#     8   8   8   8   8   4
#     4  10  20  33  49  69  92 118 150 189 231 271
#     4   7   9  14  27  49  75 102 134 172 213 256
#     4   8  13  22  37  56  79 109 144 181 219 258
#     4   9  16  26  41  62  89 119 148 180 222 269
#     4  10  20  32  46  65  90 121 155 188 223 266
#     4   9  15  23  37  59  88 119 150 183 218 259
#
# _framework density 21.548964999999999
#
# number of rings (size 3 to 8) (size 9 to 14) (size 15 to 20)
#    0.000    3.182    0.000    3.545    0.000    5.455 
#    0.000    0.000    0.000    0.545    0.000    4.455 
#    0.000    5.818    0.000    8.364    0.000    9.636 
#
# Total GULP energy -245534.256737 kJ/mol
# GULP energy per Si atom -5580.324017 kJ/mol
# Density = 2.149992 g / cm^3
# Si number density = 21.548965 Si / 1000 Ang^3
#
#
#
# Elastic Constant Matrix: (Units=GPa)
#
#
# Indices 1 2 3 4 5 6 
#
# 1 275.4054 3.4328 137.6679 0.0000 0.0000 0.0000
# 2 3.4328 79.1070 6.5993 0.0000 0.0000 0.0000
# 3 137.6679 6.5993 180.0697 0.0000 0.0000 0.0000
# 4 0.0000 0.0000 0.0000 -2.5455 0.0000 0.0000
# 5 0.0000 0.0000 0.0000 0.0000 53.5740 0.0000
# 6 0.0000 0.0000 0.0000 0.0000 0.0000 9.3465
#
#
#
# Elastic Compliance Matrix: (Units=1/GPa)
#
#
# Indices 1 2 3 4 5 6 
#
# 1 0.005878 0.000120 -0.004498 0.000000 0.000000 0.000000
# 2 0.000120 0.012682 -0.000557 0.000000 0.000000 0.000000
# 3 -0.004498 -0.000557 0.009013 0.000000 0.000000 0.000000
# 4 0.000000 0.000000 0.000000 -0.392846 0.000000 0.000000
# 5 0.000000 0.000000 0.000000 0.000000 0.018666 0.000000
# 6 0.000000 0.000000 0.000000 0.000000 0.000000 0.106992
#
#
# Mechanical properties :
#
#
# Convention : Reuss Voigt Hill
#
# Bulk Modulus (GPa) = 56.48550 92.22021 74.35286
# Shear Modulus (GPa) = -22.33697 37.86714 7.76509
#
# Velocity S-wave (km/s) = -3.22307 4.19652 1.90034
# Velocity P-wave (km/s) = 3.52401 8.14675 6.27647
#
# Compressibility (1/GPa) = 0.01770366
#
# Stress axis : x y z
#
# Youngs Moduli (GPa) = 170.12181 78.84985 110.95157
#
# Poissons Ratio (x) = -0.00948 0.49910
# Poissons Ratio (y) = -0.02045 0.06176
# Poissons Ratio (z) = 0.76527 0.04389
#
# Static dielectric constant tensor:
#      x y z
#    x 1.770120 0.000000 0.000000 
#    y 0.000000 1.928370 0.000000 
#    z 0.000000 0.000000 1.786210 
# 
# From -- ./inp_files/2252.got.cif
#   From: 2010.05.17/outbox.cif.g08.bks.cpg/sg47_2_cif.got.tgz:2252.got - 2010.06.03 20:15:42.
