data_PCOD9384427
_publ_section_title
;
Structure prediction by ZEFSAII (Michael W. Deem and Ramdas Pophale) SiO2 
 PCOD9384427
Probable space group: P M M M
;
_chemical_formula_sum "Si O2"
_cell_formula_units_Z 52
_cell_length_a 18.952415
_cell_length_b 17.729337
_cell_length_c 7.604949
_cell_angle_alpha 90.000000
_cell_angle_beta 90.000000
_cell_angle_gamma 90.000000
_cell_volume 2555.367451
_symmetry_space_group_name_H-M "P M M M"
_symmetry_group_IT_number 47
_symmetry_cell_setting 'orthorhombic'
loop_
_space_group_symop_operation_xyz
x,y,z
-x,-y,z
x,-y,-z
-x,y,-z
-x,-y,-z
x,y,-z
-x,y,z
x,-y,z
loop_
_atom_site_type_symbol
_atom_site_label
_atom_site_fract_x
_atom_site_fract_y
_atom_site_fract_z
Si Si1 0.116686 0.797816 0.791128
Si Si2 0.420641 0.744187 0.788768
Si Si3 0.770401 0.418334 0.294900
Si Si4 0.269094 0.747897 0.708281
Si Si5 0.584527 0.579415 0.202075
Si Si6 0.922663 0.630150 0.786353
Si Si7 0.000000 0.086237 0.784151
O O1 0.200575 0.796303 0.760360
O O2 0.087243 0.717150 0.727403
O O3 0.069122 0.866719 0.725845
O O4 0.106234 0.796591 0.000000
O O5 0.500000 0.768516 0.729465
O O6 0.345460 0.783106 0.754436
O O7 0.404658 0.660405 0.712616
O O8 0.426051 0.737681 0.000000
O O9 0.749669 0.419416 0.500000
O O10 0.750919 0.500000 0.215665
O O11 0.742659 0.338234 0.217747
O O12 0.854835 0.412483 0.283533
O O13 0.265923 0.741024 0.500000
O O14 0.500000 0.577018 0.189556
O O15 0.605847 0.500000 0.286457
O O16 0.610842 0.580634 0.000000
O O17 0.000000 0.602741 0.733991
O O18 0.919166 0.627824 0.000000
O O19 0.000000 0.000000 0.724867
O O20 0.000000 0.084597 0.000000
#
# Coordination Sequence:
#
# PCOD9384427 Si02
#       7
#     8   8   8   8   8   8   4
#     4   9  16  30  50  71  98 129 157 185 222 272
#     4   9  17  29  45  65  87 112 148 196 246 292
#     4   9  19  33  43  54  78 113 154 200 246 288
#     4  10  20  32  46  64  88 124 164 199 239 285
#     4   7  10  18  33  53  76 101 132 176 232 290
#     4   9  16  27  44  64  85 112 148 189 233 277
#     4   9  16  28  53  87 112 129 154 188 223 261
#
# _framework density 20.349322999999998
#
# number of rings (size 3 to 8) (size 9 to 14) (size 15 to 20)
#    0.000    3.154    0.769    1.846    0.000    2.462 
#    0.000    1.923    0.000    0.923    0.000    4.308 
#    0.000    0.615    0.000    7.077    0.000    2.000 
#
# Total GULP energy -289509.556255 kJ/mol
# GULP energy per Si atom -5567.491466 kJ/mol
# Density = 2.030301 g / cm^3
# Si number density = 20.349323 Si / 1000 Ang^3
#
#
#
# Elastic Constant Matrix: (Units=GPa)
#
#
# Indices 1 2 3 4 5 6 
#
# 1 186.1601 46.8483 -5.6282 0.0000 0.0000 0.0000
# 2 46.8483 77.4808 8.4699 0.0000 0.0000 0.0000
# 3 -5.6282 8.4699 44.0976 0.0000 0.0000 0.0000
# 4 0.0000 0.0000 0.0000 5.4420 0.0000 0.0000
# 5 0.0000 0.0000 0.0000 0.0000 89.6258 0.0000
# 6 0.0000 0.0000 0.0000 0.0000 0.0000 -919.3306
#
#
#
# Elastic Compliance Matrix: (Units=1/GPa)
#
#
# Indices 1 2 3 4 5 6 
#
# 1 0.006445 -0.004072 0.001605 0.000000 0.000000 0.000000
# 2 -0.004072 0.015756 -0.003546 0.000000 0.000000 0.000000
# 3 0.001605 -0.003546 0.023563 0.000000 0.000000 0.000000
# 4 0.000000 0.000000 0.000000 0.183755 0.000000 0.000000
# 5 0.000000 0.000000 0.000000 0.000000 0.011158 0.000000
# 6 0.000000 0.000000 0.000000 0.000000 0.000000 -0.001088
#
#
# Mechanical properties :
#
#
# Convention : Reuss Voigt Hill
#
# Bulk Modulus (GPa) = 29.64113 45.23538 37.43826
# Shear Modulus (GPa) = 19.02135 -147.64932 -64.31398
#
# Velocity S-wave (km/s) = 3.06067 -8.52730 -5.62793
# Velocity P-wave (km/s) = 5.20462 8.64150 4.87788
#
# Compressibility (1/GPa) = 0.03373690
#
# Stress axis : x y z
#
# Youngs Moduli (GPa) = 155.15705 63.46618 42.43963
#
# Poissons Ratio (x) = 0.25846 -0.06811
# Poissons Ratio (y) = 0.63186 0.15050
# Poissons Ratio (z) = -0.24899 0.22506
#
# Static dielectric constant tensor:
#      x y z
#    x 1.790960 0.000000 0.000000 
#    y 0.000000 1.723490 0.000000 
#    z 0.000000 0.000000 1.776860 
# 
# From -- ./inp_files/9542.got.cif
#   From: 2010.05.17/outbox.cif.g08.bks.cpg/sg47_5_cif.got.tgz:9542.got - 2010.06.03 20:15:42.
