data_PCOD9384875
_publ_section_title
;
Structure prediction by ZEFSAII (Michael W. Deem and Ramdas Pophale) SiO2 
 PCOD9384875
Probable space group: P M M M
;
_chemical_formula_sum "Si O2"
_cell_formula_units_Z 44
_cell_length_a 7.888581
_cell_length_b 16.672070
_cell_length_c 17.264253
_cell_angle_alpha 90.000000
_cell_angle_beta 90.000000
_cell_angle_gamma 90.000000
_cell_volume 2270.576852
_symmetry_space_group_name_H-M "P M M M"
_symmetry_group_IT_number 47
_symmetry_cell_setting 'orthorhombic'
loop_
_space_group_symop_operation_xyz
x,y,z
-x,-y,z
x,-y,-z
-x,y,-z
-x,-y,-z
x,y,-z
-x,y,z
x,-y,z
loop_
_atom_site_type_symbol
_atom_site_label
_atom_site_fract_x
_atom_site_fract_y
_atom_site_fract_z
Si Si1 0.206167 0.289115 0.127559
Si Si2 0.296359 0.589371 0.588987
Si Si3 0.704303 0.912691 0.259072
Si Si4 0.207020 0.588718 0.000000
Si Si5 0.300835 0.114779 0.084182
Si Si6 0.798650 0.263634 0.300789
O O1 0.279706 0.210103 0.088269
O O2 0.264878 0.290941 0.216022
O O3 0.000000 0.282637 0.126332
O O4 0.257523 0.364124 0.076650
O O5 0.236529 0.597767 0.500000
O O6 0.500000 0.585819 0.587482
O O7 0.237679 0.500000 0.617327
O O8 0.253544 0.668928 0.637562
O O9 0.500000 0.911788 0.255008
O O10 0.768293 0.909740 0.169107
O O11 0.751385 0.831194 0.304477
O O12 0.756875 0.000000 0.291428
O O13 0.272828 0.500000 0.000000
O O14 0.000000 0.587204 0.000000
O O15 0.500000 0.093482 0.084047
O O16 0.230196 0.088714 0.000000
O O17 0.000000 0.265057 0.299526
#
# Coordination Sequence:
#
# PCOD9384875 Si02
#       6
#     8   8   8   4   8   8
#     4   9  17  29  44  62  88 127 170 207 245 300
#     4   9  19  37  60  84 109 137 168 202 246 307
#     4   9  18  32  49  70  99 138 181 220 260 311
#     4   9  16  26  41  59  82 119 166 210 245 283
#     4   9  16  26  43  65  89 120 161 216 269 305
#     4  10  20  32  51  79 107 137 171 213 263 310
#
# _framework density 19.378333999999999
#
# number of rings (size 3 to 8) (size 9 to 14) (size 15 to 20)
#    0.000    2.818    0.909    1.091    0.000    2.909 
#    0.000    4.545    0.000    1.636    0.000    8.909 
#    0.000    0.000    0.000    0.000    0.000    0.000 
#
# Total GULP energy -244944.476622 kJ/mol
# GULP energy per Si atom -5566.919923 kJ/mol
# Density = 1.933423 g / cm^3
# Si number density = 19.378334 Si / 1000 Ang^3
#
#
#
# Elastic Constant Matrix: (Units=GPa)
#
#
# Indices 1 2 3 4 5 6 
#
# 1 23.7573 16.5027 10.5622 0.0000 0.0000 0.0000
# 2 16.5027 216.9070 79.5885 0.0000 0.0000 0.0000
# 3 10.5622 79.5885 81.5994 0.0000 0.0000 0.0000
# 4 0.0000 0.0000 0.0000 20.0350 0.0000 0.0000
# 5 0.0000 0.0000 0.0000 0.0000 11.1691 0.0000
# 6 0.0000 0.0000 0.0000 0.0000 0.0000 277.1101
#
#
#
# Elastic Compliance Matrix: (Units=1/GPa)
#
#
# Indices 1 2 3 4 5 6 
#
# 1 0.045220 -0.002013 -0.003890 0.000000 0.000000 0.000000
# 2 -0.002013 0.007269 -0.006830 0.000000 0.000000 0.000000
# 3 -0.003890 -0.006830 0.019420 0.000000 0.000000 0.000000
# 4 0.000000 0.000000 0.000000 0.049913 0.000000 0.000000
# 5 0.000000 0.000000 0.000000 0.000000 0.089533 0.000000
# 6 0.000000 0.000000 0.000000 0.000000 0.000000 0.003609
#
#
# Mechanical properties :
#
#
# Convention : Reuss Voigt Hill
#
# Bulk Modulus (GPa) = 21.53117 59.50782 40.51949
# Shear Modulus (GPa) = 19.53812 76.03686 47.78749
#
# Velocity S-wave (km/s) = 3.17873 6.27083 4.97130
# Velocity P-wave (km/s) = 4.96060 9.12174 7.34213
#
# Compressibility (1/GPa) = 0.04644430
#
# Stress axis : x y z
#
# Youngs Moduli (GPa) = 22.11403 137.56251 51.49371
#
# Poissons Ratio (x) = 0.27695 0.20029
# Poissons Ratio (y) = 0.04452 0.35169
# Poissons Ratio (z) = 0.08602 0.93951
#
# Static dielectric constant tensor:
#      x y z
#    x 1.694800 0.000000 0.000000 
#    y 0.000000 1.710590 0.000000 
#    z 0.000000 0.000000 1.688950 
# 
# From -- ./inp_files/24292.got.cif
#   From: 2010.05.17/outbox.cif.g08.bks.cpg/sg47_13_cif.got.tgz:24292.got - 2010.06.03 20:15:42.
