data_PCOD9384532
_publ_section_title
;
Structure prediction by ZEFSAII (Michael W. Deem and Ramdas Pophale) SiO2 
 PCOD9384532
Probable space group: P M M M
;
_chemical_formula_sum "Si O2"
_cell_formula_units_Z 40
_cell_length_a 7.383991
_cell_length_b 27.005347
_cell_length_c 9.546024
_cell_angle_alpha 90.000000
_cell_angle_beta 90.000000
_cell_angle_gamma 90.000000
_cell_volume 1903.546291
_symmetry_space_group_name_H-M "P M M M"
_symmetry_group_IT_number 47
_symmetry_cell_setting 'orthorhombic'
loop_
_space_group_symop_operation_xyz
x,y,z
-x,-y,z
x,-y,-z
-x,y,-z
-x,-y,-z
x,y,-z
-x,y,z
x,-y,z
loop_
_atom_site_type_symbol
_atom_site_label
_atom_site_fract_x
_atom_site_fract_y
_atom_site_fract_z
Si Si1 0.778934 0.661445 0.162971
Si Si2 0.786264 0.849220 0.157355
Si Si3 0.717839 0.055751 0.658847
Si Si4 0.217776 0.553227 0.167917
Si Si5 0.221605 0.243258 0.660933
O O1 0.718271 0.607174 0.216452
O O2 0.721670 0.707229 0.257644
O O3 0.000000 0.660880 0.162896
O O4 0.725132 0.667793 0.000000
O O5 0.767696 0.901839 0.233104
O O6 0.715098 0.805189 0.255103
O O7 0.000000 0.839554 0.145409
O O8 0.711070 0.849364 0.000000
O O9 0.780002 0.067356 0.500000
O O10 0.500000 0.054416 0.654996
O O11 0.779724 0.000000 0.694635
O O12 0.286123 0.500000 0.222332
O O13 0.000000 0.552730 0.187136
O O14 0.249173 0.553434 0.000000
O O15 0.279835 0.242463 0.500000
O O16 0.000000 0.243070 0.660010
#
# Coordination Sequence:
#
# PCOD9384532 Si02
#       5
#     8   8   8   8   8
#     4   8  12  18  29  44  63  89 123 165 210 253
#     4  10  20  32  47  69  95 120 149 187 226 262
#     4   9  19  36  55  73  94 121 151 180 213 259
#     4   7   9  13  22  37  56  80 115 159 203 246
#     4   9  16  25  37  53  75 104 137 173 215 262
#
# _framework density 21.01341
#
# number of rings (size 3 to 8) (size 9 to 14) (size 15 to 20)
#    0.000    3.400    0.000    3.600    0.000    4.800 
#    0.000    3.000    0.000    0.600    0.000    4.200 
#    0.000    0.000    0.000    0.000    0.000    1.000 
#
# Total GULP energy -223021.018912 kJ/mol
# GULP energy per Si atom -5575.525473 kJ/mol
# Density = 2.096558 g / cm^3
# Si number density = 21.013410 Si / 1000 Ang^3
#
#
#
# Elastic Constant Matrix: (Units=GPa)
#
#
# Indices 1 2 3 4 5 6 
#
# 1 69.2615 1.4248 5.6497 0.0000 0.0000 0.0000
# 2 1.4248 222.1191 132.7391 0.0000 0.0000 0.0000
# 3 5.6497 132.7391 148.4670 0.0000 0.0000 0.0000
# 4 0.0000 0.0000 0.0000 66.6430 0.0000 0.0000
# 5 0.0000 0.0000 0.0000 0.0000 -34.7721 0.0000
# 6 0.0000 0.0000 0.0000 0.0000 0.0000 135.0960
#
#
#
# Elastic Compliance Matrix: (Units=1/GPa)
#
#
# Indices 1 2 3 4 5 6 
#
# 1 0.014510 0.000509 -0.001007 0.000000 0.000000 0.000000
# 2 0.000509 0.009685 -0.008678 0.000000 0.000000 0.000000
# 3 -0.001007 -0.008678 0.014533 0.000000 0.000000 0.000000
# 4 0.000000 0.000000 0.000000 0.015005 0.000000 0.000000
# 5 0.000000 0.000000 0.000000 0.000000 -0.028759 0.000000
# 6 0.000000 0.000000 0.000000 0.000000 0.000000 0.007402
#
#
# Mechanical properties :
#
#
# Convention : Reuss Voigt Hill
#
# Bulk Modulus (GPa) = 49.08144 79.94163 64.51154
# Shear Modulus (GPa) = 86.92422 53.39565 70.15994
#
# Velocity S-wave (km/s) = 6.43862 5.04633 5.78452
# Velocity P-wave (km/s) = 8.87031 8.48997 8.68222
#
# Compressibility (1/GPa) = 0.02037430
#
# Stress axis : x y z
#
# Youngs Moduli (GPa) = 68.91934 103.25143 68.80932
#
# Poissons Ratio (x) = -0.05252 0.06929
# Poissons Ratio (y) = -0.03506 0.59716
# Poissons Ratio (z) = 0.06940 0.89606
#
# Static dielectric constant tensor:
#      x y z
#    x 1.834000 0.000000 0.000000 
#    y 0.000000 1.765870 0.000000 
#    z 0.000000 0.000000 1.707250 
# 
# From -- ./inp_files/1651.got.cif
#   From: 2010.05.17/outbox.cif.g08.bks.cpg/sg47_1_cif.got.tgz:1651.got - 2010.06.03 20:15:42.
