data_PCOD9384778
_publ_section_title
;
Structure prediction by ZEFSAII (Michael W. Deem and Ramdas Pophale) SiO2 
 PCOD9384778
Probable space group: P M M M
;
_chemical_formula_sum "Si O2"
_cell_formula_units_Z 64
_cell_length_a 24.703858
_cell_length_b 14.048928
_cell_length_c 9.840325
_cell_angle_alpha 90.000000
_cell_angle_beta 90.000000
_cell_angle_gamma 90.000000
_cell_volume 3415.209983
_symmetry_space_group_name_H-M "P M M M"
_symmetry_group_IT_number 47
_symmetry_cell_setting 'orthorhombic'
loop_
_space_group_symop_operation_xyz
x,y,z
-x,-y,z
x,-y,-z
-x,y,-z
-x,-y,-z
x,y,-z
-x,y,z
x,-y,z
loop_
_atom_site_type_symbol
_atom_site_label
_atom_site_fract_x
_atom_site_fract_y
_atom_site_fract_z
Si Si1 0.438945 0.884136 0.157083
Si Si2 0.065466 0.898761 0.839645
Si Si3 0.738700 0.714471 0.339045
Si Si4 0.664217 0.110945 0.339181
Si Si5 0.845599 0.607180 0.658784
Si Si6 0.653378 0.614371 0.152478
Si Si7 0.064090 0.312320 0.836378
Si Si8 0.437846 0.615773 0.351402
O O1 0.500000 0.853897 0.199064
O O2 0.388660 0.858739 0.253517
O O3 0.439803 0.000000 0.157932
O O4 0.430414 0.854717 0.000000
O O5 0.080771 0.794731 0.788438
O O6 0.000000 0.899688 0.832325
O O7 0.084939 0.000000 0.780203
O O8 0.078965 0.899378 0.000000
O O9 0.731438 0.695457 0.500000
O O10 0.715275 0.820120 0.312381
O O11 0.800325 0.686161 0.307669
O O12 0.701367 0.647174 0.248767
O O13 0.651859 0.117630 0.500000
O O14 0.676016 0.000000 0.308430
O O15 0.860668 0.618274 0.500000
O O16 0.822513 0.500000 0.674110
O O17 0.897198 0.618265 0.754931
O O18 0.652729 0.500000 0.146699
O O19 0.598326 0.645917 0.226051
O O20 0.658625 0.651632 0.000000
O O21 0.000000 0.325987 0.810434
O O22 0.071156 0.318641 0.000000
O O23 0.416713 0.647188 0.500000
O O24 0.500000 0.644601 0.339454
O O25 0.437162 0.500000 0.353009
#
# Coordination Sequence:
#
# PCOD9384778 Si02
#       8
#     8   8   8   8   8   8   8   8
#     4   8  14  26  46  73 105 140 174 208 254 313
#     4   7  10  20  42  72 105 140 174 204 236 281
#     4  10  21  38  57  74  97 133 174 212 253 308
#     4   9  18  33  54  79 104 132 171 220 269 313
#     4  10  22  39  57  77 103 138 178 218 262 314
#     4  10  20  32  49  75 102 127 161 210 262 303
#     4   9  18  33  55  84 114 142 174 214 261 312
#     4   8  14  26  45  68  95 130 169 205 246 301
#
# _framework density 18.739698000000001
#
# number of rings (size 3 to 8) (size 9 to 14) (size 15 to 20)
#    0.000    3.125    0.000    2.625    0.000    3.500 
#    0.000    5.000    0.000    1.875    0.000    1.750 
#    0.000    0.000    0.000    0.000    0.000    0.000 
#
# Total GULP energy -356429.538548 kJ/mol
# GULP energy per Si atom -5569.211540 kJ/mol
# Density = 1.869705 g / cm^3
# Si number density = 18.739698 Si / 1000 Ang^3
#
#
#
# Elastic Constant Matrix: (Units=GPa)
#
#
# Indices 1 2 3 4 5 6 
#
# 1 97.0328 36.2680 52.8713 0.0000 0.0000 0.0000
# 2 36.2680 81.3491 28.6666 0.0000 0.0000 0.0000
# 3 52.8713 28.6666 52.0967 0.0000 0.0000 0.0000
# 4 0.0000 0.0000 0.0000 15.0491 0.0000 0.0000
# 5 0.0000 0.0000 0.0000 0.0000 44.0996 0.0000
# 6 0.0000 0.0000 0.0000 0.0000 0.0000 44.2586
#
#
#
# Elastic Compliance Matrix: (Units=1/GPa)
#
#
# Indices 1 2 3 4 5 6 
#
# 1 0.023480 -0.002569 -0.022415 0.000000 0.000000 0.000000
# 2 -0.002569 0.015531 -0.005939 0.000000 0.000000 0.000000
# 3 -0.022415 -0.005939 0.045211 0.000000 0.000000 0.000000
# 4 0.000000 0.000000 0.000000 0.066449 0.000000 0.000000
# 5 0.000000 0.000000 0.000000 0.000000 0.022676 0.000000
# 6 0.000000 0.000000 0.000000 0.000000 0.000000 0.022594
#
#
# Mechanical properties :
#
#
# Convention : Reuss Voigt Hill
#
# Bulk Modulus (GPa) = 44.69074 51.78783 48.23929
# Shear Modulus (GPa) = 18.85046 28.19295 23.52171
#
# Velocity S-wave (km/s) = 3.17505 3.88293 3.54670
# Velocity P-wave (km/s) = 6.11074 6.91363 6.52455
#
# Compressibility (1/GPa) = 0.02237600
#
# Stress axis : x y z
#
# Youngs Moduli (GPa) = 42.59022 64.38815 22.11843
#
# Poissons Ratio (x) = 0.16542 0.49579
# Poissons Ratio (y) = 0.10942 0.13135
# Poissons Ratio (z) = 0.95466 0.38238
#
# Static dielectric constant tensor:
#      x y z
#    x 1.624380 0.000000 0.000000 
#    y 0.000000 1.730870 0.000000 
#    z 0.000000 0.000000 1.630800 
# 
# From -- ./inp_files/12701.got.cif
#   From: 2010.05.17/outbox.cif.g08.bks.cpg/sg47_7_cif.got.tgz:12701.got - 2010.06.03 20:15:42.
