data_PCOD9384881
_publ_section_title
;
Structure prediction by ZEFSAII (Michael W. Deem and Ramdas Pophale) SiO2 
 PCOD9384881
Probable space group: P M M M
;
_chemical_formula_sum "Si O2"
_cell_formula_units_Z 52
_cell_length_a 21.241421
_cell_length_b 8.048813
_cell_length_c 16.217781
_cell_angle_alpha 90.000000
_cell_angle_beta 90.000000
_cell_angle_gamma 90.000000
_cell_volume 2772.725239
_symmetry_space_group_name_H-M "P M M M"
_symmetry_group_IT_number 47
_symmetry_cell_setting 'orthorhombic'
loop_
_space_group_symop_operation_xyz
x,y,z
-x,-y,z
x,-y,-z
-x,y,-z
-x,-y,-z
x,y,-z
-x,y,z
x,-y,z
loop_
_atom_site_type_symbol
_atom_site_label
_atom_site_fract_x
_atom_site_fract_y
_atom_site_fract_z
Si Si1 0.293955 0.298204 0.090417
Si Si2 0.931665 0.198726 0.598408
Si Si3 0.428237 0.800587 0.407944
Si Si4 0.806530 0.812052 0.677599
Si Si5 0.155488 0.184055 0.132173
Si Si6 0.671267 0.305140 0.272005
Si Si7 0.069819 0.500000 0.901902
O O1 0.291279 0.500000 0.093822
O O2 0.222596 0.231418 0.092884
O O3 0.325288 0.238808 0.176932
O O4 0.321495 0.253012 0.000000
O O5 0.932084 0.213796 0.500000
O O6 0.865499 0.268652 0.630412
O O7 0.000000 0.262825 0.629078
O O8 0.930486 0.000000 0.618211
O O9 0.407766 0.741906 0.500000
O O10 0.500000 0.740675 0.394408
O O11 0.382338 0.758665 0.333057
O O12 0.430480 0.000000 0.411843
O O13 0.830755 0.823598 0.770869
O O14 0.738946 0.726640 0.684974
O O15 0.795857 0.000000 0.644977
O O16 0.107331 0.333063 0.119388
O O17 0.134782 0.000000 0.104581
O O18 0.661779 0.500000 0.263876
O O19 0.000000 0.500000 0.864984
O O20 0.065040 0.500000 0.000000
#
# Coordination Sequence:
#
# PCOD9384881 Si02
#       7
#     8   8   8   8   8   8   4
#     4   9  17  32  54  77 106 143 177 216 271 329
#     4   8  14  26  45  68  93 124 166 214 262 315
#     4   9  19  37  59  80 106 145 187 222 263 319
#     4   9  18  31  50  75 103 133 169 217 267 317
#     4  10  20  34  53  75  99 131 174 221 272 332
#     4  10  20  32  51  81 113 138 172 223 270 319
#     4  11  24  38  50  68  97 131 168 217 275 331
#
# _framework density 18.754111000000002
#
# number of rings (size 3 to 8) (size 9 to 14) (size 15 to 20)
#    0.000    2.692    0.769    1.846    1.077    4.000 
#    0.000    4.615    0.000    0.462    0.000    4.308 
#    0.000    0.000    0.000    0.000    0.000    0.000 
#
# Total GULP energy -289489.718797 kJ/mol
# GULP energy per Si atom -5567.109977 kJ/mol
# Density = 1.871143 g / cm^3
# Si number density = 18.754111 Si / 1000 Ang^3
#
#
#
# Elastic Constant Matrix: (Units=GPa)
#
#
# Indices 1 2 3 4 5 6 
#
# 1 105.7044 30.0063 79.9149 0.0000 0.0000 0.0000
# 2 30.0063 57.0335 20.1369 0.0000 0.0000 0.0000
# 3 79.9149 20.1369 104.3344 0.0000 0.0000 0.0000
# 4 0.0000 0.0000 0.0000 17.8703 0.0000 0.0000
# 5 0.0000 0.0000 0.0000 0.0000 17.5819 0.0000
# 6 0.0000 0.0000 0.0000 0.0000 0.0000 27.1196
#
#
#
# Elastic Compliance Matrix: (Units=1/GPa)
#
#
# Indices 1 2 3 4 5 6 
#
# 1 0.024696 -0.006776 -0.017608 0.000000 0.000000 0.000000
# 2 -0.006776 0.020675 0.001200 0.000000 0.000000 0.000000
# 3 -0.017608 0.001200 0.022840 0.000000 0.000000 0.000000
# 4 0.000000 0.000000 0.000000 0.055959 0.000000 0.000000
# 5 0.000000 0.000000 0.000000 0.000000 0.056877 0.000000
# 6 0.000000 0.000000 0.000000 0.000000 0.000000 0.036874
#
#
# Mechanical properties :
#
#
# Convention : Reuss Voigt Hill
#
# Bulk Modulus (GPa) = 45.78304 58.57649 52.17976
# Shear Modulus (GPa) = 18.41150 21.64864 20.03007
#
# Velocity S-wave (km/s) = 3.13666 3.40125 3.27163
# Velocity P-wave (km/s) = 6.13053 6.83567 6.49268
#
# Compressibility (1/GPa) = 0.02184215
#
# Stress axis : x y z
#
# Youngs Moduli (GPa) = 40.49244 48.36765 43.78304
#
# Poissons Ratio (x) = 0.32774 0.77093
# Poissons Ratio (y) = 0.27438 -0.05253
# Poissons Ratio (z) = 0.71299 -0.05803
#
# Static dielectric constant tensor:
#      x y z
#    x 1.661180 0.000000 0.000000 
#    y 0.000000 1.759170 0.000000 
#    z 0.000000 0.000000 1.691760 
# 
# From -- ./inp_files/28500.got.cif
#   From: 2010.05.17/outbox.cif.g08.bks.cpg/sg47_15_cif.got.tgz:28500.got - 2010.06.03 20:15:42.
