data_PCOD9384407
_publ_section_title
;
Structure prediction by ZEFSAII (Michael W. Deem and Ramdas Pophale) SiO2 
 PCOD9384407
Probable space group: P M M M
;
_chemical_formula_sum "Si O2"
_cell_formula_units_Z 52
_cell_length_a 9.161129
_cell_length_b 27.747464
_cell_length_c 12.948514
_cell_angle_alpha 90.000000
_cell_angle_beta 90.000000
_cell_angle_gamma 90.000000
_cell_volume 3291.487619
_symmetry_space_group_name_H-M "P M M M"
_symmetry_group_IT_number 47
_symmetry_cell_setting 'orthorhombic'
loop_
_space_group_symop_operation_xyz
x,y,z
-x,-y,z
x,-y,-z
-x,y,-z
-x,-y,-z
x,y,-z
-x,y,z
x,-y,z
loop_
_atom_site_type_symbol
_atom_site_label
_atom_site_fract_x
_atom_site_fract_y
_atom_site_fract_z
Si Si1 0.825926 0.943692 0.620398
Si Si2 0.830916 0.500000 0.626017
Si Si3 0.673813 0.235277 0.787151
Si Si4 0.672520 0.120291 0.209878
Si Si5 0.332140 0.402829 0.374652
Si Si6 0.168711 0.236423 0.000000
Si Si7 0.832770 0.119315 0.000000
Si Si8 0.825612 0.696984 0.377474
O O1 0.792915 0.934272 0.500000
O O2 0.739131 0.909049 0.695654
O O3 0.000000 0.937048 0.634479
O O4 0.793350 0.000000 0.640935
O O5 0.829840 0.500000 0.500000
O O6 0.747608 0.451678 0.659870
O O7 0.000000 0.500000 0.657789
O O8 0.500000 0.243992 0.789256
O O9 0.697030 0.177696 0.776391
O O10 0.749172 0.263216 0.693300
O O11 0.747337 0.250750 0.895601
O O12 0.500000 0.112646 0.201531
O O13 0.750496 0.104588 0.103938
O O14 0.335220 0.404666 0.500000
O O15 0.500000 0.400254 0.339276
O O16 0.242078 0.354944 0.348386
O O17 0.167683 0.177871 0.000000
O O18 0.000000 0.252485 0.000000
O O19 0.000000 0.102951 0.000000
O O20 0.797206 0.704837 0.500000
O O21 0.000000 0.697044 0.362753
#
# Coordination Sequence:
#
# PCOD9384407 Si02
#       8
#     8   4   8   8   8   4   4   8
#     4   9  19  36  55  73  95 125 160 196 233 275
#     4   9  15  23  37  57  81 112 153 196 233 275
#     4  10  20  33  49  70  97 127 157 191 234 283
#     4  10  20  33  51  75 100 124 153 192 236 281
#     4   9  16  26  40  58  83 117 155 194 237 283
#     4   9  17  31  51  72  92 118 156 197 234 273
#     4   9  17  31  52  74  97 125 154 187 230 279
#     4  10  20  32  45  64  93 128 163 198 237 280
#
# _framework density 15.798327
#
# number of rings (size 3 to 8) (size 9 to 14) (size 15 to 20)
#    0.000    2.538    0.000    3.000    0.000    8.615 
#    0.000    4.231    0.000    2.308    0.000    0.000 
#    0.000    0.615    0.000    6.154    0.000    5.538 
#
# Total GULP energy -289923.020748 kJ/mol
# GULP energy per Si atom -5575.442707 kJ/mol
# Density = 1.576237 g / cm^3
# Si number density = 15.798327 Si / 1000 Ang^3
#
#
#
# Elastic Constant Matrix: (Units=GPa)
#
#
# Indices 1 2 3 4 5 6 
#
# 1 134.9408 76.3655 81.0516 0.0000 0.0000 0.0000
# 2 76.3655 71.4956 66.9461 0.0000 0.0000 0.0000
# 3 81.0516 66.9461 92.6523 0.0000 0.0000 0.0000
# 4 0.0000 0.0000 0.0000 -5.1322 0.0000 0.0000
# 5 0.0000 0.0000 0.0000 0.0000 19.7808 0.0000
# 6 0.0000 0.0000 0.0000 0.0000 0.0000 29.3859
#
#
#
# Elastic Compliance Matrix: (Units=1/GPa)
#
#
# Indices 1 2 3 4 5 6 
#
# 1 0.019868 -0.015295 -0.006329 0.000000 0.000000 0.000000
# 2 -0.015295 0.055021 -0.026375 0.000000 0.000000 0.000000
# 3 -0.006329 -0.026375 0.035387 0.000000 0.000000 0.000000
# 4 0.000000 0.000000 0.000000 -0.194847 0.000000 0.000000
# 5 0.000000 0.000000 0.000000 0.000000 0.050554 0.000000
# 6 0.000000 0.000000 0.000000 0.000000 0.000000 0.034030
#
#
# Mechanical properties :
#
#
# Convention : Reuss Voigt Hill
#
# Bulk Modulus (GPa) = 70.04173 83.09054 76.56614
# Shear Modulus (GPa) = 49.61836 13.78860 31.70348
#
# Velocity S-wave (km/s) = 5.61031 2.95750 4.48455
# Velocity P-wave (km/s) = 9.29508 8.02316 8.68244
#
# Compressibility (1/GPa) = 0.01427720
#
# Stress axis : x y z
#
# Youngs Moduli (GPa) = 50.33306 18.17501 28.25909
#
# Poissons Ratio (x) = 0.27799 0.17884
# Poissons Ratio (y) = 0.76984 0.74534
# Poissons Ratio (z) = 0.31854 0.47937
#
# Static dielectric constant tensor:
#      x y z
#    x 1.526920 0.000000 0.000000 
#    y 0.000000 1.514120 0.000000 
#    z 0.000000 0.000000 1.501680 
# 
# From -- ./inp_files/14150.got.cif
#   From: 2010.05.17/outbox.cif.g08.bks.cpg/sg47_8_cif.got.tgz:14150.got - 2010.06.03 20:15:42.
