data_PCOD9384917
_publ_section_title
;
Structure prediction by ZEFSAII (Michael W. Deem and Ramdas Pophale) SiO2 
 PCOD9384917
Probable space group: P M M M
;
_chemical_formula_sum "Si O2"
_cell_formula_units_Z 40
_cell_length_a 30.357400
_cell_length_b 7.337936
_cell_length_c 8.053527
_cell_angle_alpha 90.000000
_cell_angle_beta 90.000000
_cell_angle_gamma 90.000000
_cell_volume 1794.008976
_symmetry_space_group_name_H-M "P M M M"
_symmetry_group_IT_number 47
_symmetry_cell_setting 'orthorhombic'
loop_
_space_group_symop_operation_xyz
x,y,z
-x,-y,z
x,-y,-z
-x,y,-z
-x,-y,-z
x,y,-z
-x,y,z
x,-y,z
loop_
_atom_site_type_symbol
_atom_site_label
_atom_site_fract_x
_atom_site_fract_y
_atom_site_fract_z
Si Si1 0.108275 0.722436 0.500000
Si Si2 0.452625 0.218318 0.700606
Si Si3 0.357182 0.779899 0.307097
Si Si4 0.790083 0.723435 0.500000
Si Si5 0.738475 0.286746 0.179227
Si Si6 0.949193 0.278195 0.187143
O O1 0.107609 0.500000 0.500000
O O2 0.159082 0.777441 0.500000
O O3 0.082527 0.781888 0.334627
O O4 0.452065 0.244481 0.500000
O O5 0.500000 0.288809 0.762139
O O6 0.404842 0.284329 0.759284
O O7 0.453243 0.000000 0.728314
O O8 0.352459 0.721752 0.500000
O O9 0.313791 0.725146 0.210135
O O10 0.358535 0.000000 0.307389
O O11 0.788605 0.500000 0.500000
O O12 0.764277 0.788176 0.662988
O O13 0.749841 0.500000 0.173328
O O14 0.749375 0.206760 0.000000
O O15 0.948695 0.500000 0.187808
O O16 0.000000 0.224264 0.217027
O O17 0.936695 0.221471 0.000000
#
# Coordination Sequence:
#
# PCOD9384917 Si02
#       6
#     4   8   8   4   8   8
#     4   9  15  22  35  51  69  98 137 180 222 259
#     4   7  10  18  35  62  92 115 136 168 213 263
#     4   9  16  27  47  72  93 115 146 184 224 268
#     4   9  18  31  43  58  80 108 148 195 232 265
#     4  10  20  33  48  64  86 119 154 188 230 273
#     4   8  13  20  30  47  72 100 131 170 215 260
#
# _framework density 22.296431999999999
#
# number of rings (size 3 to 8) (size 9 to 14) (size 15 to 20)
#    0.000    3.400    1.000    2.700    0.000    2.400 
#    0.000    4.000    0.000    1.200    0.000    7.000 
#    0.000    0.000    0.000    0.000    0.000    8.000 
#
# Total GULP energy -223145.833028 kJ/mol
# GULP energy per Si atom -5578.645826 kJ/mol
# Density = 2.224568 g / cm^3
# Si number density = 22.296432 Si / 1000 Ang^3
#
#
#
# Elastic Constant Matrix: (Units=GPa)
#
#
# Indices 1 2 3 4 5 6 
#
# 1 183.4533 -0.2330 124.0449 0.0000 0.0000 0.0000
# 2 -0.2330 83.8367 9.3197 0.0000 0.0000 0.0000
# 3 124.0449 9.3197 170.8410 0.0000 0.0000 0.0000
# 4 0.0000 0.0000 0.0000 -5.5160 0.0000 0.0000
# 5 0.0000 0.0000 0.0000 0.0000 -21.4354 0.0000
# 6 0.0000 0.0000 0.0000 0.0000 0.0000 3.4053
#
#
#
# Elastic Compliance Matrix: (Units=1/GPa)
#
#
# Indices 1 2 3 4 5 6 
#
# 1 0.010776 0.000905 -0.007874 0.000000 0.000000 0.000000
# 2 0.000905 0.012077 -0.001316 0.000000 0.000000 0.000000
# 3 -0.007874 -0.001316 0.011642 0.000000 0.000000 0.000000
# 4 0.000000 0.000000 0.000000 -0.181292 0.000000 0.000000
# 5 0.000000 0.000000 0.000000 0.000000 -0.046652 0.000000
# 6 0.000000 0.000000 0.000000 0.000000 0.000000 0.293657
#
#
# Mechanical properties :
#
#
# Convention : Reuss Voigt Hill
#
# Bulk Modulus (GPa) = 55.78531 78.26603 67.02567
# Shear Modulus (GPa) = 40.73230 15.62408 28.17819
#
# Velocity S-wave (km/s) = 4.27881 2.65003 3.55885
# Velocity P-wave (km/s) = 7.03456 6.67400 6.85665
#
# Compressibility (1/GPa) = 0.01792587
#
# Stress axis : x y z
#
# Youngs Moduli (GPa) = 92.79829 82.80363 85.89474
#
# Poissons Ratio (x) = -0.07496 0.67631
# Poissons Ratio (y) = -0.08400 0.11304
# Poissons Ratio (z) = 0.73067 0.10898
#
# Static dielectric constant tensor:
#      x y z
#    x 1.792700 0.000000 0.000000 
#    y 0.000000 1.943100 0.000000 
#    z 0.000000 0.000000 1.811280 
# 
# From -- ./inp_files/13155.got.cif
#   From: 2010.05.17/outbox.cif.g08.bks.cpg/sg47_7_cif.got.tgz:13155.got - 2010.06.03 20:15:42.
