data_PCOD9384687
_publ_section_title
;
Structure prediction by ZEFSAII (Michael W. Deem and Ramdas Pophale) SiO2 
 PCOD9384687
Probable space group: P M M M
;
_chemical_formula_sum "Si O2"
_cell_formula_units_Z 44
_cell_length_a 9.137706
_cell_length_b 9.352955
_cell_length_c 29.687377
_cell_angle_alpha 90.000000
_cell_angle_beta 90.000000
_cell_angle_gamma 90.000000
_cell_volume 2537.218406
_symmetry_space_group_name_H-M "P M M M"
_symmetry_group_IT_number 47
_symmetry_cell_setting 'orthorhombic'
loop_
_space_group_symop_operation_xyz
x,y,z
-x,-y,z
x,-y,-z
-x,y,-z
-x,-y,-z
x,y,-z
-x,y,z
x,-y,z
loop_
_atom_site_type_symbol
_atom_site_label
_atom_site_fract_x
_atom_site_fract_y
_atom_site_fract_z
Si Si1 0.323544 0.832530 0.221465
Si Si2 0.321659 0.665250 0.689134
Si Si3 0.331003 0.325679 0.590101
Si Si4 0.177917 0.165663 0.050344
Si Si5 0.168029 0.325495 0.500000
Si Si6 0.176718 0.332769 0.139134
O O1 0.500000 0.818327 0.218099
O O2 0.277569 0.761449 0.268826
O O3 0.249151 0.750946 0.180248
O O4 0.287407 0.000000 0.220443
O O5 0.500000 0.665105 0.687308
O O6 0.276361 0.500000 0.695997
O O7 0.273003 0.716425 0.639527
O O8 0.500000 0.281509 0.585928
O O9 0.329435 0.500000 0.590694
O O10 0.244827 0.277649 0.546063
O O11 0.225159 0.263787 0.091642
O O12 0.000000 0.168669 0.049934
O O13 0.220549 0.000000 0.057623
O O14 0.226090 0.209256 0.000000
O O15 0.175264 0.500000 0.500000
O O16 0.000000 0.283472 0.500000
O O17 0.213536 0.500000 0.140978
O O18 0.000000 0.319394 0.141914
#
# Coordination Sequence:
#
# PCOD9384687 Si02
#       6
#     8   8   8   8   4   8
#     4  10  20  33  50  71  94 123 158 194 236 286
#     4   8  14  26  44  64  86 114 149 188 227 268
#     4   8  13  22  37  55  76 107 145 179 213 259
#     4   8  14  26  45  68  94 125 159 194 233 276
#     4   9  15  21  31  53  86 115 136 168 218 267
#     4  10  20  32  48  72  99 126 157 194 236 280
#
# _framework density 17.341825
#
# number of rings (size 3 to 8) (size 9 to 14) (size 15 to 20)
#    0.000    3.182    0.000    3.000    0.000    3.636 
#    0.000    2.727    0.000    3.818    0.000    4.455 
#    0.000    5.091    0.000    0.000    0.000    0.000 
#
# Total GULP energy -245045.008980 kJ/mol
# GULP energy per Si atom -5569.204750 kJ/mol
# Density = 1.730235 g / cm^3
# Si number density = 17.341825 Si / 1000 Ang^3
#
#
#
# Elastic Constant Matrix: (Units=GPa)
#
#
# Indices 1 2 3 4 5 6 
#
# 1 21.0603 30.1474 49.2645 0.0000 0.0000 0.0000
# 2 30.1474 88.3681 99.2948 0.0000 0.0000 0.0000
# 3 49.2645 99.2948 222.1757 0.0000 0.0000 0.0000
# 4 0.0000 0.0000 0.0000 -13.3369 0.0000 0.0000
# 5 0.0000 0.0000 0.0000 0.0000 30.5461 0.0000
# 6 0.0000 0.0000 0.0000 0.0000 0.0000 13.6187
#
#
#
# Elastic Compliance Matrix: (Units=1/GPa)
#
#
# Indices 1 2 3 4 5 6 
#
# 1 0.115820 -0.021405 -0.016115 0.000000 0.000000 0.000000
# 2 -0.021405 0.026688 -0.007181 0.000000 0.000000 0.000000
# 3 -0.016115 -0.007181 0.011284 0.000000 0.000000 0.000000
# 4 0.000000 0.000000 0.000000 -0.074980 0.000000 0.000000
# 5 0.000000 0.000000 0.000000 0.000000 0.032737 0.000000
# 6 0.000000 0.000000 0.000000 0.000000 0.000000 0.073428
#
#
# Mechanical properties :
#
#
# Convention : Reuss Voigt Hill
#
# Bulk Modulus (GPa) = 15.53057 76.55749 46.04403
# Shear Modulus (GPa) = 16.90086 16.35875 16.62980
#
# Velocity S-wave (km/s) = 3.12520 3.07467 3.10004
# Velocity P-wave (km/s) = 4.69015 7.53968 6.27871
#
# Compressibility (1/GPa) = 0.06438915
#
# Stress axis : x y z
#
# Youngs Moduli (GPa) = 8.63407 37.47048 88.62399
#
# Poissons Ratio (x) = 0.80205 1.42820
# Poissons Ratio (y) = 0.18481 0.63641
# Poissons Ratio (z) = 0.13914 0.26908
#
# Static dielectric constant tensor:
#      x y z
#    x 1.586560 0.000000 0.000000 
#    y 0.000000 1.573500 0.000000 
#    z 0.000000 0.000000 1.600960 
# 
# From -- ./inp_files/33926.got.cif
#   From: 2010.05.17/outbox.cif.g08.bks.cpg/sg47_17_cif.got.tgz:33926.got - 2010.06.03 20:15:42.
