data_PCOD9384924
_publ_section_title
;
Structure prediction by ZEFSAII (Michael W. Deem and Ramdas Pophale) SiO2 
 PCOD9384924
Probable space group: P M M M
;
_chemical_formula_sum "Si O2"
_cell_formula_units_Z 64
_cell_length_a 9.024066
_cell_length_b 31.961330
_cell_length_c 14.489418
_cell_angle_alpha 90.000000
_cell_angle_beta 90.000000
_cell_angle_gamma 90.000000
_cell_volume 4179.054622
_symmetry_space_group_name_H-M "P M M M"
_symmetry_group_IT_number 47
_symmetry_cell_setting 'orthorhombic'
loop_
_space_group_symop_operation_xyz
x,y,z
-x,-y,z
x,-y,-z
-x,y,-z
-x,-y,-z
x,y,-z
-x,y,z
x,-y,z
loop_
_atom_site_type_symbol
_atom_site_label
_atom_site_fract_x
_atom_site_fract_y
_atom_site_fract_z
Si Si1 0.177523 0.370169 0.891135
Si Si2 0.175295 0.783131 0.110330
Si Si3 0.175890 0.674338 0.393583
Si Si4 0.323198 0.293141 0.216781
Si Si5 0.822660 0.546356 0.781102
Si Si6 0.330415 0.869324 0.112223
Si Si7 0.826506 0.046323 0.112111
Si Si8 0.676632 0.417143 0.605017
O O1 0.263208 0.333759 0.838017
O O2 0.216452 0.415326 0.848347
O O3 0.000000 0.363857 0.878551
O O4 0.208274 0.368786 0.000000
O O5 0.263037 0.747549 0.164395
O O6 0.232520 0.829202 0.137485
O O7 0.000000 0.779154 0.126756
O O8 0.200218 0.778186 0.000000
O O9 0.197959 0.687366 0.500000
O O10 0.254765 0.703335 0.318978
O O11 0.245717 0.628039 0.383965
O O12 0.000000 0.672042 0.375495
O O13 0.500000 0.293490 0.219875
O O14 0.788058 0.500000 0.817778
O O15 0.741926 0.553633 0.684001
O O16 0.000000 0.548583 0.766453
O O17 0.500000 0.863822 0.141718
O O18 0.264485 0.913569 0.144786
O O19 0.329340 0.870734 0.000000
O O20 0.000000 0.050855 0.135830
O O21 0.775369 0.000000 0.142300
O O22 0.819187 0.046366 0.000000
O O23 0.705779 0.431692 0.500000
O O24 0.500000 0.412451 0.615796
#
# Coordination Sequence:
#
# PCOD9384924 Si02
#       8
#     8   8   8   8   8   8   8   8
#     4  10  21  37  55  73  95 124 158 193 228 268
#     4  10  20  33  48  65  89 124 163 199 236 279
#     4  10  20  35  56  78  99 123 150 181 218 265
#     4  12  23  34  52  76 100 123 150 187 230 275
#     4  10  21  36  54  75  98 126 158 189 223 267
#     4   9  16  25  37  55  81 111 147 195 246 288
#     4   8  13  21  33  49  71 104 148 194 238 285
#     4  10  20  34  53  77 102 126 150 179 221 268
#
# _framework density 15.31447
#
# number of rings (size 3 to 8) (size 9 to 14) (size 15 to 20)
#    0.000    2.125    1.250    3.375    0.000    6.500 
#    0.000    3.750    0.000    0.000    0.000    1.750 
#    0.000    0.000    0.000    0.000    0.000    0.625 
#
# Total GULP energy -357007.122058 kJ/mol
# GULP energy per Si atom -5578.236282 kJ/mol
# Density = 1.527961 g / cm^3
# Si number density = 15.314470 Si / 1000 Ang^3
#
#
#
# Elastic Constant Matrix: (Units=GPa)
#
#
# Indices 1 2 3 4 5 6 
#
# 1 69.9551 51.8336 39.0717 0.0000 0.0000 0.0000
# 2 51.8336 108.2615 39.1162 0.0000 0.0000 0.0000
# 3 39.0717 39.1162 58.0024 0.0000 0.0000 0.0000
# 4 0.0000 0.0000 0.0000 2.8837 0.0000 0.0000
# 5 0.0000 0.0000 0.0000 0.0000 16.2042 0.0000
# 6 0.0000 0.0000 0.0000 0.0000 0.0000 -27.1159
#
#
#
# Elastic Compliance Matrix: (Units=1/GPa)
#
#
# Indices 1 2 3 4 5 6 
#
# 1 0.028008 -0.008717 -0.012988 0.000000 0.000000 0.000000
# 2 -0.008717 0.014926 -0.004194 0.000000 0.000000 0.000000
# 3 -0.012988 -0.004194 0.028818 0.000000 0.000000 0.000000
# 4 0.000000 0.000000 0.000000 0.346782 0.000000 0.000000
# 5 0.000000 0.000000 0.000000 0.000000 0.061712 0.000000
# 6 0.000000 0.000000 0.000000 0.000000 0.000000 -0.036879
#
#
# Mechanical properties :
#
#
# Convention : Reuss Voigt Hill
#
# Bulk Modulus (GPa) = 50.11560 55.14023 52.62791
# Shear Modulus (GPa) = 9.96381 5.47424 7.71902
#
# Velocity S-wave (km/s) = 2.55348 1.89270 2.24751
# Velocity P-wave (km/s) = 6.44120 6.39217 6.41673
#
# Compressibility (1/GPa) = 0.01995387
#
# Stress axis : x y z
#
# Youngs Moduli (GPa) = 35.70417 66.99868 34.70047
#
# Poissons Ratio (x) = 0.58402 0.45070
# Poissons Ratio (y) = 0.31123 0.14553
# Poissons Ratio (z) = 0.46373 0.28098
#
# Static dielectric constant tensor:
#      x y z
#    x 1.509660 0.000000 0.000000 
#    y 0.000000 1.510260 0.000000 
#    z 0.000000 0.000000 1.495290 
# 
# From -- ./inp_files/22127.got.cif
#   From: 2010.05.17/outbox.cif.g08.bks.cpg/sg47_12_cif.got.tgz:22127.got - 2010.06.03 20:15:42.
