data_PCOD9384653
_publ_section_title
;
Structure prediction by ZEFSAII (Michael W. Deem and Ramdas Pophale) SiO2 
 PCOD9384653
Probable space group: P M M M
;
_chemical_formula_sum "Si O2"
_cell_formula_units_Z 44
_cell_length_a 7.755569
_cell_length_b 29.467181
_cell_length_c 9.699579
_cell_angle_alpha 90.000000
_cell_angle_beta 90.000000
_cell_angle_gamma 90.000000
_cell_volume 2216.690915
_symmetry_space_group_name_H-M "P M M M"
_symmetry_group_IT_number 47
_symmetry_cell_setting 'orthorhombic'
loop_
_space_group_symop_operation_xyz
x,y,z
-x,-y,z
x,-y,-z
-x,y,-z
-x,-y,-z
x,y,-z
-x,y,z
x,-y,z
loop_
_atom_site_type_symbol
_atom_site_label
_atom_site_fract_x
_atom_site_fract_y
_atom_site_fract_z
Si Si1 0.699527 0.815188 0.167076
Si Si2 0.289043 0.000000 0.341167
Si Si3 0.711318 0.914303 0.159945
Si Si4 0.710774 0.551291 0.158236
Si Si5 0.200832 0.715323 0.843568
Si Si6 0.296075 0.632900 0.654191
O O1 0.500000 0.812674 0.209224
O O2 0.770254 0.864379 0.209696
O O3 0.781814 0.767383 0.205733
O O4 0.705901 0.817065 0.000000
O O5 0.234324 0.044743 0.257573
O O6 0.500000 0.000000 0.340791
O O7 0.233453 0.000000 0.500000
O O8 0.500000 0.912979 0.159572
O O9 0.762694 0.921572 0.000000
O O10 0.500000 0.551933 0.158718
O O11 0.762605 0.500000 0.196357
O O12 0.775133 0.590507 0.258851
O O13 0.763339 0.559982 0.000000
O O14 0.278160 0.678964 0.740493
O O15 0.000000 0.704754 0.852667
O O16 0.274883 0.712329 0.000000
O O17 0.223665 0.636687 0.500000
O O18 0.500000 0.624384 0.641890
#
# Coordination Sequence:
#
# PCOD9384653 Si02
#       6
#     8   4   8   8   8   8
#     4   8  14  26  45  67  89 115 150 191 231 272
#     4   9  15  21  31  53  86 115 136 168 218 267
#     4   8  13  22  37  56  79 110 145 177 214 265
#     4   8  14  26  46  72  99 125 154 190 232 276
#     4  10  20  33  50  71  94 123 159 198 241 286
#     4  10  20  32  48  72 100 130 162 194 231 276
#
# _framework density 19.849406999999999
#
# number of rings (size 3 to 8) (size 9 to 14) (size 15 to 20)
#    0.000    3.182    0.000    3.000    0.000    3.636 
#    0.000    2.727    0.000    3.818    0.000    4.455 
#    0.000    5.091    0.000    0.000    0.000    0.000 
#
# Total GULP energy -245203.527144 kJ/mol
# GULP energy per Si atom -5572.807435 kJ/mol
# Density = 1.980423 g / cm^3
# Si number density = 19.849407 Si / 1000 Ang^3
#
#
#
# Elastic Constant Matrix: (Units=GPa)
#
#
# Indices 1 2 3 4 5 6 
#
# 1 24.4057 2.7218 5.1560 0.0000 0.0000 0.0000
# 2 2.7218 184.3805 110.4714 0.0000 0.0000 0.0000
# 3 5.1560 110.4714 115.8090 0.0000 0.0000 0.0000
# 4 0.0000 0.0000 0.0000 -4.9419 0.0000 0.0000
# 5 0.0000 0.0000 0.0000 0.0000 2.0050 0.0000
# 6 0.0000 0.0000 0.0000 0.0000 0.0000 -41.3804
#
#
#
# Elastic Compliance Matrix: (Units=1/GPa)
#
#
# Indices 1 2 3 4 5 6 
#
# 1 0.041468 0.001153 -0.002946 0.000000 0.000000 0.000000
# 2 0.001153 0.012690 -0.012157 0.000000 0.000000 0.000000
# 3 -0.002946 -0.012157 0.020362 0.000000 0.000000 0.000000
# 4 0.000000 0.000000 0.000000 -0.202351 0.000000 0.000000
# 5 0.000000 0.000000 0.000000 0.000000 0.498745 0.000000
# 6 0.000000 0.000000 0.000000 0.000000 0.000000 -0.024166
#
#
# Mechanical properties :
#
#
# Convention : Reuss Voigt Hill
#
# Bulk Modulus (GPa) = 21.44951 62.36594 41.90773
# Shear Modulus (GPa) = 12.81433 4.88627 8.85030
#
# Velocity S-wave (km/s) = 2.54358 1.57067 2.11386
# Velocity P-wave (km/s) = 4.41089 5.89721 5.20735
#
# Compressibility (1/GPa) = 0.04662110
#
# Stress axis : x y z
#
# Youngs Moduli (GPa) = 24.11503 78.80118 49.11017
#
# Poissons Ratio (x) = -0.09085 0.14468
# Poissons Ratio (y) = -0.02780 0.59701
# Poissons Ratio (z) = 0.07104 0.95796
#
# Static dielectric constant tensor:
#      x y z
#    x 1.724040 0.000000 0.000000 
#    y 0.000000 1.701200 0.000000 
#    z 0.000000 0.000000 1.681160 
# 
# From -- ./inp_files/2196.got.cif
#   From: 2010.05.17/outbox.cif.g08.bks.cpg/sg47_2_cif.got.tgz:2196.got - 2010.06.03 20:15:42.
