data_PCOD9384549
_publ_section_title
;
Structure prediction by ZEFSAII (Michael W. Deem and Ramdas Pophale) SiO2 
 PCOD9384549
Probable space group: P M M M
;
_chemical_formula_sum "Si O2"
_cell_formula_units_Z 44
_cell_length_a 9.709012
_cell_length_b 7.684264
_cell_length_c 29.648420
_cell_angle_alpha 90.000000
_cell_angle_beta 90.000000
_cell_angle_gamma 90.000000
_cell_volume 2211.968149
_symmetry_space_group_name_H-M "P M M M"
_symmetry_group_IT_number 47
_symmetry_cell_setting 'orthorhombic'
loop_
_space_group_symop_operation_xyz
x,y,z
-x,-y,z
x,-y,-z
-x,y,-z
-x,-y,-z
x,y,-z
-x,y,z
x,-y,z
loop_
_atom_site_type_symbol
_atom_site_label
_atom_site_fract_x
_atom_site_fract_y
_atom_site_fract_z
Si Si1 0.658614 0.212558 0.314666
Si Si2 0.344756 0.208707 0.583983
Si Si3 0.844139 0.208706 0.767599
Si Si4 0.341822 0.289885 0.853337
Si Si5 0.666729 0.706801 0.951516
Si Si6 0.153669 0.705868 0.500000
O O1 0.500000 0.263074 0.305496
O O2 0.694129 0.269411 0.365624
O O3 0.760783 0.275427 0.275950
O O4 0.661395 0.000000 0.314191
O O5 0.500000 0.272937 0.573632
O O6 0.239153 0.248344 0.544582
O O7 0.353015 0.000000 0.586605
O O8 0.756760 0.243476 0.812447
O O9 0.000000 0.276412 0.770357
O O10 0.852073 0.000000 0.762757
O O11 0.500000 0.229661 0.845729
O O12 0.347310 0.500000 0.856181
O O13 0.290228 0.224673 0.902482
O O14 0.500000 0.721292 0.951028
O O15 0.698124 0.500000 0.952250
O O16 0.714565 0.779683 0.000000
O O17 0.141116 0.500000 0.500000
O O18 0.000000 0.783278 0.500000
#
# Coordination Sequence:
#
# PCOD9384549 Si02
#       6
#     8   8   8   8   8   4
#     4   8  15  30  52  75  96 119 153 199 243 280
#     4   9  18  34  57  81  99 119 156 203 244 283
#     4  10  20  32  47  69  97 129 162 193 230 280
#     4   9  17  29  47  71  95 120 154 195 238 285
#     4   7  10  19  38  64  90 113 142 187 239 282
#     4  11  24  37  48  70 106 141 168 193 226 274
#
# _framework density 19.891787999999998
#
# number of rings (size 3 to 8) (size 9 to 14) (size 15 to 20)
#    0.000    3.182    0.000    3.818    0.000    4.364 
#    0.000    2.727    0.000    2.182    0.000    6.364 
#    0.000    0.000    0.000    0.000    0.000    0.000 
#
# Total GULP energy -245180.691675 kJ/mol
# GULP energy per Si atom -5572.288447 kJ/mol
# Density = 1.984651 g / cm^3
# Si number density = 19.891788 Si / 1000 Ang^3
#
#
#
# Elastic Constant Matrix: (Units=GPa)
#
#
# Indices 1 2 3 4 5 6 
#
# 1 129.1334 6.6415 135.7956 0.0000 0.0000 0.0000
# 2 6.6415 33.3624 7.8461 0.0000 0.0000 0.0000
# 3 135.7956 7.8461 230.6891 0.0000 0.0000 0.0000
# 4 0.0000 0.0000 0.0000 19.0202 0.0000 0.0000
# 5 0.0000 0.0000 0.0000 0.0000 -7.4868 0.0000
# 6 0.0000 0.0000 0.0000 0.0000 0.0000 19.4254
#
#
#
# Elastic Compliance Matrix: (Units=1/GPa)
#
#
# Indices 1 2 3 4 5 6 
#
# 1 0.020378 -0.001246 -0.011953 0.000000 0.000000 0.000000
# 2 -0.001246 0.030292 -0.000297 0.000000 0.000000 0.000000
# 3 -0.011953 -0.000297 0.011381 0.000000 0.000000 0.000000
# 4 0.000000 0.000000 0.000000 0.052576 0.000000 0.000000
# 5 0.000000 0.000000 0.000000 0.000000 -0.133568 0.000000
# 6 0.000000 0.000000 0.000000 0.000000 0.000000 0.051479
#
#
# Mechanical properties :
#
#
# Convention : Reuss Voigt Hill
#
# Bulk Modulus (GPa) = 28.52314 77.08349 52.80332
# Shear Modulus (GPa) = 70.21039 22.38520 46.29779
#
# Velocity S-wave (km/s) = 5.94750 3.35826 4.82963
# Velocity P-wave (km/s) = 7.84436 7.33981 7.59627
#
# Compressibility (1/GPa) = 0.03505925
#
# Stress axis : x y z
#
# Youngs Moduli (GPa) = 49.07346 33.01233 87.86516
#
# Poissons Ratio (x) = 0.04112 1.05025
# Poissons Ratio (y) = 0.06112 0.02610
# Poissons Ratio (z) = 0.58657 0.00981
#
# Static dielectric constant tensor:
#      x y z
#    x 1.683360 0.000000 0.000000 
#    y 0.000000 1.763530 0.000000 
#    z 0.000000 0.000000 1.734100 
# 
# From -- ./inp_files/2069.got.cif
#   From: 2010.05.17/outbox.cif.g08.bks.cpg/sg47_2_cif.got.tgz:2069.got - 2010.06.03 20:15:42.
