data_PCOD9384218
_publ_section_title
;
Structure prediction by ZEFSAII (Michael W. Deem and Ramdas Pophale) SiO2 
 PCOD9384218
Probable space group: P M M M
;
_chemical_formula_sum "Si O2"
_cell_formula_units_Z 48
_cell_length_a 9.806793
_cell_length_b 7.640912
_cell_length_c 32.428535
_cell_angle_alpha 90.000000
_cell_angle_beta 90.000000
_cell_angle_gamma 90.000000
_cell_volume 2429.962300
_symmetry_space_group_name_H-M "P M M M"
_symmetry_group_IT_number 47
_symmetry_cell_setting 'orthorhombic'
loop_
_space_group_symop_operation_xyz
x,y,z
-x,-y,z
x,-y,-z
-x,y,-z
-x,-y,-z
x,y,-z
-x,y,z
x,-y,z
loop_
_atom_site_type_symbol
_atom_site_label
_atom_site_fract_x
_atom_site_fract_y
_atom_site_fract_z
Si Si1 0.158571 0.214689 0.365323
Si Si2 0.843658 0.711176 0.786192
Si Si3 0.835691 0.209316 0.455715
Si Si4 0.846852 0.290444 0.121608
Si Si5 0.344936 0.789961 0.954667
Si Si6 0.654309 0.791681 0.290517
O O1 0.208587 0.273829 0.410739
O O2 0.254946 0.276607 0.328538
O O3 0.000000 0.266502 0.359285
O O4 0.158283 0.000000 0.365663
O O5 0.845796 0.500000 0.786215
O O6 0.805977 0.771716 0.832542
O O7 0.737731 0.765612 0.751518
O O8 0.000000 0.769470 0.777566
O O9 0.785314 0.279737 0.500000
O O10 0.000000 0.231244 0.455522
O O11 0.810443 0.000000 0.456197
O O12 0.854245 0.500000 0.124642
O O13 0.747832 0.252382 0.084067
O O14 0.000000 0.224397 0.113237
O O15 0.500000 0.725700 0.949001
O O16 0.350618 0.000000 0.956568
O O17 0.295917 0.728268 0.000000
O O18 0.500000 0.721442 0.288768
O O19 0.644227 0.000000 0.296883
#
# Coordination Sequence:
#
# PCOD9384218 Si02
#       6
#     8   8   8   8   8   8
#     4   8  13  22  37  56  80 113 150 186 225 268
#     4   9  19  36  54  70  91 120 154 193 236 280
#     4   7   9  14  27  49  75 103 139 182 223 262
#     4   9  19  35  53  74  98 122 152 193 238 280
#     4   9  19  35  52  72 101 134 164 193 225 264
#     4  10  20  31  44  66  95 124 154 189 229 274
#
# _framework density 19.753392999999999
#
# number of rings (size 3 to 8) (size 9 to 14) (size 15 to 20)
#    0.000    3.333    0.000    3.500    0.000    4.000 
#    0.000    7.500    0.000    0.500    0.000    3.500 
#    0.000    0.667    0.000    7.667    0.000    8.833 
#
# Total GULP energy -267359.058659 kJ/mol
# GULP energy per Si atom -5569.980389 kJ/mol
# Density = 1.970843 g / cm^3
# Si number density = 19.753393 Si / 1000 Ang^3
#
#
#
# Elastic Constant Matrix: (Units=GPa)
#
#
# Indices 1 2 3 4 5 6 
#
# 1 109.9264 5.5584 125.6382 0.0000 0.0000 0.0000
# 2 5.5584 33.3652 5.0124 0.0000 0.0000 0.0000
# 3 125.6382 5.0124 234.5090 0.0000 0.0000 0.0000
# 4 0.0000 0.0000 0.0000 31.8098 0.0000 0.0000
# 5 0.0000 0.0000 0.0000 0.0000 -19.7123 0.0000
# 6 0.0000 0.0000 0.0000 0.0000 0.0000 14.7743
#
#
#
# Elastic Compliance Matrix: (Units=1/GPa)
#
#
# Indices 1 2 3 4 5 6 
#
# 1 0.023603 -0.002039 -0.012602 0.000000 0.000000 0.000000
# 2 -0.002039 0.030244 0.000446 0.000000 0.000000 0.000000
# 3 -0.012602 0.000446 0.011006 0.000000 0.000000 0.000000
# 4 0.000000 0.000000 0.000000 0.031437 0.000000 0.000000
# 5 0.000000 0.000000 0.000000 0.000000 -0.050730 0.000000
# 6 0.000000 0.000000 0.000000 0.000000 0.000000 0.067685
#
#
# Mechanical properties :
#
#
# Convention : Reuss Voigt Hill
#
# Bulk Modulus (GPa) = 27.42458 72.24650 49.83554
# Shear Modulus (GPa) = 32.51201 21.48046 26.99624
#
# Velocity S-wave (km/s) = 4.06136 3.30120 3.70085
# Velocity P-wave (km/s) = 5.99221 7.15431 6.59889
#
# Compressibility (1/GPa) = 0.03646364
#
# Stress axis : x y z
#
# Youngs Moduli (GPa) = 42.36747 33.06437 90.85883
#
# Poissons Ratio (x) = 0.06742 1.14498
# Poissons Ratio (y) = 0.08638 -0.04052
# Poissons Ratio (z) = 0.53390 -0.01474
#
# Static dielectric constant tensor:
#      x y z
#    x 1.669440 0.000000 0.000000 
#    y 0.000000 1.755810 0.000000 
#    z 0.000000 0.000000 1.729370 
# 
# From -- ./inp_files/13805.got.cif
#   From: 2010.05.17/outbox.cif.g08.bks.cpg/sg47_7_cif.got.tgz:13805.got - 2010.06.03 20:15:42.
