data_PCOD9384162
_publ_section_title
;
Structure prediction by ZEFSAII (Michael W. Deem and Ramdas Pophale) SiO2 
 PCOD9384162
Probable space group: P M M M
;
_chemical_formula_sum "Si O2"
_cell_formula_units_Z 44
_cell_length_a 14.106011
_cell_length_b 22.369065
_cell_length_c 7.772132
_cell_angle_alpha 90.000000
_cell_angle_beta 90.000000
_cell_angle_gamma 90.000000
_cell_volume 2452.405140
_symmetry_space_group_name_H-M "P M M M"
_symmetry_group_IT_number 47
_symmetry_cell_setting 'orthorhombic'
loop_
_space_group_symop_operation_xyz
x,y,z
-x,-y,z
x,-y,-z
-x,y,-z
-x,-y,-z
x,y,-z
-x,y,z
x,-y,z
loop_
_atom_site_type_symbol
_atom_site_label
_atom_site_fract_x
_atom_site_fract_y
_atom_site_fract_z
Si Si1 0.204878 0.249725 0.291749
Si Si2 0.701118 0.565919 0.296843
Si Si3 0.108035 0.000000 0.795552
Si Si4 0.108540 0.129326 0.293994
Si Si5 0.106130 0.627219 0.204645
Si Si6 0.393644 0.687011 0.710832
O O1 0.206133 0.248455 0.500000
O O2 0.167114 0.186055 0.228488
O O3 0.136156 0.304286 0.240910
O O4 0.310435 0.268058 0.234050
O O5 0.680421 0.562762 0.500000
O O6 0.685528 0.500000 0.222235
O O7 0.810477 0.586034 0.278298
O O8 0.638483 0.620904 0.229019
O O9 0.150309 0.063680 0.742632
O O10 0.000000 0.000000 0.722292
O O11 0.102665 0.000000 0.000000
O O12 0.103301 0.135123 0.500000
O O13 0.000000 0.131159 0.226412
O O14 0.000000 0.615621 0.270703
O O15 0.106037 0.618363 0.000000
O O16 0.392739 0.686454 0.500000
O O17 0.500000 0.701347 0.765910
#
# Coordination Sequence:
#
# PCOD9384162 Si02
#       6
#     8   8   4   8   8   8
#     4   9  17  29  46  67  88 113 146 179 212 254
#     4   9  18  31  46  64  84 109 143 178 213 258
#     4   9  17  27  39  59  88 119 148 176 205 241
#     4   9  16  26  41  61  87 118 147 174 205 242
#     4  10  20  31  43  61  86 115 144 176 215 256
#     4   8  14  26  45  68  90 108 132 174 223 263
#
# _framework density 17.941571
#
# number of rings (size 3 to 8) (size 9 to 14) (size 15 to 20)
#    0.000    3.000    0.000    2.455    0.000    5.091 
#    0.000    5.455    0.000    8.727    0.000    5.727 
#    0.000    5.091    0.000    0.000    0.000    0.000 
#
# Total GULP energy -245180.413124 kJ/mol
# GULP energy per Si atom -5572.282116 kJ/mol
# Density = 1.790074 g / cm^3
# Si number density = 17.941571 Si / 1000 Ang^3
#
#
#
# Elastic Constant Matrix: (Units=GPa)
#
#
# Indices 1 2 3 4 5 6 
#
# 1 72.0360 22.1622 -0.1134 0.0000 0.0000 0.0000
# 2 22.1622 120.1870 4.1060 0.0000 0.0000 0.0000
# 3 -0.1134 4.1060 24.6217 0.0000 0.0000 0.0000
# 4 0.0000 0.0000 0.0000 -11.1946 0.0000 0.0000
# 5 0.0000 0.0000 0.0000 0.0000 -38.7679 0.0000
# 6 0.0000 0.0000 0.0000 0.0000 0.0000 3.6533
#
#
#
# Elastic Compliance Matrix: (Units=1/GPa)
#
#
# Indices 1 2 3 4 5 6 
#
# 1 0.014724 -0.002733 0.000524 0.000000 0.000000 0.000000
# 2 -0.002733 0.008875 -0.001493 0.000000 0.000000 0.000000
# 3 0.000524 -0.001493 0.040866 0.000000 0.000000 0.000000
# 4 0.000000 0.000000 0.000000 -0.089329 0.000000 0.000000
# 5 0.000000 0.000000 0.000000 0.000000 -0.025795 0.000000
# 6 0.000000 0.000000 0.000000 0.000000 0.000000 0.273723
#
#
# Mechanical properties :
#
#
# Convention : Reuss Voigt Hill
#
# Bulk Modulus (GPa) = 17.52517 29.90603 23.71560
# Shear Modulus (GPa) = 20.04095 3.45082 11.74588
#
# Velocity S-wave (km/s) = 3.34580 1.38836 2.56144
# Velocity P-wave (km/s) = 4.97141 4.39031 4.68987
#
# Compressibility (1/GPa) = 0.05706078
#
# Stress axis : x y z
#
# Youngs Moduli (GPa) = 67.91836 112.67221 24.47029
#
# Poissons Ratio (x) = 0.30792 -0.01281
# Poissons Ratio (y) = 0.18561 0.03653
# Poissons Ratio (z) = -0.03556 0.16818
#
# Static dielectric constant tensor:
#      x y z
#    x 1.608620 0.000000 0.000000 
#    y 0.000000 1.630350 0.000000 
#    z 0.000000 0.000000 1.642960 
# 
# From -- ./inp_files/6743.got.cif
#   From: 2010.05.17/outbox.cif.g08.bks.cpg/sg47_4_cif.got.tgz:6743.got - 2010.06.03 20:15:42.
