data_PCOD9384606
_publ_section_title
;
Structure prediction by ZEFSAII (Michael W. Deem and Ramdas Pophale) SiO2 
 PCOD9384606
Probable space group: P M M M
;
_chemical_formula_sum "Si O2"
_cell_formula_units_Z 64
_cell_length_a 13.749618
_cell_length_b 18.918535
_cell_length_c 14.530764
_cell_angle_alpha 90.000000
_cell_angle_beta 90.000000
_cell_angle_gamma 90.000000
_cell_volume 3779.780538
_symmetry_space_group_name_H-M "P M M M"
_symmetry_group_IT_number 47
_symmetry_cell_setting 'orthorhombic'
loop_
_space_group_symop_operation_xyz
x,y,z
-x,-y,z
x,-y,-z
-x,y,-z
-x,-y,-z
x,y,-z
-x,y,z
x,-y,z
loop_
_atom_site_type_symbol
_atom_site_label
_atom_site_fract_x
_atom_site_fract_y
_atom_site_fract_z
Si Si1 0.270493 0.419241 0.272695
Si Si2 0.790692 0.078806 0.105526
Si Si3 0.256135 0.233075 0.107082
Si Si4 0.890217 0.918212 0.294156
Si Si5 0.613369 0.364401 0.892020
Si Si6 0.387431 0.305214 0.610549
Si Si7 0.213078 0.205279 0.390671
Si Si8 0.886208 0.696228 0.253664
O O1 0.261744 0.500000 0.301924
O O2 0.323429 0.413276 0.174002
O O3 0.337282 0.371979 0.340340
O O4 0.168069 0.378726 0.263041
O O5 0.726561 0.149362 0.119343
O O6 0.871694 0.084383 0.184498
O O7 0.745703 0.000000 0.116526
O O8 0.827152 0.082155 0.000000
O O9 0.347123 0.284614 0.124511
O O10 0.170888 0.260216 0.174097
O O11 0.228376 0.243457 0.000000
O O12 0.812629 0.868828 0.344001
O O13 0.000000 0.894213 0.314808
O O14 0.880773 0.000000 0.322078
O O15 0.500000 0.370071 0.870269
O O16 0.626848 0.380262 0.000000
O O17 0.383872 0.314147 0.500000
O O18 0.500000 0.297303 0.637885
O O19 0.318930 0.237931 0.633079
O O20 0.204498 0.200791 0.500000
O O21 0.137146 0.260590 0.346624
O O22 0.000000 0.691266 0.235944
#
# Coordination Sequence:
#
# PCOD9384606 Si02
#       8
#     8   8   8   8   8   8   8   8
#     4  10  21  35  51  75 104 129 158 199 244 293
#     4   9  17  29  46  69 100 137 171 205 248 290
#     4   9  17  30  49  72  97 127 166 210 250 289
#     4  10  20  32  47  71 103 136 171 210 250 291
#     4   9  18  32  50  73 100 130 164 202 245 292
#     4   9  19  36  57  79 100 125 159 200 250 302
#     4  10  20  34  52  73  99 131 166 206 247 289
#     4  10  20  34  51  71  96 130 169 203 240 288
#
# _framework density 16.932200000000002
#
# number of rings (size 3 to 8) (size 9 to 14) (size 15 to 20)
#    0.000    2.500    1.250    0.750    0.000    3.500 
#    0.000    4.375    0.000    0.750    0.000   13.125 
#    0.000    0.000    0.000    0.000    0.000    0.250 
#
# Total GULP energy -356487.726196 kJ/mol
# GULP energy per Si atom -5570.120722 kJ/mol
# Density = 1.689366 g / cm^3
# Si number density = 16.932200 Si / 1000 Ang^3
#
#
#
# Elastic Constant Matrix: (Units=GPa)
#
#
# Indices 1 2 3 4 5 6 
#
# 1 47.5259 19.5858 8.5675 0.0000 0.0000 0.0000
# 2 19.5858 102.2172 20.1919 0.0000 0.0000 0.0000
# 3 8.5675 20.1919 50.3565 0.0000 0.0000 0.0000
# 4 0.0000 0.0000 0.0000 16.4802 0.0000 0.0000
# 5 0.0000 0.0000 0.0000 0.0000 15.7006 0.0000
# 6 0.0000 0.0000 0.0000 0.0000 0.0000 8.5161
#
#
#
# Elastic Compliance Matrix: (Units=1/GPa)
#
#
# Indices 1 2 3 4 5 6 
#
# 1 0.023096 -0.003963 -0.002340 0.000000 0.000000 0.000000
# 2 -0.003963 0.011305 -0.003859 0.000000 0.000000 0.000000
# 3 -0.002340 -0.003859 0.021804 0.000000 0.000000 0.000000
# 4 0.000000 0.000000 0.000000 0.060679 0.000000 0.000000
# 5 0.000000 0.000000 0.000000 0.000000 0.063692 0.000000
# 6 0.000000 0.000000 0.000000 0.000000 0.000000 0.117425
#
#
# Mechanical properties :
#
#
# Convention : Reuss Voigt Hill
#
# Bulk Modulus (GPa) = 27.87034 32.97666 30.42350
# Shear Modulus (GPa) = 15.13845 18.25635 16.69740
#
# Velocity S-wave (km/s) = 2.99333 3.28716 3.14368
# Velocity P-wave (km/s) = 5.33314 5.82454 5.58425
#
# Compressibility (1/GPa) = 0.03588044
#
# Stress axis : x y z
#
# Youngs Moduli (GPa) = 43.29694 88.45874 45.86351
#
# Poissons Ratio (x) = 0.35058 0.10734
# Poissons Ratio (y) = 0.17159 0.17697
# Poissons Ratio (z) = 0.10133 0.34133
#
# Static dielectric constant tensor:
#      x y z
#    x 1.542710 0.000000 0.000000 
#    y 0.000000 1.590060 0.000000 
#    z 0.000000 0.000000 1.595730 
# 
# From -- ./inp_files/22958.got.cif
#   From: 2010.05.17/outbox.cif.g08.bks.cpg/sg47_12_cif.got.tgz:22958.got - 2010.06.03 20:15:42.
