data_PCOD9384011
_publ_section_title
;
Structure prediction by ZEFSAII (Michael W. Deem and Ramdas Pophale) SiO2 
 PCOD9384011
Probable space group: P M M M
;
_chemical_formula_sum "Si O2"
_cell_formula_units_Z 44
_cell_length_a 14.999030
_cell_length_b 8.668245
_cell_length_c 17.851763
_cell_angle_alpha 90.000000
_cell_angle_beta 90.000000
_cell_angle_gamma 90.000000
_cell_volume 2321.001729
_symmetry_space_group_name_H-M "P M M M"
_symmetry_group_IT_number 47
_symmetry_cell_setting 'orthorhombic'
loop_
_space_group_symop_operation_xyz
x,y,z
-x,-y,z
x,-y,-z
-x,y,-z
-x,-y,-z
x,y,-z
-x,y,z
x,-y,z
loop_
_atom_site_type_symbol
_atom_site_label
_atom_site_fract_x
_atom_site_fract_y
_atom_site_fract_z
Si Si1 0.345181 0.181385 0.694285
Si Si2 0.000000 0.828079 0.587561
Si Si3 0.702245 0.685741 0.144161
Si Si4 0.158913 0.321476 0.331416
Si Si5 0.393923 0.818216 0.000000
Si Si6 0.500000 0.314619 0.411461
Si Si7 0.098382 0.317945 0.839353
O O1 0.340657 0.252286 0.778420
O O2 0.245889 0.216634 0.665142
O O3 0.415401 0.255457 0.636756
O O4 0.362857 0.000000 0.699812
O O5 0.913616 0.733832 0.610815
O O6 0.000000 0.845239 0.500000
O O7 0.000000 0.000000 0.623036
O O8 0.705452 0.500000 0.149844
O O9 0.805360 0.742497 0.133015
O O10 0.646183 0.739825 0.073630
O O11 0.185241 0.500000 0.340502
O O12 0.111766 0.308161 0.250219
O O13 0.500000 0.801564 0.000000
O O14 0.372270 0.000000 0.000000
O O15 0.500000 0.500000 0.411302
O O16 0.500000 0.265288 0.500000
O O17 0.095805 0.500000 0.859376
O O18 0.000000 0.253184 0.859672
#
# Coordination Sequence:
#
# PCOD9384011 Si02
#       7
#     8   4   8   8   4   4   8
#     4  11  23  40  64  92 125 160 198 249 312 374
#     4  11  23  35  49  77 117 156 197 250 311 367
#     4  10  21  38  63  93 124 160 206 252 298 361
#     4  10  19  35  58  82 111 152 203 249 293 354
#     4  11  25  43  62  85 122 164 207 259 315 364
#     4  11  25  45  67  90 117 154 205 259 307 365
#     4   8  14  29  56  87 114 145 189 240 287 339
#
# _framework density 18.957332000000001
#
# number of rings (size 3 to 8) (size 9 to 14) (size 15 to 20)
#    0.000    1.909    0.909    4.636    1.273    2.909 
#    0.000    0.455    0.000    2.727    0.000    0.000 
#    0.000    0.000    0.000    0.000    0.000    0.000 
#
# Total GULP energy -245380.383426 kJ/mol
# GULP energy per Si atom -5576.826896 kJ/mol
# Density = 1.891418 g / cm^3
# Si number density = 18.957332 Si / 1000 Ang^3
#
#
#
# Elastic Constant Matrix: (Units=GPa)
#
#
# Indices 1 2 3 4 5 6 
#
# 1 106.0581 36.9478 67.0623 0.0000 0.0000 0.0000
# 2 36.9478 78.5703 39.2896 0.0000 0.0000 0.0000
# 3 67.0623 39.2896 104.1264 0.0000 0.0000 0.0000
# 4 0.0000 0.0000 0.0000 24.0707 0.0000 0.0000
# 5 0.0000 0.0000 0.0000 0.0000 -25.2517 0.0000
# 6 0.0000 0.0000 0.0000 0.0000 0.0000 37.1398
#
#
#
# Elastic Compliance Matrix: (Units=1/GPa)
#
#
# Indices 1 2 3 4 5 6 
#
# 1 0.016464 -0.003007 -0.009469 0.000000 0.000000 0.000000
# 2 -0.003007 0.016237 -0.004190 0.000000 0.000000 0.000000
# 3 -0.009469 -0.004190 0.017283 0.000000 0.000000 0.000000
# 4 0.000000 0.000000 0.000000 0.041544 0.000000 0.000000
# 5 0.000000 0.000000 0.000000 0.000000 -0.039601 0.000000
# 6 0.000000 0.000000 0.000000 0.000000 0.000000 0.026925
#
#
# Mechanical properties :
#
#
# Convention : Reuss Voigt Hill
#
# Bulk Modulus (GPa) = 60.05286 63.92825 61.99055
# Shear Modulus (GPa) = 42.46884 16.88875 29.67880
#
# Velocity S-wave (km/s) = 4.73824 2.98800 3.96101
# Velocity P-wave (km/s) = 7.85374 6.76015 7.32738
#
# Compressibility (1/GPa) = 0.01665200
#
# Stress axis : x y z
#
# Youngs Moduli (GPa) = 60.74007 61.58884 57.86075
#
# Poissons Ratio (x) = 0.18521 0.54786
# Poissons Ratio (y) = 0.18266 0.24242
# Poissons Ratio (z) = 0.57513 0.25804
#
# Static dielectric constant tensor:
#      x y z
#    x 1.449510 0.000000 0.000000 
#    y 0.000000 1.651770 0.000000 
#    z 0.000000 0.000000 1.638390 
# 
# From -- ./inp_files/27941.got.cif
#   From: 2010.05.17/outbox.cif.g08.bks.cpg/sg47_14_cif.got.tgz:27941.got - 2010.06.03 20:15:42.
