data_PCOD9384022
_publ_section_title
;
Structure prediction by ZEFSAII (Michael W. Deem and Ramdas Pophale) SiO2 
 PCOD9384022
Probable space group: P M M M
;
_chemical_formula_sum "Si O2"
_cell_formula_units_Z 48
_cell_length_a 16.111306
_cell_length_b 19.553903
_cell_length_c 7.427550
_cell_angle_alpha 90.000000
_cell_angle_beta 90.000000
_cell_angle_gamma 90.000000
_cell_volume 2339.967291
_symmetry_space_group_name_H-M "P M M M"
_symmetry_group_IT_number 47
_symmetry_cell_setting 'orthorhombic'
loop_
_space_group_symop_operation_xyz
x,y,z
-x,-y,z
x,-y,-z
-x,y,-z
-x,-y,-z
x,y,-z
-x,y,z
x,-y,z
loop_
_atom_site_type_symbol
_atom_site_label
_atom_site_fract_x
_atom_site_fract_y
_atom_site_fract_z
Si Si1 0.361259 0.811141 0.286314
Si Si2 0.500000 0.077475 0.212702
Si Si3 0.905654 0.674500 0.281212
Si Si4 0.098842 0.923107 0.000000
Si Si5 0.754902 0.421278 0.720040
Si Si6 0.408927 0.339439 0.720059
Si Si7 0.829096 0.178085 0.283002
O O1 0.355373 0.802195 0.500000
O O2 0.420124 0.876055 0.257497
O O3 0.398337 0.739342 0.219392
O O4 0.267068 0.819636 0.224253
O O5 0.500000 0.000000 0.288846
O O6 0.500000 0.070716 0.000000
O O7 0.907066 0.671428 0.500000
O O8 0.836562 0.620173 0.221265
O O9 0.873350 0.750313 0.235933
O O10 0.000000 0.663017 0.219095
O O11 0.128213 0.882446 0.824435
O O12 0.000000 0.925048 0.000000
O O13 0.132257 0.000000 0.000000
O O14 0.754938 0.420057 0.500000
O O15 0.756338 0.500000 0.776106
O O16 0.670610 0.383097 0.777586
O O17 0.408187 0.340093 0.500000
O O18 0.500000 0.364835 0.775628
O O19 0.833462 0.169887 0.500000
#
# Coordination Sequence:
#
# PCOD9384022 Si02
#       7
#     8   4   8   4   8   8   8
#     4  10  19  35  59  81 107 150 195 237 285 344
#     4  11  25  39  53  81 118 147 178 234 301 359
#     4   9  16  28  49  76 107 147 193 239 289 348
#     4  11  26  44  62  89 122 152 191 247 304 362
#     4   9  16  25  39  68 111 150 187 236 291 346
#     4   9  15  26  46  70 100 140 187 235 282 334
#     4  10  21  39  64  89 117 156 202 248 297 354
#
# _framework density 20.513107000000002
#
# number of rings (size 3 to 8) (size 9 to 14) (size 15 to 20)
#    0.000    2.333    2.500    0.750    1.167    3.333 
#    0.000    5.833    0.000    0.000    0.000    0.583 
#    0.000    2.667    0.000    0.167    0.000    0.000 
#
# Total GULP energy -268037.357262 kJ/mol
# GULP energy per Si atom -5584.111610 kJ/mol
# Density = 2.046642 g / cm^3
# Si number density = 20.513107 Si / 1000 Ang^3
#
#
#
# Elastic Constant Matrix: (Units=GPa)
#
#
# Indices 1 2 3 4 5 6 
#
# 1 212.7009 111.8160 16.0479 0.0000 0.0000 0.0000
# 2 111.8160 190.8199 18.6748 0.0000 0.0000 0.0000
# 3 16.0479 18.6748 65.4815 0.0000 0.0000 0.0000
# 4 0.0000 0.0000 0.0000 47.9269 0.0000 0.0000
# 5 0.0000 0.0000 0.0000 0.0000 301.6847 0.0000
# 6 0.0000 0.0000 0.0000 0.0000 0.0000 55.0563
#
#
#
# Elastic Compliance Matrix: (Units=1/GPa)
#
#
# Indices 1 2 3 4 5 6 
#
# 1 0.006813 -0.003939 -0.000546 0.000000 0.000000 0.000000
# 2 -0.003939 0.007668 -0.001222 0.000000 0.000000 0.000000
# 3 -0.000546 -0.001222 0.015754 0.000000 0.000000 0.000000
# 4 0.000000 0.000000 0.000000 0.020865 0.000000 0.000000
# 5 0.000000 0.000000 0.000000 0.000000 0.003315 0.000000
# 6 0.000000 0.000000 0.000000 0.000000 0.000000 0.018163
#
#
# Mechanical properties :
#
#
# Convention : Reuss Voigt Hill
#
# Bulk Modulus (GPa) = 53.13090 84.67552 68.90321
# Shear Modulus (GPa) = 55.39165 102.43114 78.91140
#
# Velocity S-wave (km/s) = 5.20208 7.07410 6.20905
# Velocity P-wave (km/s) = 7.87651 10.39674 9.22311
#
# Compressibility (1/GPa) = 0.01882144
#
# Stress axis : x y z
#
# Youngs Moduli (GPa) = 146.76994 130.40768 63.47676
#
# Poissons Ratio (x) = 0.51368 0.03468
# Poissons Ratio (y) = 0.57813 0.07754
# Poissons Ratio (z) = 0.08020 0.15930
#
# Static dielectric constant tensor:
#      x y z
#    x 1.684190 0.000000 0.000000 
#    y 0.000000 1.700170 0.000000 
#    z 0.000000 0.000000 1.776830 
# 
# From -- ./inp_files/6465.got.cif
#   From: 2010.05.17/outbox.cif.g08.bks.cpg/sg47_4_cif.got.tgz:6465.got - 2010.06.03 20:15:42.
