data_PCOD9384618
_publ_section_title
;
Structure prediction by ZEFSAII (Michael W. Deem and Ramdas Pophale) SiO2 
 PCOD9384618
Probable space group: P M M M
;
_chemical_formula_sum "Si O2"
_cell_formula_units_Z 40
_cell_length_a 15.633399
_cell_length_b 8.421743
_cell_length_c 15.031279
_cell_angle_alpha 90.000000
_cell_angle_beta 90.000000
_cell_angle_gamma 90.000000
_cell_volume 1979.025237
_symmetry_space_group_name_H-M "P M M M"
_symmetry_group_IT_number 47
_symmetry_cell_setting 'orthorhombic'
loop_
_space_group_symop_operation_xyz
x,y,z
-x,-y,z
x,-y,-z
-x,y,-z
-x,-y,-z
x,y,-z
-x,y,z
x,-y,z
loop_
_atom_site_type_symbol
_atom_site_label
_atom_site_fract_x
_atom_site_fract_y
_atom_site_fract_z
Si Si1 0.500000 0.681219 0.894431
Si Si2 0.598065 0.811805 0.500000
Si Si3 0.271952 0.682841 0.356165
Si Si4 0.862072 0.812373 0.902378
Si Si5 0.683487 0.685212 0.148521
Si Si6 0.093641 0.691689 0.707118
O O1 0.500000 0.500000 0.856421
O O2 0.410168 0.754971 0.867570
O O3 0.500000 0.670242 0.000000
O O4 0.500000 0.746116 0.500000
O O5 0.656133 0.762786 0.584076
O O6 0.590697 0.000000 0.500000
O O7 0.265924 0.500000 0.386461
O O8 0.300365 0.683857 0.253601
O O9 0.175262 0.751821 0.349353
O O10 0.760587 0.778084 0.896718
O O11 0.897279 0.735442 0.811741
O O12 0.878790 0.000000 0.897806
O O13 0.892407 0.754774 0.000000
O O14 0.685442 0.500000 0.117403
O O15 0.097652 0.500000 0.702769
O O16 0.000000 0.744676 0.676097
#
# Coordination Sequence:
#
# PCOD9384618 Si02
#       6
#     4   4   8   8   8   8
#     4   9  16  26  45  74 103 132 174 227 273 315
#     4  11  25  41  58  83 114 146 181 217 262 323
#     4   9  19  36  59  84 108 138 177 223 274 326
#     4  10  20  32  47  72 109 150 189 228 270 317
#     4   9  18  32  52  75 101 138 183 228 277 328
#     4   9  19  37  60  84 109 140 181 228 277 328
#
# _framework density 20.211971999999999
#
# number of rings (size 3 to 8) (size 9 to 14) (size 15 to 20)
#    0.000    2.600    0.000    2.700    1.400    7.200 
#    0.000    3.000    0.000    4.800    0.000    0.000 
#    0.000    0.000    0.000    0.000    0.000    0.000 
#
# Total GULP energy -222928.667906 kJ/mol
# GULP energy per Si atom -5573.216698 kJ/mol
# Density = 2.016597 g / cm^3
# Si number density = 20.211972 Si / 1000 Ang^3
#
#
#
# Elastic Constant Matrix: (Units=GPa)
#
#
# Indices 1 2 3 4 5 6 
#
# 1 183.8045 16.0805 37.0678 0.0000 0.0000 0.0000
# 2 16.0805 17.7668 11.9442 0.0000 0.0000 0.0000
# 3 37.0678 11.9442 67.5028 0.0000 0.0000 0.0000
# 4 0.0000 0.0000 0.0000 32.1102 0.0000 0.0000
# 5 0.0000 0.0000 0.0000 0.0000 3.2720 0.0000
# 6 0.0000 0.0000 0.0000 0.0000 0.0000 3.5446
#
#
#
# Elastic Compliance Matrix: (Units=1/GPa)
#
#
# Indices 1 2 3 4 5 6 
#
# 1 0.006343 -0.003858 -0.002800 0.000000 0.000000 0.000000
# 2 -0.003858 0.066231 -0.009600 0.000000 0.000000 0.000000
# 3 -0.002800 -0.009600 0.018051 0.000000 0.000000 0.000000
# 4 0.000000 0.000000 0.000000 0.031143 0.000000 0.000000
# 5 0.000000 0.000000 0.000000 0.000000 0.305628 0.000000
# 6 0.000000 0.000000 0.000000 0.000000 0.000000 0.282117
#
#
# Mechanical properties :
#
#
# Convention : Reuss Voigt Hill
#
# Bulk Modulus (GPa) = 17.20986 44.36214 30.78600
# Shear Modulus (GPa) = 6.56686 21.38413 13.97550
#
# Velocity S-wave (km/s) = 1.80445 3.25621 2.63239
# Velocity P-wave (km/s) = 3.58812 6.01110 4.95014
#
# Compressibility (1/GPa) = 0.05810624
#
# Stress axis : x y z
#
# Youngs Moduli (GPa) = 157.65777 15.09872 55.39948
#
# Poissons Ratio (x) = 0.05825 0.15514
# Poissons Ratio (y) = 0.60827 0.53186
# Poissons Ratio (z) = 0.44150 0.14496
#
# Static dielectric constant tensor:
#      x y z
#    x 1.780010 0.000000 0.000000 
#    y 0.000000 1.711640 0.000000 
#    z 0.000000 0.000000 1.704110 
# 
# From -- ./inp_files/23375.got.cif
#   From: 2010.05.17/outbox.cif.g08.bks.cpg/sg47_12_cif.got.tgz:23375.got - 2010.06.03 20:15:42.
