data_PCOD9384049
_publ_section_title
;
Structure prediction by ZEFSAII (Michael W. Deem and Ramdas Pophale) SiO2 
 PCOD9384049
Probable space group: P M M M
;
_chemical_formula_sum "Si O2"
_cell_formula_units_Z 48
_cell_length_a 18.228804
_cell_length_b 15.856806
_cell_length_c 8.868358
_cell_angle_alpha 90.000000
_cell_angle_beta 90.000000
_cell_angle_gamma 90.000000
_cell_volume 2563.404278
_symmetry_space_group_name_H-M "P M M M"
_symmetry_group_IT_number 47
_symmetry_cell_setting 'orthorhombic'
loop_
_space_group_symop_operation_xyz
x,y,z
-x,-y,z
x,-y,-z
-x,y,-z
-x,-y,-z
x,y,-z
-x,y,z
x,-y,z
loop_
_atom_site_type_symbol
_atom_site_label
_atom_site_fract_x
_atom_site_fract_y
_atom_site_fract_z
Si Si1 0.674060 0.355873 0.325985
Si Si2 0.817107 0.849257 0.317543
Si Si3 0.912919 0.000000 0.181593
Si Si4 0.586775 0.500000 0.171845
Si Si5 0.500000 0.899463 0.831438
Si Si6 0.350590 0.157600 0.673619
Si Si7 0.083833 0.500000 0.816394
Si Si8 0.827677 0.334601 0.179811
O O1 0.692120 0.376096 0.500000
O O2 0.614723 0.418733 0.260671
O O3 0.648732 0.259155 0.321977
O O4 0.745740 0.362211 0.223132
O O5 0.818424 0.850584 0.500000
O O6 0.871425 0.918669 0.249730
O O7 0.731637 0.866308 0.270072
O O8 0.838563 0.755627 0.260483
O O9 0.000000 0.000000 0.218223
O O10 0.906058 0.000000 0.000000
O O11 0.500000 0.500000 0.166316
O O12 0.615481 0.500000 0.000000
O O13 0.576507 0.873532 0.754853
O O14 0.500000 0.000000 0.836545
O O15 0.500000 0.863731 0.000000
O O16 0.354465 0.129374 0.500000
O O17 0.121802 0.412556 0.769157
O O18 0.000000 0.500000 0.768705
O O19 0.087154 0.500000 0.000000
O O20 0.835580 0.323095 0.000000
#
# Coordination Sequence:
#
# PCOD9384049 Si02
#       8
#     8   8   4   4   4   8   4   8
#     4  10  21  38  59  82 111 151 197 243 292 349
#     4  10  22  41  64  91 122 159 204 251 304 364
#     4  11  25  43  65  94 125 160 201 249 308 369
#     4  11  24  37  52  80 114 149 192 243 298 352
#     4  11  25  39  55  86 119 150 191 241 294 343
#     4   9  21  40  61  85 114 155 197 238 292 354
#     4   9  19  34  54  84 120 155 192 237 290 350
#     4  10  19  35  61  89 118 156 199 244 295 353
#
# _framework density 18.725100000000001
#
# number of rings (size 3 to 8) (size 9 to 14) (size 15 to 20)
#    0.000    2.000    0.000    3.750    2.333    7.333 
#    0.000    2.917    0.000    3.500    0.000    0.000 
#    0.000    0.000    0.000    0.000    0.000    0.000 
#
# Total GULP energy -267855.411721 kJ/mol
# GULP energy per Si atom -5580.321078 kJ/mol
# Density = 1.868248 g / cm^3
# Si number density = 18.725100 Si / 1000 Ang^3
#
#
#
# Elastic Constant Matrix: (Units=GPa)
#
#
# Indices 1 2 3 4 5 6 
#
# 1 147.5884 92.1290 54.7090 0.0000 0.0000 0.0000
# 2 92.1290 92.0672 39.6974 0.0000 0.0000 0.0000
# 3 54.7090 39.6974 68.4818 0.0000 0.0000 0.0000
# 4 0.0000 0.0000 0.0000 31.3352 0.0000 0.0000
# 5 0.0000 0.0000 0.0000 0.0000 20.9711 0.0000
# 6 0.0000 0.0000 0.0000 0.0000 0.0000 -39.8546
#
#
#
# Elastic Compliance Matrix: (Units=1/GPa)
#
#
# Indices 1 2 3 4 5 6 
#
# 1 0.019598 -0.017146 -0.005717 0.000000 0.000000 0.000000
# 2 -0.017146 0.029482 -0.003392 0.000000 0.000000 0.000000
# 3 -0.005717 -0.003392 0.021136 0.000000 0.000000 0.000000
# 4 0.000000 0.000000 0.000000 0.031913 0.000000 0.000000
# 5 0.000000 0.000000 0.000000 0.000000 0.047685 0.000000
# 6 0.000000 0.000000 0.000000 0.000000 0.000000 -0.025091
#
#
# Mechanical properties :
#
#
# Convention : Reuss Voigt Hill
#
# Bulk Modulus (GPa) = 56.48164 75.68981 66.08573
# Shear Modulus (GPa) = 27.30224 10.59714 18.94969
#
# Velocity S-wave (km/s) = 3.82259 2.38151 3.18464
# Velocity P-wave (km/s) = 7.05068 6.93336 6.99226
#
# Compressibility (1/GPa) = 0.01770487
#
# Stress axis : x y z
#
# Youngs Moduli (GPa) = 51.02585 33.91938 47.31171
#
# Poissons Ratio (x) = 0.58158 0.27050
# Poissons Ratio (y) = 0.87488 0.16050
# Poissons Ratio (z) = 0.29174 0.11507
#
# Static dielectric constant tensor:
#      x y z
#    x 1.638360 0.000000 0.000000 
#    y 0.000000 1.636250 0.000000 
#    z 0.000000 0.000000 1.655520 
# 
# From -- ./inp_files/9306.got.cif
#   From: 2010.05.17/outbox.cif.g08.bks.cpg/sg47_5_cif.got.tgz:9306.got - 2010.06.03 20:15:42.
