data_PCOD9384972
_publ_section_title
;
Structure prediction by ZEFSAII (Michael W. Deem and Ramdas Pophale) SiO2 
 PCOD9384972
Probable space group: P M M M
;
_chemical_formula_sum "Si O2"
_cell_formula_units_Z 64
_cell_length_a 32.318326
_cell_length_b 8.535089
_cell_length_c 14.773869
_cell_angle_alpha 90.000000
_cell_angle_beta 90.000000
_cell_angle_gamma 90.000000
_cell_volume 4075.220904
_symmetry_space_group_name_H-M "P M M M"
_symmetry_group_IT_number 47
_symmetry_cell_setting 'orthorhombic'
loop_
_space_group_symop_operation_xyz
x,y,z
-x,-y,z
x,-y,-z
-x,y,-z
-x,-y,-z
x,y,-z
-x,y,z
x,-y,z
loop_
_atom_site_type_symbol
_atom_site_label
_atom_site_fract_x
_atom_site_fract_y
_atom_site_fract_z
Si Si1 0.215717 0.187714 0.213379
Si Si2 0.338978 0.810719 0.601103
Si Si3 0.245608 0.687552 0.397904
Si Si4 0.295268 0.687996 0.105063
Si Si5 0.547086 0.310946 0.104334
Si Si6 0.865196 0.808420 0.105224
Si Si7 0.375204 0.187571 0.788862
Si Si8 0.955477 0.813974 0.890425
O O1 0.219159 0.241262 0.316962
O O2 0.255406 0.252206 0.159503
O O3 0.173518 0.241981 0.165167
O O4 0.217224 0.000000 0.209386
O O5 0.353006 0.764354 0.500000
O O6 0.292960 0.743621 0.614790
O O7 0.367232 0.761273 0.685095
O O8 0.335973 0.000000 0.603006
O O9 0.233145 0.734767 0.500000
O O10 0.244604 0.500000 0.392255
O O11 0.295845 0.500000 0.108054
O O12 0.336908 0.750002 0.151781
O O13 0.293235 0.737874 0.000000
O O14 0.500000 0.262649 0.126658
O O15 0.548415 0.500000 0.106626
O O16 0.581945 0.245923 0.169781
O O17 0.555526 0.263475 0.000000
O O18 0.910505 0.752443 0.138534
O O19 0.866242 0.000000 0.106083
O O20 0.859407 0.762555 0.000000
O O21 0.374325 0.000000 0.791458
O O22 0.000000 0.747459 0.859484
O O23 0.956082 0.000000 0.869532
O O24 0.954910 0.802520 0.000000
#
# Coordination Sequence:
#
# PCOD9384972 Si02
#       8
#     8   8   8   8   8   8   8   8
#     4  11  20  30  45  65  91 123 154 188 230 273
#     4   9  18  33  51  71  95 121 150 186 231 278
#     4  10  20  33  49  67  87 115 153 194 233 274
#     4  11  23  35  46  63  92 129 162 191 223 264
#     4   9  19  36  55  73  96 128 160 189 227 274
#     4   8  14  23  35  55  85 120 154 185 220 267
#     4  11  21  32  51  77  98 120 152 193 235 273
#     4   7   9  15  29  49  75 109 147 184 221 262
#
# _framework density 15.70467
#
# number of rings (size 3 to 8) (size 9 to 14) (size 15 to 20)
#    0.000    2.500    1.250    3.750    0.000    4.750 
#    0.000    0.625    0.000    0.375    0.000    2.625 
#    0.000    2.500    0.000   20.375    0.000   12.750 
#
# Total GULP energy -356666.187107 kJ/mol
# GULP energy per Si atom -5572.909174 kJ/mol
# Density = 1.566893 g / cm^3
# Si number density = 15.704670 Si / 1000 Ang^3
#
#
#
# Elastic Constant Matrix: (Units=GPa)
#
#
# Indices 1 2 3 4 5 6 
#
# 1 139.2882 21.8083 82.1595 0.0000 0.0000 0.0000
# 2 21.8083 16.1584 24.2624 0.0000 0.0000 0.0000
# 3 82.1595 24.2624 117.9146 0.0000 0.0000 0.0000
# 4 0.0000 0.0000 0.0000 19.9048 0.0000 0.0000
# 5 0.0000 0.0000 0.0000 0.0000 6.8219 0.0000
# 6 0.0000 0.0000 0.0000 0.0000 0.0000 166.8769
#
#
#
# Elastic Compliance Matrix: (Units=1/GPa)
#
#
# Indices 1 2 3 4 5 6 
#
# 1 0.012517 -0.005496 -0.007591 0.000000 0.000000 0.000000
# 2 -0.005496 0.091970 -0.015094 0.000000 0.000000 0.000000
# 3 -0.007591 -0.015094 0.016876 0.000000 0.000000 0.000000
# 4 0.000000 0.000000 0.000000 0.050239 0.000000 0.000000
# 5 0.000000 0.000000 0.000000 0.000000 0.146587 0.000000
# 6 0.000000 0.000000 0.000000 0.000000 0.000000 0.005992
#
#
# Mechanical properties :
#
#
# Convention : Reuss Voigt Hill
#
# Bulk Modulus (GPa) = 15.38457 58.86909 37.12683
# Shear Modulus (GPa) = 12.43128 48.39611 30.41370
#
# Velocity S-wave (km/s) = 2.81653 5.55727 4.40546
# Velocity P-wave (km/s) = 4.51603 8.87379 7.04055
#
# Compressibility (1/GPa) = 0.06500018
#
# Stress axis : x y z
#
# Youngs Moduli (GPa) = 79.88895 10.87309 59.25701
#
# Poissons Ratio (x) = 0.05976 0.44981
# Poissons Ratio (y) = 0.43909 0.89445
# Poissons Ratio (z) = 0.60642 0.16412
#
# Static dielectric constant tensor:
#      x y z
#    x 1.528980 0.000000 0.000000 
#    y 0.000000 1.538270 0.000000 
#    z 0.000000 0.000000 1.526040 
# 
# From -- ./inp_files/25876.got.cif
#   From: 2010.05.17/outbox.cif.g08.bks.cpg/sg47_13_cif.got.tgz:25876.got - 2010.06.03 20:15:42.
