data_PCOD9384560
_publ_section_title
;
Structure prediction by ZEFSAII (Michael W. Deem and Ramdas Pophale) SiO2 
 PCOD9384560
Probable space group: P M M M
;
_chemical_formula_sum "Si O2"
_cell_formula_units_Z 56
_cell_length_a 19.016754
_cell_length_b 7.919650
_cell_length_c 19.685354
_cell_angle_alpha 90.000000
_cell_angle_beta 90.000000
_cell_angle_gamma 90.000000
_cell_volume 2964.733130
_symmetry_space_group_name_H-M "P M M M"
_symmetry_group_IT_number 47
_symmetry_cell_setting 'orthorhombic'
loop_
_space_group_symop_operation_xyz
x,y,z
-x,-y,z
x,-y,-z
-x,y,-z
-x,-y,-z
x,y,-z
-x,y,z
x,-y,z
loop_
_atom_site_type_symbol
_atom_site_label
_atom_site_fract_x
_atom_site_fract_y
_atom_site_fract_z
Si Si1 0.422224 0.302319 0.782197
Si Si2 0.719285 0.191809 0.714034
Si Si3 0.634965 0.799145 0.076036
Si Si4 0.078049 0.706743 0.349947
Si Si5 0.854841 0.693726 0.213634
Si Si6 0.779934 0.704504 0.576517
Si Si7 0.798589 0.705273 0.076041
O O1 0.500000 0.234429 0.767183
O O2 0.420695 0.500000 0.765291
O O3 0.358345 0.217814 0.742305
O O4 0.406495 0.282561 0.862242
O O5 0.776284 0.303985 0.754038
O O6 0.727529 0.231501 0.634569
O O7 0.741361 0.000000 0.726821
O O8 0.718204 0.764883 0.085425
O O9 0.623600 0.000000 0.078996
O O10 0.616256 0.739313 0.000000
O O11 0.079131 0.500000 0.348704
O O12 0.097042 0.766879 0.273567
O O13 0.141850 0.757403 0.398913
O O14 0.000000 0.759767 0.370242
O O15 0.878035 0.500000 0.204813
O O16 0.845827 0.768562 0.138599
O O17 0.765577 0.761331 0.500000
O O18 0.778161 0.500000 0.577495
O O19 0.797374 0.500000 0.078874
O O20 0.820968 0.755346 0.000000
#
# Coordination Sequence:
#
# PCOD9384560 Si02
#       7
#     8   8   8   8   8   8   8
#     4  11  23  37  53  72  97 132 171 208 248 297
#     4  11  21  33  52  75 100 128 161 205 251 295
#     4  10  20  32  47  70 100 131 165 208 256 301
#     4   8  14  25  44  73 105 135 168 204 241 284
#     4   9  16  28  47  68  94 129 170 212 251 296
#     4   9  18  33  54  78 103 133 166 200 240 289
#     4   9  16  26  43  65  90 125 169 215 258 298
#
# _framework density 18.888715999999999
#
# number of rings (size 3 to 8) (size 9 to 14) (size 15 to 20)
#    0.000    2.429    1.429    3.000    0.000    2.857 
#    0.000    2.857    0.000    7.714    0.000   10.000 
#    0.000    0.000    0.000    8.714    0.000    9.429 
#
# Total GULP energy -312281.355661 kJ/mol
# GULP energy per Si atom -5576.452780 kJ/mol
# Density = 1.884572 g / cm^3
# Si number density = 18.888716 Si / 1000 Ang^3
#
#
#
# Elastic Constant Matrix: (Units=GPa)
#
#
# Indices 1 2 3 4 5 6 
#
# 1 53.4117 -0.4705 23.8184 0.0000 0.0000 0.0000
# 2 -0.4705 29.9035 -1.1852 0.0000 0.0000 0.0000
# 3 23.8184 -1.1852 105.2014 0.0000 0.0000 0.0000
# 4 0.0000 0.0000 0.0000 4.9250 0.0000 0.0000
# 5 0.0000 0.0000 0.0000 0.0000 15.8308 0.0000
# 6 0.0000 0.0000 0.0000 0.0000 0.0000 -28.5799
#
#
#
# Elastic Compliance Matrix: (Units=1/GPa)
#
#
# Indices 1 2 3 4 5 6 
#
# 1 0.020826 0.000141 -0.004713 0.000000 0.000000 0.000000
# 2 0.000141 0.033457 0.000345 0.000000 0.000000 0.000000
# 3 -0.004713 0.000345 0.010577 0.000000 0.000000 0.000000
# 4 0.000000 0.000000 0.000000 0.203046 0.000000 0.000000
# 5 0.000000 0.000000 0.000000 0.000000 0.063168 0.000000
# 6 0.000000 0.000000 0.000000 0.000000 0.000000 -0.034990
#
#
# Mechanical properties :
#
#
# Convention : Reuss Voigt Hill
#
# Bulk Modulus (GPa) = 17.72927 25.87132 21.80030
# Shear Modulus (GPa) = 15.46363 9.52545 12.49454
#
# Velocity S-wave (km/s) = 2.86435 2.24808 2.57472
# Velocity P-wave (km/s) = 4.51064 4.52382 4.51723
#
# Compressibility (1/GPa) = 0.05640390
#
# Stress axis : x y z
#
# Youngs Moduli (GPa) = 48.01767 29.88930 94.54800
#
# Poissons Ratio (x) = -0.00421 0.44565
# Poissons Ratio (y) = -0.00676 -0.03262
# Poissons Ratio (z) = 0.22633 -0.01031
#
# Static dielectric constant tensor:
#      x y z
#    x 1.633230 0.000000 0.000000 
#    y 0.000000 1.685110 0.000000 
#    z 0.000000 0.000000 1.676020 
# 
# From -- ./inp_files/28732.got.cif
#   From: 2010.05.17/outbox.cif.g08.bks.cpg/sg47_15_cif.got.tgz:28732.got - 2010.06.03 20:15:42.
