data_PCOD9384134
_publ_section_title
;
Structure prediction by ZEFSAII (Michael W. Deem and Ramdas Pophale) SiO2 
 PCOD9384134
Probable space group: P M M M
;
_chemical_formula_sum "Si O2"
_cell_formula_units_Z 64
_cell_length_a 14.578748
_cell_length_b 32.411220
_cell_length_c 8.911659
_cell_angle_alpha 90.000000
_cell_angle_beta 90.000000
_cell_angle_gamma 90.000000
_cell_volume 4210.892630
_symmetry_space_group_name_H-M "P M M M"
_symmetry_group_IT_number 47
_symmetry_cell_setting 'orthorhombic'
loop_
_space_group_symop_operation_xyz
x,y,z
-x,-y,z
x,-y,-z
-x,y,-z
-x,-y,-z
x,y,-z
-x,y,z
x,-y,z
loop_
_atom_site_type_symbol
_atom_site_label
_atom_site_fract_x
_atom_site_fract_y
_atom_site_fract_z
Si Si1 0.608228 0.544491 0.682430
Si Si2 0.391016 0.876515 0.821916
Si Si3 0.103263 0.836233 0.678072
Si Si4 0.292585 0.202648 0.320903
Si Si5 0.388446 0.634023 0.325161
Si Si6 0.288431 0.046114 0.321233
Si Si7 0.392470 0.719759 0.178999
Si Si8 0.895541 0.073860 0.821186
O O1 0.612471 0.545370 0.500000
O O2 0.500000 0.543733 0.721165
O O3 0.647514 0.500000 0.731762
O O4 0.645109 0.589142 0.732114
O O5 0.500000 0.876757 0.796526
O O6 0.346350 0.836940 0.742937
O O7 0.345709 0.917946 0.757680
O O8 0.373986 0.873996 0.000000
O O9 0.111195 0.846602 0.500000
O O10 0.185379 0.805277 0.714261
O O11 0.113973 0.878350 0.771198
O O12 0.000000 0.820348 0.703497
O O13 0.303111 0.204058 0.500000
O O14 0.333445 0.243910 0.250492
O O15 0.362666 0.638915 0.500000
O O16 0.500000 0.632102 0.320813
O O17 0.361805 0.674559 0.234338
O O18 0.290865 0.052245 0.500000
O O19 0.184067 0.049895 0.263886
O O20 0.323001 0.000000 0.287055
O O21 0.500000 0.725018 0.223124
O O22 0.387816 0.722041 0.000000
O O23 0.000000 0.061084 0.783936
O O24 0.883488 0.070162 0.000000
#
# Coordination Sequence:
#
# PCOD9384134 Si02
#       8
#     8   8   8   8   8   8   8   8
#     4   7   9  14  27  48  71  96 132 181 232 274
#     4  11  24  40  57  76  98 123 151 187 229 268
#     4   9  18  33  53  76 100 122 144 174 216 266
#     4  11  21  33  53  76  95 119 150 183 220 265
#     4   8  13  22  36  53  75 105 144 189 231 272
#     4  11  24  40  57  77 100 127 157 187 221 262
#     4  10  20  31  42  59  87 122 156 192 233 269
#     4  10  20  34  55  81 105 128 152 180 217 262
#
# _framework density 15.198679
#
# number of rings (size 3 to 8) (size 9 to 14) (size 15 to 20)
#    0.000    2.375    1.250    3.375    0.000    6.000 
#    0.000    2.500    0.000    0.375    0.000    2.625 
#    0.000    0.000    0.000    0.000    0.000    0.625 
#
# Total GULP energy -356716.343131 kJ/mol
# GULP energy per Si atom -5573.692861 kJ/mol
# Density = 1.516409 g / cm^3
# Si number density = 15.198679 Si / 1000 Ang^3
#
#
#
# Elastic Constant Matrix: (Units=GPa)
#
#
# Indices 1 2 3 4 5 6 
#
# 1 52.8520 47.8183 29.0456 0.0000 0.0000 0.0000
# 2 47.8183 135.7050 39.4243 0.0000 0.0000 0.0000
# 3 29.0456 39.4243 35.5131 0.0000 0.0000 0.0000
# 4 0.0000 0.0000 0.0000 -52.8974 0.0000 0.0000
# 5 0.0000 0.0000 0.0000 0.0000 18.7009 0.0000
# 6 0.0000 0.0000 0.0000 0.0000 0.0000 -1.4581
#
#
#
# Elastic Compliance Matrix: (Units=1/GPa)
#
#
# Indices 1 2 3 4 5 6 
#
# 1 0.037796 -0.006402 -0.023805 0.000000 0.000000 0.000000
# 2 -0.006402 0.011961 -0.008042 0.000000 0.000000 0.000000
# 3 -0.023805 -0.008042 0.056556 0.000000 0.000000 0.000000
# 4 0.000000 0.000000 0.000000 -0.018905 0.000000 0.000000
# 5 0.000000 0.000000 0.000000 0.000000 0.053473 0.000000
# 6 0.000000 0.000000 0.000000 0.000000 0.000000 -0.685807
#
#
# Mechanical properties :
#
#
# Convention : Reuss Voigt Hill
#
# Bulk Modulus (GPa) = 33.54122 50.73850 42.13986
# Shear Modulus (GPa) = -10.90543 0.05452 -5.42546
#
# Velocity S-wave (km/s) = -2.68157 0.18959 -1.89141
# Velocity P-wave (km/s) = 3.53958 5.78826 4.79753
#
# Compressibility (1/GPa) = 0.02981406
#
# Stress axis : x y z
#
# Youngs Moduli (GPa) = 26.45788 83.60280 17.68144
#
# Poissons Ratio (x) = 0.53526 0.42091
# Poissons Ratio (y) = 0.16939 0.14220
# Poissons Ratio (z) = 0.62984 0.67235
#
# Static dielectric constant tensor:
#      x y z
#    x 1.497090 0.000000 0.000000 
#    y 0.000000 1.521780 0.000000 
#    z 0.000000 0.000000 1.505470 
# 
# From -- ./inp_files/8213.got.cif
#   From: 2010.05.17/outbox.cif.g08.bks.cpg/sg47_5_cif.got.tgz:8213.got - 2010.06.03 20:15:42.
