data_PCOD9384520
_publ_section_title
;
Structure prediction by ZEFSAII (Michael W. Deem and Ramdas Pophale) SiO2 
 PCOD9384520
Probable space group: P M M M
;
_chemical_formula_sum "Si O2"
_cell_formula_units_Z 64
_cell_length_a 9.207302
_cell_length_b 29.769537
_cell_length_c 14.481994
_cell_angle_alpha 90.000000
_cell_angle_beta 90.000000
_cell_angle_gamma 90.000000
_cell_volume 3969.472812
_symmetry_space_group_name_H-M "P M M M"
_symmetry_group_IT_number 47
_symmetry_cell_setting 'orthorhombic'
loop_
_space_group_symop_operation_xyz
x,y,z
-x,-y,z
x,-y,-z
-x,y,-z
-x,-y,-z
x,y,-z
-x,y,z
x,-y,z
loop_
_atom_site_type_symbol
_atom_site_label
_atom_site_fract_x
_atom_site_fract_y
_atom_site_fract_z
Si Si1 0.174487 0.228911 0.778932
Si Si2 0.172516 0.401340 0.894111
Si Si3 0.325159 0.732788 0.391554
Si Si4 0.174265 0.859895 0.892415
Si Si5 0.668265 0.630351 0.389025
Si Si6 0.330017 0.049438 0.111920
Si Si7 0.826309 0.549713 0.288052
Si Si8 0.669211 0.308043 0.889197
O O1 0.242792 0.234410 0.677554
O O2 0.214786 0.182397 0.829453
O O3 0.241026 0.269476 0.838799
O O4 0.000000 0.232180 0.775912
O O5 0.202546 0.439640 0.819577
O O6 0.262651 0.356807 0.869545
O O7 0.000000 0.390762 0.888925
O O8 0.205089 0.413828 0.000000
O O9 0.292251 0.739583 0.500000
O O10 0.500000 0.736249 0.381215
O O11 0.283906 0.681212 0.365936
O O12 0.242982 0.906629 0.858691
O O13 0.000000 0.863849 0.891530
O O14 0.218155 0.852210 0.000000
O O15 0.674465 0.627173 0.500000
O O16 0.500000 0.626004 0.360899
O O17 0.758484 0.590534 0.344514
O O18 0.500000 0.053692 0.135734
O O19 0.278347 0.000000 0.143639
O O20 0.321166 0.048919 0.000000
O O21 0.772488 0.500000 0.313691
O O22 0.000000 0.550339 0.300910
O O23 0.500000 0.306412 0.861763
O O24 0.678041 0.301725 0.000000
#
# Coordination Sequence:
#
# PCOD9384520 Si02
#       8
#     8   8   8   8   8   8   8   8
#     4  11  21  31  46  69  98 128 157 192 233 277
#     4   9  18  33  51  68  88 117 151 185 221 262
#     4   9  19  36  55  73  93 118 151 191 232 276
#     4   9  18  30  42  61  93 131 166 197 230 270
#     4   9  19  36  55  72  90 114 144 178 219 269
#     4   8  14  25  41  61  86 119 161 206 244 274
#     4  10  21  34  48  70  96 118 143 177 218 264
#     4  10  20  32  47  68  93 122 156 191 227 270
#
# _framework density 16.123048000000001
#
# number of rings (size 3 to 8) (size 9 to 14) (size 15 to 20)
#    0.000    2.625    0.000    3.000    0.000    6.750 
#    0.000    6.250    0.000    0.000    0.000    2.625 
#    0.000    0.500    0.000    5.500    0.000    4.250 
#
# Total GULP energy -356845.222088 kJ/mol
# GULP energy per Si atom -5575.706595 kJ/mol
# Density = 1.608635 g / cm^3
# Si number density = 16.123048 Si / 1000 Ang^3
#
#
#
# Elastic Constant Matrix: (Units=GPa)
#
#
# Indices 1 2 3 4 5 6 
#
# 1 33.1107 42.1956 28.0385 0.0000 0.0000 0.0000
# 2 42.1956 109.3766 52.0533 0.0000 0.0000 0.0000
# 3 28.0385 52.0533 52.6198 0.0000 0.0000 0.0000
# 4 0.0000 0.0000 0.0000 16.4470 0.0000 0.0000
# 5 0.0000 0.0000 0.0000 0.0000 23.6499 0.0000
# 6 0.0000 0.0000 0.0000 0.0000 0.0000 20.8528
#
#
#
# Elastic Compliance Matrix: (Units=1/GPa)
#
#
# Indices 1 2 3 4 5 6 
#
# 1 0.068688 -0.017158 -0.019627 0.000000 0.000000 0.000000
# 2 -0.017158 0.021562 -0.012187 0.000000 0.000000 0.000000
# 3 -0.019627 -0.012187 0.041519 0.000000 0.000000 0.000000
# 4 0.000000 0.000000 0.000000 0.060801 0.000000 0.000000
# 5 0.000000 0.000000 0.000000 0.000000 0.042283 0.000000
# 6 0.000000 0.000000 0.000000 0.000000 0.000000 0.047955
#
#
# Mechanical properties :
#
#
# Convention : Reuss Voigt Hill
#
# Bulk Modulus (GPa) = 29.56497 48.85354 39.20926
# Shear Modulus (GPa) = 12.75418 17.04459 14.89939
#
# Velocity S-wave (km/s) = 2.81562 3.25492 3.04321
# Velocity P-wave (km/s) = 5.38026 6.67025 6.05968
#
# Compressibility (1/GPa) = 0.03382381
#
# Stress axis : x y z
#
# Youngs Moduli (GPa) = 14.55857 46.37807 24.08548
#
# Poissons Ratio (x) = 0.79574 0.47274
# Poissons Ratio (y) = 0.24979 0.29354
# Poissons Ratio (z) = 0.28575 0.56522
#
# Static dielectric constant tensor:
#      x y z
#    x 1.537730 0.000000 0.000000 
#    y 0.000000 1.528730 0.000000 
#    z 0.000000 0.000000 1.550960 
# 
# From -- ./inp_files/22154.got.cif
#   From: 2010.05.17/outbox.cif.g08.bks.cpg/sg47_12_cif.got.tgz:22154.got - 2010.06.03 20:15:42.
