data_PCOD9384095
_publ_section_title
;
Structure prediction by ZEFSAII (Michael W. Deem and Ramdas Pophale) SiO2 
 PCOD9384095
Probable space group: P M M M
;
_chemical_formula_sum "Si O2"
_cell_formula_units_Z 56
_cell_length_a 16.054211
_cell_length_b 7.741330
_cell_length_c 20.993959
_cell_angle_alpha 90.000000
_cell_angle_beta 90.000000
_cell_angle_gamma 90.000000
_cell_volume 2609.149069
_symmetry_space_group_name_H-M "P M M M"
_symmetry_group_IT_number 47
_symmetry_cell_setting 'orthorhombic'
loop_
_space_group_symop_operation_xyz
x,y,z
-x,-y,z
x,-y,-z
-x,y,-z
-x,-y,-z
x,y,-z
-x,y,z
x,-y,z
loop_
_atom_site_type_symbol
_atom_site_label
_atom_site_fract_x
_atom_site_fract_y
_atom_site_fract_z
Si Si1 0.271912 0.793388 0.929639
Si Si2 0.276240 0.703058 0.568770
Si Si3 0.591651 0.206221 0.830311
Si Si4 0.089883 0.201102 0.400316
Si Si5 0.910213 0.708592 0.118289
Si Si6 0.681238 0.292034 0.293746
Si Si7 0.132204 0.290957 0.259958
O O1 0.333746 0.724232 0.874894
O O2 0.174840 0.762109 0.915182
O O3 0.282427 0.000000 0.930813
O O4 0.292496 0.725358 0.000000
O O5 0.298890 0.779492 0.500000
O O6 0.296960 0.500000 0.567201
O O7 0.175836 0.715348 0.576718
O O8 0.317001 0.775050 0.633546
O O9 0.500000 0.275427 0.846395
O O10 0.612273 0.236544 0.756229
O O11 0.589591 0.000000 0.839385
O O12 0.092284 0.216677 0.323628
O O13 0.000000 0.271438 0.421948
O O14 0.093838 0.000000 0.418199
O O15 0.910333 0.500000 0.117644
O O16 0.903618 0.763624 0.192323
O O17 0.000000 0.767137 0.092106
O O18 0.679920 0.500000 0.296984
O O19 0.770497 0.242654 0.263639
O O20 0.125226 0.500000 0.264197
#
# Coordination Sequence:
#
# PCOD9384095 Si02
#       7
#     8   8   8   8   8   8   8
#     4  10  22  39  57  79 111 149 185 225 273 323
#     4   9  19  35  53  73 100 139 183 222 266 322
#     4  10  21  37  59  86 112 140 177 221 272 332
#     4  10  20  30  42  67 103 139 178 227 277 322
#     4  10  20  34  54  79 108 145 188 231 274 321
#     4   9  17  32  56  82 106 134 172 221 271 318
#     4   9  17  31  51  73 100 137 181 226 271 320
#
# _framework density 21.462938000000001
#
# number of rings (size 3 to 8) (size 9 to 14) (size 15 to 20)
#    0.000    2.429    1.429    1.714    0.000    6.571 
#    0.000    4.286    0.000    0.429    0.000    5.000 
#    0.000    0.000    0.000    0.000    0.000    0.000 
#
# Total GULP energy -312458.909665 kJ/mol
# GULP energy per Si atom -5579.623387 kJ/mol
# Density = 2.141409 g / cm^3
# Si number density = 21.462938 Si / 1000 Ang^3
#
#
#
# Elastic Constant Matrix: (Units=GPa)
#
#
# Indices 1 2 3 4 5 6 
#
# 1 111.3895 3.2963 59.3102 0.0000 0.0000 0.0000
# 2 3.2963 27.2855 3.5154 0.0000 0.0000 0.0000
# 3 59.3102 3.5154 137.0671 0.0000 0.0000 0.0000
# 4 0.0000 0.0000 0.0000 13.8718 0.0000 0.0000
# 5 0.0000 0.0000 0.0000 0.0000 -14.2731 0.0000
# 6 0.0000 0.0000 0.0000 0.0000 0.0000 20.5506
#
#
#
# Elastic Compliance Matrix: (Units=1/GPa)
#
#
# Indices 1 2 3 4 5 6 
#
# 1 0.011681 -0.000762 -0.005035 0.000000 0.000000 0.000000
# 2 -0.000762 0.036821 -0.000614 0.000000 0.000000 0.000000
# 3 -0.005035 -0.000614 0.009490 0.000000 0.000000 0.000000
# 4 0.000000 0.000000 0.000000 0.072089 0.000000 0.000000
# 5 0.000000 0.000000 0.000000 0.000000 -0.070062 0.000000
# 6 0.000000 0.000000 0.000000 0.000000 0.000000 0.048660
#
#
# Mechanical properties :
#
#
# Convention : Reuss Voigt Hill
#
# Bulk Modulus (GPa) = 22.13945 45.33178 33.73561
# Shear Modulus (GPa) = 36.61433 18.00455 27.30944
#
# Velocity S-wave (km/s) = 4.13477 2.89946 3.57094
# Velocity P-wave (km/s) = 5.75611 5.68999 5.72314
#
# Compressibility (1/GPa) = 0.04516823
#
# Stress axis : x y z
#
# Youngs Moduli (GPa) = 85.60950 27.15859 105.37295
#
# Poissons Ratio (x) = 0.02071 0.53054
# Poissons Ratio (y) = 0.06527 0.06474
# Poissons Ratio (z) = 0.43104 0.01669
#
# Static dielectric constant tensor:
#      x y z
#    x 1.776340 0.000000 0.000000 
#    y 0.000000 1.795600 0.000000 
#    z 0.000000 0.000000 1.804630 
# 
# From -- ./inp_files/7263.got.cif
#   From: 2010.05.17/outbox.cif.g08.bks.cpg/sg47_4_cif.got.tgz:7263.got - 2010.06.03 20:15:42.
