data_PCOD9384908
_publ_section_title
;
Structure prediction by ZEFSAII (Michael W. Deem and Ramdas Pophale) SiO2 
 PCOD9384908
Probable space group: P M M M
;
_chemical_formula_sum "Si O2"
_cell_formula_units_Z 48
_cell_length_a 7.315330
_cell_length_b 19.344801
_cell_length_c 20.901567
_cell_angle_alpha 90.000000
_cell_angle_beta 90.000000
_cell_angle_gamma 90.000000
_cell_volume 2957.856057
_symmetry_space_group_name_H-M "P M M M"
_symmetry_group_IT_number 47
_symmetry_cell_setting 'orthorhombic'
loop_
_space_group_symop_operation_xyz
x,y,z
-x,-y,z
x,-y,-z
-x,y,-z
-x,-y,-z
x,y,-z
-x,y,z
x,-y,z
loop_
_atom_site_type_symbol
_atom_site_label
_atom_site_fract_x
_atom_site_fract_y
_atom_site_fract_z
Si Si1 0.500000 0.688032 0.573005
Si Si2 0.781965 0.275368 0.793873
Si Si3 0.781719 0.862059 0.136566
Si Si4 0.781782 0.578454 0.377179
Si Si5 0.779301 0.575046 0.774126
Si Si6 0.500000 0.781534 0.693493
Si Si7 0.777997 0.920377 0.000000
Si Si8 0.500000 0.079248 0.763575
O O1 0.500000 0.710733 0.500000
O O2 0.328236 0.637728 0.587316
O O3 0.500000 0.751410 0.622625
O O4 0.744646 0.218487 0.848095
O O5 0.722710 0.353935 0.807544
O O6 0.674158 0.249271 0.731638
O O7 0.000000 0.275283 0.782060
O O8 0.672744 0.904592 0.190249
O O9 0.000000 0.873540 0.142401
O O10 0.722475 0.884040 0.065809
O O11 0.736525 0.500000 0.398614
O O12 0.735237 0.581932 0.301392
O O13 0.000000 0.587036 0.383101
O O14 0.712061 0.500000 0.796520
O O15 0.000000 0.572750 0.777841
O O16 0.500000 0.863546 0.707340
O O17 0.000000 0.919859 0.000000
O O18 0.719051 0.000000 0.000000
O O19 0.500000 0.000000 0.742819
#
# Coordination Sequence:
#
# PCOD9384908 Si02
#       8
#     4   8   8   8   8   4   4   4
#     4  12  23  32  46  66  89 120 154 184 223 275
#     4   9  16  29  47  64  86 117 152 187 222 258
#     4   9  18  30  46  69  96 125 152 179 213 259
#     4   9  18  32  47  64  90 122 153 184 220 264
#     4   8  13  23  42  64  84 111 146 183 223 258
#     4  10  20  33  47  65  89 112 141 186 229 265
#     4   9  16  27  43  65  97 128 149 173 211 264
#     4  10  20  33  51  72  90 112 147 187 226 266
#
# _framework density 16.227969999999999
#
# number of rings (size 3 to 8) (size 9 to 14) (size 15 to 20)
#    0.000    2.750    1.667    1.750    0.000    2.333 
#    0.000    2.083    0.000    0.250    0.000    0.583 
#    0.000    4.667    0.000   15.833    0.000   17.167 
#
# Total GULP energy -267497.009998 kJ/mol
# GULP energy per Si atom -5572.854375 kJ/mol
# Density = 1.619103 g / cm^3
# Si number density = 16.227970 Si / 1000 Ang^3
#
#
#
# Elastic Constant Matrix: (Units=GPa)
#
#
# Indices 1 2 3 4 5 6 
#
# 1 65.2252 27.6216 22.4429 0.0000 0.0000 0.0000
# 2 27.6216 169.7770 70.5356 0.0000 0.0000 0.0000
# 3 22.4429 70.5356 91.6886 0.0000 0.0000 0.0000
# 4 0.0000 0.0000 0.0000 21.7131 0.0000 0.0000
# 5 0.0000 0.0000 0.0000 0.0000 9.1550 0.0000
# 6 0.0000 0.0000 0.0000 0.0000 0.0000 11.9632
#
#
#
# Elastic Compliance Matrix: (Units=1/GPa)
#
#
# Indices 1 2 3 4 5 6 
#
# 1 0.017006 -0.001525 -0.002990 0.000000 0.000000 0.000000
# 2 -0.001525 0.008794 -0.006392 0.000000 0.000000 0.000000
# 3 -0.002990 -0.006392 0.016555 0.000000 0.000000 0.000000
# 4 0.000000 0.000000 0.000000 0.046055 0.000000 0.000000
# 5 0.000000 0.000000 0.000000 0.000000 0.109230 0.000000
# 6 0.000000 0.000000 0.000000 0.000000 0.000000 0.083590
#
#
# Mechanical properties :
#
#
# Convention : Reuss Voigt Hill
#
# Bulk Modulus (GPa) = 48.67879 63.09901 55.88890
# Shear Modulus (GPa) = 16.13479 22.30563 19.22021
#
# Velocity S-wave (km/s) = 3.15661 3.71147 3.44523
# Velocity P-wave (km/s) = 6.58388 7.57192 7.09512
#
# Compressibility (1/GPa) = 0.02054283
#
# Stress axis : x y z
#
# Youngs Moduli (GPa) = 58.80325 113.71864 60.40332
#
# Poissons Ratio (x) = 0.17338 0.18058
# Poissons Ratio (y) = 0.08966 0.38608
# Poissons Ratio (z) = 0.17580 0.72686
#
# Static dielectric constant tensor:
#      x y z
#    x 1.589060 0.000000 0.000000 
#    y 0.000000 1.570040 0.000000 
#    z 0.000000 0.000000 1.510570 
# 
# From -- ./inp_files/29864.got.cif
#   From: 2010.05.17/outbox.cif.g08.bks.cpg/sg47_15_cif.got.tgz:29864.got - 2010.06.03 20:15:42.
