data_PCOD9384209
_publ_section_title
;
Structure prediction by ZEFSAII (Michael W. Deem and Ramdas Pophale) SiO2 
 PCOD9384209
Probable space group: P M M M
;
_chemical_formula_sum "Si O2"
_cell_formula_units_Z 56
_cell_length_a 7.556117
_cell_length_b 19.741526
_cell_length_c 17.793891
_cell_angle_alpha 90.000000
_cell_angle_beta 90.000000
_cell_angle_gamma 90.000000
_cell_volume 2654.301913
_symmetry_space_group_name_H-M "P M M M"
_symmetry_group_IT_number 47
_symmetry_cell_setting 'orthorhombic'
loop_
_space_group_symop_operation_xyz
x,y,z
-x,-y,z
x,-y,-z
-x,y,-z
-x,-y,-z
x,y,-z
-x,y,z
x,-y,z
loop_
_atom_site_type_symbol
_atom_site_label
_atom_site_fract_x
_atom_site_fract_y
_atom_site_fract_z
Si Si1 0.290792 0.870116 0.081717
Si Si2 0.203581 0.425299 0.878192
Si Si3 0.785724 0.279374 0.864588
Si Si4 0.288330 0.424026 0.295650
Si Si5 0.205213 0.926138 0.240337
Si Si6 0.709958 0.683148 0.584416
Si Si7 0.786451 0.783143 0.708081
O O1 0.500000 0.883127 0.084504
O O2 0.263230 0.789369 0.092630
O O3 0.208803 0.908891 0.151807
O O4 0.222311 0.890129 0.000000
O O5 0.281266 0.500000 0.897642
O O6 0.280435 0.351116 0.897759
O O7 0.205493 0.421117 0.787067
O O8 0.000000 0.426738 0.904368
O O9 0.726481 0.264398 0.778148
O O10 0.000000 0.283705 0.864298
O O11 0.500000 0.413714 0.284814
O O12 0.262922 0.500000 0.324686
O O13 0.217336 0.371822 0.356731
O O14 0.282966 0.858866 0.278143
O O15 0.000000 0.929114 0.263668
O O16 0.285070 0.000000 0.254267
O O17 0.781693 0.681596 0.500000
O O18 0.500000 0.669917 0.579361
O O19 0.735338 0.753173 0.628269
O O20 0.000000 0.784479 0.713361
#
# Coordination Sequence:
#
# PCOD9384209 Si02
#       7
#     8   8   8   8   8   8   8
#     4  10  21  34  49  74 106 135 161 190 226 273
#     4   9  16  27  45  68  93 120 155 204 254 291
#     4   9  17  30  49  71  94 125 165 204 242 285
#     4   9  17  28  42  62  90 125 163 201 243 289
#     4   9  19  36  57  79 101 126 156 190 231 281
#     4  10  20  31  44  65  94 129 166 203 243 286
#     4   9  17  31  50  72  94 118 155 198 238 282
#
# _framework density 21.097826000000001
#
# number of rings (size 3 to 8) (size 9 to 14) (size 15 to 20)
#    0.000    2.714    1.429    1.286    0.000    5.143 
#    0.000    2.857    0.000    0.857    0.000    9.000 
#    0.000    0.000    0.000    0.000    0.000    0.000 
#
# Total GULP energy -312262.321448 kJ/mol
# GULP energy per Si atom -5576.112883 kJ/mol
# Density = 2.104981 g / cm^3
# Si number density = 21.097826 Si / 1000 Ang^3
#
#
#
# Elastic Constant Matrix: (Units=GPa)
#
#
# Indices 1 2 3 4 5 6 
#
# 1 53.6151 2.5213 -4.3060 0.0000 0.0000 0.0000
# 2 2.5213 106.2860 -5.5404 0.0000 0.0000 0.0000
# 3 -4.3060 -5.5404 59.4962 0.0000 0.0000 0.0000
# 4 0.0000 0.0000 0.0000 3.2200 0.0000 0.0000
# 5 0.0000 0.0000 0.0000 0.0000 13.6179 0.0000
# 6 0.0000 0.0000 0.0000 0.0000 0.0000 12.0519
#
#
#
# Elastic Compliance Matrix: (Units=1/GPa)
#
#
# Indices 1 2 3 4 5 6 
#
# 1 0.018775 -0.000376 0.001324 0.000000 0.000000 0.000000
# 2 -0.000376 0.009462 0.000854 0.000000 0.000000 0.000000
# 3 0.001324 0.000854 0.016983 0.000000 0.000000 0.000000
# 4 0.000000 0.000000 0.000000 0.310564 0.000000 0.000000
# 5 0.000000 0.000000 0.000000 0.000000 0.073433 0.000000
# 6 0.000000 0.000000 0.000000 0.000000 0.000000 0.082974
#
#
# Mechanical properties :
#
#
# Convention : Reuss Voigt Hill
#
# Bulk Modulus (GPa) = 20.48206 22.74970 21.61588
# Shear Modulus (GPa) = 9.52629 20.89278 15.20953
#
# Velocity S-wave (km/s) = 2.12723 3.15029 2.68788
# Velocity P-wave (km/s) = 3.97022 4.90294 4.46102
#
# Compressibility (1/GPa) = 0.04882321
#
# Stress axis : x y z
#
# Youngs Moduli (GPa) = 53.26095 105.68577 58.88197
#
# Poissons Ratio (x) = 0.03978 -0.07795
# Poissons Ratio (y) = 0.02005 -0.05028
# Poissons Ratio (z) = -0.07051 -0.09024
#
# Static dielectric constant tensor:
#      x y z
#    x 1.786180 0.000000 0.000000 
#    y 0.000000 1.819340 0.000000 
#    z 0.000000 0.000000 1.740100 
# 
# From -- ./inp_files/9802.got.cif
#   From: 2010.05.17/outbox.cif.g08.bks.cpg/sg47_5_cif.got.tgz:9802.got - 2010.06.03 20:15:42.
