data_PCOD9384957
_publ_section_title
;
Structure prediction by ZEFSAII (Michael W. Deem and Ramdas Pophale) SiO2 
 PCOD9384957
Probable space group: P M M M
;
_chemical_formula_sum "Si O2"
_cell_formula_units_Z 64
_cell_length_a 20.097227
_cell_length_b 9.038563
_cell_length_c 19.605466
_cell_angle_alpha 90.000000
_cell_angle_beta 90.000000
_cell_angle_gamma 90.000000
_cell_volume 3561.333926
_symmetry_space_group_name_H-M "P M M M"
_symmetry_group_IT_number 47
_symmetry_cell_setting 'orthorhombic'
loop_
_space_group_symop_operation_xyz
x,y,z
-x,-y,z
x,-y,-z
-x,y,-z
-x,-y,-z
x,y,-z
-x,y,z
x,-y,z
loop_
_atom_site_type_symbol
_atom_site_label
_atom_site_fract_x
_atom_site_fract_y
_atom_site_fract_z
Si Si1 0.600314 0.169507 0.424201
Si Si2 0.921446 0.825747 0.786595
Si Si3 0.679534 0.679409 0.814131
Si Si4 0.422968 0.822823 0.918666
Si Si5 0.239410 0.172470 0.423161
Si Si6 0.080625 0.668995 0.076016
Si Si7 0.430335 0.323747 0.289517
Si Si8 0.198974 0.676863 0.719299
O O1 0.577869 0.206830 0.500000
O O2 0.680370 0.175668 0.423684
O O3 0.574443 0.276393 0.366954
O O4 0.581179 0.000000 0.409171
O O5 0.901993 0.778588 0.863565
O O6 0.874259 0.733387 0.737560
O O7 0.000000 0.792527 0.777935
O O8 0.911805 0.000000 0.776671
O O9 0.679698 0.500000 0.821912
O O10 0.638397 0.746440 0.878151
O O11 0.632301 0.729825 0.751884
O O12 0.752021 0.721438 0.783076
O O13 0.500000 0.775030 0.901175
O O14 0.419782 0.000000 0.906842
O O15 0.415633 0.797555 0.000000
O O16 0.218238 0.224548 0.500000
O O17 0.218118 0.258265 0.354945
O O18 0.219052 0.000000 0.417134
O O19 0.102252 0.500000 0.091206
O O20 0.000000 0.666365 0.073348
O O21 0.104247 0.708951 0.000000
O O22 0.500000 0.267107 0.260461
O O23 0.429606 0.500000 0.284437
O O24 0.202714 0.500000 0.715383
#
# Coordination Sequence:
#
# PCOD9384957 Si02
#       8
#     8   8   8   8   8   8   8   8
#     4   9  18  32  49  70  98 133 173 215 256 303
#     4  10  21  36  55  81 112 145 181 222 271 329
#     4  10  21  36  53  77 106 137 176 221 267 318
#     4   9  19  36  57  81 108 140 182 231 280 327
#     4   9  18  34  56  80 106 138 177 220 267 321
#     4   8  14  27  49  76 106 140 176 213 252 297
#     4  10  20  33  48  69 101 137 172 214 260 306
#     4  11  22  36  57  83 110 142 179 222 272 323
#
# _framework density 17.970794999999999
#
# number of rings (size 3 to 8) (size 9 to 14) (size 15 to 20)
#    0.000    2.500    1.250    2.625    0.000    4.500 
#    0.000    5.000    0.000    1.125    0.000    2.625 
#    0.000    0.000    0.000    0.000    0.000    0.000 
#
# Total GULP energy -356282.682417 kJ/mol
# GULP energy per Si atom -5566.916913 kJ/mol
# Density = 1.792989 g / cm^3
# Si number density = 17.970795 Si / 1000 Ang^3
#
#
#
# Elastic Constant Matrix: (Units=GPa)
#
#
# Indices 1 2 3 4 5 6 
#
# 1 64.5894 33.3860 40.0438 0.0000 0.0000 0.0000
# 2 33.3860 32.6787 36.0417 0.0000 0.0000 0.0000
# 3 40.0438 36.0417 85.2024 0.0000 0.0000 0.0000
# 4 0.0000 0.0000 0.0000 34.5666 0.0000 0.0000
# 5 0.0000 0.0000 0.0000 0.0000 23.1588 0.0000
# 6 0.0000 0.0000 0.0000 0.0000 0.0000 18.8264
#
#
#
# Elastic Compliance Matrix: (Units=1/GPa)
#
#
# Indices 1 2 3 4 5 6 
#
# 1 0.033055 -0.031186 -0.002343 0.000000 0.000000 0.000000
# 2 -0.031186 0.086787 -0.022055 0.000000 0.000000 0.000000
# 3 -0.002343 -0.022055 0.022168 0.000000 0.000000 0.000000
# 4 0.000000 0.000000 0.000000 0.028930 0.000000 0.000000
# 5 0.000000 0.000000 0.000000 0.000000 0.043180 0.000000
# 6 0.000000 0.000000 0.000000 0.000000 0.000000 0.053117
#
#
# Mechanical properties :
#
#
# Convention : Reuss Voigt Hill
#
# Bulk Modulus (GPa) = 32.42463 44.60152 38.51307
# Shear Modulus (GPa) = 12.86387 20.17697 16.52042
#
# Velocity S-wave (km/s) = 2.67839 3.35440 3.03527
# Velocity P-wave (km/s) = 5.25805 6.31470 5.81045
#
# Compressibility (1/GPa) = 0.03084076
#
# Stress axis : x y z
#
# Youngs Moduli (GPa) = 30.25239 11.52248 45.11100
#
# Poissons Ratio (x) = 0.35934 0.10571
# Poissons Ratio (y) = 0.94346 0.99492
# Poissons Ratio (z) = 0.07089 0.25413
#
# Static dielectric constant tensor:
#      x y z
#    x 1.660450 0.000000 0.000000 
#    y 0.000000 1.608130 0.000000 
#    z 0.000000 0.000000 1.630250 
# 
# From -- ./inp_files/28801.got.cif
#   From: 2010.05.17/outbox.cif.g08.bks.cpg/sg47_15_cif.got.tgz:28801.got - 2010.06.03 20:15:42.
