data_PCOD9384112
_publ_section_title
;
Structure prediction by ZEFSAII (Michael W. Deem and Ramdas Pophale) SiO2 
 PCOD9384112
Probable space group: P M M M
;
_chemical_formula_sum "Si O2"
_cell_formula_units_Z 52
_cell_length_a 7.596483
_cell_length_b 14.136588
_cell_length_c 29.708108
_cell_angle_alpha 90.000000
_cell_angle_beta 90.000000
_cell_angle_gamma 90.000000
_cell_volume 3190.304712
_symmetry_space_group_name_H-M "P M M M"
_symmetry_group_IT_number 47
_symmetry_cell_setting 'orthorhombic'
loop_
_space_group_symop_operation_xyz
x,y,z
-x,-y,z
x,-y,-z
-x,y,-z
-x,-y,-z
x,y,-z
-x,y,z
x,-y,z
loop_
_atom_site_type_symbol
_atom_site_label
_atom_site_fract_x
_atom_site_fract_y
_atom_site_fract_z
Si Si1 0.500000 0.384645 0.948407
Si Si2 0.793785 0.201712 0.549679
Si Si3 0.798100 0.384812 0.879670
Si Si4 0.784264 0.893655 0.359563
Si Si5 0.787467 0.293098 0.310682
Si Si6 0.784926 0.609145 0.220180
Si Si7 0.291570 0.605766 0.596678
O O1 0.500000 0.500000 0.949179
O O2 0.670152 0.355074 0.919636
O O3 0.500000 0.352601 0.000000
O O4 0.716276 0.189060 0.500000
O O5 0.722257 0.139442 0.590875
O O6 0.782514 0.310704 0.565664
O O7 0.000000 0.177587 0.546896
O O8 0.798879 0.500000 0.878749
O O9 0.733607 0.356909 0.829701
O O10 0.000000 0.354387 0.886162
O O11 0.727785 0.811493 0.325293
O O12 0.000000 0.892318 0.359991
O O13 0.728734 0.000000 0.349170
O O14 0.724233 0.330014 0.262583
O O15 0.739299 0.362902 0.351655
O O16 0.000000 0.291630 0.309055
O O17 0.729625 0.500000 0.226070
O O18 0.000000 0.608936 0.219858
O O19 0.500000 0.604451 0.588831
O O20 0.221752 0.500000 0.588820
#
# Coordination Sequence:
#
# PCOD9384112 Si02
#       7
#     4   8   8   8   8   8   8
#     4   9  16  24  34  50  72 102 143 183 214 245
#     4   9  18  31  46  62  76  96 129 161 189 228
#     4   8  14  24  35  49  72 101 135 176 216 248
#     4   8  14  25  42  64  85 100 119 155 198 235
#     4   9  16  27  44  62  79 103 134 162 190 232
#     4   8  13  22  37  55  75 100 130 164 199 232
#     4  10  20  31  41  57  82 105 124 152 193 237
#
# _framework density 16.299384
#
# number of rings (size 3 to 8) (size 9 to 14) (size 15 to 20)
#    0.000    3.308    0.000    2.769    0.000    3.077 
#    1.385    4.615    0.000    7.385    0.000    4.308 
#    0.000    0.000    0.000    0.000    0.000    1.538 
#
# Total GULP energy -289668.558743 kJ/mol
# GULP energy per Si atom -5570.549207 kJ/mol
# Density = 1.626229 g / cm^3
# Si number density = 16.299384 Si / 1000 Ang^3
#
#
#
# Elastic Constant Matrix: (Units=GPa)
#
#
# Indices 1 2 3 4 5 6 
#
# 1 45.5570 0.9147 24.5111 0.0000 0.0000 0.0000
# 2 0.9147 58.1613 22.2614 0.0000 0.0000 0.0000
# 3 24.5111 22.2614 129.0072 0.0000 0.0000 0.0000
# 4 0.0000 0.0000 0.0000 5.2030 0.0000 0.0000
# 5 0.0000 0.0000 0.0000 0.0000 -164.7907 0.0000
# 6 0.0000 0.0000 0.0000 0.0000 0.0000 169.1531
#
#
#
# Elastic Compliance Matrix: (Units=1/GPa)
#
#
# Indices 1 2 3 4 5 6 
#
# 1 0.024571 0.001500 -0.004927 0.000000 0.000000 0.000000
# 2 0.001500 0.018501 -0.003477 0.000000 0.000000 0.000000
# 3 -0.004927 -0.003477 0.009288 0.000000 0.000000 0.000000
# 4 0.000000 0.000000 0.000000 0.192196 0.000000 0.000000
# 5 0.000000 0.000000 0.000000 0.000000 -0.006068 0.000000
# 6 0.000000 0.000000 0.000000 0.000000 0.000000 0.005912
#
#
# Mechanical properties :
#
#
# Convention : Reuss Voigt Hill
#
# Bulk Modulus (GPa) = 25.94048 36.45553 31.19801
# Shear Modulus (GPa) = 18.44613 14.24899 16.34756
#
# Velocity S-wave (km/s) = 3.36774 2.95990 3.17038
# Velocity P-wave (km/s) = 5.57420 5.83919 5.70823
#
# Compressibility (1/GPa) = 0.03854978
#
# Stress axis : x y z
#
# Youngs Moduli (GPa) = 40.69763 54.05126 107.66879
#
# Poissons Ratio (x) = -0.08105 0.53052
# Poissons Ratio (y) = -0.06103 0.37441
# Poissons Ratio (z) = 0.20053 0.18796
#
# Static dielectric constant tensor:
#      x y z
#    x 1.664850 0.000000 0.000000 
#    y 0.000000 1.528760 0.000000 
#    z 0.000000 0.000000 1.552710 
# 
# From -- ./inp_files/33378.got.cif
#   From: 2010.05.17/outbox.cif.g08.bks.cpg/sg47_17_cif.got.tgz:33378.got - 2010.06.03 20:15:42.
