data_PCOD9384621
_publ_section_title
;
Structure prediction by ZEFSAII (Michael W. Deem and Ramdas Pophale) SiO2 
 PCOD9384621
Probable space group: P M M M
;
_chemical_formula_sum "Si O2"
_cell_formula_units_Z 32
_cell_length_a 11.980923
_cell_length_b 8.775710
_cell_length_c 18.571948
_cell_angle_alpha 90.000000
_cell_angle_beta 90.000000
_cell_angle_gamma 90.000000
_cell_volume 1952.675149
_symmetry_space_group_name_H-M "P M M M"
_symmetry_group_IT_number 47
_symmetry_cell_setting 'orthorhombic'
loop_
_space_group_symop_operation_xyz
x,y,z
-x,-y,z
x,-y,-z
-x,y,-z
-x,-y,-z
x,y,-z
-x,y,z
x,-y,z
loop_
_atom_site_type_symbol
_atom_site_label
_atom_site_fract_x
_atom_site_fract_y
_atom_site_fract_z
Si Si1 0.626586 0.185206 0.000000
Si Si2 0.368978 0.681568 0.269752
Si Si3 0.635165 0.821992 0.579259
Si Si4 0.000000 0.682951 0.084946
Si Si5 0.769188 0.816863 0.138864
O O1 0.692187 0.231649 0.071333
O O2 0.500000 0.241136 0.000000
O O3 0.623735 0.000000 0.000000
O O4 0.500000 0.728173 0.260404
O O5 0.363833 0.500000 0.262062
O O6 0.332141 0.729125 0.350229
O O7 0.291198 0.760004 0.210788
O O8 0.674160 0.769015 0.500000
O O9 0.500000 0.815962 0.577480
O O10 0.665814 0.000000 0.587472
O O11 0.109729 0.747242 0.123720
O O12 0.000000 0.500000 0.087393
O O13 0.000000 0.729371 0.000000
O O14 0.776744 0.000000 0.139501
#
# Coordination Sequence:
#
# PCOD9384621 Si02
#       5
#     4   8   8   4   8
#     4   9  18  31  49  74 100 127 162 205 250 295
#     4  10  20  32  47  73 109 142 171 207 257 311
#     4   8  14  26  45  69  98 134 174 211 248 295
#     4  11  23  39  57  75 100 129 164 213 267 313
#     4  11  21  35  55  75  99 131 174 217 254 299
#
# _framework density 16.387774
#
# number of rings (size 3 to 8) (size 9 to 14) (size 15 to 20)
#    0.000    2.250    1.250    3.375    0.000    3.500 
#    0.000    2.500    0.000    3.000    0.000    0.875 
#    0.000    7.000    0.000    0.000    0.000    0.000 
#
# Total GULP energy -178442.725216 kJ/mol
# GULP energy per Si atom -5576.335163 kJ/mol
# Density = 1.635047 g / cm^3
# Si number density = 16.387774 Si / 1000 Ang^3
#
#
#
# Elastic Constant Matrix: (Units=GPa)
#
#
# Indices 1 2 3 4 5 6 
#
# 1 111.2538 38.1212 68.8899 0.0000 0.0000 0.0000
# 2 38.1212 52.8155 49.6915 0.0000 0.0000 0.0000
# 3 68.8899 49.6915 149.6811 0.0000 0.0000 0.0000
# 4 0.0000 0.0000 0.0000 21.1391 0.0000 0.0000
# 5 0.0000 0.0000 0.0000 0.0000 -1.6157 0.0000
# 6 0.0000 0.0000 0.0000 0.0000 0.0000 18.8156
#
#
#
# Elastic Compliance Matrix: (Units=1/GPa)
#
#
# Indices 1 2 3 4 5 6 
#
# 1 0.013672 -0.005741 -0.004386 0.000000 0.000000 0.000000
# 2 -0.005741 0.029945 -0.007299 0.000000 0.000000 0.000000
# 3 -0.004386 -0.007299 0.011123 0.000000 0.000000 0.000000
# 4 0.000000 0.000000 0.000000 0.047306 0.000000 0.000000
# 5 0.000000 0.000000 0.000000 0.000000 -0.618911 0.000000
# 6 0.000000 0.000000 0.000000 0.000000 0.000000 0.053147
#
#
# Mechanical properties :
#
#
# Convention : Reuss Voigt Hill
#
# Bulk Modulus (GPa) = 50.28498 69.68395 59.98447
# Shear Modulus (GPa) = -11.84168 18.13765 3.14799
#
# Velocity S-wave (km/s) = -2.69102 3.33044 1.38748
# Velocity P-wave (km/s) = 4.59299 7.57650 6.26494
#
# Compressibility (1/GPa) = 0.01988666
#
# Stress axis : x y z
#
# Youngs Moduli (GPa) = 73.14342 33.39485 89.90547
#
# Poissons Ratio (x) = 0.19172 0.39436
# Poissons Ratio (y) = 0.41992 0.65621
# Poissons Ratio (z) = 0.32084 0.24374
#
# Static dielectric constant tensor:
#      x y z
#    x 1.526140 0.000000 0.000000 
#    y 0.000000 1.544810 0.000000 
#    z 0.000000 0.000000 1.556980 
# 
# From -- ./inp_files/3366.got.cif
#   From: 2010.05.17/outbox.cif.g08.bks.cpg/sg47_2_cif.got.tgz:3366.got - 2010.06.03 20:15:42.
