data_PCOD9384634
_publ_section_title
;
Structure prediction by ZEFSAII (Michael W. Deem and Ramdas Pophale) SiO2 
 PCOD9384634
Probable space group: P M M M
;
_chemical_formula_sum "Si O2"
_cell_formula_units_Z 52
_cell_length_a 15.075015
_cell_length_b 7.400435
_cell_length_c 20.925433
_cell_angle_alpha 90.000000
_cell_angle_beta 90.000000
_cell_angle_gamma 90.000000
_cell_volume 2334.476222
_symmetry_space_group_name_H-M "P M M M"
_symmetry_group_IT_number 47
_symmetry_cell_setting 'orthorhombic'
loop_
_space_group_symop_operation_xyz
x,y,z
-x,-y,z
x,-y,-z
-x,y,-z
-x,-y,-z
x,y,-z
-x,y,z
x,-y,z
loop_
_atom_site_type_symbol
_atom_site_label
_atom_site_fract_x
_atom_site_fract_y
_atom_site_fract_z
Si Si1 0.209946 0.708094 0.431097
Si Si2 0.102163 0.281041 0.311478
Si Si3 0.397637 0.279081 0.000000
Si Si4 0.401356 0.208092 0.608876
Si Si5 0.099676 0.720500 0.165419
Si Si6 0.600448 0.282102 0.757436
Si Si7 0.714654 0.279311 0.877298
O O1 0.187199 0.790024 0.500000
O O2 0.179627 0.500000 0.432939
O O3 0.166048 0.787430 0.367278
O O4 0.315869 0.706742 0.422987
O O5 0.110937 0.500000 0.308657
O O6 0.118430 0.221526 0.238731
O O7 0.000000 0.239393 0.327193
O O8 0.344233 0.221355 0.937079
O O9 0.398606 0.500000 0.000000
O O10 0.500000 0.221218 0.000000
O O11 0.500000 0.284481 0.596502
O O12 0.386870 0.215352 0.685472
O O13 0.402477 0.000000 0.588725
O O14 0.098320 0.500000 0.165364
O O15 0.182673 0.776827 0.122564
O O16 0.000000 0.778860 0.147980
O O17 0.500000 0.235149 0.777399
O O18 0.606109 0.500000 0.753600
O O19 0.669221 0.221736 0.810852
O O20 0.713228 0.500000 0.877396
#
# Coordination Sequence:
#
# PCOD9384634 Si02
#       7
#     8   8   4   8   8   8   8
#     4  10  20  32  48  71  95 120 153 190 226 270
#     4   8  14  26  45  69  95 119 145 184 232 277
#     4   9  16  24  33  51  84 122 155 184 220 268
#     4  10  21  35  49  66  90 121 156 194 237 282
#     4   8  13  21  34  53  78 110 146 179 215 263
#     4   9  16  27  46  69  88 109 144 191 237 276
#     4   9  15  23  37  58  86 117 146 181 224 265
#
# _framework density 22.274805000000001
#
# number of rings (size 3 to 8) (size 9 to 14) (size 15 to 20)
#    0.000    3.000    0.000    2.769    0.000    6.154 
#    0.000    3.462    0.000    2.769    0.000    1.615 
#    0.000    3.077    0.000    0.000    0.000    8.615 
#
# Total GULP energy -290261.647322 kJ/mol
# GULP energy per Si atom -5581.954756 kJ/mol
# Density = 2.222411 g / cm^3
# Si number density = 22.274805 Si / 1000 Ang^3
#
#
#
# Elastic Constant Matrix: (Units=GPa)
#
#
# Indices 1 2 3 4 5 6 
#
# 1 149.5572 1.9694 71.5607 0.0000 0.0000 0.0000
# 2 1.9694 71.1433 -1.2242 0.0000 0.0000 0.0000
# 3 71.5607 -1.2242 61.8001 0.0000 0.0000 0.0000
# 4 0.0000 0.0000 0.0000 37.9453 0.0000 0.0000
# 5 0.0000 0.0000 0.0000 0.0000 9.7089 0.0000
# 6 0.0000 0.0000 0.0000 0.0000 0.0000 -62.7055
#
#
#
# Elastic Compliance Matrix: (Units=1/GPa)
#
#
# Indices 1 2 3 4 5 6 
#
# 1 0.015030 -0.000716 -0.017418 0.000000 0.000000 0.000000
# 2 -0.000716 0.014095 0.001108 0.000000 0.000000 0.000000
# 3 -0.017418 0.001108 0.036372 0.000000 0.000000 0.000000
# 4 0.000000 0.000000 0.000000 0.026354 0.000000 0.000000
# 5 0.000000 0.000000 0.000000 0.000000 0.102999 0.000000
# 6 0.000000 0.000000 0.000000 0.000000 0.000000 -0.015948
#
#
# Mechanical properties :
#
#
# Convention : Reuss Voigt Hill
#
# Bulk Modulus (GPa) = 31.80085 47.45693 39.62889
# Shear Modulus (GPa) = 22.37780 11.00272 16.69026
#
# Velocity S-wave (km/s) = 3.17302 2.22492 2.74028
# Velocity P-wave (km/s) = 5.26609 5.28695 5.27653
#
# Compressibility (1/GPa) = 0.03144570
#
# Stress axis : x y z
#
# Youngs Moduli (GPa) = 66.53308 70.94708 27.49346
#
# Poissons Ratio (x) = 0.05078 0.47888
# Poissons Ratio (y) = 0.04762 -0.03046
# Poissons Ratio (z) = 1.15888 -0.07861
#
# Static dielectric constant tensor:
#      x y z
#    x 1.803500 0.000000 0.000000 
#    y 0.000000 1.869710 0.000000 
#    z 0.000000 0.000000 1.791410 
# 
# From -- ./inp_files/7043.got.cif
#   From: 2010.05.17/outbox.cif.g08.bks.cpg/sg47_4_cif.got.tgz:7043.got - 2010.06.03 20:15:42.
