data_PCOD9384602
_publ_section_title
;
Structure prediction by ZEFSAII (Michael W. Deem and Ramdas Pophale) SiO2 
 PCOD9384602
Probable space group: P M M M
;
_chemical_formula_sum "Si O2"
_cell_formula_units_Z 52
_cell_length_a 7.843593
_cell_length_b 27.224315
_cell_length_c 12.791497
_cell_angle_alpha 90.000000
_cell_angle_beta 90.000000
_cell_angle_gamma 90.000000
_cell_volume 2731.450816
_symmetry_space_group_name_H-M "P M M M"
_symmetry_group_IT_number 47
_symmetry_cell_setting 'orthorhombic'
loop_
_space_group_symop_operation_xyz
x,y,z
-x,-y,z
x,-y,-z
-x,y,-z
-x,-y,-z
x,y,-z
-x,y,z
x,-y,z
loop_
_atom_site_type_symbol
_atom_site_label
_atom_site_fract_x
_atom_site_fract_y
_atom_site_fract_z
Si Si1 0.203596 0.716515 0.882424
Si Si2 0.708190 0.556981 0.117440
Si Si3 0.300672 0.212320 0.500000
Si Si4 0.192723 0.677465 0.500000
Si Si5 0.291837 0.055928 0.500000
Si Si6 0.705938 0.830792 0.885314
Si Si7 0.301807 0.363842 0.281425
Si Si8 0.708627 0.864588 0.332679
O O1 0.247108 0.773692 0.869860
O O2 0.284627 0.684001 0.791939
O O3 0.000000 0.710359 0.877208
O O4 0.261238 0.701846 0.000000
O O5 0.500000 0.559358 0.117371
O O6 0.754813 0.500000 0.132714
O O7 0.770863 0.592211 0.209647
O O8 0.763481 0.571967 0.000000
O O9 0.500000 0.200453 0.500000
O O10 0.289906 0.270712 0.500000
O O11 0.233631 0.183818 0.397635
O O12 0.224842 0.647007 0.605452
O O13 0.000000 0.694183 0.500000
O O14 0.500000 0.055099 0.500000
O O15 0.239663 0.088014 0.399372
O O16 0.232060 0.000000 0.500000
O O17 0.500000 0.833471 0.886972
O O18 0.769026 0.860961 0.785912
O O19 0.769442 0.845817 0.000000
O O20 0.500000 0.374335 0.299794
O O21 0.500000 0.864686 0.329417
#
# Coordination Sequence:
#
# PCOD9384602 Si02
#       8
#     8   8   4   4   4   8   8   8
#     4  10  20  32  47  71 103 132 158 194 238 282
#     4   8  15  30  54  82 103 116 142 193 246 282
#     4   9  16  29  48  66  86 115 154 197 232 267
#     4  12  25  37  48  67 100 136 166 199 240 284
#     4   8  13  22  38  60  85 112 143 184 236 286
#     4   9  16  26  41  61  88 123 158 188 222 271
#     4  11  21  34  53  74  97 128 165 199 235 284
#     4   8  14  24  40  62  85 112 149 191 230 269
#
# _framework density 19.037502
#
# number of rings (size 3 to 8) (size 9 to 14) (size 15 to 20)
#    0.000    2.692    0.000    4.385    0.000    2.769 
#    0.000    0.385    0.000    4.615    0.000    8.615 
#    0.000   11.077    0.000    3.846    0.000    4.000 
#
# Total GULP energy -289970.388203 kJ/mol
# GULP energy per Si atom -5576.353619 kJ/mol
# Density = 1.899417 g / cm^3
# Si number density = 19.037502 Si / 1000 Ang^3
#
#
#
# Elastic Constant Matrix: (Units=GPa)
#
#
# Indices 1 2 3 4 5 6 
#
# 1 16.5926 -11.1813 -0.9701 0.0000 0.0000 0.0000
# 2 -11.1813 92.3324 77.5617 0.0000 0.0000 0.0000
# 3 -0.9701 77.5617 180.0919 0.0000 0.0000 0.0000
# 4 0.0000 0.0000 0.0000 13.6900 0.0000 0.0000
# 5 0.0000 0.0000 0.0000 0.0000 6.4541 0.0000
# 6 0.0000 0.0000 0.0000 0.0000 0.0000 -22.6662
#
#
#
# Elastic Compliance Matrix: (Units=1/GPa)
#
#
# Indices 1 2 3 4 5 6 
#
# 1 0.068393 0.012492 -0.005012 0.000000 0.000000 0.000000
# 2 0.012492 0.019252 -0.008224 0.000000 0.000000 0.000000
# 3 -0.005012 -0.008224 0.009068 0.000000 0.000000 0.000000
# 4 0.000000 0.000000 0.000000 0.073046 0.000000 0.000000
# 5 0.000000 0.000000 0.000000 0.000000 0.154940 0.000000
# 6 0.000000 0.000000 0.000000 0.000000 0.000000 -0.044119
#
#
# Mechanical properties :
#
#
# Convention : Reuss Voigt Hill
#
# Bulk Modulus (GPa) = 10.50144 46.64862 28.57503
# Shear Modulus (GPa) = 15.93329 14.40269 15.16799
#
# Velocity S-wave (km/s) = 2.89613 2.75352 2.82573
# Velocity P-wave (km/s) = 4.08798 5.88777 5.06841
#
# Compressibility (1/GPa) = 0.09522503
#
# Stress axis : x y z
#
# Youngs Moduli (GPa) = 14.62143 51.94388 110.28283
#
# Poissons Ratio (x) = -0.64889 0.55271
# Poissons Ratio (y) = -0.18265 0.90696
# Poissons Ratio (z) = 0.07328 0.42718
#
# Static dielectric constant tensor:
#      x y z
#    x 1.674430 0.000000 0.000000 
#    y 0.000000 1.636910 0.000000 
#    z 0.000000 0.000000 1.688890 
# 
# From -- ./inp_files/15578.got.cif
#   From: 2010.05.17/outbox.cif.g08.bks.cpg/sg47_8_cif.got.tgz:15578.got - 2010.06.03 20:15:42.
