data_PCOD9384749
_publ_section_title
;
Structure prediction by ZEFSAII (Michael W. Deem and Ramdas Pophale) SiO2 
 PCOD9384749
Probable space group: P M M M
;
_chemical_formula_sum "Si O2"
_cell_formula_units_Z 52
_cell_length_a 9.130128
_cell_length_b 24.101196
_cell_length_c 14.228686
_cell_angle_alpha 90.000000
_cell_angle_beta 90.000000
_cell_angle_gamma 90.000000
_cell_volume 3130.979731
_symmetry_space_group_name_H-M "P M M M"
_symmetry_group_IT_number 47
_symmetry_cell_setting 'orthorhombic'
loop_
_space_group_symop_operation_xyz
x,y,z
-x,-y,z
x,-y,-z
-x,y,-z
-x,-y,-z
x,y,-z
-x,y,z
x,-y,z
loop_
_atom_site_type_symbol
_atom_site_label
_atom_site_fract_x
_atom_site_fract_y
_atom_site_fract_z
Si Si1 0.830548 0.654533 0.750795
Si Si2 0.178088 0.565033 0.394247
Si Si3 0.323414 0.736181 0.890405
Si Si4 0.327577 0.831850 0.743069
Si Si5 0.164612 0.243093 0.390944
Si Si6 0.825341 0.935701 0.807181
Si Si7 0.335690 0.066785 0.000000
O O1 0.770367 0.600879 0.695063
O O2 0.744257 0.682934 0.836718
O O3 0.830731 0.701052 0.669269
O O4 0.000000 0.644728 0.779240
O O5 0.225611 0.583169 0.500000
O O6 0.213764 0.500000 0.384733
O O7 0.000000 0.569890 0.393974
O O8 0.500000 0.732658 0.886256
O O9 0.281493 0.791180 0.829988
O O10 0.279928 0.739869 0.000000
O O11 0.500000 0.841926 0.751660
O O12 0.285284 0.797381 0.651105
O O13 0.241770 0.889537 0.740314
O O14 0.184673 0.254637 0.500000
O O15 0.000000 0.219196 0.377365
O O16 0.000000 0.932329 0.811932
O O17 0.786393 0.000000 0.786252
O O18 0.753886 0.919949 0.907201
O O19 0.500000 0.090941 0.000000
O O20 0.348877 0.000000 0.000000
#
# Coordination Sequence:
#
# PCOD9384749 Si02
#       7
#     8   8   8   8   8   8   4
#     4   9  16  27  46  72  96 120 157 196 230 274
#     4   8  13  22  40  69 102 130 154 186 232 281
#     4   9  19  34  48  64  90 124 158 193 235 280
#     4  10  20  32  49  71  93 120 155 194 235 280
#     4   9  17  30  48  69  95 124 152 188 235 284
#     4  10  20  33  48  68  95 124 154 189 231 281
#     4   9  17  29  45  65  89 119 153 185 220 265
#
# _framework density 16.608218000000001
#
# number of rings (size 3 to 8) (size 9 to 14) (size 15 to 20)
#    0.000    2.846    0.000    2.077    1.077    4.923 
#    0.000    0.000    0.000    2.769    0.000    7.538 
#    0.000    0.000    0.000    0.000    0.000    0.000 
#
# Total GULP energy -289519.280189 kJ/mol
# GULP energy per Si atom -5567.678465 kJ/mol
# Density = 1.657042 g / cm^3
# Si number density = 16.608218 Si / 1000 Ang^3
#
#
#
# Elastic Constant Matrix: (Units=GPa)
#
#
# Indices 1 2 3 4 5 6 
#
# 1 32.2145 22.1899 17.0262 0.0000 0.0000 0.0000
# 2 22.1899 58.5816 15.4510 0.0000 0.0000 0.0000
# 3 17.0262 15.4510 67.4173 0.0000 0.0000 0.0000
# 4 0.0000 0.0000 0.0000 17.8432 0.0000 0.0000
# 5 0.0000 0.0000 0.0000 0.0000 19.6338 0.0000
# 6 0.0000 0.0000 0.0000 0.0000 0.0000 14.8710
#
#
#
# Elastic Compliance Matrix: (Units=1/GPa)
#
#
# Indices 1 2 3 4 5 6 
#
# 1 0.045791 -0.015215 -0.008078 0.000000 0.000000 0.000000
# 2 -0.015215 0.023224 -0.001480 0.000000 0.000000 0.000000
# 3 -0.008078 -0.001480 0.017212 0.000000 0.000000 0.000000
# 4 0.000000 0.000000 0.000000 0.056044 0.000000 0.000000
# 5 0.000000 0.000000 0.000000 0.000000 0.050933 0.000000
# 6 0.000000 0.000000 0.000000 0.000000 0.000000 0.067245
#
#
# Mechanical properties :
#
#
# Convention : Reuss Voigt Hill
#
# Bulk Modulus (GPa) = 27.26091 29.72751 28.49421
# Shear Modulus (GPa) = 15.51733 17.37268 16.44500
#
# Velocity S-wave (km/s) = 3.05997 3.23775 3.15011
# Velocity P-wave (km/s) = 5.37906 5.64938 5.51588
#
# Compressibility (1/GPa) = 0.03668256
#
# Stress axis : x y z
#
# Youngs Moduli (GPa) = 21.83825 43.05950 58.09838
#
# Poissons Ratio (x) = 0.65513 0.46929
# Poissons Ratio (y) = 0.33226 0.08599
# Poissons Ratio (z) = 0.17640 0.06373
#
# Static dielectric constant tensor:
#      x y z
#    x 1.568970 0.000000 0.000000 
#    y 0.000000 1.573260 0.000000 
#    z 0.000000 0.000000 1.559430 
# 
# From -- ./inp_files/7628.got.cif
#   From: 2010.05.17/outbox.cif.g08.bks.cpg/sg47_4_cif.got.tgz:7628.got - 2010.06.03 20:15:42.
