data_PCOD9384240
_publ_section_title
;
Structure prediction by ZEFSAII (Michael W. Deem and Ramdas Pophale) SiO2 
 PCOD9384240
Probable space group: P M M M
;
_chemical_formula_sum "Si O2"
_cell_formula_units_Z 56
_cell_length_a 20.557163
_cell_length_b 17.712645
_cell_length_c 9.279752
_cell_angle_alpha 90.000000
_cell_angle_beta 90.000000
_cell_angle_gamma 90.000000
_cell_volume 3378.959356
_symmetry_space_group_name_H-M "P M M M"
_symmetry_group_IT_number 47
_symmetry_cell_setting 'orthorhombic'
loop_
_space_group_symop_operation_xyz
x,y,z
-x,-y,z
x,-y,-z
-x,y,-z
-x,-y,-z
x,y,-z
-x,y,z
x,-y,z
loop_
_atom_site_type_symbol
_atom_site_label
_atom_site_fract_x
_atom_site_fract_y
_atom_site_fract_z
Si Si1 0.240845 0.918988 0.835922
Si Si2 0.810722 0.304897 0.668682
Si Si3 0.689506 0.757922 0.831754
Si Si4 0.927332 0.588560 0.324964
Si Si5 0.874942 0.139360 0.335232
Si Si6 0.000000 0.911387 0.171305
Si Si7 0.579021 0.000000 0.664570
Si Si8 0.576580 0.830577 0.326404
O O1 0.281800 0.843196 0.822092
O O2 0.182635 0.912719 0.723804
O O3 0.275185 0.000000 0.816781
O O4 0.214449 0.917869 0.000000
O O5 0.795816 0.320908 0.500000
O O6 0.743879 0.294867 0.757024
O O7 0.864397 0.364641 0.724144
O O8 0.847278 0.224228 0.673200
O O9 0.621772 0.768175 0.747896
O O10 0.681264 0.739101 0.000000
O O11 0.927376 0.594558 0.500000
O O12 0.921506 0.500000 0.289162
O O13 0.000000 0.614603 0.277506
O O14 0.891272 0.122281 0.500000
O O15 0.936895 0.127621 0.236704
O O16 0.000000 0.000000 0.211789
O O17 0.000000 0.906416 0.000000
O O18 0.593802 0.083436 0.725300
O O19 0.500000 0.000000 0.656105
O O20 0.604666 0.000000 0.500000
O O21 0.585917 0.829483 0.500000
O O22 0.500000 0.818812 0.298147
#
# Coordination Sequence:
#
# PCOD9384240 Si02
#       8
#     8   8   8   8   8   4   4   8
#     4   9  18  32  45  56  78 113 150 189 235 282
#     4   9  18  32  50  70  97 125 152 189 230 276
#     4  10  20  31  45  65  92 124 160 197 236 283
#     4   8  14  26  49  80 106 127 153 187 228 274
#     4  10  20  31  45  65  84 106 143 190 234 272
#     4  11  23  35  45  57  78 111 148 188 237 285
#     4   7  12  24  41  61  85 115 150 193 246 297
#     4   9  17  30  47  66  90 120 157 201 248 295
#
# _framework density 16.573149999999998
#
# number of rings (size 3 to 8) (size 9 to 14) (size 15 to 20)
#    0.000    2.857    0.000    2.786    2.000    4.000 
#    0.000    0.000    0.000    1.714    0.000    1.000 
#    0.000    0.571    0.000    6.571    0.000    1.857 
#
# Total GULP energy -311785.301224 kJ/mol
# GULP energy per Si atom -5567.594665 kJ/mol
# Density = 1.653543 g / cm^3
# Si number density = 16.573150 Si / 1000 Ang^3
#
#
#
# Elastic Constant Matrix: (Units=GPa)
#
#
# Indices 1 2 3 4 5 6 
#
# 1 102.4241 33.8025 49.4428 0.0000 0.0000 0.0000
# 2 33.8025 41.7515 17.0376 0.0000 0.0000 0.0000
# 3 49.4428 17.0376 44.6716 0.0000 0.0000 0.0000
# 4 0.0000 0.0000 0.0000 9.3081 0.0000 0.0000
# 5 0.0000 0.0000 0.0000 0.0000 20.0975 0.0000
# 6 0.0000 0.0000 0.0000 0.0000 0.0000 29.7865
#
#
#
# Elastic Compliance Matrix: (Units=1/GPa)
#
#
# Indices 1 2 3 4 5 6 
#
# 1 0.024175 -0.010249 -0.022849 0.000000 0.000000 0.000000
# 2 -0.010249 0.032711 -0.001132 0.000000 0.000000 0.000000
# 3 -0.022849 -0.001132 0.048106 0.000000 0.000000 0.000000
# 4 0.000000 0.000000 0.000000 0.107434 0.000000 0.000000
# 5 0.000000 0.000000 0.000000 0.000000 0.049758 0.000000
# 6 0.000000 0.000000 0.000000 0.000000 0.000000 0.033572
#
#
# Mechanical properties :
#
#
# Convention : Reuss Voigt Hill
#
# Bulk Modulus (GPa) = 27.37238 43.26811 35.32024
# Shear Modulus (GPa) = 13.28398 17.74268 15.51333
#
# Velocity S-wave (km/s) = 2.83421 3.27550 3.06282
# Velocity P-wave (km/s) = 5.22133 6.36155 5.81943
#
# Compressibility (1/GPa) = 0.03653318
#
# Stress axis : x y z
#
# Youngs Moduli (GPa) = 41.36459 30.57085 20.78725
#
# Poissons Ratio (x) = 0.31331 0.47496
# Poissons Ratio (y) = 0.42394 0.02354
# Poissons Ratio (z) = 0.94512 0.03462
#
# Static dielectric constant tensor:
#      x y z
#    x 1.605260 0.000000 0.000000 
#    y 0.000000 1.556030 0.000000 
#    z 0.000000 0.000000 1.564710 
# 
# From -- ./inp_files/11758.got.cif
#   From: 2010.05.17/outbox.cif.g08.bks.cpg/sg47_6_cif.got.tgz:11758.got - 2010.06.03 20:15:42.
