data_PCOD9384051
_publ_section_title
;
Structure prediction by ZEFSAII (Michael W. Deem and Ramdas Pophale) SiO2 
 PCOD9384051
Probable space group: P M M M
;
_chemical_formula_sum "Si O2"
_cell_formula_units_Z 44
_cell_length_a 33.806306
_cell_length_b 8.128987
_cell_length_c 8.092098
_cell_angle_alpha 90.000000
_cell_angle_beta 90.000000
_cell_angle_gamma 90.000000
_cell_volume 2223.797721
_symmetry_space_group_name_H-M "P M M M"
_symmetry_group_IT_number 47
_symmetry_cell_setting 'orthorhombic'
loop_
_space_group_symop_operation_xyz
x,y,z
-x,-y,z
x,-y,-z
-x,y,-z
-x,-y,-z
x,y,-z
-x,y,z
x,-y,z
loop_
_atom_site_type_symbol
_atom_site_label
_atom_site_fract_x
_atom_site_fract_y
_atom_site_fract_z
Si Si1 0.736237 0.301309 0.682619
Si Si2 0.821149 0.306592 0.803960
Si Si3 0.403544 0.195999 0.000000
Si Si4 0.313910 0.803726 0.000000
Si Si5 0.454455 0.301505 0.685730
Si Si6 0.955178 0.500000 0.802691
Si Si7 0.094522 0.818429 0.697670
O O1 0.722899 0.246849 0.500000
O O2 0.737087 0.500000 0.684177
O O3 0.781515 0.246969 0.714139
O O4 0.709227 0.248656 0.835046
O O5 0.827444 0.500000 0.761642
O O6 0.860932 0.212047 0.760004
O O7 0.813911 0.297237 0.000000
O O8 0.426844 0.247499 0.835087
O O9 0.358740 0.262690 0.000000
O O10 0.401521 0.000000 0.000000
O O11 0.315450 0.000000 0.000000
O O12 0.442461 0.247048 0.500000
O O13 0.500000 0.247434 0.713081
O O14 0.454685 0.500000 0.684513
O O15 0.932132 0.335026 0.751657
O O16 0.000000 0.500000 0.736587
O O17 0.956571 0.500000 0.000000
O O18 0.095320 0.818146 0.500000
O O19 0.080766 0.000000 0.754254
#
# Coordination Sequence:
#
# PCOD9384051 Si02
#       7
#     8   8   4   4   8   4   8
#     4  10  21  39  64  89 114 151 201 255 308 362
#     4  10  19  35  62  92 123 156 193 247 311 366
#     4  11  24  38  55  82 118 162 204 242 299 365
#     4  11  25  42  56  79 122 166 202 249 301 360
#     4   9  19  37  61  89 118 149 192 249 309 364
#     4  11  25  45  67  91 123 165 209 257 313 367
#     4  11  24  40  62  94 127 162 205 250 305 372
#
# _framework density 19.785972999999998
#
# number of rings (size 3 to 8) (size 9 to 14) (size 15 to 20)
#    0.000    1.727    1.818    2.727    0.000    8.364 
#    0.000    6.364    0.000    0.000    0.000    0.000 
#    0.000    0.000    0.000    0.000    0.000    0.000 
#
# Total GULP energy -245782.073816 kJ/mol
# GULP energy per Si atom -5585.956223 kJ/mol
# Density = 1.974094 g / cm^3
# Si number density = 19.785973 Si / 1000 Ang^3
#
#
#
# Elastic Constant Matrix: (Units=GPa)
#
#
# Indices 1 2 3 4 5 6 
#
# 1 142.4714 45.5078 83.5812 0.0000 0.0000 0.0000
# 2 45.5078 76.1130 41.8727 0.0000 0.0000 0.0000
# 3 83.5812 41.8727 138.6177 0.0000 0.0000 0.0000
# 4 0.0000 0.0000 0.0000 -107.3110 0.0000 0.0000
# 5 0.0000 0.0000 0.0000 0.0000 -37.2843 0.0000
# 6 0.0000 0.0000 0.0000 0.0000 0.0000 34.4461
#
#
#
# Elastic Compliance Matrix: (Units=1/GPa)
#
#
# Indices 1 2 3 4 5 6 
#
# 1 0.011681 -0.003729 -0.005917 0.000000 0.000000 0.000000
# 2 -0.003729 0.016947 -0.002871 0.000000 0.000000 0.000000
# 3 -0.005917 -0.002871 0.011649 0.000000 0.000000 0.000000
# 4 0.000000 0.000000 0.000000 -0.009319 0.000000 0.000000
# 5 0.000000 0.000000 0.000000 0.000000 -0.026821 0.000000
# 6 0.000000 0.000000 0.000000 0.000000 0.000000 0.029031
#
#
# Mechanical properties :
#
#
# Convention : Reuss Voigt Hill
#
# Bulk Modulus (GPa) = 65.60002 77.68064 71.64033
# Shear Modulus (GPa) = 79.00935 -9.61380 34.69777
#
# Velocity S-wave (km/s) = 6.32603 -2.20668 4.19221
# Velocity P-wave (km/s) = 9.30511 5.73176 7.72781
#
# Compressibility (1/GPa) = 0.01524390
#
# Stress axis : x y z
#
# Youngs Moduli (GPa) = 85.60730 59.00633 85.84465
#
# Poissons Ratio (x) = 0.22004 0.50793
# Poissons Ratio (y) = 0.31924 0.24645
# Poissons Ratio (z) = 0.50653 0.16940
#
# Static dielectric constant tensor:
#      x y z
#    x 1.685590 0.000000 0.000000 
#    y 0.000000 1.701090 0.000000 
#    z 0.000000 0.000000 1.689080 
# 
# From -- ./inp_files/13734.got.cif
#   From: 2010.05.17/outbox.cif.g08.bks.cpg/sg47_7_cif.got.tgz:13734.got - 2010.06.03 20:15:42.
