data_PCOD9384452
_publ_section_title
;
Structure prediction by ZEFSAII (Michael W. Deem and Ramdas Pophale) SiO2 
 PCOD9384452
Probable space group: P M M M
;
_chemical_formula_sum "Si O2"
_cell_formula_units_Z 40
_cell_length_a 9.011391
_cell_length_b 14.220701
_cell_length_c 19.689808
_cell_angle_alpha 90.000000
_cell_angle_beta 90.000000
_cell_angle_gamma 90.000000
_cell_volume 2523.215364
_symmetry_space_group_name_H-M "P M M M"
_symmetry_group_IT_number 47
_symmetry_cell_setting 'orthorhombic'
loop_
_space_group_symop_operation_xyz
x,y,z
-x,-y,z
x,-y,-z
-x,y,-z
-x,-y,-z
x,y,-z
-x,y,z
x,-y,z
loop_
_atom_site_type_symbol
_atom_site_label
_atom_site_fract_x
_atom_site_fract_y
_atom_site_fract_z
Si Si1 0.177140 0.389381 0.284378
Si Si2 0.163094 0.607658 0.919092
Si Si3 0.671945 0.738690 0.170287
Si Si4 0.671589 0.613742 0.424682
Si Si5 0.821876 0.889004 0.077289
O O1 0.223116 0.500000 0.272534
O O2 0.249370 0.314889 0.232816
O O3 0.228273 0.362213 0.360432
O O4 0.000000 0.386780 0.278353
O O5 0.168870 0.500000 0.896121
O O6 0.298503 0.664450 0.889933
O O7 0.000000 0.646011 0.897293
O O8 0.164063 0.608777 0.000000
O O9 0.500000 0.753913 0.184719
O O10 0.746784 0.831387 0.138037
O O11 0.719125 0.646545 0.500000
O O12 0.500000 0.642740 0.413795
O O13 0.671596 0.500000 0.427116
O O14 0.000000 0.878142 0.081133
O O15 0.788538 0.000000 0.082048
O O16 0.778386 0.857678 0.000000
#
# Coordination Sequence:
#
# PCOD9384452 Si02
#       5
#     8   8   8   8   8
#     4  10  20  32  46  65  92 128 167 201 229 264
#     4   9  18  32  47  61  81 114 154 190 222 262
#     4  12  23  31  44  67  94 121 148 185 234 281
#     4   8  14  26  44  65  91 123 156 191 232 274
#     4   9  19  37  58  74  88 112 148 189 234 285
#
# _framework density 15.852789
#
# number of rings (size 3 to 8) (size 9 to 14) (size 15 to 20)
#    0.000    2.400    0.000    5.400    0.000    8.000 
#    0.000    4.000    0.000    0.000    0.000    0.000 
#    0.000    0.800    0.000    8.400    0.000    4.000 
#
# Total GULP energy -222804.528887 kJ/mol
# GULP energy per Si atom -5570.113222 kJ/mol
# Density = 1.581671 g / cm^3
# Si number density = 15.852789 Si / 1000 Ang^3
#
#
#
# Elastic Constant Matrix: (Units=GPa)
#
#
# Indices 1 2 3 4 5 6 
#
# 1 66.1069 30.3416 49.7694 0.0000 0.0000 0.0000
# 2 30.3416 66.0940 41.9935 0.0000 0.0000 0.0000
# 3 49.7694 41.9935 113.0398 0.0000 0.0000 0.0000
# 4 0.0000 0.0000 0.0000 35.1623 0.0000 0.0000
# 5 0.0000 0.0000 0.0000 0.0000 28.1042 0.0000
# 6 0.0000 0.0000 0.0000 0.0000 0.0000 -26.0386
#
#
#
# Elastic Compliance Matrix: (Units=1/GPa)
#
#
# Indices 1 2 3 4 5 6 
#
# 1 0.024148 -0.005668 -0.008526 0.000000 0.000000 0.000000
# 2 -0.005668 0.021135 -0.005356 0.000000 0.000000 0.000000
# 3 -0.008526 -0.005356 0.014590 0.000000 0.000000 0.000000
# 4 0.000000 0.000000 0.000000 0.028440 0.000000 0.000000
# 5 0.000000 0.000000 0.000000 0.000000 0.035582 0.000000
# 6 0.000000 0.000000 0.000000 0.000000 0.000000 -0.038405
#
#
# Mechanical properties :
#
#
# Convention : Reuss Voigt Hill
#
# Bulk Modulus (GPa) = 48.14124 54.38330 51.26227
# Shear Modulus (GPa) = 38.01889 15.65468 26.83678
#
# Velocity S-wave (km/s) = 4.90250 3.14587 4.11892
# Velocity P-wave (km/s) = 7.90441 6.89746 7.41804
#
# Compressibility (1/GPa) = 0.02077221
#
# Stress axis : x y z
#
# Youngs Moduli (GPa) = 41.41213 47.31491 68.54033
#
# Poissons Ratio (x) = 0.26819 0.58437
# Poissons Ratio (y) = 0.23473 0.36709
# Poissons Ratio (z) = 0.35308 0.25341
#
# Static dielectric constant tensor:
#      x y z
#    x 1.546650 0.000000 0.000000 
#    y 0.000000 1.536430 0.000000 
#    z 0.000000 0.000000 1.559480 
# 
# From -- ./inp_files/20842.got.cif
#   From: 2010.05.17/outbox.cif.g08.bks.cpg/sg47_11_cif.got.tgz:20842.got - 2010.06.03 20:15:42.
