data_PCOD9384852
_publ_section_title
;
Structure prediction by ZEFSAII (Michael W. Deem and Ramdas Pophale) SiO2 
 PCOD9384852
Probable space group: P M M M
;
_chemical_formula_sum "Si O2"
_cell_formula_units_Z 40
_cell_length_a 16.495049
_cell_length_b 9.672627
_cell_length_c 14.248555
_cell_angle_alpha 90.000000
_cell_angle_beta 90.000000
_cell_angle_gamma 90.000000
_cell_volume 2273.363452
_symmetry_space_group_name_H-M "P M M M"
_symmetry_group_IT_number 47
_symmetry_cell_setting 'orthorhombic'
loop_
_space_group_symop_operation_xyz
x,y,z
-x,-y,z
x,-y,-z
-x,y,-z
-x,-y,-z
x,y,-z
-x,y,z
x,-y,z
loop_
_atom_site_type_symbol
_atom_site_label
_atom_site_fract_x
_atom_site_fract_y
_atom_site_fract_z
Si Si1 0.339120 0.836382 0.387687
Si Si2 0.358184 0.152517 0.890607
Si Si3 0.204543 0.157822 0.758287
Si Si4 0.097361 0.336828 0.106955
Si Si5 0.500000 0.656445 0.885874
Si Si6 0.500000 0.661457 0.613669
O O1 0.328976 0.825319 0.500000
O O2 0.255909 0.796774 0.333711
O O3 0.417773 0.745139 0.360636
O O4 0.353873 0.000000 0.365349
O O5 0.275526 0.153848 0.835478
O O6 0.420328 0.264987 0.854636
O O7 0.395710 0.000000 0.881990
O O8 0.342417 0.177286 0.000000
O O9 0.137925 0.253806 0.807588
O O10 0.174804 0.000000 0.743272
O O11 0.117438 0.500000 0.114279
O O12 0.000000 0.323604 0.111465
O O13 0.121768 0.291713 0.000000
O O14 0.500000 0.500000 0.857198
O O15 0.500000 0.663167 0.000000
O O16 0.500000 0.500000 0.643520
O O17 0.500000 0.660352 0.500000
#
# Coordination Sequence:
#
# PCOD9384852 Si02
#       6
#     8   8   8   8   4   4
#     4   9  18  33  51  71 100 137 173 212 259 304
#     4   9  17  29  43  60  87 120 151 188 235 281
#     4  10  20  32  50  76  99 124 164 208 247 292
#     4   9  19  36  56  78 105 134 160 191 241 304
#     4   9  17  28  41  58  83 119 160 193 223 270
#     4   9  17  30  49  72  97 129 174 222 261 299
#
# _framework density 17.595075999999999
#
# number of rings (size 3 to 8) (size 9 to 14) (size 15 to 20)
#    0.000    2.800    0.000    1.800    0.000    6.400 
#    0.000    7.000    0.000    0.600    0.000    4.200 
#    0.000    0.000    0.000    0.000    0.000    0.000 
#
# Total GULP energy -222838.469250 kJ/mol
# GULP energy per Si atom -5570.961731 kJ/mol
# Density = 1.755503 g / cm^3
# Si number density = 17.595076 Si / 1000 Ang^3
#
#
#
# Elastic Constant Matrix: (Units=GPa)
#
#
# Indices 1 2 3 4 5 6 
#
# 1 56.3853 36.4588 29.6951 0.0000 0.0000 0.0000
# 2 36.4588 63.1160 30.2982 0.0000 0.0000 0.0000
# 3 29.6951 30.2982 99.3157 0.0000 0.0000 0.0000
# 4 0.0000 0.0000 0.0000 13.6545 0.0000 0.0000
# 5 0.0000 0.0000 0.0000 0.0000 51.4642 0.0000
# 6 0.0000 0.0000 0.0000 0.0000 0.0000 37.7871
#
#
#
# Elastic Compliance Matrix: (Units=1/GPa)
#
#
# Indices 1 2 3 4 5 6 
#
# 1 0.029788 -0.015150 -0.004285 0.000000 0.000000 0.000000
# 2 -0.015150 0.026267 -0.003484 0.000000 0.000000 0.000000
# 3 -0.004285 -0.003484 0.012413 0.000000 0.000000 0.000000
# 4 0.000000 0.000000 0.000000 0.073236 0.000000 0.000000
# 5 0.000000 0.000000 0.000000 0.000000 0.019431 0.000000
# 6 0.000000 0.000000 0.000000 0.000000 0.000000 0.026464
#
#
# Mechanical properties :
#
#
# Convention : Reuss Voigt Hill
#
# Bulk Modulus (GPa) = 44.18632 45.74678 44.96655
# Shear Modulus (GPa) = 20.74870 28.73882 24.74376
#
# Velocity S-wave (km/s) = 3.43772 4.04585 3.75412
# Velocity P-wave (km/s) = 6.39724 6.91964 6.66356
#
# Compressibility (1/GPa) = 0.02263144
#
# Stress axis : x y z
#
# Youngs Moduli (GPa) = 33.57107 38.06994 80.56247
#
# Poissons Ratio (x) = 0.57676 0.34518
# Poissons Ratio (y) = 0.50860 0.28065
# Poissons Ratio (z) = 0.14384 0.13262
#
# Static dielectric constant tensor:
#      x y z
#    x 1.569650 0.000000 0.000000 
#    y 0.000000 1.620150 0.000000 
#    z 0.000000 0.000000 1.649670 
# 
# From -- ./inp_files/23353.got.cif
#   From: 2010.05.17/outbox.cif.g08.bks.cpg/sg47_12_cif.got.tgz:23353.got - 2010.06.03 20:15:42.
