data_PCOD9384975
_publ_section_title
;
Structure prediction by ZEFSAII (Michael W. Deem and Ramdas Pophale) SiO2 
 PCOD9384975
Probable space group: P M M M
;
_chemical_formula_sum "Si O2"
_cell_formula_units_Z 52
_cell_length_a 15.340820
_cell_length_b 9.409005
_cell_length_c 20.915916
_cell_angle_alpha 90.000000
_cell_angle_beta 90.000000
_cell_angle_gamma 90.000000
_cell_volume 3019.042053
_symmetry_space_group_name_H-M "P M M M"
_symmetry_group_IT_number 47
_symmetry_cell_setting 'orthorhombic'
loop_
_space_group_symop_operation_xyz
x,y,z
-x,-y,z
x,-y,-z
-x,y,-z
-x,-y,-z
x,y,-z
-x,y,z
x,-y,z
loop_
_atom_site_type_symbol
_atom_site_label
_atom_site_fract_x
_atom_site_fract_y
_atom_site_fract_z
Si Si1 0.903973 0.166808 0.236978
Si Si2 0.600554 0.327453 0.500000
Si Si3 0.597793 0.666190 0.147303
Si Si4 0.806660 0.164687 0.000000
Si Si5 0.099483 0.339488 0.107141
Si Si6 0.642657 0.338414 0.000000
Si Si7 0.294538 0.831012 0.750795
Si Si8 0.394731 0.332248 0.640576
O O1 0.903411 0.270084 0.176426
O O2 0.808081 0.192163 0.266129
O O3 0.000000 0.187878 0.269506
O O4 0.902955 0.000000 0.217295
O O5 0.598943 0.500000 0.500000
O O6 0.500000 0.279288 0.500000
O O7 0.637137 0.287168 0.430686
O O8 0.500000 0.709039 0.168946
O O9 0.610450 0.500000 0.164469
O O10 0.598321 0.671706 0.069733
O O11 0.671828 0.757456 0.183195
O O12 0.846330 0.240364 0.938588
O O13 0.706692 0.205883 0.000000
O O14 0.824978 0.000000 0.000000
O O15 0.134075 0.500000 0.108544
O O16 0.000000 0.344172 0.083195
O O17 0.682421 0.500000 0.000000
O O18 0.351700 0.760470 0.695349
O O19 0.308258 0.000000 0.755704
O O20 0.500000 0.319838 0.641906
O O21 0.374903 0.500000 0.649783
#
# Coordination Sequence:
#
# PCOD9384975 Si02
#       8
#     8   4   8   4   8   4   8   8
#     4   9  19  36  53  68  92 127 163 199 243 295
#     4   7  12  26  49  75 102 135 174 206 233 279
#     4  10  21  37  55  73  95 127 166 206 251 303
#     4  12  23  32  45  66  91 118 149 185 235 303
#     4  10  20  33  49  68  88 111 146 196 249 297
#     4  10  21  37  55  70  87 117 162 213 253 286
#     4  11  22  33  49  76 105 132 165 206 250 294
#     4   9  17  31  52  77 106 140 173 203 239 287
#
# _framework density 17.224005999999999
#
# number of rings (size 3 to 8) (size 9 to 14) (size 15 to 20)
#    0.000    2.231    0.000    4.385    0.000    9.538 
#    0.000    0.385    0.000    2.769    0.000    0.538 
#    0.000    4.308    0.000    0.000    0.000    0.000 
#
# Total GULP energy -289527.504603 kJ/mol
# GULP energy per Si atom -5567.836627 kJ/mol
# Density = 1.718480 g / cm^3
# Si number density = 17.224006 Si / 1000 Ang^3
#
#
#
# Elastic Constant Matrix: (Units=GPa)
#
#
# Indices 1 2 3 4 5 6 
#
# 1 73.5449 32.9232 23.6327 0.0000 0.0000 0.0000
# 2 32.9232 63.9359 26.4516 0.0000 0.0000 0.0000
# 3 23.6327 26.4516 74.6117 0.0000 0.0000 0.0000
# 4 0.0000 0.0000 0.0000 14.7074 0.0000 0.0000
# 5 0.0000 0.0000 0.0000 0.0000 8.1877 0.0000
# 6 0.0000 0.0000 0.0000 0.0000 0.0000 20.8060
#
#
#
# Elastic Compliance Matrix: (Units=1/GPa)
#
#
# Indices 1 2 3 4 5 6 
#
# 1 0.018176 -0.008177 -0.002858 0.000000 0.000000 0.000000
# 2 -0.008177 0.022008 -0.005212 0.000000 0.000000 0.000000
# 3 -0.002858 -0.005212 0.016156 0.000000 0.000000 0.000000
# 4 0.000000 0.000000 0.000000 0.067993 0.000000 0.000000
# 5 0.000000 0.000000 0.000000 0.000000 0.122134 0.000000
# 6 0.000000 0.000000 0.000000 0.000000 0.000000 0.048063
#
#
# Mechanical properties :
#
#
# Convention : Reuss Voigt Hill
#
# Bulk Modulus (GPa) = 41.93796 42.01195 41.97496
# Shear Modulus (GPa) = 14.92658 17.34590 16.13624
#
# Velocity S-wave (km/s) = 2.94703 3.17689 3.06411
# Velocity P-wave (km/s) = 5.99845 6.15640 6.07794
#
# Compressibility (1/GPa) = 0.02384474
#
# Stress axis : x y z
#
# Youngs Moduli (GPa) = 55.01704 45.43841 61.89694
#
# Poissons Ratio (x) = 0.37156 0.17691
# Poissons Ratio (y) = 0.44988 0.32262
# Poissons Ratio (z) = 0.15725 0.23683
#
# Static dielectric constant tensor:
#      x y z
#    x 1.644930 0.000000 0.000000 
#    y 0.000000 1.569250 0.000000 
#    z 0.000000 0.000000 1.602530 
# 
# From -- ./inp_files/30953.got.cif
#   From: 2010.05.17/outbox.cif.g08.bks.cpg/sg47_16_cif.got.tgz:30953.got - 2010.06.03 20:15:42.
