data_PCOD9384398
_publ_section_title
;
Structure prediction by ZEFSAII (Michael W. Deem and Ramdas Pophale) SiO2 
 PCOD9384398
Probable space group: P M M M
;
_chemical_formula_sum "Si O2"
_cell_formula_units_Z 64
_cell_length_a 14.760306
_cell_length_b 8.908448
_cell_length_c 32.203904
_cell_angle_alpha 90.000000
_cell_angle_beta 90.000000
_cell_angle_gamma 90.000000
_cell_volume 4234.537017
_symmetry_space_group_name_H-M "P M M M"
_symmetry_group_IT_number 47
_symmetry_cell_setting 'orthorhombic'
loop_
_space_group_symop_operation_xyz
x,y,z
-x,-y,z
x,-y,-z
-x,y,-z
-x,-y,-z
x,y,-z
-x,y,z
x,-y,z
loop_
_atom_site_type_symbol
_atom_site_label
_atom_site_fract_x
_atom_site_fract_y
_atom_site_fract_z
Si Si1 0.711368 0.817221 0.045945
Si Si2 0.281315 0.180148 0.791374
Si Si3 0.396058 0.817048 0.872568
Si Si4 0.101510 0.180458 0.085720
Si Si5 0.610111 0.828278 0.369640
Si Si6 0.606757 0.678775 0.716650
Si Si7 0.609977 0.323733 0.545750
Si Si8 0.896816 0.320663 0.822817
O O1 0.649284 0.766637 0.084275
O O2 0.815415 0.777055 0.056252
O O3 0.707002 0.000000 0.045636
O O4 0.684783 0.765016 0.000000
O O5 0.336297 0.227742 0.832952
O O6 0.334550 0.240644 0.751624
O O7 0.180834 0.246279 0.795317
O O8 0.278037 0.000000 0.790706
O O9 0.500000 0.767687 0.868735
O O10 0.395998 0.000000 0.873047
O O11 0.113505 0.257442 0.130389
O O12 0.000000 0.215392 0.070189
O O13 0.106602 0.000000 0.091849
O O14 0.500000 0.825672 0.371274
O O15 0.634857 0.731431 0.329423
O O16 0.642601 0.763631 0.413705
O O17 0.638521 0.000000 0.364060
O O18 0.500000 0.717924 0.722034
O O19 0.615262 0.500000 0.720210
O O20 0.640128 0.269918 0.500000
O O21 0.500000 0.314251 0.545734
O O22 0.632121 0.500000 0.549464
O O23 0.886520 0.500000 0.823233
O O24 0.000000 0.284834 0.809689
#
# Coordination Sequence:
#
# PCOD9384398 Si02
#       8
#     8   8   8   8   8   8   8   8
#     4   9  16  26  41  64  91 115 141 172 210 257
#     4  11  20  32  50  69  90 114 144 182 221 264
#     4   9  17  28  42  63  89 114 140 175 216 251
#     4   9  16  28  46  67  90 113 138 170 211 256
#     4   9  16  25  37  54  78 109 147 191 235 274
#     4  10  20  32  45  63  89 120 153 188 228 272
#     4   8  13  21  33  49  71 103 144 189 236 281
#     4  10  20  33  50  71  92 113 138 170 211 261
#
# _framework density 15.113813
#
# number of rings (size 3 to 8) (size 9 to 14) (size 15 to 20)
#    0.000    2.625    1.250    2.250    0.000    4.250 
#    0.000    3.750    0.000    0.375    0.000    1.750 
#    0.000    1.000    0.000    0.000    0.000    0.625 
#
# Total GULP energy -356590.436500 kJ/mol
# GULP energy per Si atom -5571.725570 kJ/mol
# Density = 1.507941 g / cm^3
# Si number density = 15.113813 Si / 1000 Ang^3
#
#
#
# Elastic Constant Matrix: (Units=GPa)
#
#
# Indices 1 2 3 4 5 6 
#
# 1 69.6187 24.5742 45.4085 0.0000 0.0000 0.0000
# 2 24.5742 29.2939 31.1009 0.0000 0.0000 0.0000
# 3 45.4085 31.1009 110.8470 0.0000 0.0000 0.0000
# 4 0.0000 0.0000 0.0000 8.1369 0.0000 0.0000
# 5 0.0000 0.0000 0.0000 0.0000 4.3874 0.0000
# 6 0.0000 0.0000 0.0000 0.0000 0.0000 14.0475
#
#
#
# Elastic Compliance Matrix: (Units=1/GPa)
#
#
# Indices 1 2 3 4 5 6 
#
# 1 0.022620 -0.013015 -0.005615 0.000000 0.000000 0.000000
# 2 -0.013015 0.056108 -0.010411 0.000000 0.000000 0.000000
# 3 -0.005615 -0.010411 0.014243 0.000000 0.000000 0.000000
# 4 0.000000 0.000000 0.000000 0.122897 0.000000 0.000000
# 5 0.000000 0.000000 0.000000 0.000000 0.227927 0.000000
# 6 0.000000 0.000000 0.000000 0.000000 0.000000 0.071187
#
#
# Mechanical properties :
#
#
# Convention : Reuss Voigt Hill
#
# Bulk Modulus (GPa) = 28.66172 45.76966 37.21569
# Shear Modulus (GPa) = 8.55151 12.55942 10.55546
#
# Velocity S-wave (km/s) = 2.38125 2.88582 2.64559
# Velocity P-wave (km/s) = 5.15418 6.43840 5.83175
#
# Compressibility (1/GPa) = 0.03488974
#
# Stress axis : x y z
#
# Youngs Moduli (GPa) = 44.20857 17.82286 70.21190
#
# Poissons Ratio (x) = 0.23196 0.39422
# Poissons Ratio (y) = 0.57535 0.73098
# Poissons Ratio (z) = 0.24822 0.18555
#
# Static dielectric constant tensor:
#      x y z
#    x 1.494970 0.000000 0.000000 
#    y 0.000000 1.505910 0.000000 
#    z 0.000000 0.000000 1.500970 
# 
# From -- ./inp_files/34458.got.cif
#   From: 2010.05.17/outbox.cif.g08.bks.cpg/sg47_18_cif.got.tgz:34458.got - 2010.06.03 20:15:42.
