data_PCOD9384142
_publ_section_title
;
Structure prediction by ZEFSAII (Michael W. Deem and Ramdas Pophale) SiO2 
 PCOD9384142
Probable space group: P M M M
;
_chemical_formula_sum "Si O2"
_cell_formula_units_Z 64
_cell_length_a 8.100654
_cell_length_b 28.998328
_cell_length_c 14.449657
_cell_angle_alpha 90.000000
_cell_angle_beta 90.000000
_cell_angle_gamma 90.000000
_cell_volume 3394.302771
_symmetry_space_group_name_H-M "P M M M"
_symmetry_group_IT_number 47
_symmetry_cell_setting 'orthorhombic'
loop_
_space_group_symop_operation_xyz
x,y,z
-x,-y,z
x,-y,-z
-x,y,-z
-x,-y,-z
x,y,-z
-x,y,z
x,-y,z
loop_
_atom_site_type_symbol
_atom_site_label
_atom_site_fract_x
_atom_site_fract_y
_atom_site_fract_z
Si Si1 0.315275 0.873901 0.752169
Si Si2 0.298638 0.054001 0.103521
Si Si3 0.692777 0.627985 0.246117
Si Si4 0.300814 0.300886 0.393698
Si Si5 0.310788 0.288253 0.894651
Si Si6 0.816025 0.807426 0.890527
Si Si7 0.701526 0.553983 0.895812
Si Si8 0.803945 0.199281 0.605713
O O1 0.500000 0.886741 0.723610
O O2 0.237853 0.917309 0.807469
O O3 0.313884 0.836547 0.834567
O O4 0.237649 0.844985 0.668248
O O5 0.500000 0.057616 0.103959
O O6 0.257344 0.000000 0.110660
O O7 0.244482 0.070240 0.000000
O O8 0.500000 0.617010 0.267953
O O9 0.763735 0.655598 0.334398
O O10 0.696629 0.667808 0.169015
O O11 0.763635 0.584027 0.191095
O O12 0.243586 0.303102 0.500000
O O13 0.500000 0.303936 0.391817
O O14 0.260298 0.249105 0.358618
O O15 0.500000 0.270932 0.892456
O O16 0.197593 0.246115 0.865574
O O17 0.271690 0.301035 0.000000
O O18 0.000000 0.824433 0.867686
O O19 0.789977 0.810430 0.000000
O O20 0.500000 0.557922 0.895674
O O21 0.741793 0.500000 0.886106
O O22 0.754320 0.568960 0.000000
O O23 0.740624 0.193755 0.500000
O O24 0.000000 0.203299 0.602816
#
# Coordination Sequence:
#
# PCOD9384142 Si02
#       8
#     8   8   8   8   8   8   8   8
#     4  11  20  30  50  75  96 122 158 197 236 279
#     4   8  15  29  49  74 102 128 156 193 234 273
#     4   9  15  23  37  56  79 109 143 180 224 269
#     4   9  17  29  45  65  89 117 150 186 223 268
#     4   9  16  25  38  57  81 109 143 182 223 270
#     4  10  20  31  42  61  94 130 158 187 226 275
#     4   8  13  21  34  54  81 112 145 181 222 269
#     4  10  21  36  52  70  95 126 158 194 237 284
#
# _framework density 18.855124
#
# number of rings (size 3 to 8) (size 9 to 14) (size 15 to 20)
#    0.000    2.750    0.000    3.375    0.000    4.500 
#    0.000    0.000    0.000    2.250    0.000    9.625 
#    0.000    2.000    0.000   12.000    0.000   11.500 
#
# Total GULP energy -356352.992322 kJ/mol
# GULP energy per Si atom -5568.015505 kJ/mol
# Density = 1.881221 g / cm^3
# Si number density = 18.855124 Si / 1000 Ang^3
#
#
#
# Elastic Constant Matrix: (Units=GPa)
#
#
# Indices 1 2 3 4 5 6 
#
# 1 14.0147 6.0420 7.8442 0.0000 0.0000 0.0000
# 2 6.0420 83.4692 52.2370 0.0000 0.0000 0.0000
# 3 7.8442 52.2370 100.1494 0.0000 0.0000 0.0000
# 4 0.0000 0.0000 0.0000 36.1650 0.0000 0.0000
# 5 0.0000 0.0000 0.0000 0.0000 151.8696 0.0000
# 6 0.0000 0.0000 0.0000 0.0000 0.0000 -8.5006
#
#
#
# Elastic Compliance Matrix: (Units=1/GPa)
#
#
# Indices 1 2 3 4 5 6 
#
# 1 0.075004 -0.002602 -0.004517 0.000000 0.000000 0.000000
# 2 -0.002602 0.017877 -0.009120 0.000000 0.000000 0.000000
# 3 -0.004517 -0.009120 0.015096 0.000000 0.000000 0.000000
# 4 0.000000 0.000000 0.000000 0.027651 0.000000 0.000000
# 5 0.000000 0.000000 0.000000 0.000000 0.006585 0.000000
# 6 0.000000 0.000000 0.000000 0.000000 0.000000 -0.117638
#
#
# Mechanical properties :
#
#
# Convention : Reuss Voigt Hill
#
# Bulk Modulus (GPa) = 13.24563 36.65328 24.94946
# Shear Modulus (GPa) = 60.81273 44.67413 52.74343
#
# Velocity S-wave (km/s) = 5.68530 4.87286 5.29469
# Velocity P-wave (km/s) = 7.08075 7.15132 7.11612
#
# Compressibility (1/GPa) = 0.07549659
#
# Stress axis : x y z
#
# Youngs Moduli (GPa) = 13.33265 55.93888 66.24237
#
# Poissons Ratio (x) = 0.14556 0.29924
# Poissons Ratio (y) = 0.03469 0.60416
# Poissons Ratio (z) = 0.06023 0.51019
#
# Static dielectric constant tensor:
#      x y z
#    x 1.685530 0.000000 0.000000 
#    y 0.000000 1.665400 0.000000 
#    z 0.000000 0.000000 1.691660 
# 
# From -- ./inp_files/22203.got.cif
#   From: 2010.05.17/outbox.cif.g08.bks.cpg/sg47_12_cif.got.tgz:22203.got - 2010.06.03 20:15:42.
