data_PCOD9384265
_publ_section_title
;
Structure prediction by ZEFSAII (Michael W. Deem and Ramdas Pophale) SiO2 
 PCOD9384265
Probable space group: P M M M
;
_chemical_formula_sum "Si O2"
_cell_formula_units_Z 48
_cell_length_a 31.355120
_cell_length_b 9.888341
_cell_length_c 7.346528
_cell_angle_alpha 90.000000
_cell_angle_beta 90.000000
_cell_angle_gamma 90.000000
_cell_volume 2277.791878
_symmetry_space_group_name_H-M "P M M M"
_symmetry_group_IT_number 47
_symmetry_cell_setting 'orthorhombic'
loop_
_space_group_symop_operation_xyz
x,y,z
-x,-y,z
x,-y,-z
-x,y,-z
-x,-y,-z
x,y,-z
-x,y,z
x,-y,z
loop_
_atom_site_type_symbol
_atom_site_label
_atom_site_fract_x
_atom_site_fract_y
_atom_site_fract_z
Si Si1 0.951450 0.845720 0.721576
Si Si2 0.622946 0.651936 0.785082
Si Si3 0.451419 0.154182 0.221898
Si Si4 0.202161 0.845873 0.721617
Si Si5 0.299078 0.847948 0.718671
Si Si6 0.125428 0.344568 0.277520
O O1 0.951225 0.845076 0.500000
O O2 0.916323 0.738557 0.780926
O O3 0.000000 0.815387 0.778059
O O4 0.941061 0.000000 0.776340
O O5 0.626032 0.500000 0.710921
O O6 0.583790 0.740927 0.711615
O O7 0.666265 0.736821 0.766766
O O8 0.614947 0.639995 0.000000
O O9 0.500000 0.186260 0.276064
O O10 0.441572 0.000000 0.277776
O O11 0.450815 0.154354 0.000000
O O12 0.201983 0.844421 0.500000
O O13 0.250755 0.817710 0.779948
O O14 0.167302 0.737890 0.781126
O O15 0.191255 0.000000 0.775310
O O16 0.297717 0.852962 0.500000
O O17 0.310758 0.000000 0.782157
O O18 0.125418 0.344707 0.500000
O O19 0.125332 0.500000 0.219188
#
# Coordination Sequence:
#
# PCOD9384265 Si02
#       6
#     8   8   8   8   8   8
#     4   8  13  20  28  37  52  79 115 153 194 239
#     4  10  20  31  45  69  98 124 148 176 216 265
#     4   8  14  26  45  67  89 115 148 183 216 251
#     4   8  14  25  39  53  70  94 127 167 207 247
#     4   9  18  32  49  67  86 113 151 190 225 261
#     4   9  15  20  28  44  64  86 115 154 199 244
#
# _framework density 21.073042000000001
#
# number of rings (size 3 to 8) (size 9 to 14) (size 15 to 20)
#    0.000    3.333    0.000    3.000    0.000    4.667 
#    0.000    5.000    0.000    0.500    0.000    3.500 
#    0.000    0.000    0.000    0.000    0.000    0.833 
#
# Total GULP energy -267916.648588 kJ/mol
# GULP energy per Si atom -5581.596846 kJ/mol
# Density = 2.102508 g / cm^3
# Si number density = 21.073042 Si / 1000 Ang^3
#
#
#
# Elastic Constant Matrix: (Units=GPa)
#
#
# Indices 1 2 3 4 5 6 
#
# 1 180.8579 171.5501 2.7391 0.0000 0.0000 0.0000
# 2 171.5501 226.4384 6.9588 0.0000 0.0000 0.0000
# 3 2.7391 6.9588 78.5555 0.0000 0.0000 0.0000
# 4 0.0000 0.0000 0.0000 -1.6130 0.0000 0.0000
# 5 0.0000 0.0000 0.0000 0.0000 2.7173 0.0000
# 6 0.0000 0.0000 0.0000 0.0000 0.0000 -8.3086
#
#
#
# Elastic Compliance Matrix: (Units=1/GPa)
#
#
# Indices 1 2 3 4 5 6 
#
# 1 0.019681 -0.014930 0.000636 0.000000 0.000000 0.000000
# 2 -0.014930 0.015754 -0.000875 0.000000 0.000000 0.000000
# 3 0.000636 -0.000875 0.012785 0.000000 0.000000 0.000000
# 4 0.000000 0.000000 0.000000 -0.619965 0.000000 0.000000
# 5 0.000000 0.000000 0.000000 0.000000 0.368008 0.000000
# 6 0.000000 0.000000 0.000000 0.000000 0.000000 -0.120358
#
#
# Mechanical properties :
#
#
# Convention : Reuss Voigt Hill
#
# Bulk Modulus (GPa) = 55.91878 94.26087 75.08982
# Shear Modulus (GPa) = -17.37346 18.86608 0.74631
#
# Velocity S-wave (km/s) = -2.87442 2.99535 0.59575
# Velocity P-wave (km/s) = 3.94676 7.53595 6.01529
#
# Compressibility (1/GPa) = 0.01788308
#
# Stress axis : x y z
#
# Youngs Moduli (GPa) = 50.80934 63.47484 78.21560
#
# Poissons Ratio (x) = 0.94769 -0.04977
# Poissons Ratio (y) = 0.75860 0.06844
# Poissons Ratio (z) = -0.03233 0.05554
#
# Static dielectric constant tensor:
#      x y z
#    x 1.723610 0.000000 0.000000 
#    y 0.000000 1.722010 0.000000 
#    z 0.000000 0.000000 1.906370 
# 
# From -- ./inp_files/4721.got.cif
#   From: 2010.05.17/outbox.cif.g08.bks.cpg/sg47_3_cif.got.tgz:4721.got - 2010.06.03 20:15:42.
