data_PCOD9384082
_publ_section_title
;
Structure prediction by ZEFSAII (Michael W. Deem and Ramdas Pophale) SiO2 
 PCOD9384082
Probable space group: P M M M
;
_chemical_formula_sum "Si O2"
_cell_formula_units_Z 64
_cell_length_a 19.031408
_cell_length_b 24.078569
_cell_length_c 7.519574
_cell_angle_alpha 90.000000
_cell_angle_beta 90.000000
_cell_angle_gamma 90.000000
_cell_volume 3445.837798
_symmetry_space_group_name_H-M "P M M M"
_symmetry_group_IT_number 47
_symmetry_cell_setting 'orthorhombic'
loop_
_space_group_symop_operation_xyz
x,y,z
-x,-y,z
x,-y,-z
-x,y,-z
-x,-y,-z
x,y,-z
-x,y,z
x,-y,z
loop_
_atom_site_type_symbol
_atom_site_label
_atom_site_fract_x
_atom_site_fract_y
_atom_site_fract_z
Si Si1 0.576739 0.227897 0.206704
Si Si2 0.303989 0.147356 0.300650
Si Si3 0.337401 0.674611 0.715007
Si Si4 0.213484 0.756383 0.287620
Si Si5 0.718418 0.439861 0.284449
Si Si6 0.922238 0.684182 0.786116
Si Si7 0.421116 0.934881 0.283401
Si Si8 0.883081 0.561544 0.792540
O O1 0.500000 0.215816 0.277280
O O2 0.636713 0.195310 0.308777
O O3 0.594946 0.292586 0.220535
O O4 0.580579 0.211608 0.000000
O O5 0.283627 0.128958 0.500000
O O6 0.238500 0.182483 0.219543
O O7 0.352173 0.098419 0.218253
O O8 0.337875 0.674999 0.500000
O O9 0.269916 0.710646 0.776690
O O10 0.326480 0.612188 0.776216
O O11 0.221492 0.760764 0.500000
O O12 0.137696 0.729117 0.256906
O O13 0.722079 0.438117 0.500000
O O14 0.690923 0.500000 0.230681
O O15 0.798577 0.435250 0.219774
O O16 0.908714 0.620901 0.717915
O O17 0.000000 0.701676 0.728063
O O18 0.921603 0.679912 0.000000
O O19 0.420916 0.929800 0.500000
O O20 0.500000 0.916022 0.224839
O O21 0.415716 0.000000 0.240445
O O22 0.903099 0.500000 0.718143
O O23 0.904100 0.560341 0.000000
#
# Coordination Sequence:
#
# PCOD9384082 Si02
#       8
#     8   8   8   8   8   8   8   8
#     4  10  20  30  41  61  86 111 142 178 214 251
#     4   9  17  29  46  66  89 118 150 181 210 244
#     4   9  17  29  45  63  81 104 135 171 213 259
#     4   9  17  29  43  62  84 108 142 177 212 252
#     4   9  16  27  44  63  81 100 127 167 210 254
#     4  10  20  31  43  60  83 112 143 176 217 263
#     4   8  13  22  40  68  98 125 152 179 206 240
#     4   9  17  28  42  60  81 106 136 169 208 258
#
# _framework density 18.573132000000001
#
# number of rings (size 3 to 8) (size 9 to 14) (size 15 to 20)
#    0.000    2.875    1.250    1.875    0.000    4.500 
#    0.000    1.250    0.000    0.750    0.000    7.000 
#    0.000    0.500    0.000    6.250    0.000    1.000 
#
# Total GULP energy -356311.037723 kJ/mol
# GULP energy per Si atom -5567.359964 kJ/mol
# Density = 1.853086 g / cm^3
# Si number density = 18.573132 Si / 1000 Ang^3
#
#
#
# Elastic Constant Matrix: (Units=GPa)
#
#
# Indices 1 2 3 4 5 6 
#
# 1 76.6166 50.5774 -0.4662 0.0000 0.0000 0.0000
# 2 50.5774 113.2079 1.8840 0.0000 0.0000 0.0000
# 3 -0.4662 1.8840 50.5616 0.0000 0.0000 0.0000
# 4 0.0000 0.0000 0.0000 1.7627 0.0000 0.0000
# 5 0.0000 0.0000 0.0000 0.0000 9.8142 0.0000
# 6 0.0000 0.0000 0.0000 0.0000 0.0000 23.3231
#
#
#
# Elastic Compliance Matrix: (Units=1/GPa)
#
#
# Indices 1 2 3 4 5 6 
#
# 1 0.018523 -0.008283 0.000479 0.000000 0.000000 0.000000
# 2 -0.008283 0.012543 -0.000544 0.000000 0.000000 0.000000
# 3 0.000479 -0.000544 0.019803 0.000000 0.000000 0.000000
# 4 0.000000 0.000000 0.000000 0.567313 0.000000 0.000000
# 5 0.000000 0.000000 0.000000 0.000000 0.101893 0.000000
# 6 0.000000 0.000000 0.000000 0.000000 0.000000 0.042876
#
#
# Mechanical properties :
#
#
# Convention : Reuss Voigt Hill
#
# Bulk Modulus (GPa) = 29.26268 38.26406 33.76337
# Shear Modulus (GPa) = 6.32082 19.53939 12.93010
#
# Velocity S-wave (km/s) = 1.84678 3.24701 2.64137
# Velocity P-wave (km/s) = 4.50966 5.89101 5.24600
#
# Compressibility (1/GPa) = 0.03417322
#
# Stress axis : x y z
#
# Youngs Moduli (GPa) = 53.98646 79.72485 50.49862
#
# Poissons Ratio (x) = 0.66040 -0.02421
# Poissons Ratio (y) = 0.44720 0.02746
# Poissons Ratio (z) = -0.02588 0.04335
#
# Static dielectric constant tensor:
#      x y z
#    x 1.633190 0.000000 0.000000 
#    y 0.000000 1.698540 0.000000 
#    z 0.000000 0.000000 1.752030 
# 
# From -- ./inp_files/10243.got.cif
#   From: 2010.05.17/outbox.cif.g08.bks.cpg/sg47_6_cif.got.tgz:10243.got - 2010.06.03 20:15:42.
