data_PCOD9384797
_publ_section_title
;
Structure prediction by ZEFSAII (Michael W. Deem and Ramdas Pophale) SiO2 
 PCOD9384797
Probable space group: P M M M
;
_chemical_formula_sum "Si O2"
_cell_formula_units_Z 52
_cell_length_a 9.301481
_cell_length_b 18.372207
_cell_length_c 16.468505
_cell_angle_alpha 90.000000
_cell_angle_beta 90.000000
_cell_angle_gamma 90.000000
_cell_volume 2814.281976
_symmetry_space_group_name_H-M "P M M M"
_symmetry_group_IT_number 47
_symmetry_cell_setting 'orthorhombic'
loop_
_space_group_symop_operation_xyz
x,y,z
-x,-y,z
x,-y,-z
-x,y,-z
-x,-y,-z
x,y,-z
-x,y,z
x,-y,z
loop_
_atom_site_type_symbol
_atom_site_label
_atom_site_fract_x
_atom_site_fract_y
_atom_site_fract_z
Si Si1 0.670144 0.371266 0.834208
Si Si2 0.836990 0.209355 0.656058
Si Si3 0.835246 0.586590 0.000000
Si Si4 0.334119 0.802828 0.813939
Si Si5 0.668170 0.609491 0.500000
Si Si6 0.336498 0.786818 0.500000
Si Si7 0.167730 0.386167 0.333333
Si Si8 0.162645 0.081167 0.903198
O O1 0.500000 0.391338 0.834521
O O2 0.678625 0.283192 0.831778
O O3 0.748128 0.400958 0.751727
O O4 0.750308 0.393181 0.917363
O O5 0.761845 0.181405 0.736036
O O6 0.745701 0.187845 0.578908
O O7 0.835160 0.297923 0.660546
O O8 0.000000 0.185833 0.649093
O O9 0.845729 0.500000 0.000000
O O10 0.000000 0.616566 0.000000
O O11 0.500000 0.817445 0.797559
O O12 0.272087 0.855590 0.881501
O O13 0.500000 0.586589 0.500000
O O14 0.666517 0.698025 0.500000
O O15 0.750508 0.588379 0.416005
O O16 0.500000 0.809692 0.500000
O O17 0.000000 0.410139 0.330927
O O18 0.000000 0.097979 0.874146
O O19 0.202649 0.000000 0.873119
O O20 0.155941 0.077095 0.000000
#
# Coordination Sequence:
#
# PCOD9384797 Si02
#       8
#     8   8   4   8   4   4   8   8
#     4  10  21  36  54  78 108 139 174 218 267 316
#     4   9  16  26  41  63  93 130 169 206 249 301
#     4  11  25  43  61  81 104 135 178 221 261 310
#     4  10  20  32  49  75 105 133 168 211 257 304
#     4   9  15  23  39  65 100 139 172 207 258 313
#     4   9  15  23  37  59  92 129 164 205 254 299
#     4   9  16  27  44  69 101 136 174 214 257 307
#     4   9  19  35  52  71  97 131 170 209 252 305
#
# _framework density 18.477181999999999
#
# number of rings (size 3 to 8) (size 9 to 14) (size 15 to 20)
#    0.000    2.538    0.000    3.000    1.077    8.615 
#    0.000    0.769    0.000    0.000    0.000    1.077 
#    0.000    8.615    0.000    0.000    0.000    0.000 
#
# Total GULP energy -289858.855600 kJ/mol
# GULP energy per Si atom -5574.208762 kJ/mol
# Density = 1.843513 g / cm^3
# Si number density = 18.477182 Si / 1000 Ang^3
#
#
#
# Elastic Constant Matrix: (Units=GPa)
#
#
# Indices 1 2 3 4 5 6 
#
# 1 185.6284 27.5086 99.7431 0.0000 0.0000 0.0000
# 2 27.5086 25.4945 11.2137 0.0000 0.0000 0.0000
# 3 99.7431 11.2137 150.3260 0.0000 0.0000 0.0000
# 4 0.0000 0.0000 0.0000 -56.4498 0.0000 0.0000
# 5 0.0000 0.0000 0.0000 0.0000 39.2806 0.0000
# 6 0.0000 0.0000 0.0000 0.0000 0.0000 -1.5503
#
#
#
# Elastic Compliance Matrix: (Units=1/GPa)
#
#
# Indices 1 2 3 4 5 6 
#
# 1 0.009698 -0.007893 -0.005846 0.000000 0.000000 0.000000
# 2 -0.007893 0.046978 0.001733 0.000000 0.000000 0.000000
# 3 -0.005846 0.001733 0.010402 0.000000 0.000000 0.000000
# 4 0.000000 0.000000 0.000000 -0.017715 0.000000 0.000000
# 5 0.000000 0.000000 0.000000 0.000000 0.025458 0.000000
# 6 0.000000 0.000000 0.000000 0.000000 0.000000 -0.645051
#
#
# Mechanical properties :
#
#
# Convention : Reuss Voigt Hill
#
# Bulk Modulus (GPa) = 23.22023 70.93108 47.07565
# Shear Modulus (GPa) = -9.40093 11.12165 0.86036
#
# Velocity S-wave (km/s) = -2.25808 2.45605 0.68311
# Velocity P-wave (km/s) = 2.40743 6.82017 5.11422
#
# Compressibility (1/GPa) = 0.04306590
#
# Stress axis : x y z
#
# Youngs Moduli (GPa) = 103.11491 21.28636 96.13710
#
# Poissons Ratio (x) = 0.16801 0.56201
# Poissons Ratio (y) = 0.81386 -0.16656
# Poissons Ratio (z) = 0.60280 -0.03688
#
# Static dielectric constant tensor:
#      x y z
#    x 1.633870 0.000000 0.000000 
#    y 0.000000 1.620210 0.000000 
#    z 0.000000 0.000000 1.618980 
# 
# From -- ./inp_files/21495.got.cif
#   From: 2010.05.17/outbox.cif.g08.bks.cpg/sg47_11_cif.got.tgz:21495.got - 2010.06.03 20:15:42.
