data_PCOD9384551
_publ_section_title
;
Structure prediction by ZEFSAII (Michael W. Deem and Ramdas Pophale) SiO2 
 PCOD9384551
Probable space group: P M M M
;
_chemical_formula_sum "Si O2"
_cell_formula_units_Z 44
_cell_length_a 7.758313
_cell_length_b 9.301193
_cell_length_c 31.511533
_cell_angle_alpha 90.000000
_cell_angle_beta 90.000000
_cell_angle_gamma 90.000000
_cell_volume 2273.921586
_symmetry_space_group_name_H-M "P M M M"
_symmetry_group_IT_number 47
_symmetry_cell_setting 'orthorhombic'
loop_
_space_group_symop_operation_xyz
x,y,z
-x,-y,z
x,-y,-z
-x,y,-z
-x,-y,-z
x,y,-z
-x,y,z
x,-y,z
loop_
_atom_site_type_symbol
_atom_site_label
_atom_site_fract_x
_atom_site_fract_y
_atom_site_fract_z
Si Si1 0.788959 0.332577 0.138081
Si Si2 0.500000 0.175106 0.451601
Si Si3 0.793784 0.673626 0.045616
Si Si4 0.806182 0.830112 0.609945
Si Si5 0.704866 0.335534 0.306354
Si Si6 0.791458 0.164082 0.778632
O O1 0.739158 0.500000 0.143143
O O2 0.729197 0.277644 0.091706
O O3 0.731259 0.240258 0.178123
O O4 0.000000 0.330421 0.137337
O O5 0.500000 0.226747 0.500000
O O6 0.666840 0.218480 0.424518
O O7 0.500000 0.000000 0.453159
O O8 0.773387 0.500000 0.046095
O O9 0.000000 0.700722 0.045034
O O10 0.723871 0.725649 0.000000
O O11 0.786662 0.745782 0.653836
O O12 0.000000 0.814027 0.593555
O O13 0.776384 0.000000 0.618569
O O14 0.500000 0.336138 0.313529
O O15 0.765901 0.500000 0.303442
O O16 0.740190 0.253505 0.262637
O O17 0.000000 0.162060 0.780002
O O18 0.730684 0.000000 0.775705
#
# Coordination Sequence:
#
# PCOD9384551 Si02
#       6
#     8   4   8   8   8   8
#     4   8  13  22  37  57  84 119 158 202 250 300
#     4   9  18  34  57  87 123 157 189 231 274 311
#     4   7   9  14  27  49  76 108 149 195 242 293
#     4  10  20  35  58  86 115 150 189 227 272 323
#     4  11  23  37  54  76 102 134 174 220 270 322
#     4  10  20  32  47  69  97 130 167 206 254 314
#
# _framework density 19.349831999999999
#
# number of rings (size 3 to 8) (size 9 to 14) (size 15 to 20)
#    0.000    2.818    0.909    3.273    0.000    5.091 
#    0.000    1.818    0.000    1.636    0.000    5.091 
#    0.000    0.727    0.000    8.364    0.000    9.636 
#
# Total GULP energy -245339.971665 kJ/mol
# GULP energy per Si atom -5575.908447 kJ/mol
# Density = 1.930579 g / cm^3
# Si number density = 19.349832 Si / 1000 Ang^3
#
#
#
# Elastic Constant Matrix: (Units=GPa)
#
#
# Indices 1 2 3 4 5 6 
#
# 1 55.1971 29.5590 45.1641 0.0000 0.0000 0.0000
# 2 29.5590 76.7501 68.2660 0.0000 0.0000 0.0000
# 3 45.1641 68.2660 198.4640 0.0000 0.0000 0.0000
# 4 0.0000 0.0000 0.0000 24.3657 0.0000 0.0000
# 5 0.0000 0.0000 0.0000 0.0000 23.1107 0.0000
# 6 0.0000 0.0000 0.0000 0.0000 0.0000 11.0672
#
#
#
# Elastic Compliance Matrix: (Units=1/GPa)
#
#
# Indices 1 2 3 4 5 6 
#
# 1 0.024256 -0.006386 -0.003323 0.000000 0.000000 0.000000
# 2 -0.006386 0.020454 -0.005582 0.000000 0.000000 0.000000
# 3 -0.003323 -0.005582 0.007715 0.000000 0.000000 0.000000
# 4 0.000000 0.000000 0.000000 0.041041 0.000000 0.000000
# 5 0.000000 0.000000 0.000000 0.000000 0.043270 0.000000
# 6 0.000000 0.000000 0.000000 0.000000 0.000000 0.090357
#
#
# Mechanical properties :
#
#
# Convention : Reuss Voigt Hill
#
# Bulk Modulus (GPa) = 45.78335 68.48770 57.13553
# Shear Modulus (GPa) = 18.87100 24.20354 21.53727
#
# Velocity S-wave (km/s) = 3.12629 3.54056 3.33985
# Velocity P-wave (km/s) = 6.06167 7.22394 6.66818
#
# Compressibility (1/GPa) = 0.02184200
#
# Stress axis : x y z
#
# Youngs Moduli (GPa) = 41.22716 48.89028 129.61493
#
# Poissons Ratio (x) = 0.31220 0.43075
# Poissons Ratio (y) = 0.26327 0.72356
# Poissons Ratio (z) = 0.13701 0.27292
#
# Static dielectric constant tensor:
#      x y z
#    x 1.732940 0.000000 0.000000 
#    y 0.000000 1.654580 0.000000 
#    z 0.000000 0.000000 1.671000 
# 
# From -- ./inp_files/33876.got.cif
#   From: 2010.05.17/outbox.cif.g08.bks.cpg/sg47_17_cif.got.tgz:33876.got - 2010.06.03 20:15:42.
