data_PCOD9384941
_publ_section_title
;
Structure prediction by ZEFSAII (Michael W. Deem and Ramdas Pophale) SiO2 
 PCOD9384941
Probable space group: P M M M
;
_chemical_formula_sum "Si O2"
_cell_formula_units_Z 52
_cell_length_a 25.881891
_cell_length_b 14.587665
_cell_length_c 7.763814
_cell_angle_alpha 90.000000
_cell_angle_beta 90.000000
_cell_angle_gamma 90.000000
_cell_volume 2931.277318
_symmetry_space_group_name_H-M "P M M M"
_symmetry_group_IT_number 47
_symmetry_cell_setting 'orthorhombic'
loop_
_space_group_symop_operation_xyz
x,y,z
-x,-y,z
x,-y,-z
-x,y,-z
-x,-y,-z
x,y,-z
-x,y,z
x,-y,z
loop_
_atom_site_type_symbol
_atom_site_label
_atom_site_fract_x
_atom_site_fract_y
_atom_site_fract_z
Si Si1 0.159079 0.106253 0.210635
Si Si2 0.365691 0.107593 0.305996
Si Si3 0.219790 0.603127 0.708177
Si Si4 0.441185 0.111248 0.000000
Si Si5 0.263010 0.793386 0.797986
Si Si6 0.056214 0.205667 0.203632
Si Si7 0.099896 0.602834 0.291678
O O1 0.210424 0.159088 0.268875
O O2 0.106493 0.153784 0.274344
O O3 0.160990 0.000000 0.258764
O O4 0.158880 0.111283 0.000000
O O5 0.385974 0.113906 0.500000
O O6 0.408078 0.137564 0.167291
O O7 0.313668 0.166091 0.289279
O O8 0.352961 0.000000 0.272088
O O9 0.220620 0.605892 0.500000
O O10 0.234550 0.500000 0.761653
O O11 0.254626 0.685095 0.775948
O O12 0.159824 0.617635 0.761297
O O13 0.500000 0.145167 0.000000
O O14 0.443578 0.000000 0.000000
O O15 0.267781 0.815532 0.000000
O O16 0.066131 0.313882 0.224709
O O17 0.000000 0.181043 0.276899
O O18 0.054794 0.185038 0.000000
O O19 0.098421 0.604904 0.500000
O O20 0.084579 0.500000 0.237489
#
# Coordination Sequence:
#
# PCOD9384941 Si02
#       7
#     8   8   8   4   8   8   8
#     4   9  18  31  47  68  92 123 161 201 253 311
#     4  10  20  33  51  78 112 150 189 226 267 312
#     4   9  18  32  49  70  97 128 163 205 255 315
#     4   9  18  34  54  78 113 153 192 232 266 301
#     4  11  19  30  51  75 104 136 168 214 264 313
#     4  10  20  33  48  67  89 114 153 205 254 304
#     4   9  18  33  51  68  89 119 153 192 244 309
#
# _framework density 17.739706999999999
#
# number of rings (size 3 to 8) (size 9 to 14) (size 15 to 20)
#    0.000    2.385    2.308    1.846    0.000    2.462 
#    0.000    6.154    0.000    1.385    0.000    1.077 
#    0.000    1.231    0.000    3.231    0.000    0.154 
#
# Total GULP energy -290185.108124 kJ/mol
# GULP energy per Si atom -5580.482849 kJ/mol
# Density = 1.769933 g / cm^3
# Si number density = 17.739707 Si / 1000 Ang^3
#
#
#
# Elastic Constant Matrix: (Units=GPa)
#
#
# Indices 1 2 3 4 5 6 
#
# 1 126.1679 49.2322 33.2868 0.0000 0.0000 0.0000
# 2 49.2322 76.0154 8.7825 0.0000 0.0000 0.0000
# 3 33.2868 8.7825 50.7458 0.0000 0.0000 0.0000
# 4 0.0000 0.0000 0.0000 10.8739 0.0000 0.0000
# 5 0.0000 0.0000 0.0000 0.0000 5.8287 0.0000
# 6 0.0000 0.0000 0.0000 0.0000 0.0000 16.0431
#
#
#
# Elastic Compliance Matrix: (Units=1/GPa)
#
#
# Indices 1 2 3 4 5 6 
#
# 1 0.012664 -0.007390 -0.007028 0.000000 0.000000 0.000000
# 2 -0.007390 0.017736 0.001778 0.000000 0.000000 0.000000
# 3 -0.007028 0.001778 0.024008 0.000000 0.000000 0.000000
# 4 0.000000 0.000000 0.000000 0.091963 0.000000 0.000000
# 5 0.000000 0.000000 0.000000 0.000000 0.171566 0.000000
# 6 0.000000 0.000000 0.000000 0.000000 0.000000 0.062332
#
#
# Mechanical properties :
#
#
# Convention : Reuss Voigt Hill
#
# Bulk Modulus (GPa) = 34.33090 48.39244 41.36167
# Shear Modulus (GPa) = 12.04072 17.32431 14.68252
#
# Velocity S-wave (km/s) = 2.60810 3.12842 2.88004
# Velocity P-wave (km/s) = 5.33518 6.35514 5.86736
#
# Compressibility (1/GPa) = 0.02912828
#
# Stress axis : x y z
#
# Youngs Moduli (GPa) = 78.96602 56.38280 41.65230
#
# Poissons Ratio (x) = 0.41666 0.29272
# Poissons Ratio (y) = 0.58354 -0.07405
# Poissons Ratio (z) = 0.55496 -0.10024
#
# Static dielectric constant tensor:
#      x y z
#    x 1.586760 0.000000 0.000000 
#    y 0.000000 1.595270 0.000000 
#    z 0.000000 0.000000 1.654670 
# 
# From -- ./inp_files/6976.got.cif
#   From: 2010.05.17/outbox.cif.g08.bks.cpg/sg47_4_cif.got.tgz:6976.got - 2010.06.03 20:15:42.
