data_PCOD9384599
_publ_section_title
;
Structure prediction by ZEFSAII (Michael W. Deem and Ramdas Pophale) SiO2 
 PCOD9384599
Probable space group: P M M M
;
_chemical_formula_sum "Si O2"
_cell_formula_units_Z 40
_cell_length_a 7.515732
_cell_length_b 27.759731
_cell_length_c 8.477738
_cell_angle_alpha 90.000000
_cell_angle_beta 90.000000
_cell_angle_gamma 90.000000
_cell_volume 1768.750312
_symmetry_space_group_name_H-M "P M M M"
_symmetry_group_IT_number 47
_symmetry_cell_setting 'orthorhombic'
loop_
_space_group_symop_operation_xyz
x,y,z
-x,-y,z
x,-y,-z
-x,y,-z
-x,-y,-z
x,y,-z
-x,y,z
x,-y,z
loop_
_atom_site_type_symbol
_atom_site_label
_atom_site_fract_x
_atom_site_fract_y
_atom_site_fract_z
Si Si1 0.217398 0.395720 0.184445
Si Si2 0.784231 0.056563 0.000000
Si Si3 0.794514 0.899252 0.672499
Si Si4 0.785295 0.705167 0.323354
Si Si5 0.788856 0.500000 0.808266
Si Si6 0.709333 0.805353 0.825361
O O1 0.278121 0.347475 0.270035
O O2 0.280559 0.447969 0.245985
O O3 0.000000 0.396613 0.191964
O O4 0.264341 0.392009 0.000000
O O5 0.717119 0.079177 0.835041
O O6 0.000000 0.063447 0.000000
O O7 0.747424 0.000000 0.000000
O O8 0.715927 0.910758 0.500000
O O9 0.791483 0.841690 0.699665
O O10 0.000000 0.915382 0.667534
O O11 0.723541 0.715690 0.500000
O O12 0.734427 0.749431 0.213280
O O13 0.000000 0.703184 0.323307
O O14 0.000000 0.500000 0.773598
O O15 0.772147 0.500000 0.000000
O O16 0.500000 0.815100 0.825159
O O17 0.782191 0.815783 0.000000
#
# Coordination Sequence:
#
# PCOD9384599 Si02
#       6
#     8   4   8   8   4   8
#     4   8  13  23  40  62  89 123 161 202 248 299
#     4   9  18  34  57  87 121 151 181 222 265 304
#     4  10  20  35  58  86 114 147 184 220 264 316
#     4  10  20  32  47  71 102 134 169 209 257 315
#     4   7  10  18  35  59  86 117 156 199 244 296
#     4  11  23  37  54  76 102 136 178 222 269 319
#
# _framework density 22.614837999999999
#
# number of rings (size 3 to 8) (size 9 to 14) (size 15 to 20)
#    0.000    2.600    1.000    3.000    0.000    5.600 
#    0.000    2.500    0.000    4.200    0.000    2.100 
#    0.000    5.600    0.000    0.000    0.000    0.000 
#
# Total GULP energy -223215.794621 kJ/mol
# GULP energy per Si atom -5580.394866 kJ/mol
# Density = 2.256337 g / cm^3
# Si number density = 22.614838 Si / 1000 Ang^3
#
#
#
# Elastic Constant Matrix: (Units=GPa)
#
#
# Indices 1 2 3 4 5 6 
#
# 1 62.5003 0.3355 8.8424 0.0000 0.0000 0.0000
# 2 0.3355 116.7770 54.0227 0.0000 0.0000 0.0000
# 3 8.8424 54.0227 143.8186 0.0000 0.0000 0.0000
# 4 0.0000 0.0000 0.0000 3.1511 0.0000 0.0000
# 5 0.0000 0.0000 0.0000 0.0000 -8.0389 0.0000
# 6 0.0000 0.0000 0.0000 0.0000 0.0000 -65.9730
#
#
#
# Elastic Compliance Matrix: (Units=1/GPa)
#
#
# Indices 1 2 3 4 5 6 
#
# 1 0.016164 0.000500 -0.001182 0.000000 0.000000 0.000000
# 2 0.000500 0.010380 -0.003930 0.000000 0.000000 0.000000
# 3 -0.001182 -0.003930 0.008502 0.000000 0.000000 0.000000
# 4 0.000000 0.000000 0.000000 0.317354 0.000000 0.000000
# 5 0.000000 0.000000 0.000000 0.000000 -0.124394 0.000000
# 6 0.000000 0.000000 0.000000 0.000000 0.000000 -0.015158
#
#
# Mechanical properties :
#
#
# Convention : Reuss Voigt Hill
#
# Bulk Modulus (GPa) = 38.72398 49.94413 44.33406
# Shear Modulus (GPa) = 21.67519 3.15417 12.41468
#
# Velocity S-wave (km/s) = 3.09924 1.18227 2.34554
# Velocity P-wave (km/s) = 5.47426 4.89860 5.19441
#
# Compressibility (1/GPa) = 0.02582379
#
# Stress axis : x y z
#
# Youngs Moduli (GPa) = 61.86421 96.34051 117.61943
#
# Poissons Ratio (x) = -0.04819 0.13900
# Poissons Ratio (y) = -0.03095 0.46222
# Poissons Ratio (z) = 0.07311 0.37859
#
# Static dielectric constant tensor:
#      x y z
#    x 1.861710 0.000000 0.000000 
#    y 0.000000 1.826950 0.000000 
#    z 0.000000 0.000000 1.835060 
# 
# From -- ./inp_files/1792.got.cif
#   From: 2010.05.17/outbox.cif.g08.bks.cpg/sg47_1_cif.got.tgz:1792.got - 2010.06.03 20:15:42.
