data_PCOD9384306
_publ_section_title
;
Structure prediction by ZEFSAII (Michael W. Deem and Ramdas Pophale) SiO2 
 PCOD9384306
Probable space group: P M M M
;
_chemical_formula_sum "Si O2"
_cell_formula_units_Z 52
_cell_length_a 15.186035
_cell_length_b 23.279702
_cell_length_c 9.258103
_cell_angle_alpha 90.000000
_cell_angle_beta 90.000000
_cell_angle_gamma 90.000000
_cell_volume 3272.983541
_symmetry_space_group_name_H-M "P M M M"
_symmetry_group_IT_number 47
_symmetry_cell_setting 'orthorhombic'
loop_
_space_group_symop_operation_xyz
x,y,z
-x,-y,z
x,-y,-z
-x,y,-z
-x,-y,-z
x,y,-z
-x,y,z
x,-y,z
loop_
_atom_site_type_symbol
_atom_site_label
_atom_site_fract_x
_atom_site_fract_y
_atom_site_fract_z
Si Si1 0.141676 0.935645 0.671753
Si Si2 0.604388 0.319871 0.172679
Si Si3 0.335701 0.104649 0.661189
Si Si4 0.263109 0.233973 0.666866
Si Si5 0.500000 0.065182 0.170869
Si Si6 0.606577 0.435774 0.666290
Si Si7 0.100407 0.182597 0.829254
O O1 0.123498 0.927359 0.500000
O O2 0.247467 0.931576 0.689317
O O3 0.105857 0.881554 0.760569
O O4 0.111817 0.000000 0.712128
O O5 0.500000 0.309946 0.208606
O O6 0.669524 0.275753 0.251474
O O7 0.629335 0.383506 0.229278
O O8 0.612702 0.315891 0.000000
O O9 0.367605 0.090349 0.500000
O O10 0.306137 0.170667 0.663868
O O11 0.412451 0.094677 0.772510
O O12 0.249785 0.251942 0.500000
O O13 0.170930 0.223036 0.749004
O O14 0.500000 0.000000 0.225979
O O15 0.500000 0.064748 0.000000
O O16 0.633997 0.424540 0.500000
O O17 0.500000 0.437691 0.665353
O O18 0.637022 0.500000 0.707867
O O19 0.000000 0.202932 0.811923
O O20 0.120911 0.179314 0.000000
#
# Coordination Sequence:
#
# PCOD9384306 Si02
#       7
#     8   8   8   8   4   8   8
#     4   9  18  33  52  72  92 116 149 188 232 286
#     4  10  20  31  46  72 104 137 170 205 246 287
#     4   9  19  34  49  64  83 114 153 192 234 277
#     4  10  21  36  53  71  93 124 163 203 241 285
#     4  11  23  33  43  63  87 113 148 189 234 283
#     4   8  14  26  44  66  95 134 176 211 241 275
#     4  10  21  36  53  73  97 123 151 190 245 302
#
# _framework density 15.887644999999999
#
# number of rings (size 3 to 8) (size 9 to 14) (size 15 to 20)
#    0.000    2.538    0.000    3.462    1.077    7.385 
#    0.000    3.077    0.000    0.000    0.000    0.000 
#    0.000    0.615    0.000    6.462    0.000    3.077 
#
# Total GULP energy -289832.121401 kJ/mol
# GULP energy per Si atom -5573.694642 kJ/mol
# Density = 1.585148 g / cm^3
# Si number density = 15.887645 Si / 1000 Ang^3
#
#
#
# Elastic Constant Matrix: (Units=GPa)
#
#
# Indices 1 2 3 4 5 6 
#
# 1 77.7781 40.4437 59.2109 0.0000 0.0000 0.0000
# 2 40.4437 80.2611 45.1731 0.0000 0.0000 0.0000
# 3 59.2109 45.1731 92.6916 0.0000 0.0000 0.0000
# 4 0.0000 0.0000 0.0000 23.2397 0.0000 0.0000
# 5 0.0000 0.0000 0.0000 0.0000 30.0073 0.0000
# 6 0.0000 0.0000 0.0000 0.0000 0.0000 9.5152
#
#
#
# Elastic Compliance Matrix: (Units=1/GPa)
#
#
# Indices 1 2 3 4 5 6 
#
# 1 0.026561 -0.005284 -0.014392 0.000000 0.000000 0.000000
# 2 -0.005284 0.018220 -0.005504 0.000000 0.000000 0.000000
# 3 -0.014392 -0.005504 0.022664 0.000000 0.000000 0.000000
# 4 0.000000 0.000000 0.000000 0.043030 0.000000 0.000000
# 5 0.000000 0.000000 0.000000 0.000000 0.033325 0.000000
# 6 0.000000 0.000000 0.000000 0.000000 0.000000 0.105095
#
#
# Mechanical properties :
#
#
# Convention : Reuss Voigt Hill
#
# Bulk Modulus (GPa) = 58.52981 60.04290 59.28635
# Shear Modulus (GPa) = 16.39615 19.61263 18.00439
#
# Velocity S-wave (km/s) = 3.21597 3.51730 3.37000
# Velocity P-wave (km/s) = 7.12108 7.37356 7.24842
#
# Compressibility (1/GPa) = 0.01708531
#
# Stress axis : x y z
#
# Youngs Moduli (GPa) = 37.64933 54.88551 44.12236
#
# Poissons Ratio (x) = 0.29001 0.63500
# Poissons Ratio (y) = 0.19894 0.24285
# Poissons Ratio (z) = 0.54184 0.30209
#
# Static dielectric constant tensor:
#      x y z
#    x 1.519500 0.000000 0.000000 
#    y 0.000000 1.527970 0.000000 
#    z 0.000000 0.000000 1.538710 
# 
# From -- ./inp_files/7017.got.cif
#   From: 2010.05.17/outbox.cif.g08.bks.cpg/sg47_4_cif.got.tgz:7017.got - 2010.06.03 20:15:42.
