data_PCOD9384631
_publ_section_title
;
Structure prediction by ZEFSAII (Michael W. Deem and Ramdas Pophale) SiO2 
 PCOD9384631
Probable space group: P M M M
;
_chemical_formula_sum "Si O2"
_cell_formula_units_Z 64
_cell_length_a 7.570091
_cell_length_b 29.466097
_cell_length_c 15.319603
_cell_angle_alpha 90.000000
_cell_angle_beta 90.000000
_cell_angle_gamma 90.000000
_cell_volume 3417.206512
_symmetry_space_group_name_H-M "P M M M"
_symmetry_group_IT_number 47
_symmetry_cell_setting 'orthorhombic'
loop_
_space_group_symop_operation_xyz
x,y,z
-x,-y,z
x,-y,-z
-x,y,-z
-x,-y,-z
x,y,-z
-x,y,z
x,-y,z
loop_
_atom_site_type_symbol
_atom_site_label
_atom_site_fract_x
_atom_site_fract_y
_atom_site_fract_z
Si Si1 0.712665 0.950888 0.280038
Si Si2 0.285370 0.189342 0.097929
Si Si3 0.715697 0.084680 0.097130
Si Si4 0.282599 0.730020 0.222284
Si Si5 0.212651 0.548791 0.898150
Si Si6 0.294029 0.763682 0.597974
Si Si7 0.208756 0.865631 0.401476
Si Si8 0.708849 0.648888 0.900086
O O1 0.500000 0.952113 0.277547
O O2 0.774958 0.943359 0.180672
O O3 0.757611 0.907553 0.338199
O O4 0.775162 0.000000 0.313345
O O5 0.500000 0.189199 0.099381
O O6 0.231071 0.137249 0.111064
O O7 0.226701 0.225052 0.169496
O O8 0.232257 0.203442 0.000000
O O9 0.500000 0.083615 0.096336
O O10 0.772830 0.070379 0.000000
O O11 0.500000 0.729739 0.223997
O O12 0.220083 0.734610 0.321934
O O13 0.222603 0.686644 0.166547
O O14 0.272475 0.500000 0.860542
O O15 0.269280 0.597751 0.864183
O O16 0.000000 0.548575 0.896621
O O17 0.268738 0.548942 0.000000
O O18 0.216754 0.759786 0.500000
O O19 0.500000 0.751675 0.590995
O O20 0.286770 0.816921 0.624421
O O21 0.272634 0.876012 0.500000
O O22 0.000000 0.858505 0.404656
O O23 0.500000 0.657350 0.907782
O O24 0.781430 0.651420 0.000000
#
# Coordination Sequence:
#
# PCOD9384631 Si02
#       8
#     8   8   8   8   8   8   8   8
#     4  10  20  32  48  71  94 114 139 173 212 254
#     4   8  12  18  31  52  78 108 136 158 187 232
#     4   8  14  25  42  65  90 113 139 172 206 239
#     4   9  15  23  37  59  88 114 134 164 206 247
#     4   8  14  25  39  53  74 110 152 187 217 249
#     4   9  17  30  49  69  86 108 140 174 207 248
#     4  10  21  36  52  68  87 112 141 175 217 263
#     4   9  16  24  36  58  87 116 145 176 210 249
#
# _framework density 18.728746999999998
#
# number of rings (size 3 to 8) (size 9 to 14) (size 15 to 20)
#    0.000    3.125    0.000    2.625    0.000    5.250 
#    0.000    4.375    0.000    0.375    0.000    0.875 
#    0.000    0.500    0.000    6.250    0.000    1.250 
#
# Total GULP energy -356657.083094 kJ/mol
# GULP energy per Si atom -5572.766923 kJ/mol
# Density = 1.868612 g / cm^3
# Si number density = 18.728747 Si / 1000 Ang^3
#
#
#
# Elastic Constant Matrix: (Units=GPa)
#
#
# Indices 1 2 3 4 5 6 
#
# 1 41.7244 -0.1932 4.6380 0.0000 0.0000 0.0000
# 2 -0.1932 79.4479 64.8090 0.0000 0.0000 0.0000
# 3 4.6380 64.8090 96.2982 0.0000 0.0000 0.0000
# 4 0.0000 0.0000 0.0000 17.5195 0.0000 0.0000
# 5 0.0000 0.0000 0.0000 0.0000 -14.8168 0.0000
# 6 0.0000 0.0000 0.0000 0.0000 0.0000 51.4513
#
#
#
# Elastic Compliance Matrix: (Units=1/GPa)
#
#
# Indices 1 2 3 4 5 6 
#
# 1 0.024275 0.002246 -0.002680 0.000000 0.000000 0.000000
# 2 0.002246 0.028116 -0.019031 0.000000 0.000000 0.000000
# 3 -0.002680 -0.019031 0.023321 0.000000 0.000000 0.000000
# 4 0.000000 0.000000 0.000000 0.057079 0.000000 0.000000
# 5 0.000000 0.000000 0.000000 0.000000 -0.067491 0.000000
# 6 0.000000 0.000000 0.000000 0.000000 0.000000 0.019436
#
#
# Mechanical properties :
#
#
# Convention : Reuss Voigt Hill
#
# Bulk Modulus (GPa) = 27.18737 39.55313 33.37025
# Shear Modulus (GPa) = 36.78422 20.71193 28.74807
#
# Velocity S-wave (km/s) = 4.43657 3.32910 3.92212
# Velocity P-wave (km/s) = 6.38687 5.99516 6.19411
#
# Compressibility (1/GPa) = 0.03678179
#
# Stress axis : x y z
#
# Youngs Moduli (GPa) = 41.19440 35.56651 42.87960
#
# Poissons Ratio (x) = -0.07987 0.11494
# Poissons Ratio (y) = -0.09250 0.81602
# Poissons Ratio (z) = 0.11042 0.67685
#
# Static dielectric constant tensor:
#      x y z
#    x 1.712550 0.000000 0.000000 
#    y 0.000000 1.659960 0.000000 
#    z 0.000000 0.000000 1.663490 
# 
# From -- ./inp_files/22170.got.cif
#   From: 2010.05.17/outbox.cif.g08.bks.cpg/sg47_12_cif.got.tgz:22170.got - 2010.06.03 20:15:42.
