data_PCOD9384422
_publ_section_title
;
Structure prediction by ZEFSAII (Michael W. Deem and Ramdas Pophale) SiO2 
 PCOD9384422
Probable space group: P M M M
;
_chemical_formula_sum "Si O2"
_cell_formula_units_Z 64
_cell_length_a 31.910940
_cell_length_b 9.073201
_cell_length_c 14.712850
_cell_angle_alpha 90.000000
_cell_angle_beta 90.000000
_cell_angle_gamma 90.000000
_cell_volume 4259.875796
_symmetry_space_group_name_H-M "P M M M"
_symmetry_group_IT_number 47
_symmetry_cell_setting 'orthorhombic'
loop_
_space_group_symop_operation_xyz
x,y,z
-x,-y,z
x,-y,-z
-x,y,-z
-x,-y,-z
x,y,-z
-x,y,z
x,-y,z
loop_
_atom_site_type_symbol
_atom_site_label
_atom_site_fract_x
_atom_site_fract_y
_atom_site_fract_z
Si Si1 0.177760 0.823475 0.896076
Si Si2 0.921093 0.178485 0.899946
Si Si3 0.546428 0.827569 0.389577
Si Si4 0.630508 0.668677 0.389511
Si Si5 0.046910 0.821781 0.294078
Si Si6 0.875435 0.676949 0.605574
Si Si7 0.716854 0.824261 0.392400
Si Si8 0.791926 0.676657 0.282355
O O1 0.128178 0.786253 0.887977
O O2 0.202935 0.738575 0.819136
O O3 0.181367 0.000000 0.882776
O O4 0.190247 0.790219 0.000000
O O5 0.945794 0.226498 0.810741
O O6 0.923968 0.000000 0.902335
O O7 0.934780 0.231922 0.000000
O O8 0.546495 0.820643 0.500000
O O9 0.500000 0.776847 0.359980
O O10 0.586472 0.736448 0.357338
O O11 0.551037 0.000000 0.365989
O O12 0.628956 0.669533 0.500000
O O13 0.635484 0.500000 0.360160
O O14 0.671069 0.764243 0.365017
O O15 0.083474 0.753084 0.354103
O O16 0.000000 0.781171 0.323517
O O17 0.050256 0.000000 0.296721
O O18 0.869458 0.715806 0.500000
O O19 0.880088 0.500000 0.611844
O O20 0.834453 0.718534 0.663472
O O21 0.722761 0.790249 0.500000
O O22 0.752729 0.746681 0.334242
O O23 0.718617 0.000000 0.381812
O O24 0.788593 0.500000 0.282357
#
# Coordination Sequence:
#
# PCOD9384422 Si02
#       8
#     8   8   8   8   8   8   8   8
#     4   9  17  31  52  74  95 119 145 173 208 257
#     4   8  14  27  48  72  96 118 138 165 204 250
#     4   8  13  21  33  49  71 103 145 191 235 277
#     4   9  16  25  37  54  79 110 145 189 236 277
#     4  10  20  33  51  74  95 114 142 180 215 251
#     4  10  22  38  52  66  87 118 150 179 216 261
#     4  10  20  32  46  64  87 118 154 190 231 277
#     4  11  21  33  51  72  93 115 144 185 225 265
#
# _framework density 15.023911999999999
#
# number of rings (size 3 to 8) (size 9 to 14) (size 15 to 20)
#    0.000    2.625    1.250    2.625    0.000    4.750 
#    0.000    3.750    0.000    0.375    0.000    0.875 
#    0.000    0.000    0.000    0.000    0.000    0.625 
#
# Total GULP energy -356659.002988 kJ/mol
# GULP energy per Si atom -5572.796922 kJ/mol
# Density = 1.498972 g / cm^3
# Si number density = 15.023912 Si / 1000 Ang^3
#
#
#
# Elastic Constant Matrix: (Units=GPa)
#
#
# Indices 1 2 3 4 5 6 
#
# 1 118.9356 48.9115 46.9872 0.0000 0.0000 0.0000
# 2 48.9115 42.4759 32.2249 0.0000 0.0000 0.0000
# 3 46.9872 32.2249 66.1773 0.0000 0.0000 0.0000
# 4 0.0000 0.0000 0.0000 16.0919 0.0000 0.0000
# 5 0.0000 0.0000 0.0000 0.0000 2.2932 0.0000
# 6 0.0000 0.0000 0.0000 0.0000 0.0000 24.1477
#
#
#
# Elastic Compliance Matrix: (Units=1/GPa)
#
#
# Indices 1 2 3 4 5 6 
#
# 1 0.016591 -0.016124 -0.003928 0.000000 0.000000 0.000000
# 2 -0.016124 0.053007 -0.014363 0.000000 0.000000 0.000000
# 3 -0.003928 -0.014363 0.024894 0.000000 0.000000 0.000000
# 4 0.000000 0.000000 0.000000 0.062143 0.000000 0.000000
# 5 0.000000 0.000000 0.000000 0.000000 0.436066 0.000000
# 6 0.000000 0.000000 0.000000 0.000000 0.000000 0.041412
#
#
# Mechanical properties :
#
#
# Convention : Reuss Voigt Hill
#
# Bulk Modulus (GPa) = 38.96996 53.75957 46.36477
# Shear Modulus (GPa) = 7.02744 15.13757 11.08250
#
# Velocity S-wave (km/s) = 2.16510 3.17766 2.71893
# Velocity P-wave (km/s) = 5.67848 7.02308 6.38627
#
# Compressibility (1/GPa) = 0.02566079
#
# Stress axis : x y z
#
# Youngs Moduli (GPa) = 60.27423 18.86547 40.17053
#
# Poissons Ratio (x) = 0.30420 0.15779
# Poissons Ratio (y) = 0.97189 0.57696
# Poissons Ratio (z) = 0.23676 0.27096
#
# Static dielectric constant tensor:
#      x y z
#    x 1.493700 0.000000 0.000000 
#    y 0.000000 1.501100 0.000000 
#    z 0.000000 0.000000 1.488160 
# 
# From -- ./inp_files/25883.got.cif
#   From: 2010.05.17/outbox.cif.g08.bks.cpg/sg47_13_cif.got.tgz:25883.got - 2010.06.03 20:15:42.
