data_PCOD9384124
_publ_section_title
;
Structure prediction by ZEFSAII (Michael W. Deem and Ramdas Pophale) SiO2 
 PCOD9384124
Probable space group: P M M M
;
_chemical_formula_sum "Si O2"
_cell_formula_units_Z 52
_cell_length_a 13.982161
_cell_length_b 22.286420
_cell_length_c 7.531662
_cell_angle_alpha 90.000000
_cell_angle_beta 90.000000
_cell_angle_gamma 90.000000
_cell_volume 2346.958613
_symmetry_space_group_name_H-M "P M M M"
_symmetry_group_IT_number 47
_symmetry_cell_setting 'orthorhombic'
loop_
_space_group_symop_operation_xyz
x,y,z
-x,-y,z
x,-y,-z
-x,y,-z
-x,-y,-z
x,y,-z
-x,y,z
x,-y,z
loop_
_atom_site_type_symbol
_atom_site_label
_atom_site_fract_x
_atom_site_fract_y
_atom_site_fract_z
Si Si1 0.605172 0.319476 0.717113
Si Si2 0.681207 0.066475 0.200002
Si Si3 0.106838 0.248533 0.283616
Si Si4 0.889620 0.500000 0.717183
Si Si5 0.802095 0.625377 0.716291
Si Si6 0.896829 0.928201 0.702240
Si Si7 0.305685 0.196467 0.290716
O O1 0.604302 0.319805 0.500000
O O2 0.500000 0.337269 0.777228
O O3 0.693700 0.360668 0.771997
O O4 0.630831 0.251675 0.776092
O O5 0.796165 0.076905 0.201898
O O6 0.648634 0.130783 0.270386
O O7 0.664098 0.000000 0.283710
O O8 0.646572 0.062452 0.000000
O O9 0.104339 0.246602 0.500000
O O10 0.134582 0.316760 0.232662
O O11 0.196172 0.207138 0.223663
O O12 0.000000 0.233319 0.222041
O O13 0.886523 0.500000 0.500000
O O14 0.840490 0.561515 0.777210
O O15 0.000000 0.500000 0.769209
O O16 0.803805 0.624839 0.500000
O O17 0.885973 0.904259 0.500000
O O18 0.000000 0.906723 0.772581
O O19 0.905790 0.000000 0.688629
O O20 0.297116 0.205832 0.500000
#
# Coordination Sequence:
#
# PCOD9384124 Si02
#       7
#     8   8   8   4   8   8   8
#     4   8  14  26  43  60  78 101 135 184 232 266
#     4  10  20  31  42  58  83 112 136 166 219 282
#     4   8  13  22  36  54  77 104 138 182 221 248
#     4   9  14  18  27  47  81 125 163 186 206 244
#     4   8  13  20  31  51  79 112 149 182 214 254
#     4   8  14  25  40  56  75 104 143 179 205 238
#     4   9  17  28  44  64  80 102 142 183 218 263
#
# _framework density 22.156334999999999
#
# number of rings (size 3 to 8) (size 9 to 14) (size 15 to 20)
#    0.000    3.462    0.000    3.231    0.000    3.692 
#    0.000    3.462    0.000    3.231    0.000    3.231 
#    0.000    0.000    0.000   11.077    0.000   46.154 
#
# Total GULP energy -289657.452985 kJ/mol
# GULP energy per Si atom -5570.335634 kJ/mol
# Density = 2.210591 g / cm^3
# Si number density = 22.156335 Si / 1000 Ang^3
#
#
#
# Elastic Constant Matrix: (Units=GPa)
#
#
# Indices 1 2 3 4 5 6 
#
# 1 89.7565 54.6519 0.4607 0.0000 0.0000 0.0000
# 2 54.6519 189.4464 -1.7958 0.0000 0.0000 0.0000
# 3 0.4607 -1.7958 45.3395 0.0000 0.0000 0.0000
# 4 0.0000 0.0000 0.0000 56.7123 0.0000 0.0000
# 5 0.0000 0.0000 0.0000 0.0000 -5.5978 0.0000
# 6 0.0000 0.0000 0.0000 0.0000 0.0000 1.6968
#
#
#
# Elastic Compliance Matrix: (Units=1/GPa)
#
#
# Indices 1 2 3 4 5 6 
#
# 1 0.013519 -0.003903 -0.000292 0.000000 0.000000 0.000000
# 2 -0.003903 0.006407 0.000293 0.000000 0.000000 0.000000
# 3 -0.000292 0.000293 0.022070 0.000000 0.000000 0.000000
# 4 0.000000 0.000000 0.000000 0.017633 0.000000 0.000000
# 5 0.000000 0.000000 0.000000 0.000000 -0.178641 0.000000
# 6 0.000000 0.000000 0.000000 0.000000 0.000000 0.589361
#
#
# Mechanical properties :
#
#
# Convention : Reuss Voigt Hill
#
# Bulk Modulus (GPa) = 29.24482 47.90845 38.57664
# Shear Modulus (GPa) = 10.21346 28.64395 19.42871
#
# Velocity S-wave (km/s) = 2.14936 3.59947 2.96445
# Velocity P-wave (km/s) = 4.40314 6.24057 5.40057
#
# Compressibility (1/GPa) = 0.03419409
#
# Stress axis : x y z
#
# Youngs Moduli (GPa) = 73.96924 156.07426 45.30957
#
# Poissons Ratio (x) = 0.60913 0.01323
# Poissons Ratio (y) = 0.28869 -0.01330
# Poissons Ratio (z) = 0.02160 -0.04580
#
# Static dielectric constant tensor:
#      x y z
#    x 1.828380 0.000000 0.000000 
#    y 0.000000 1.830440 0.000000 
#    z 0.000000 0.000000 1.890730 
# 
# From -- ./inp_files/7679.got.cif
#   From: 2010.05.17/outbox.cif.g08.bks.cpg/sg47_4_cif.got.tgz:7679.got - 2010.06.03 20:15:42.
