data_PCOD9384931
_publ_section_title
;
Structure prediction by ZEFSAII (Michael W. Deem and Ramdas Pophale) SiO2 
 PCOD9384931
Probable space group: P M M M
;
_chemical_formula_sum "Si O2"
_cell_formula_units_Z 52
_cell_length_a 15.672674
_cell_length_b 8.405026
_cell_length_c 24.074134
_cell_angle_alpha 90.000000
_cell_angle_beta 90.000000
_cell_angle_gamma 90.000000
_cell_volume 3171.267194
_symmetry_space_group_name_H-M "P M M M"
_symmetry_group_IT_number 47
_symmetry_cell_setting 'orthorhombic'
loop_
_space_group_symop_operation_xyz
x,y,z
-x,-y,z
x,-y,-z
-x,y,-z
-x,-y,-z
x,y,-z
-x,y,z
x,-y,z
loop_
_atom_site_type_symbol
_atom_site_label
_atom_site_fract_x
_atom_site_fract_y
_atom_site_fract_z
Si Si1 0.854266 0.690158 0.561288
Si Si2 0.906554 0.191757 0.318378
Si Si3 0.401549 0.691990 0.818567
Si Si4 0.674173 0.313698 0.611408
Si Si5 0.396684 0.312756 0.940319
Si Si6 0.500000 0.181890 0.566075
Si Si7 0.270788 0.186234 0.727216
O O1 0.881057 0.748478 0.500000
O O2 0.869165 0.500000 0.562650
O O3 0.895001 0.762047 0.616816
O O4 0.752822 0.717239 0.569789
O O5 0.825732 0.251317 0.282497
O O6 0.000000 0.246952 0.299638
O O7 0.904097 0.000000 0.315770
O O8 0.500000 0.745210 0.806921
O O9 0.405233 0.500000 0.821765
O O10 0.373241 0.753281 0.879809
O O11 0.332837 0.737143 0.772408
O O12 0.678206 0.500000 0.626497
O O13 0.584241 0.270993 0.585712
O O14 0.688224 0.212313 0.666708
O O15 0.500000 0.307806 0.940244
O O16 0.372883 0.500000 0.940856
O O17 0.368183 0.243255 0.000000
O O18 0.500000 0.177106 0.500000
O O19 0.500000 0.000000 0.587174
O O20 0.265011 0.000000 0.740080
#
# Coordination Sequence:
#
# PCOD9384931 Si02
#       7
#     8   8   8   8   8   4   8
#     4   9  18  32  49  69  90 109 133 170 219 273
#     4   9  19  35  51  66  85 112 146 182 224 273
#     4   9  17  28  44  67  95 126 158 187 217 259
#     4  10  20  34  50  64  83 114 149 184 220 262
#     4   7  10  19  37  61  88 119 155 190 217 245
#     4  11  23  35  47  65  87 111 144 185 226 267
#     4  10  20  33  48  66  90 118 149 188 229 268
#
# _framework density 16.397231000000001
#
# number of rings (size 3 to 8) (size 9 to 14) (size 15 to 20)
#    0.000    2.846    0.000    3.000    1.077    3.692 
#    0.000    1.538    0.000    0.462    0.000    2.154 
#    0.000    0.615    0.000    7.692    0.000    0.308 
#
# Total GULP energy -289495.532996 kJ/mol
# GULP energy per Si atom -5567.221788 kJ/mol
# Density = 1.635991 g / cm^3
# Si number density = 16.397231 Si / 1000 Ang^3
#
#
#
# Elastic Constant Matrix: (Units=GPa)
#
#
# Indices 1 2 3 4 5 6 
#
# 1 99.8549 9.8866 42.2896 0.0000 0.0000 0.0000
# 2 9.8866 9.4066 7.0615 0.0000 0.0000 0.0000
# 3 42.2896 7.0615 100.4496 0.0000 0.0000 0.0000
# 4 0.0000 0.0000 0.0000 -10.6391 0.0000 0.0000
# 5 0.0000 0.0000 0.0000 0.0000 4.6610 0.0000
# 6 0.0000 0.0000 0.0000 0.0000 0.0000 10.4466
#
#
#
# Elastic Compliance Matrix: (Units=1/GPa)
#
#
# Indices 1 2 3 4 5 6 
#
# 1 0.013040 -0.010118 -0.004779 0.000000 0.000000 0.000000
# 2 -0.010118 0.120083 -0.004182 0.000000 0.000000 0.000000
# 3 -0.004779 -0.004182 0.012261 0.000000 0.000000 0.000000
# 4 0.000000 0.000000 0.000000 -0.093993 0.000000 0.000000
# 5 0.000000 0.000000 0.000000 0.000000 0.214546 0.000000
# 6 0.000000 0.000000 0.000000 0.000000 0.000000 0.095725
#
#
# Mechanical properties :
#
#
# Convention : Reuss Voigt Hill
#
# Bulk Modulus (GPa) = 9.32607 36.46517 22.89562
# Shear Modulus (GPa) = 11.47945 10.92526 11.20236
#
# Velocity S-wave (km/s) = 2.64878 2.58405 2.61662
# Velocity P-wave (km/s) = 3.88003 5.58480 4.80857
#
# Compressibility (1/GPa) = 0.10722627
#
# Stress axis : x y z
#
# Youngs Moduli (GPa) = 76.68636 8.32760 81.55908
#
# Poissons Ratio (x) = 0.08426 0.38974
# Poissons Ratio (y) = 0.77593 0.34107
# Poissons Ratio (z) = 0.36646 0.03483
#
# Static dielectric constant tensor:
#      x y z
#    x 1.560680 0.000000 0.000000 
#    y 0.000000 1.577350 0.000000 
#    z 0.000000 0.000000 1.566330 
# 
# From -- ./inp_files/7672.got.cif
#   From: 2010.05.17/outbox.cif.g08.bks.cpg/sg47_4_cif.got.tgz:7672.got - 2010.06.03 20:15:42.
