data_PCOD9384639
_publ_section_title
;
Structure prediction by ZEFSAII (Michael W. Deem and Ramdas Pophale) SiO2 
 PCOD9384639
Probable space group: P M M M
;
_chemical_formula_sum "Si O2"
_cell_formula_units_Z 64
_cell_length_a 20.452011
_cell_length_b 8.969907
_cell_length_c 18.463083
_cell_angle_alpha 90.000000
_cell_angle_beta 90.000000
_cell_angle_gamma 90.000000
_cell_volume 3387.101257
_symmetry_space_group_name_H-M "P M M M"
_symmetry_group_IT_number 47
_symmetry_cell_setting 'orthorhombic'
loop_
_space_group_symop_operation_xyz
x,y,z
-x,-y,z
x,-y,-z
-x,y,-z
-x,-y,-z
x,y,-z
-x,y,z
x,-y,z
loop_
_atom_site_type_symbol
_atom_site_label
_atom_site_fract_x
_atom_site_fract_y
_atom_site_fract_z
Si Si1 0.742284 0.826908 0.135435
Si Si2 0.076137 0.823446 0.630417
Si Si3 0.114136 0.825756 0.080649
Si Si4 0.077216 0.336275 0.775265
Si Si5 0.292068 0.678633 0.282966
Si Si6 0.571894 0.819604 0.759106
Si Si7 0.601247 0.179352 0.921402
Si Si8 0.794515 0.679054 0.579522
O O1 0.807648 0.815057 0.089222
O O2 0.742928 0.730599 0.208508
O O3 0.678497 0.791480 0.088451
O O4 0.735410 0.000000 0.158408
O O5 0.095402 0.779791 0.712934
O O6 0.132282 0.743330 0.585281
O O7 0.000000 0.777953 0.616720
O O8 0.079156 0.000000 0.620330
O O9 0.088180 0.725831 0.145138
O O10 0.096052 0.000000 0.091404
O O11 0.093647 0.781581 0.000000
O O12 0.108008 0.500000 0.764006
O O13 0.000000 0.351827 0.766591
O O14 0.296805 0.500000 0.283947
O O15 0.364956 0.748063 0.278462
O O16 0.250780 0.728578 0.353282
O O17 0.500000 0.781890 0.729160
O O18 0.572933 0.771481 0.844161
O O19 0.578789 0.000000 0.757901
O O20 0.591167 0.000000 0.923281
O O21 0.579050 0.237400 0.000000
O O22 0.767411 0.718542 0.500000
O O23 0.798860 0.500000 0.584131
#
# Coordination Sequence:
#
# PCOD9384639 Si02
#       8
#     8   8   8   8   8   8   8   8
#     4   9  17  30  48  70  97 129 166 207 253 307
#     4  10  21  37  58  84 112 141 175 215 257 306
#     4  10  20  32  48  71  97 127 168 222 278 322
#     4  10  21  36  52  69  93 130 174 215 258 313
#     4  10  20  34  54  78 103 134 173 215 258 308
#     4   9  18  32  51  76 104 136 176 220 265 313
#     4   8  13  23  42  68  97 128 163 204 247 292
#     4  10  22  39  58  82 112 143 174 210 255 311
#
# _framework density 18.895212999999998
#
# number of rings (size 3 to 8) (size 9 to 14) (size 15 to 20)
#    0.000    2.500    0.000    3.000    0.000    8.000 
#    0.000    3.750    0.000    9.375    0.000    6.125 
#    0.000    0.000    0.000    0.000    0.000    0.000 
#
# Total GULP energy -356784.157045 kJ/mol
# GULP energy per Si atom -5574.752454 kJ/mol
# Density = 1.885221 g / cm^3
# Si number density = 18.895213 Si / 1000 Ang^3
#
#
#
# Elastic Constant Matrix: (Units=GPa)
#
#
# Indices 1 2 3 4 5 6 
#
# 1 66.1077 22.0744 39.1970 0.0000 0.0000 0.0000
# 2 22.0744 22.0634 20.9443 0.0000 0.0000 0.0000
# 3 39.1970 20.9443 104.0528 0.0000 0.0000 0.0000
# 4 0.0000 0.0000 0.0000 21.3233 0.0000 0.0000
# 5 0.0000 0.0000 0.0000 0.0000 14.3059 0.0000
# 6 0.0000 0.0000 0.0000 0.0000 0.0000 20.4839
#
#
#
# Elastic Compliance Matrix: (Units=1/GPa)
#
#
# Indices 1 2 3 4 5 6 
#
# 1 0.024957 -0.019835 -0.005409 0.000000 0.000000 0.000000
# 2 -0.019835 0.071794 -0.006979 0.000000 0.000000 0.000000
# 3 -0.005409 -0.006979 0.013053 0.000000 0.000000 0.000000
# 4 0.000000 0.000000 0.000000 0.046897 0.000000 0.000000
# 5 0.000000 0.000000 0.000000 0.000000 0.069901 0.000000
# 6 0.000000 0.000000 0.000000 0.000000 0.000000 0.048819
#
#
# Mechanical properties :
#
#
# Convention : Reuss Voigt Hill
#
# Bulk Modulus (GPa) = 22.04688 39.62835 30.83762
# Shear Modulus (GPa) = 14.08503 18.55650 16.32076
#
# Velocity S-wave (km/s) = 2.73322 3.13721 2.94215
# Velocity P-wave (km/s) = 4.65338 5.84303 5.28180
#
# Compressibility (1/GPa) = 0.04535789
#
# Stress axis : x y z
#
# Youngs Moduli (GPa) = 40.06867 13.92871 76.61150
#
# Poissons Ratio (x) = 0.27628 0.41439
# Poissons Ratio (y) = 0.79476 0.53469
# Poissons Ratio (z) = 0.21673 0.09721
#
# Static dielectric constant tensor:
#      x y z
#    x 1.688600 0.000000 0.000000 
#    y 0.000000 1.650380 0.000000 
#    z 0.000000 0.000000 1.664310 
# 
# From -- ./inp_files/9970.got.cif
#   From: 2010.05.17/outbox.cif.g08.bks.cpg/sg47_5_cif.got.tgz:9970.got - 2010.06.03 20:15:42.
