data_PCOD9384312
_publ_section_title
;
Structure prediction by ZEFSAII (Michael W. Deem and Ramdas Pophale) SiO2 
 PCOD9384312
Probable space group: P M M M
;
_chemical_formula_sum "Si O2"
_cell_formula_units_Z 64
_cell_length_a 7.558948
_cell_length_b 9.636421
_cell_length_c 42.064189
_cell_angle_alpha 90.000000
_cell_angle_beta 90.000000
_cell_angle_gamma 90.000000
_cell_volume 3064.006224
_symmetry_space_group_name_H-M "P M M M"
_symmetry_group_IT_number 47
_symmetry_cell_setting 'orthorhombic'
loop_
_space_group_symop_operation_xyz
x,y,z
-x,-y,z
x,-y,-z
-x,y,-z
-x,-y,-z
x,y,-z
-x,y,z
x,-y,z
loop_
_atom_site_type_symbol
_atom_site_label
_atom_site_fract_x
_atom_site_fract_y
_atom_site_fract_z
Si Si1 0.212927 0.157811 0.405291
Si Si2 0.213046 0.656831 0.153813
Si Si3 0.289424 0.844501 0.093822
Si Si4 0.786664 0.342218 0.225627
Si Si5 0.709931 0.156804 0.714368
Si Si6 0.215828 0.658938 0.463874
Si Si7 0.288059 0.342207 0.656397
Si Si8 0.284005 0.659775 0.035681
O O1 0.277438 0.233977 0.437255
O O2 0.254335 0.253931 0.375225
O O3 0.000000 0.150667 0.407521
O O4 0.278847 0.000000 0.401689
O O5 0.274349 0.500000 0.146232
O O6 0.264098 0.762931 0.126598
O O7 0.273261 0.691203 0.189678
O O8 0.000000 0.653521 0.154704
O O9 0.500000 0.854301 0.088913
O O10 0.219128 0.756697 0.064003
O O11 0.217051 0.000000 0.095318
O O12 0.727128 0.500000 0.233369
O O13 0.732764 0.232407 0.251987
O O14 0.000000 0.344781 0.225240
O O15 0.500000 0.145820 0.708702
O O16 0.782546 0.255949 0.686578
O O17 0.782277 0.000000 0.713884
O O18 0.270847 0.691488 0.500000
O O19 0.268844 0.500000 0.456516
O O20 0.000000 0.660318 0.463676
O O21 0.500000 0.352489 0.660027
O O22 0.219143 0.500000 0.654552
O O23 0.500000 0.660562 0.036075
O O24 0.230128 0.500000 0.040748
O O25 0.230543 0.702336 0.000000
#
# Coordination Sequence:
#
# PCOD9384312 Si02
#       8
#     8   8   8   8   8   8   8   8
#     4  10  20  32  49  76 106 134 166 205 250 299
#     4   9  19  36  55  73  96 130 170 207 244 289
#     4  10  20  31  46  73 105 133 163 201 246 296
#     4   9  19  36  56  77 100 128 165 206 246 290
#     4  10  21  36  54  77 104 132 162 199 245 296
#     4   8  14  26  45  69  98 132 168 206 248 292
#     4  10  21  37  56  75  97 131 172 208 246 294
#     4   8  14  26  45  68  94 126 164 204 245 289
#
# _framework density 20.887685999999999
#
# number of rings (size 3 to 8) (size 9 to 14) (size 15 to 20)
#    0.000    2.750    0.000    3.000    0.000    5.500 
#    0.000    6.250    0.000    0.750    0.000    5.250 
#    0.000    0.000    0.000    0.000    0.000    0.000 
#
# Total GULP energy -357286.024875 kJ/mol
# GULP energy per Si atom -5582.594139 kJ/mol
# Density = 2.084014 g / cm^3
# Si number density = 20.887686 Si / 1000 Ang^3
#
#
#
# Elastic Constant Matrix: (Units=GPa)
#
#
# Indices 1 2 3 4 5 6 
#
# 1 48.3222 7.4204 -1.1140 0.0000 0.0000 0.0000
# 2 7.4204 209.9637 148.7964 0.0000 0.0000 0.0000
# 3 -1.1140 148.7964 176.6974 0.0000 0.0000 0.0000
# 4 0.0000 0.0000 0.0000 -62.3635 0.0000 0.0000
# 5 0.0000 0.0000 0.0000 0.0000 -1.0754 0.0000
# 6 0.0000 0.0000 0.0000 0.0000 0.0000 13.0876
#
#
#
# Elastic Compliance Matrix: (Units=1/GPa)
#
#
# Indices 1 2 3 4 5 6 
#
# 1 0.021057 -0.002079 0.001883 0.000000 0.000000 0.000000
# 2 -0.002079 0.012017 -0.010132 0.000000 0.000000 0.000000
# 3 0.001883 -0.010132 0.014204 0.000000 0.000000 0.000000
# 4 0.000000 0.000000 0.000000 -0.016035 0.000000 0.000000
# 5 0.000000 0.000000 0.000000 0.000000 -0.929849 0.000000
# 6 0.000000 0.000000 0.000000 0.000000 0.000000 0.076408
#
#
# Mechanical properties :
#
#
# Convention : Reuss Voigt Hill
#
# Bulk Modulus (GPa) = 37.56326 82.79878 60.18102
# Shear Modulus (GPa) = -6.30781 8.58844 1.14032
#
# Velocity S-wave (km/s) = -1.73966 2.02994 0.73967
# Velocity P-wave (km/s) = 3.73995 6.72460 5.44093
#
# Compressibility (1/GPa) = 0.02662176
#
# Stress axis : x y z
#
# Youngs Moduli (GPa) = 47.48999 83.21669 70.40387
#
# Poissons Ratio (x) = 0.17300 -0.13260
# Poissons Ratio (y) = 0.09873 0.71336
# Poissons Ratio (z) = -0.08944 0.84319
#
# Static dielectric constant tensor:
#      x y z
#    x 1.838480 0.000000 0.000000 
#    y 0.000000 1.732490 0.000000 
#    z 0.000000 0.000000 1.716980 
# 
# From -- ./inp_files/34589.got.cif
#   From: 2010.05.17/outbox.cif.g08.bks.cpg/sg47_18_cif.got.tgz:34589.got - 2010.06.03 20:15:42.
