data_PCOD9384425
_publ_section_title
;
Structure prediction by ZEFSAII (Michael W. Deem and Ramdas Pophale) SiO2 
 PCOD9384425
Probable space group: P M M M
;
_chemical_formula_sum "Si O2"
_cell_formula_units_Z 52
_cell_length_a 7.494268
_cell_length_b 15.165164
_cell_length_c 22.819832
_cell_angle_alpha 90.000000
_cell_angle_beta 90.000000
_cell_angle_gamma 90.000000
_cell_volume 2593.515057
_symmetry_space_group_name_H-M "P M M M"
_symmetry_group_IT_number 47
_symmetry_cell_setting 'orthorhombic'
loop_
_space_group_symop_operation_xyz
x,y,z
-x,-y,z
x,-y,-z
-x,y,-z
-x,-y,-z
x,y,-z
-x,y,z
x,-y,z
loop_
_atom_site_type_symbol
_atom_site_label
_atom_site_fract_x
_atom_site_fract_y
_atom_site_fract_z
Si Si1 0.208227 0.856559 0.564756
Si Si2 0.287372 0.399403 0.872502
Si Si3 0.197838 0.256714 0.225889
Si Si4 0.217769 0.900139 0.695669
Si Si5 0.296172 0.393318 0.000000
Si Si6 0.284108 0.350600 0.437550
Si Si7 0.283711 0.405243 0.312116
O O1 0.282186 0.883441 0.500000
O O2 0.281366 0.886447 0.628094
O O3 0.222226 0.750476 0.566288
O O4 0.000000 0.882783 0.564044
O O5 0.500000 0.408643 0.879187
O O6 0.222816 0.500000 0.857525
O O7 0.264626 0.321216 0.825674
O O8 0.214729 0.371963 0.936668
O O9 0.284440 0.170558 0.256228
O O10 0.196989 0.324406 0.279924
O O11 0.000000 0.229765 0.207459
O O12 0.000000 0.889695 0.693246
O O13 0.258133 0.000000 0.712886
O O14 0.304119 0.500000 0.000000
O O15 0.500000 0.358560 0.000000
O O16 0.224824 0.387155 0.500000
O O17 0.500000 0.349390 0.437425
O O18 0.231094 0.401162 0.379735
O O19 0.500000 0.396374 0.307504
O O20 0.236113 0.500000 0.286376
#
# Coordination Sequence:
#
# PCOD9384425 Si02
#       7
#     8   8   8   8   4   8   8
#     4   9  16  28  48  69  86 108 144 192 245 297
#     4   9  17  31  52  76 103 134 163 189 220 263
#     4  11  21  32  47  69  96 126 157 193 234 276
#     4   9  18  32  48  67  91 119 154 197 244 290
#     4   7  12  26  49  75 100 129 164 192 215 255
#     4   9  17  29  45  63  84 112 147 189 235 279
#     4  10  20  32  46  64  88 121 158 192 228 275
#
# _framework density 20.050008999999999
#
# number of rings (size 3 to 8) (size 9 to 14) (size 15 to 20)
#    0.000    2.692    1.538    1.846    0.000    3.077 
#    0.000    3.462    0.000    5.538    0.000    5.923 
#    0.000    4.308    0.000    0.000    0.000    0.000 
#
# Total GULP energy -289582.270372 kJ/mol
# GULP energy per Si atom -5568.889815 kJ/mol
# Density = 2.000437 g / cm^3
# Si number density = 20.050009 Si / 1000 Ang^3
#
#
#
# Elastic Constant Matrix: (Units=GPa)
#
#
# Indices 1 2 3 4 5 6 
#
# 1 50.7052 2.2693 10.9268 0.0000 0.0000 0.0000
# 2 2.2693 118.6258 67.1682 0.0000 0.0000 0.0000
# 3 10.9268 67.1682 158.0395 0.0000 0.0000 0.0000
# 4 0.0000 0.0000 0.0000 18.9171 0.0000 0.0000
# 5 0.0000 0.0000 0.0000 0.0000 16.6809 0.0000
# 6 0.0000 0.0000 0.0000 0.0000 0.0000 12.2637
#
#
#
# Elastic Compliance Matrix: (Units=1/GPa)
#
#
# Indices 1 2 3 4 5 6 
#
# 1 0.020045 0.000528 -0.001611 0.000000 0.000000 0.000000
# 2 0.000528 0.011115 -0.004761 0.000000 0.000000 0.000000
# 3 -0.001611 -0.004761 0.008462 0.000000 0.000000 0.000000
# 4 0.000000 0.000000 0.000000 0.052862 0.000000 0.000000
# 5 0.000000 0.000000 0.000000 0.000000 0.059949 0.000000
# 6 0.000000 0.000000 0.000000 0.000000 0.000000 0.081541
#
#
# Mechanical properties :
#
#
# Convention : Reuss Voigt Hill
#
# Bulk Modulus (GPa) = 35.79439 54.23322 45.01380
# Shear Modulus (GPa) = 19.60993 26.03944 22.82469
#
# Velocity S-wave (km/s) = 3.13077 3.60769 3.37766
# Velocity P-wave (km/s) = 5.56420 6.66795 6.14092
#
# Compressibility (1/GPa) = 0.02793734
#
# Stress axis : x y z
#
# Youngs Moduli (GPa) = 49.88713 89.96584 118.17254
#
# Poissons Ratio (x) = -0.04754 0.19032
# Poissons Ratio (y) = -0.02636 0.56258
# Poissons Ratio (z) = 0.08034 0.42830
#
# Static dielectric constant tensor:
#      x y z
#    x 1.806360 0.000000 0.000000 
#    y 0.000000 1.682320 0.000000 
#    z 0.000000 0.000000 1.766350 
# 
# From -- ./inp_files/32000.got.cif
#   From: 2010.05.17/outbox.cif.g08.bks.cpg/sg47_16_cif.got.tgz:32000.got - 2010.06.03 20:15:42.
