data_PCOD9384325
_publ_section_title
;
Structure prediction by ZEFSAII (Michael W. Deem and Ramdas Pophale) SiO2 
 PCOD9384325
Probable space group: P M M M
;
_chemical_formula_sum "Si O2"
_cell_formula_units_Z 36
_cell_length_a 9.446297
_cell_length_b 7.509641
_cell_length_c 25.932110
_cell_angle_alpha 90.000000
_cell_angle_beta 90.000000
_cell_angle_gamma 90.000000
_cell_volume 1839.579779
_symmetry_space_group_name_H-M "P M M M"
_symmetry_group_IT_number 47
_symmetry_cell_setting 'orthorhombic'
loop_
_space_group_symop_operation_xyz
x,y,z
-x,-y,z
x,-y,-z
-x,y,-z
-x,-y,-z
x,y,-z
-x,y,z
x,-y,z
loop_
_atom_site_type_symbol
_atom_site_label
_atom_site_fract_x
_atom_site_fract_y
_atom_site_fract_z
Si Si1 0.163403 0.717273 0.057912
Si Si2 0.160628 0.786447 0.257342
Si Si3 0.671713 0.500000 0.558475
Si Si4 0.659589 0.286830 0.155324
Si Si5 0.331606 0.211347 0.641659
O O1 0.165109 0.500000 0.058334
O O2 0.262853 0.780988 0.103887
O O3 0.000000 0.770133 0.066612
O O4 0.205242 0.772292 0.000000
O O5 0.246697 0.746271 0.205664
O O6 0.245348 0.727250 0.308109
O O7 0.000000 0.717560 0.255143
O O8 0.153541 0.000000 0.261143
O O9 0.500000 0.500000 0.555682
O O10 0.725777 0.500000 0.500000
O O11 0.710680 0.672864 0.592126
O O12 0.500000 0.217556 0.161296
O O13 0.650555 0.500000 0.149692
O O14 0.500000 0.237701 0.650840
O O15 0.309307 0.000000 0.633577
#
# Coordination Sequence:
#
# PCOD9384325 Si02
#       5
#     8   8   4   8   8
#     4   8  14  26  44  66  95 131 169 209 254 306
#     4  10  21  36  53  73  99 133 172 214 262 314
#     4   9  18  32  53  83 113 141 178 221 262 311
#     4  10  20  31  47  74 103 131 166 210 260 313
#     4   9  18  33  53  77 107 142 178 220 268 315
#
# _framework density 19.569686000000001
#
# number of rings (size 3 to 8) (size 9 to 14) (size 15 to 20)
#    0.000    2.778    0.000    2.000    1.556    3.556 
#    0.000    4.444    0.000    2.000    0.000    7.778 
#    0.000    0.000    0.000    0.000    0.000    0.000 
#
# Total GULP energy -200889.830012 kJ/mol
# GULP energy per Si atom -5580.273056 kJ/mol
# Density = 1.952514 g / cm^3
# Si number density = 19.569686 Si / 1000 Ang^3
#
#
#
# Elastic Constant Matrix: (Units=GPa)
#
#
# Indices 1 2 3 4 5 6 
#
# 1 121.6965 31.4518 112.8394 0.0000 0.0000 0.0000
# 2 31.4518 61.2912 38.7572 0.0000 0.0000 0.0000
# 3 112.8394 38.7572 218.7725 0.0000 0.0000 0.0000
# 4 0.0000 0.0000 0.0000 74.5989 0.0000 0.0000
# 5 0.0000 0.0000 0.0000 0.0000 79.1880 0.0000
# 6 0.0000 0.0000 0.0000 0.0000 0.0000 10.2476
#
#
#
# Elastic Compliance Matrix: (Units=1/GPa)
#
#
# Indices 1 2 3 4 5 6 
#
# 1 0.016371 -0.003448 -0.007833 0.000000 0.000000 0.000000
# 2 -0.003448 0.019100 -0.001605 0.000000 0.000000 0.000000
# 3 -0.007833 -0.001605 0.008896 0.000000 0.000000 0.000000
# 4 0.000000 0.000000 0.000000 0.013405 0.000000 0.000000
# 5 0.000000 0.000000 0.000000 0.000000 0.012628 0.000000
# 6 0.000000 0.000000 0.000000 0.000000 0.000000 0.097584
#
#
# Mechanical properties :
#
#
# Convention : Reuss Voigt Hill
#
# Bulk Modulus (GPa) = 53.78042 85.31744 69.54893
# Shear Modulus (GPa) = 25.00560 47.38769 36.19664
#
# Velocity S-wave (km/s) = 3.57847 4.92620 4.30540
# Velocity P-wave (km/s) = 6.67945 8.72055 7.76734
#
# Compressibility (1/GPa) = 0.01859413
#
# Stress axis : x y z
#
# Youngs Moduli (GPa) = 61.08208 52.35617 112.41408
#
# Poissons Ratio (x) = 0.18051 0.88058
# Poissons Ratio (y) = 0.21059 0.18047
# Poissons Ratio (z) = 0.47848 0.08405
#
# Static dielectric constant tensor:
#      x y z
#    x 1.681460 0.000000 0.000000 
#    y 0.000000 1.748590 0.000000 
#    z 0.000000 0.000000 1.653110 
# 
# From -- ./inp_files/31659.got.cif
#   From: 2010.05.17/outbox.cif.g08.bks.cpg/sg47_16_cif.got.tgz:31659.got - 2010.06.03 20:15:42.
