data_PCOD9384202
_publ_section_title
;
Structure prediction by ZEFSAII (Michael W. Deem and Ramdas Pophale) SiO2 
 PCOD9384202
Probable space group: P M M M
;
_chemical_formula_sum "Si O2"
_cell_formula_units_Z 64
_cell_length_a 22.427890
_cell_length_b 10.385019
_cell_length_c 17.581185
_cell_angle_alpha 90.000000
_cell_angle_beta 90.000000
_cell_angle_gamma 90.000000
_cell_volume 4094.905244
_symmetry_space_group_name_H-M "P M M M"
_symmetry_group_IT_number 47
_symmetry_cell_setting 'orthorhombic'
loop_
_space_group_symop_operation_xyz
x,y,z
-x,-y,z
x,-y,-z
-x,y,-z
-x,-y,-z
x,y,-z
-x,y,z
x,-y,z
loop_
_atom_site_type_symbol
_atom_site_label
_atom_site_fract_x
_atom_site_fract_y
_atom_site_fract_z
Si Si1 0.430081 0.850469 0.811526
Si Si2 0.158259 0.644171 0.696118
Si Si3 0.361453 0.354213 0.090023
Si Si4 0.675015 0.146133 0.698886
Si Si5 0.266950 0.350155 0.589958
Si Si6 0.070216 0.847816 0.762327
Si Si7 0.136387 0.154289 0.915017
Si Si8 0.245117 0.266150 0.824861
O O1 0.500000 0.830882 0.798128
O O2 0.404808 0.751488 0.873422
O O3 0.389684 0.832434 0.736383
O O4 0.421085 0.000000 0.835374
O O5 0.132666 0.500000 0.692572
O O6 0.200127 0.667080 0.623088
O O7 0.109951 0.754936 0.710111
O O8 0.204182 0.651637 0.767546
O O9 0.383458 0.500000 0.102609
O O10 0.297670 0.339072 0.131590
O O11 0.354686 0.333869 0.000000
O O12 0.691942 0.251577 0.636387
O O13 0.721544 0.165604 0.768888
O O14 0.679396 0.000000 0.670401
O O15 0.269400 0.329067 0.500000
O O16 0.282943 0.500000 0.605702
O O17 0.088680 0.813915 0.849316
O O18 0.000000 0.830614 0.750873
O O19 0.084525 0.000000 0.750918
O O20 0.200017 0.202729 0.884469
O O21 0.138173 0.000000 0.918544
O O22 0.123454 0.203407 0.000000
#
# Coordination Sequence:
#
# PCOD9384202 Si02
#       8
#     8   8   8   8   8   8   8   8
#     4   9  19  35  51  66  88 121 159 196 232 269
#     4   9  17  29  48  70  89 114 149 183 215 261
#     4  10  20  31  44  65  92 121 155 197 242 284
#     4   9  17  29  48  72  94 118 152 189 221 263
#     4   9  18  32  50  74 103 126 141 168 217 272
#     4   9  18  31  45  62  87 119 153 190 229 264
#     4   9  16  25  40  63  88 115 150 191 232 273
#     4   9  16  28  44  63  91 121 148 184 233 281
#
# _framework density 15.629177
#
# number of rings (size 3 to 8) (size 9 to 14) (size 15 to 20)
#    0.000    2.875    0.000    1.125    0.000    8.000 
#    0.000    2.500    0.000    4.125    0.000    8.750 
#    0.000    0.000    0.000    0.000    0.000    0.000 
#
# Total GULP energy -356357.289921 kJ/mol
# GULP energy per Si atom -5568.082655 kJ/mol
# Density = 1.559360 g / cm^3
# Si number density = 15.629177 Si / 1000 Ang^3
#
#
#
# Elastic Constant Matrix: (Units=GPa)
#
#
# Indices 1 2 3 4 5 6 
#
# 1 86.5365 62.2137 31.3293 0.0000 0.0000 0.0000
# 2 62.2137 100.0403 61.6313 0.0000 0.0000 0.0000
# 3 31.3293 61.6313 78.6745 0.0000 0.0000 0.0000
# 4 0.0000 0.0000 0.0000 20.8994 0.0000 0.0000
# 5 0.0000 0.0000 0.0000 0.0000 5.8554 0.0000
# 6 0.0000 0.0000 0.0000 0.0000 0.0000 19.4025
#
#
#
# Elastic Compliance Matrix: (Units=1/GPa)
#
#
# Indices 1 2 3 4 5 6 
#
# 1 0.021439 -0.015604 0.003686 0.000000 0.000000 0.000000
# 2 -0.015604 0.030676 -0.017817 0.000000 0.000000 0.000000
# 3 0.003686 -0.017817 0.025200 0.000000 0.000000 0.000000
# 4 0.000000 0.000000 0.000000 0.047848 0.000000 0.000000
# 5 0.000000 0.000000 0.000000 0.000000 0.170784 0.000000
# 6 0.000000 0.000000 0.000000 0.000000 0.000000 0.051540
#
#
# Mechanical properties :
#
#
# Convention : Reuss Voigt Hill
#
# Bulk Modulus (GPa) = 56.03492 63.95554 59.99523
# Shear Modulus (GPa) = 12.10930 16.56993 14.33961
#
# Velocity S-wave (km/s) = 2.78652 3.25959 3.03230
# Velocity P-wave (km/s) = 6.80320 7.42806 7.12248
#
# Compressibility (1/GPa) = 0.01784601
#
# Stress axis : x y z
#
# Youngs Moduli (GPa) = 46.64344 32.59859 39.68210
#
# Poissons Ratio (x) = 0.50865 -0.14627
# Poissons Ratio (y) = 0.72780 0.70703
# Poissons Ratio (z) = -0.17193 0.58082
#
# Static dielectric constant tensor:
#      x y z
#    x 1.508050 0.000000 0.000000 
#    y 0.000000 1.528850 0.000000 
#    z 0.000000 0.000000 1.511050 
# 
# From -- ./inp_files/28886.got.cif
#   From: 2010.05.17/outbox.cif.g08.bks.cpg/sg47_15_cif.got.tgz:28886.got - 2010.06.03 20:15:42.
