data_PCOD9384140
_publ_section_title
;
Structure prediction by ZEFSAII (Michael W. Deem and Ramdas Pophale) SiO2 
 PCOD9384140
Probable space group: P M M M
;
_chemical_formula_sum "Si O2"
_cell_formula_units_Z 64
_cell_length_a 31.894090
_cell_length_b 8.664633
_cell_length_c 14.875734
_cell_angle_alpha 90.000000
_cell_angle_beta 90.000000
_cell_angle_gamma 90.000000
_cell_volume 4110.917789
_symmetry_space_group_name_H-M "P M M M"
_symmetry_group_IT_number 47
_symmetry_cell_setting 'orthorhombic'
loop_
_space_group_symop_operation_xyz
x,y,z
-x,-y,z
x,-y,-z
-x,y,-z
-x,-y,-z
x,y,-z
-x,y,z
x,-y,z
loop_
_atom_site_type_symbol
_atom_site_label
_atom_site_fract_x
_atom_site_fract_y
_atom_site_fract_z
Si Si1 0.243626 0.687634 0.400408
Si Si2 0.213301 0.314661 0.209212
Si Si3 0.374232 0.314725 0.210926
Si Si4 0.045930 0.318127 0.108703
Si Si5 0.134220 0.816112 0.894914
Si Si6 0.548070 0.186073 0.895784
Si Si7 0.705921 0.814696 0.894750
Si Si8 0.658518 0.312365 0.599475
O O1 0.230006 0.740119 0.500000
O O2 0.242650 0.500000 0.401447
O O3 0.218093 0.737937 0.313026
O O4 0.292571 0.731157 0.388353
O O5 0.215170 0.500000 0.207309
O O6 0.170740 0.258938 0.163295
O O7 0.253011 0.250239 0.154406
O O8 0.372232 0.500000 0.208947
O O9 0.417537 0.258933 0.168373
O O10 0.335528 0.249782 0.153059
O O11 0.367541 0.261701 0.314071
O O12 0.049548 0.500000 0.129598
O O13 0.087848 0.231760 0.137857
O O14 0.000000 0.263145 0.140941
O O15 0.045129 0.304854 0.000000
O O16 0.138356 0.000000 0.892373
O O17 0.138425 0.767016 0.000000
O O18 0.500000 0.229979 0.874798
O O19 0.550779 0.000000 0.890758
O O20 0.556422 0.229053 0.000000
O O21 0.705963 0.000000 0.888777
O O22 0.706324 0.771693 0.000000
O O23 0.644894 0.259921 0.500000
O O24 0.657621 0.500000 0.598611
#
# Coordination Sequence:
#
# PCOD9384140 Si02
#       8
#     8   8   8   8   8   8   8   8
#     4   8  14  27  47  68  89 114 147 188 233 276
#     4  11  20  31  48  68  89 118 157 197 232 266
#     4  11  20  31  51  77  96 115 151 194 230 263
#     4   8  14  26  44  64  85 112 152 201 242 271
#     4  10  20  31  42  60  91 130 163 189 227 279
#     4   9  19  36  54  70  93 127 158 182 221 276
#     4  11  23  35  45  61  92 131 160 183 220 271
#     4   8  14  27  47  70  95 119 145 182 229 276
#
# _framework density 15.568299
#
# number of rings (size 3 to 8) (size 9 to 14) (size 15 to 20)
#    0.000    2.500    1.250    3.750    0.000    5.500 
#    0.000    1.875    0.000    4.125    0.000    2.625 
#    0.000    0.500    0.000    5.750    0.000    1.875 
#
# Total GULP energy -356709.141273 kJ/mol
# GULP energy per Si atom -5573.580332 kJ/mol
# Density = 1.553287 g / cm^3
# Si number density = 15.568299 Si / 1000 Ang^3
#
#
#
# Elastic Constant Matrix: (Units=GPa)
#
#
# Indices 1 2 3 4 5 6 
#
# 1 117.9750 31.3273 83.1232 0.0000 0.0000 0.0000
# 2 31.3273 25.3252 32.6292 0.0000 0.0000 0.0000
# 3 83.1232 32.6292 133.6804 0.0000 0.0000 0.0000
# 4 0.0000 0.0000 0.0000 -11.6757 0.0000 0.0000
# 5 0.0000 0.0000 0.0000 0.0000 5.0268 0.0000
# 6 0.0000 0.0000 0.0000 0.0000 0.0000 234.2545
#
#
#
# Elastic Compliance Matrix: (Units=1/GPa)
#
#
# Indices 1 2 3 4 5 6 
#
# 1 0.016872 -0.010727 -0.007873 0.000000 0.000000 0.000000
# 2 -0.010727 0.064421 -0.009054 0.000000 0.000000 0.000000
# 3 -0.007873 -0.009054 0.014586 0.000000 0.000000 0.000000
# 4 0.000000 0.000000 0.000000 -0.085648 0.000000 0.000000
# 5 0.000000 0.000000 0.000000 0.000000 0.198932 0.000000
# 6 0.000000 0.000000 0.000000 0.000000 0.000000 0.004269
#
#
# Mechanical properties :
#
#
# Convention : Reuss Voigt Hill
#
# Bulk Modulus (GPa) = 24.64816 63.46001 44.05409
# Shear Modulus (GPa) = 17.71398 54.18120 35.94759
#
# Velocity S-wave (km/s) = 3.37682 5.90574 4.81044
# Velocity P-wave (km/s) = 5.57410 9.34637 7.69497
#
# Compressibility (1/GPa) = 0.04057098
#
# Stress axis : x y z
#
# Youngs Moduli (GPa) = 59.27026 15.52290 68.56048
#
# Poissons Ratio (x) = 0.16652 0.53975
# Poissons Ratio (y) = 0.63581 0.62073
# Poissons Ratio (z) = 0.46661 0.14054
#
# Static dielectric constant tensor:
#      x y z
#    x 1.503100 0.000000 0.000000 
#    y 0.000000 1.528320 0.000000 
#    z 0.000000 0.000000 1.527120 
# 
# From -- ./inp_files/25892.got.cif
#   From: 2010.05.17/outbox.cif.g08.bks.cpg/sg47_13_cif.got.tgz:25892.got - 2010.06.03 20:15:42.
