data_PCOD9384791
_publ_section_title
;
Structure prediction by ZEFSAII (Michael W. Deem and Ramdas Pophale) SiO2 
 PCOD9384791
Probable space group: P M M M
;
_chemical_formula_sum "Si O2"
_cell_formula_units_Z 44
_cell_length_a 9.615426
_cell_length_b 29.124518
_cell_length_c 7.574946
_cell_angle_alpha 90.000000
_cell_angle_beta 90.000000
_cell_angle_gamma 90.000000
_cell_volume 2121.323083
_symmetry_space_group_name_H-M "P M M M"
_symmetry_group_IT_number 47
_symmetry_cell_setting 'orthorhombic'
loop_
_space_group_symop_operation_xyz
x,y,z
-x,-y,z
x,-y,-z
-x,y,-z
-x,-y,-z
x,y,-z
-x,y,z
x,-y,z
loop_
_atom_site_type_symbol
_atom_site_label
_atom_site_fract_x
_atom_site_fract_y
_atom_site_fract_z
Si Si1 0.660733 0.000000 0.284449
Si Si2 0.160181 0.911617 0.283890
Si Si3 0.155714 0.364379 0.290519
Si Si4 0.660114 0.551590 0.715599
Si Si5 0.657319 0.277617 0.790122
Si Si6 0.658327 0.826336 0.710938
O O1 0.745907 0.045118 0.229825
O O2 0.500000 0.000000 0.226293
O O3 0.658059 0.000000 0.500000
O O4 0.158001 0.911634 0.500000
O O5 0.235833 0.864941 0.224105
O O6 0.000000 0.915061 0.226487
O O7 0.144558 0.372189 0.500000
O O8 0.242228 0.407665 0.219225
O O9 0.240582 0.317493 0.269094
O O10 0.000000 0.361083 0.217669
O O11 0.660791 0.552162 0.500000
O O12 0.500000 0.559176 0.769231
O O13 0.702024 0.500000 0.768947
O O14 0.500000 0.283967 0.718138
O O15 0.702933 0.225959 0.744558
O O16 0.649586 0.280432 0.000000
O O17 0.650568 0.832195 0.500000
O O18 0.500000 0.831852 0.780326
#
# Coordination Sequence:
#
# PCOD9384791 Si02
#       6
#     4   8   8   8   8   8
#     4   9  15  23  37  59  90 125 156 187 228 278
#     4   9  16  25  39  62  92 123 154 190 232 279
#     4  10  20  32  49  75 104 133 164 199 242 291
#     4   8  14  26  46  72 100 129 161 197 237 282
#     4  10  21  36  53  72  95 127 167 208 249 293
#     4   9  17  30  48  69  93 122 157 197 240 285
#
# _framework density 20.741772000000001
#
# number of rings (size 3 to 8) (size 9 to 14) (size 15 to 20)
#    0.000    2.818    0.000    2.455    0.000    6.545 
#    0.000    3.636    0.000    0.545    0.000    4.455 
#    0.000    5.091    0.000    0.000    0.000    0.000 
#
# Total GULP energy -245605.711117 kJ/mol
# GULP energy per Si atom -5581.947980 kJ/mol
# Density = 2.069456 g / cm^3
# Si number density = 20.741772 Si / 1000 Ang^3
#
#
#
# Elastic Constant Matrix: (Units=GPa)
#
#
# Indices 1 2 3 4 5 6 
#
# 1 180.5067 158.2061 5.0492 0.0000 0.0000 0.0000
# 2 158.2061 215.4917 -2.3721 0.0000 0.0000 0.0000
# 3 5.0492 -2.3721 46.0795 0.0000 0.0000 0.0000
# 4 0.0000 0.0000 0.0000 -51.5682 0.0000 0.0000
# 5 0.0000 0.0000 0.0000 0.0000 -0.5580 0.0000
# 6 0.0000 0.0000 0.0000 0.0000 0.0000 7.2133
#
#
#
# Elastic Compliance Matrix: (Units=1/GPa)
#
#
# Indices 1 2 3 4 5 6 
#
# 1 0.015784 -0.011613 -0.002327 0.000000 0.000000 0.000000
# 2 -0.011613 0.013188 0.001951 0.000000 0.000000 0.000000
# 3 -0.002327 0.001951 0.022057 0.000000 0.000000 0.000000
# 4 0.000000 0.000000 0.000000 -0.019392 0.000000 0.000000
# 5 0.000000 0.000000 0.000000 0.000000 -1.792168 0.000000
# 6 0.000000 0.000000 0.000000 0.000000 0.000000 0.138633
#
#
# Mechanical properties :
#
#
# Convention : Reuss Voigt Hill
#
# Bulk Modulus (GPa) = 36.96813 84.87158 60.91985
# Shear Modulus (GPa) = -3.14683 9.76375 3.30846
#
# Velocity S-wave (km/s) = -1.23306 2.17198 1.26433
# Velocity P-wave (km/s) = 3.97926 6.87728 5.61834
#
# Compressibility (1/GPa) = 0.02705033
#
# Stress axis : x y z
#
# Youngs Moduli (GPa) = 63.35628 75.82528 45.33690
#
# Poissons Ratio (x) = 0.88059 0.10552
# Poissons Ratio (y) = 0.73579 -0.08847
# Poissons Ratio (z) = 0.14745 -0.14797
#
# Static dielectric constant tensor:
#      x y z
#    x 1.720710 0.000000 0.000000 
#    y 0.000000 1.712790 0.000000 
#    z 0.000000 0.000000 1.768440 
# 
# From -- ./inp_files/2234.got.cif
#   From: 2010.05.17/outbox.cif.g08.bks.cpg/sg47_2_cif.got.tgz:2234.got - 2010.06.03 20:15:42.
