data_PCOD9384508
_publ_section_title
;
Structure prediction by ZEFSAII (Michael W. Deem and Ramdas Pophale) SiO2 
 PCOD9384508
Probable space group: P M M M
;
_chemical_formula_sum "Si O2"
_cell_formula_units_Z 44
_cell_length_a 9.663642
_cell_length_b 29.061094
_cell_length_c 7.346639
_cell_angle_alpha 90.000000
_cell_angle_beta 90.000000
_cell_angle_gamma 90.000000
_cell_volume 2063.200773
_symmetry_space_group_name_H-M "P M M M"
_symmetry_group_IT_number 47
_symmetry_cell_setting 'orthorhombic'
loop_
_space_group_symop_operation_xyz
x,y,z
-x,-y,z
x,-y,-z
-x,y,-z
-x,-y,-z
x,y,-z
-x,y,z
x,-y,z
loop_
_atom_site_type_symbol
_atom_site_label
_atom_site_fract_x
_atom_site_fract_y
_atom_site_fract_z
Si Si1 0.341215 0.585893 0.778477
Si Si2 0.158710 0.500000 0.222530
Si Si3 0.340895 0.689903 0.778157
Si Si4 0.156621 0.774320 0.217463
Si Si5 0.158541 0.052247 0.278226
Si Si6 0.656538 0.136367 0.282490
O O1 0.500000 0.576770 0.724063
O O2 0.239740 0.545701 0.718300
O O3 0.304401 0.637862 0.722108
O O4 0.339806 0.585739 0.000000
O O5 0.000000 0.500000 0.279919
O O6 0.160199 0.500000 0.000000
O O7 0.500000 0.699339 0.723767
O O8 0.236932 0.729168 0.714058
O O9 0.339977 0.690324 0.000000
O O10 0.249648 0.819077 0.249842
O O11 0.000000 0.779225 0.287438
O O12 0.147085 0.769140 0.000000
O O13 0.159643 0.052625 0.500000
O O14 0.264112 0.091023 0.214089
O O15 0.000000 0.062501 0.223715
O O16 0.192228 0.000000 0.222531
O O17 0.647029 0.131283 0.500000
O O18 0.500000 0.141539 0.212579
#
# Coordination Sequence:
#
# PCOD9384508 Si02
#       6
#     8   4   8   8   8   8
#     4   8  13  21  32  45  64  94 131 168 208 256
#     4   9  15  19  25  41  65  93 126 167 212 253
#     4   8  14  25  40  56  75 103 140 180 219 260
#     4  10  20  32  47  67  90 119 154 189 227 271
#     4   8  14  26  45  68  93 120 148 179 218 264
#     4  10  20  32  48  71  96 122 152 186 224 264
#
# _framework density 21.326087000000001
#
# number of rings (size 3 to 8) (size 9 to 14) (size 15 to 20)
#    0.000    3.182    0.000    3.000    0.000    4.364 
#    0.000    5.455    0.000    0.545    0.000    3.818 
#    0.000    0.000    0.000    0.818    0.000   16.727 
#
# Total GULP energy -245667.002227 kJ/mol
# GULP energy per Si atom -5583.340960 kJ/mol
# Density = 2.127755 g / cm^3
# Si number density = 21.326087 Si / 1000 Ang^3
#
#
#
# Elastic Constant Matrix: (Units=GPa)
#
#
# Indices 1 2 3 4 5 6 
#
# 1 214.5922 172.7048 7.5521 0.0000 0.0000 0.0000
# 2 172.7048 212.0000 3.7572 0.0000 0.0000 0.0000
# 3 7.5521 3.7572 81.4278 0.0000 0.0000 0.0000
# 4 0.0000 0.0000 0.0000 9.4662 0.0000 0.0000
# 5 0.0000 0.0000 0.0000 0.0000 -0.8558 0.0000
# 6 0.0000 0.0000 0.0000 0.0000 0.0000 44.2105
#
#
#
# Elastic Compliance Matrix: (Units=1/GPa)
#
#
# Indices 1 2 3 4 5 6 
#
# 1 0.013578 -0.011048 -0.000750 0.000000 0.000000 0.000000
# 2 -0.011048 0.013710 0.000392 0.000000 0.000000 0.000000
# 3 -0.000750 0.000392 0.012332 0.000000 0.000000 0.000000
# 4 0.000000 0.000000 0.000000 0.105639 0.000000 0.000000
# 5 0.000000 0.000000 0.000000 0.000000 -1.168533 0.000000
# 6 0.000000 0.000000 0.000000 0.000000 0.000000 0.022619
#
#
# Mechanical properties :
#
#
# Convention : Reuss Voigt Hill
#
# Bulk Modulus (GPa) = 59.49005 97.33868 78.41437
# Shear Modulus (GPa) = -5.14276 32.16456 13.51090
#
# Velocity S-wave (km/s) = -1.55458 3.88780 2.51975
# Velocity P-wave (km/s) = 4.97330 8.11760 6.73161
#
# Compressibility (1/GPa) = 0.01680953
#
# Stress axis : x y z
#
# Youngs Moduli (GPa) = 73.65107 72.93998 81.08821
#
# Poissons Ratio (x) = 0.80581 0.06078
# Poissons Ratio (y) = 0.81367 -0.03179
# Poissons Ratio (z) = 0.05520 -0.02859
#
# Static dielectric constant tensor:
#      x y z
#    x 1.677200 0.000000 0.000000 
#    y 0.000000 1.729340 0.000000 
#    z 0.000000 0.000000 1.909640 
# 
# From -- ./inp_files/2068.got.cif
#   From: 2010.05.17/outbox.cif.g08.bks.cpg/sg47_2_cif.got.tgz:2068.got - 2010.06.03 20:15:42.
