data_PCOD9384158
_publ_section_title
;
Structure prediction by ZEFSAII (Michael W. Deem and Ramdas Pophale) SiO2 
 PCOD9384158
Probable space group: P M M M
;
_chemical_formula_sum "Si O2"
_cell_formula_units_Z 56
_cell_length_a 7.343541
_cell_length_b 19.807272
_cell_length_c 18.003313
_cell_angle_alpha 90.000000
_cell_angle_beta 90.000000
_cell_angle_gamma 90.000000
_cell_volume 2618.681147
_symmetry_space_group_name_H-M "P M M M"
_symmetry_group_IT_number 47
_symmetry_cell_setting 'orthorhombic'
loop_
_space_group_symop_operation_xyz
x,y,z
-x,-y,z
x,-y,-z
-x,y,-z
-x,-y,-z
x,y,-z
-x,y,z
x,-y,z
loop_
_atom_site_type_symbol
_atom_site_label
_atom_site_fract_x
_atom_site_fract_y
_atom_site_fract_z
Si Si1 0.777704 0.720284 0.139527
Si Si2 0.222088 0.925907 0.764549
Si Si3 0.713532 0.317062 0.416742
Si Si4 0.781234 0.216348 0.294632
Si Si5 0.207816 0.425505 0.126200
Si Si6 0.281336 0.575246 0.700567
Si Si7 0.221458 0.134176 0.919253
O O1 0.720329 0.736625 0.224927
O O2 0.712667 0.648331 0.107688
O O3 0.726331 0.787763 0.095253
O O4 0.000000 0.716914 0.139347
O O5 0.281168 0.860070 0.719094
O O6 0.277822 0.910415 0.849382
O O7 0.000000 0.925959 0.763052
O O8 0.282510 0.000000 0.740515
O O9 0.788635 0.317030 0.500000
O O10 0.500000 0.333580 0.422828
O O11 0.728313 0.246807 0.373250
O O12 0.790387 0.370969 0.358126
O O13 0.000000 0.216294 0.290363
O O14 0.287588 0.500000 0.107760
O O15 0.204733 0.421288 0.216310
O O16 0.000000 0.426734 0.098540
O O17 0.500000 0.583213 0.709249
O O18 0.246577 0.500000 0.671827
O O19 0.000000 0.133437 0.918643
O O20 0.282501 0.111361 0.000000
#
# Coordination Sequence:
#
# PCOD9384158 Si02
#       7
#     8   8   8   8   8   8   8
#     4   8  13  22  36  54  77 106 141 175 204 237
#     4   8  14  24  40  63  87 110 138 172 206 242
#     4  10  20  31  43  61  85 111 138 172 212 250
#     4   9  16  28  45  62  82 109 141 173 207 248
#     4   9  15  23  38  57  77 105 140 176 211 244
#     4   9  17  28  41  58  81 107 135 169 210 253
#     4   8  13  20  32  54  86 120 143 161 197 248
#
# _framework density 21.384810000000002
#
# number of rings (size 3 to 8) (size 9 to 14) (size 15 to 20)
#    0.000    3.286    1.429    1.714    0.000    0.857 
#    0.000    2.857    0.000    1.286    0.000    9.000 
#    0.000   14.286    0.000    8.714    0.000    9.429 
#
# Total GULP energy -312207.409667 kJ/mol
# GULP energy per Si atom -5575.132315 kJ/mol
# Density = 2.133614 g / cm^3
# Si number density = 21.384810 Si / 1000 Ang^3
#
#
#
# Elastic Constant Matrix: (Units=GPa)
#
#
# Indices 1 2 3 4 5 6 
#
# 1 80.1730 0.0424 -4.1996 0.0000 0.0000 0.0000
# 2 0.0424 110.6777 -13.3937 0.0000 0.0000 0.0000
# 3 -4.1996 -13.3937 40.2935 0.0000 0.0000 0.0000
# 4 0.0000 0.0000 0.0000 9.9823 0.0000 0.0000
# 5 0.0000 0.0000 0.0000 0.0000 2.8456 0.0000
# 6 0.0000 0.0000 0.0000 0.0000 0.0000 1.7188
#
#
#
# Elastic Compliance Matrix: (Units=1/GPa)
#
#
# Indices 1 2 3 4 5 6 
#
# 1 0.012544 0.000160 0.001361 0.000000 0.000000 0.000000
# 2 0.000160 0.009416 0.003147 0.000000 0.000000 0.000000
# 3 0.001361 0.003147 0.026006 0.000000 0.000000 0.000000
# 4 0.000000 0.000000 0.000000 0.100177 0.000000 0.000000
# 5 0.000000 0.000000 0.000000 0.000000 0.351419 0.000000
# 6 0.000000 0.000000 0.000000 0.000000 0.000000 0.581806
#
#
# Mechanical properties :
#
#
# Convention : Reuss Voigt Hill
#
# Bulk Modulus (GPa) = 17.45208 21.78247 19.61728
# Shear Modulus (GPa) = 4.58239 19.48901 12.03570
#
# Velocity S-wave (km/s) = 1.46543 3.02213 2.37495
# Velocity P-wave (km/s) = 3.32295 4.73136 4.08826
#
# Compressibility (1/GPa) = 0.05729977
#
# Stress axis : x y z
#
# Youngs Moduli (GPa) = 79.71800 106.20262 38.45319
#
# Poissons Ratio (x) = -0.01698 -0.05232
# Poissons Ratio (y) = -0.01274 -0.12100
# Poissons Ratio (z) = -0.10846 -0.33417
#
# Static dielectric constant tensor:
#      x y z
#    x 1.873000 0.000000 0.000000 
#    y 0.000000 1.804990 0.000000 
#    z 0.000000 0.000000 1.745910 
# 
# From -- ./inp_files/9797.got.cif
#   From: 2010.05.17/outbox.cif.g08.bks.cpg/sg47_5_cif.got.tgz:9797.got - 2010.06.03 20:15:42.
