data_PCOD9384486
_publ_section_title
;
Structure prediction by ZEFSAII (Michael W. Deem and Ramdas Pophale) SiO2 
 PCOD9384486
Probable space group: P M M M
;
_chemical_formula_sum "Si O2"
_cell_formula_units_Z 64
_cell_length_a 9.011532
_cell_length_b 14.707202
_cell_length_c 29.157477
_cell_angle_alpha 90.000000
_cell_angle_beta 90.000000
_cell_angle_gamma 90.000000
_cell_volume 3864.369345
_symmetry_space_group_name_H-M "P M M M"
_symmetry_group_IT_number 47
_symmetry_cell_setting 'orthorhombic'
loop_
_space_group_symop_operation_xyz
x,y,z
-x,-y,z
x,-y,-z
-x,y,-z
-x,-y,-z
x,y,-z
-x,y,z
x,-y,z
loop_
_atom_site_type_symbol
_atom_site_label
_atom_site_fract_x
_atom_site_fract_y
_atom_site_fract_z
Si Si1 0.174116 0.108020 0.361194
Si Si2 0.827413 0.610191 0.050880
Si Si3 0.178753 0.220192 0.550309
Si Si4 0.677589 0.604082 0.587420
Si Si5 0.176204 0.722373 0.774005
Si Si6 0.674619 0.607466 0.695352
Si Si7 0.676927 0.893928 0.735792
Si Si8 0.323344 0.392317 0.854893
O O1 0.227875 0.160408 0.406293
O O2 0.267095 0.128351 0.315688
O O3 0.000000 0.130683 0.352798
O O4 0.182345 0.000000 0.369423
O O5 0.823662 0.500000 0.049817
O O6 0.729886 0.636791 0.094386
O O7 0.000000 0.636125 0.057534
O O8 0.779436 0.641390 0.000000
O O9 0.226003 0.186375 0.500000
O O10 0.238703 0.321293 0.558161
O O11 0.000000 0.220170 0.551155
O O12 0.500000 0.612080 0.581286
O O13 0.719205 0.500000 0.576861
O O14 0.708082 0.620625 0.641550
O O15 0.227157 0.667578 0.728634
O O16 0.244931 0.822800 0.769267
O O17 0.242522 0.667143 0.816717
O O18 0.000000 0.726647 0.776719
O O19 0.500000 0.628878 0.702682
O O20 0.693820 0.500000 0.705283
O O21 0.500000 0.884111 0.738142
O O22 0.714936 0.000000 0.744402
O O23 0.500000 0.383333 0.850415
O O24 0.286757 0.500000 0.849006
#
# Coordination Sequence:
#
# PCOD9384486 Si02
#       8
#     8   8   8   8   8   8   8   8
#     4   9  18  34  55  76  97 120 147 181 223 275
#     4   8  14  26  44  65  92 129 172 216 258 296
#     4  10  21  34  48  70  97 122 149 182 223 270
#     4   9  19  35  52  68  87 116 154 192 229 270
#     4  12  23  32  47  71 100 131 161 197 241 289
#     4   9  18  33  51  70  94 124 158 195 234 279
#     4  10  21  37  56  75  95 121 154 193 237 286
#     4  10  20  32  46  67  99 138 177 214 249 288
#
# _framework density 16.561564000000001
#
# number of rings (size 3 to 8) (size 9 to 14) (size 15 to 20)
#    0.000    2.375    0.000    4.125    0.000    7.500 
#    0.000    5.000    0.000    0.000    0.000    2.625 
#    0.000    0.500    0.000    5.250    0.000    2.500 
#
# Total GULP energy -357108.661704 kJ/mol
# GULP energy per Si atom -5579.822839 kJ/mol
# Density = 1.652387 g / cm^3
# Si number density = 16.561564 Si / 1000 Ang^3
#
#
#
# Elastic Constant Matrix: (Units=GPa)
#
#
# Indices 1 2 3 4 5 6 
#
# 1 58.5336 40.4477 46.2146 0.0000 0.0000 0.0000
# 2 40.4477 61.3129 55.5116 0.0000 0.0000 0.0000
# 3 46.2146 55.5116 74.3006 0.0000 0.0000 0.0000
# 4 0.0000 0.0000 0.0000 12.8770 0.0000 0.0000
# 5 0.0000 0.0000 0.0000 0.0000 46.0170 0.0000
# 6 0.0000 0.0000 0.0000 0.0000 0.0000 23.1633
#
#
#
# Elastic Compliance Matrix: (Units=1/GPa)
#
#
# Indices 1 2 3 4 5 6 
#
# 1 0.035686 -0.010648 -0.014241 0.000000 0.000000 0.000000
# 2 -0.010648 0.053583 -0.033410 0.000000 0.000000 0.000000
# 3 -0.014241 -0.033410 0.047278 0.000000 0.000000 0.000000
# 4 0.000000 0.000000 0.000000 0.077658 0.000000 0.000000
# 5 0.000000 0.000000 0.000000 0.000000 0.021731 0.000000
# 6 0.000000 0.000000 0.000000 0.000000 0.000000 0.043172
#
#
# Mechanical properties :
#
#
# Convention : Reuss Voigt Hill
#
# Bulk Modulus (GPa) = 50.12846 53.16607 51.64727
# Shear Modulus (GPa) = 12.42676 19.87632 16.15154
#
# Velocity S-wave (km/s) = 2.74220 3.46807 3.12628
# Velocity P-wave (km/s) = 6.35294 6.94323 6.65464
#
# Compressibility (1/GPa) = 0.01994875
#
# Stress axis : x y z
#
# Youngs Moduli (GPa) = 28.02195 18.66249 21.15143
#
# Poissons Ratio (x) = 0.19873 0.30122
# Poissons Ratio (y) = 0.29839 0.70667
# Poissons Ratio (z) = 0.39906 0.62352
#
# Static dielectric constant tensor:
#      x y z
#    x 1.551900 0.000000 0.000000 
#    y 0.000000 1.553920 0.000000 
#    z 0.000000 0.000000 1.562640 
# 
# From -- ./inp_files/34471.got.cif
#   From: 2010.05.17/outbox.cif.g08.bks.cpg/sg47_18_cif.got.tgz:34471.got - 2010.06.03 20:15:42.
