data_PCOD9384170
_publ_section_title
;
Structure prediction by ZEFSAII (Michael W. Deem and Ramdas Pophale) SiO2 
 PCOD9384170
Probable space group: P M M M
;
_chemical_formula_sum "Si O2"
_cell_formula_units_Z 56
_cell_length_a 21.056950
_cell_length_b 8.665214
_cell_length_c 15.867608
_cell_angle_alpha 90.000000
_cell_angle_beta 90.000000
_cell_angle_gamma 90.000000
_cell_volume 2895.251008
_symmetry_space_group_name_H-M "P M M M"
_symmetry_group_IT_number 47
_symmetry_cell_setting 'orthorhombic'
loop_
_space_group_symop_operation_xyz
x,y,z
-x,-y,z
x,-y,-z
-x,y,-z
-x,-y,-z
x,y,-z
-x,y,z
x,-y,z
loop_
_atom_site_type_symbol
_atom_site_label
_atom_site_fract_x
_atom_site_fract_y
_atom_site_fract_z
Si Si1 0.927783 0.187856 0.903987
Si Si2 0.339415 0.329066 0.404157
Si Si3 0.187372 0.319203 0.594432
Si Si4 0.568792 0.829159 0.709508
Si Si5 0.816320 0.814826 0.220800
Si Si6 0.713279 0.313160 0.906663
Si Si7 0.569673 0.680381 0.882471
O O1 0.875224 0.238235 0.837536
O O2 0.000000 0.235651 0.883567
O O3 0.927189 0.000000 0.903909
O O4 0.913511 0.237066 0.000000
O O5 0.362010 0.323430 0.500000
O O6 0.354302 0.500000 0.369593
O O7 0.263997 0.313017 0.405586
O O8 0.373552 0.199770 0.351502
O O9 0.166929 0.262164 0.500000
O O10 0.169111 0.500000 0.599274
O O11 0.171328 0.237946 0.682872
O O12 0.500000 0.817777 0.665869
O O13 0.570351 0.704484 0.782574
O O14 0.572654 0.000000 0.748191
O O15 0.753600 0.751086 0.172153
O O16 0.812203 0.000000 0.219923
O O17 0.713040 0.500000 0.899761
O O18 0.639364 0.259559 0.907607
O O19 0.740257 0.272374 0.000000
O O20 0.500000 0.744874 0.909085
O O21 0.569122 0.500000 0.904617
#
# Coordination Sequence:
#
# PCOD9384170 Si02
#       7
#     8   8   8   8   8   8   8
#     4   8  15  30  52  78 110 147 182 213 249 298
#     4   9  18  32  48  64  83 113 156 201 244 296
#     4   9  19  36  55  74 100 136 174 211 255 308
#     4  10  20  31  43  62  88 116 148 192 250 312
#     4  11  21  32  53  84 112 137 171 218 266 311
#     4  10  21  35  51  74 105 139 173 213 264 317
#     4   9  18  33  51  67  86 121 170 215 250 292
#
# _framework density 19.342017999999999
#
# number of rings (size 3 to 8) (size 9 to 14) (size 15 to 20)
#    0.000    2.571    0.000    3.429    0.000    7.429 
#    0.000    4.286    0.000    2.143    0.000   11.000 
#    0.000    0.000    0.000    0.000    0.000    0.000 
#
# Total GULP energy -311741.165133 kJ/mol
# GULP energy per Si atom -5566.806520 kJ/mol
# Density = 1.929799 g / cm^3
# Si number density = 19.342018 Si / 1000 Ang^3
#
#
#
# Elastic Constant Matrix: (Units=GPa)
#
#
# Indices 1 2 3 4 5 6 
#
# 1 84.7834 16.7532 58.2185 0.0000 0.0000 0.0000
# 2 16.7532 27.7257 30.0854 0.0000 0.0000 0.0000
# 3 58.2185 30.0854 126.2599 0.0000 0.0000 0.0000
# 4 0.0000 0.0000 0.0000 -0.0081 0.0000 0.0000
# 5 0.0000 0.0000 0.0000 0.0000 18.2337 0.0000
# 6 0.0000 0.0000 0.0000 0.0000 0.0000 24.3487
#
#
#
# Elastic Compliance Matrix: (Units=1/GPa)
#
#
# Indices 1 2 3 4 5 6 
#
# 1 0.017381 -0.002436 -0.007434 0.000000 0.000000 0.000000
# 2 -0.002436 0.048987 -0.010550 0.000000 0.000000 0.000000
# 3 -0.007434 -0.010550 0.013862 0.000000 0.000000 0.000000
# 4 0.000000 0.000000 0.000000********** 0.000000 0.000000
# 5 0.000000 0.000000 0.000000 0.000000 0.054843 0.000000
# 6 0.000000 0.000000 0.000000 0.000000 0.000000 0.041070
#
#
# Mechanical properties :
#
#
# Convention : Reuss Voigt Hill
#
# Bulk Modulus (GPa) = 25.38649 49.87589 37.63119
# Shear Modulus (GPa) = -0.04054 17.42900 8.69423
#
# Velocity S-wave (km/s) = -0.14494 3.00508 2.12244
# Velocity P-wave (km/s) = 3.62292 6.15491 5.05017
#
# Compressibility (1/GPa) = 0.03939102
#
# Stress axis : x y z
#
# Youngs Moduli (GPa) = 57.53518 20.41362 72.14125
#
# Poissons Ratio (x) = 0.04972 0.53629
# Poissons Ratio (y) = 0.14014 0.76106
# Poissons Ratio (z) = 0.42771 0.21536
#
# Static dielectric constant tensor:
#      x y z
#    x 1.691040 0.000000 0.000000 
#    y 0.000000 1.688090 0.000000 
#    z 0.000000 0.000000 1.701020 
# 
# From -- ./inp_files/25139.got.cif
#   From: 2010.05.17/outbox.cif.g08.bks.cpg/sg47_13_cif.got.tgz:25139.got - 2010.06.03 20:15:42.
