data_PCOD9384104
_publ_section_title
;
Structure prediction by ZEFSAII (Michael W. Deem and Ramdas Pophale) SiO2 
 PCOD9384104
Probable space group: P M M M
;
_chemical_formula_sum "Si O2"
_cell_formula_units_Z 36
_cell_length_a 7.911100
_cell_length_b 26.205782
_cell_length_c 9.194634
_cell_angle_alpha 90.000000
_cell_angle_beta 90.000000
_cell_angle_gamma 90.000000
_cell_volume 1906.199910
_symmetry_space_group_name_H-M "P M M M"
_symmetry_group_IT_number 47
_symmetry_cell_setting 'orthorhombic'
loop_
_space_group_symop_operation_xyz
x,y,z
-x,-y,z
x,-y,-z
-x,y,-z
-x,-y,-z
x,y,-z
-x,y,z
x,-y,z
loop_
_atom_site_type_symbol
_atom_site_label
_atom_site_fract_x
_atom_site_fract_y
_atom_site_fract_z
Si Si1 0.203087 0.945053 0.330316
Si Si2 0.500000 0.439037 0.327642
Si Si3 0.299585 0.836207 0.663720
Si Si4 0.199908 0.378347 0.823488
Si Si5 0.202498 0.264095 0.163234
O O1 0.260615 0.944048 0.500000
O O2 0.253736 0.890702 0.264946
O O3 0.000000 0.945982 0.331038
O O4 0.261161 0.000000 0.268714
O O5 0.500000 0.500000 0.310516
O O6 0.500000 0.427147 0.500000
O O7 0.667673 0.415775 0.252242
O O8 0.225351 0.835581 0.500000
O O9 0.500000 0.835380 0.653300
O O10 0.246320 0.785295 0.744985
O O11 0.251353 0.320224 0.780883
O O12 0.000000 0.386752 0.787558
O O13 0.212526 0.381404 0.000000
O O14 0.000000 0.266552 0.153834
O O15 0.271673 0.258143 0.000000
#
# Coordination Sequence:
#
# PCOD9384104 Si02
#       5
#     8   4   8   8   8
#     4   8  14  26  44  64  89 127 173 216 258 307
#     4  11  25  41  59  89 127 161 190 229 286 345
#     4  10  20  30  44  73 107 135 167 210 263 323
#     4   9  20  40  64  88 114 151 201 247 284 331
#     4   9  19  36  56  77 102 135 176 221 269 318
#
# _framework density 18.885740999999999
#
# number of rings (size 3 to 8) (size 9 to 14) (size 15 to 20)
#    0.000    2.778    0.000    3.000    1.556    4.889 
#    0.000    6.667    0.000    0.667    0.000    4.667 
#    0.000    0.000    0.000    0.000    0.000    0.000 
#
# Total GULP energy -200493.183333 kJ/mol
# GULP energy per Si atom -5569.255093 kJ/mol
# Density = 1.884276 g / cm^3
# Si number density = 18.885741 Si / 1000 Ang^3
#
#
#
# Elastic Constant Matrix: (Units=GPa)
#
#
# Indices 1 2 3 4 5 6 
#
# 1 62.0292 57.8410 25.2637 0.0000 0.0000 0.0000
# 2 57.8410 177.0806 59.4566 0.0000 0.0000 0.0000
# 3 25.2637 59.4566 36.1461 0.0000 0.0000 0.0000
# 4 0.0000 0.0000 0.0000 80.3573 0.0000 0.0000
# 5 0.0000 0.0000 0.0000 0.0000 19.8411 0.0000
# 6 0.0000 0.0000 0.0000 0.0000 0.0000 45.2458
#
#
#
# Elastic Compliance Matrix: (Units=1/GPa)
#
#
# Indices 1 2 3 4 5 6 
#
# 1 0.024374 -0.005007 -0.008801 0.000000 0.000000 0.000000
# 2 -0.005007 0.013642 -0.018940 0.000000 0.000000 0.000000
# 3 -0.008801 -0.018940 0.064971 0.000000 0.000000 0.000000
# 4 0.000000 0.000000 0.000000 0.012444 0.000000 0.000000
# 5 0.000000 0.000000 0.000000 0.000000 0.050400 0.000000
# 6 0.000000 0.000000 0.000000 0.000000 0.000000 0.022102
#
#
# Mechanical properties :
#
#
# Convention : Reuss Voigt Hill
#
# Bulk Modulus (GPa) = 26.67199 62.26428 44.46813
# Shear Modulus (GPa) = 18.80227 37.93516 28.36872
#
# Velocity S-wave (km/s) = 3.15870 4.48668 3.87993
# Velocity P-wave (km/s) = 5.23991 7.73827 6.60824
#
# Compressibility (1/GPa) = 0.03749252
#
# Stress axis : x y z
#
# Youngs Moduli (GPa) = 41.02658 73.30401 15.39154
#
# Poissons Ratio (x) = 0.36701 0.13545
# Poissons Ratio (y) = 0.20541 0.29152
# Poissons Ratio (z) = 0.36106 1.38838
#
# Static dielectric constant tensor:
#      x y z
#    x 1.654700 0.000000 0.000000 
#    y 0.000000 1.698470 0.000000 
#    z 0.000000 0.000000 1.777940 
# 
# From -- ./inp_files/1395.got.cif
#   From: 2010.05.17/outbox.cif.g08.bks.cpg/sg47_1_cif.got.tgz:1395.got - 2010.06.03 20:15:42.
