data_PCOD9384568
_publ_section_title
;
Structure prediction by ZEFSAII (Michael W. Deem and Ramdas Pophale) SiO2 
 PCOD9384568
Probable space group: P M M M
;
_chemical_formula_sum "Si O2"
_cell_formula_units_Z 48
_cell_length_a 15.595599
_cell_length_b 8.998330
_cell_length_c 20.246957
_cell_angle_alpha 90.000000
_cell_angle_beta 90.000000
_cell_angle_gamma 90.000000
_cell_volume 2841.343476
_symmetry_space_group_name_H-M "P M M M"
_symmetry_group_IT_number 47
_symmetry_cell_setting 'orthorhombic'
loop_
_space_group_symop_operation_xyz
x,y,z
-x,-y,z
x,-y,-z
-x,y,-z
-x,-y,-z
x,y,-z
-x,y,z
x,-y,z
loop_
_atom_site_type_symbol
_atom_site_label
_atom_site_fract_x
_atom_site_fract_y
_atom_site_fract_z
Si Si1 0.904953 0.823031 0.397651
Si Si2 0.599887 0.823221 0.864097
Si Si3 0.604214 0.328593 0.000000
Si Si4 0.720483 0.325044 0.240208
Si Si5 0.907331 0.674968 0.255594
Si Si6 0.600826 0.178268 0.500000
Si Si7 0.272746 0.323082 0.602196
O O1 0.907762 0.777193 0.320384
O O2 0.819152 0.741414 0.421462
O O3 0.000000 0.780587 0.423760
O O4 0.895630 0.000000 0.405946
O O5 0.500000 0.780428 0.854801
O O6 0.654970 0.768219 0.802548
O O7 0.603833 0.000000 0.870286
O O8 0.631527 0.750355 0.932442
O O9 0.630157 0.500000 0.000000
O O10 0.500000 0.321793 0.000000
O O11 0.702559 0.500000 0.230887
O O12 0.818986 0.295209 0.218400
O O13 0.717895 0.295248 0.319005
O O14 0.901497 0.500000 0.277059
O O15 0.000000 0.692762 0.221905
O O16 0.500000 0.216593 0.500000
O O17 0.650919 0.245653 0.437394
O O18 0.608536 0.000000 0.500000
O O19 0.274111 0.500000 0.591862
#
# Coordination Sequence:
#
# PCOD9384568 Si02
#       7
#     8   8   4   8   8   4   8
#     4   9  16  27  47  75 104 131 158 194 244 299
#     4  10  20  32  47  70 101 134 165 199 241 289
#     4   9  17  31  51  71  94 127 164 201 241 290
#     4   9  18  31  49  75 102 129 163 202 243 285
#     4   8  14  26  44  67  97 131 165 201 242 290
#     4  11  25  43  60  75  94 125 165 210 260 309
#     4  10  21  37  56  76 100 131 168 210 250 294
#
# _framework density 16.893415999999998
#
# number of rings (size 3 to 8) (size 9 to 14) (size 15 to 20)
#    0.000    2.667    0.000    3.000    0.000    7.667 
#    0.000    3.750    0.000    2.500    0.000    0.583 
#    0.000    4.667    0.000    0.000    0.000    0.000 
#
# Total GULP energy -267419.864383 kJ/mol
# GULP energy per Si atom -5571.247175 kJ/mol
# Density = 1.685497 g / cm^3
# Si number density = 16.893416 Si / 1000 Ang^3
#
#
#
# Elastic Constant Matrix: (Units=GPa)
#
#
# Indices 1 2 3 4 5 6 
#
# 1 139.8700 62.7210 51.3338 0.0000 0.0000 0.0000
# 2 62.7210 64.5268 41.3895 0.0000 0.0000 0.0000
# 3 51.3338 41.3895 68.3314 0.0000 0.0000 0.0000
# 4 0.0000 0.0000 0.0000 20.2961 0.0000 0.0000
# 5 0.0000 0.0000 0.0000 0.0000 -29.8618 0.0000
# 6 0.0000 0.0000 0.0000 0.0000 0.0000 28.1602
#
#
#
# Elastic Compliance Matrix: (Units=1/GPa)
#
#
# Indices 1 2 3 4 5 6 
#
# 1 0.013166 -0.010553 -0.003498 0.000000 0.000000 0.000000
# 2 -0.010553 0.033804 -0.012547 0.000000 0.000000 0.000000
# 3 -0.003498 -0.012547 0.024863 0.000000 0.000000 0.000000
# 4 0.000000 0.000000 0.000000 0.049271 0.000000 0.000000
# 5 0.000000 0.000000 0.000000 0.000000 -0.033488 0.000000
# 6 0.000000 0.000000 0.000000 0.000000 0.000000 0.035511
#
#
# Mechanical properties :
#
#
# Convention : Reuss Voigt Hill
#
# Bulk Modulus (GPa) = 53.66479 64.84630 59.25554
# Shear Modulus (GPa) = 27.39188 11.53784 19.46486
#
# Velocity S-wave (km/s) = 4.03110 2.61622 3.39811
# Velocity P-wave (km/s) = 7.31450 6.89891 7.10975
#
# Compressibility (1/GPa) = 0.01863419
#
# Stress axis : x y z
#
# Youngs Moduli (GPa) = 75.95413 29.58261 40.22065
#
# Poissons Ratio (x) = 0.31220 0.14071
# Poissons Ratio (y) = 0.80157 0.50466
# Poissons Ratio (z) = 0.26572 0.37118
#
# Static dielectric constant tensor:
#      x y z
#    x 1.598750 0.000000 0.000000 
#    y 0.000000 1.563550 0.000000 
#    z 0.000000 0.000000 1.557470 
# 
# From -- ./inp_files/9185.got.cif
#   From: 2010.05.17/outbox.cif.g08.bks.cpg/sg47_5_cif.got.tgz:9185.got - 2010.06.03 20:15:42.
