data_PCOD9384531
_publ_section_title
;
Structure prediction by ZEFSAII (Michael W. Deem and Ramdas Pophale) SiO2 
 PCOD9384531
Probable space group: P M M M
;
_chemical_formula_sum "Si O2"
_cell_formula_units_Z 44
_cell_length_a 29.919459
_cell_length_b 9.526941
_cell_length_c 7.367564
_cell_angle_alpha 90.000000
_cell_angle_beta 90.000000
_cell_angle_gamma 90.000000
_cell_volume 2100.057225
_symmetry_space_group_name_H-M "P M M M"
_symmetry_group_IT_number 47
_symmetry_cell_setting 'orthorhombic'
loop_
_space_group_symop_operation_xyz
x,y,z
-x,-y,z
x,-y,-z
-x,y,-z
-x,-y,-z
x,y,-z
-x,y,z
x,-y,z
loop_
_atom_site_type_symbol
_atom_site_label
_atom_site_fract_x
_atom_site_fract_y
_atom_site_fract_z
Si Si1 0.193862 0.836727 0.778455
Si Si2 0.550253 0.659268 0.281733
Si Si3 0.000000 0.167021 0.779482
Si Si4 0.719960 0.338812 0.777938
Si Si5 0.096203 0.168436 0.782116
Si Si6 0.636337 0.157568 0.785887
O O1 0.235298 0.742404 0.721042
O O2 0.144884 0.783303 0.717406
O O3 0.199546 0.000000 0.724722
O O4 0.193326 0.836602 0.000000
O O5 0.549004 0.655304 0.500000
O O6 0.500000 0.696036 0.219680
O O7 0.560468 0.500000 0.219347
O O8 0.588820 0.766633 0.232245
O O9 0.951881 0.223600 0.715180
O O10 0.000000 0.000000 0.738503
O O11 0.000000 0.177386 0.000000
O O12 0.719238 0.500000 0.719654
O O13 0.676169 0.255058 0.714515
O O14 0.719808 0.339626 0.000000
O O15 0.096229 0.000000 0.751214
O O16 0.095905 0.188327 0.000000
O O17 0.636109 0.000000 0.710437
O O18 0.645120 0.145545 0.000000
#
# Coordination Sequence:
#
# PCOD9384531 Si02
#       6
#     8   8   4   8   8   8
#     4   8  12  18  28  42  61  85 114 151 197 245
#     4   9  19  36  55  73  94 121 151 180 211 251
#     4   7   8  10  16  28  47  69  97 137 184 231
#     4   9  16  25  37  53  74 101 132 166 206 252
#     4   7   9  12  19  32  50  73 102 140 187 235
#     4  10  20  32  47  69  95 120 147 182 222 260
#
# _framework density 20.951809000000001
#
# number of rings (size 3 to 8) (size 9 to 14) (size 15 to 20)
#    0.000    3.545    0.000    3.818    0.000    4.364 
#    0.000    2.727    0.000    0.000    0.000    0.636 
#    0.000    5.091    0.000    0.000    0.000    0.000 
#
# Total GULP energy -245211.955696 kJ/mol
# GULP energy per Si atom -5572.998993 kJ/mol
# Density = 2.090412 g / cm^3
# Si number density = 20.951809 Si / 1000 Ang^3
#
#
#
# Elastic Constant Matrix: (Units=GPa)
#
#
# Indices 1 2 3 4 5 6 
#
# 1 233.9370 125.0153 2.2584 0.0000 0.0000 0.0000
# 2 125.0153 126.7149 4.9930 0.0000 0.0000 0.0000
# 3 2.2584 4.9930 71.1488 0.0000 0.0000 0.0000
# 4 0.0000 0.0000 0.0000 490.2876 0.0000 0.0000
# 5 0.0000 0.0000 0.0000 0.0000 154.8217 0.0000
# 6 0.0000 0.0000 0.0000 0.0000 0.0000 229.1198
#
#
#
# Elastic Compliance Matrix: (Units=1/GPa)
#
#
# Indices 1 2 3 4 5 6 
#
# 1 0.009050 -0.008942 0.000340 0.000000 0.000000 0.000000
# 2 -0.008942 0.016749 -0.000892 0.000000 0.000000 0.000000
# 3 0.000340 -0.000892 0.014107 0.000000 0.000000 0.000000
# 4 0.000000 0.000000 0.000000 0.002040 0.000000 0.000000
# 5 0.000000 0.000000 0.000000 0.000000 0.006459 0.000000
# 6 0.000000 0.000000 0.000000 0.000000 0.000000 0.004365
#
#
# Mechanical properties :
#
#
# Convention : Reuss Voigt Hill
#
# Bulk Modulus (GPa) = 47.80311 77.37044 62.58678
# Shear Modulus (GPa) = 63.50949 194.81475 129.16212
#
# Velocity S-wave (km/s) = 5.51162 9.65319 7.86009
# Velocity P-wave (km/s) = 7.96048 12.69856 10.59771
#
# Compressibility (1/GPa) = 0.02091914
#
# Stress axis : x y z
#
# Youngs Moduli (GPa) = 110.49803 59.70543 70.88771
#
# Poissons Ratio (x) = 0.53388 -0.02412
# Poissons Ratio (y) = 0.98807 0.06320
# Poissons Ratio (z) = -0.03760 0.05323
#
# Static dielectric constant tensor:
#      x y z
#    x 1.777690 0.000000 0.000000 
#    y 0.000000 1.700440 0.000000 
#    z 0.000000 0.000000 1.841940 
# 
# From -- ./inp_files/13670.got.cif
#   From: 2010.05.17/outbox.cif.g08.bks.cpg/sg47_7_cif.got.tgz:13670.got - 2010.06.03 20:15:42.
