data_PCOD9384946
_publ_section_title
;
Structure prediction by ZEFSAII (Michael W. Deem and Ramdas Pophale) SiO2 
 PCOD9384946
Probable space group: P M M M
;
_chemical_formula_sum "Si O2"
_cell_formula_units_Z 36
_cell_length_a 14.411594
_cell_length_b 8.786251
_cell_length_c 17.117441
_cell_angle_alpha 90.000000
_cell_angle_beta 90.000000
_cell_angle_gamma 90.000000
_cell_volume 2167.476833
_symmetry_space_group_name_H-M "P M M M"
_symmetry_group_IT_number 47
_symmetry_cell_setting 'orthorhombic'
loop_
_space_group_symop_operation_xyz
x,y,z
-x,-y,z
x,-y,-z
-x,y,-z
-x,-y,-z
x,y,-z
-x,y,z
x,-y,z
loop_
_atom_site_type_symbol
_atom_site_label
_atom_site_fract_x
_atom_site_fract_y
_atom_site_fract_z
Si Si1 0.391985 0.318162 0.834246
Si Si2 0.108181 0.814684 0.587744
Si Si3 0.735802 0.824396 0.701796
Si Si4 0.607056 0.330960 0.593108
Si Si5 0.388014 0.826953 0.000000
O O1 0.500000 0.267534 0.818268
O O2 0.393111 0.500000 0.833683
O O3 0.317087 0.259145 0.771969
O O4 0.364151 0.258139 0.919963
O O5 0.139224 0.764564 0.500000
O O6 0.170256 0.762508 0.660924
O O7 0.000000 0.774003 0.595956
O O8 0.113799 0.000000 0.587556
O O9 0.664102 0.803391 0.630589
O O10 0.749349 0.000000 0.723345
O O11 0.610361 0.325448 0.500000
O O12 0.500000 0.322535 0.617457
O O13 0.641845 0.500000 0.617686
O O14 0.500000 0.832801 0.000000
O O15 0.352723 0.000000 0.000000
#
# Coordination Sequence:
#
# PCOD9384946 Si02
#       5
#     8   8   8   8   4
#     4  10  20  33  48  67  96 133 163 184 219 277
#     4   8  15  29  47  66  90 120 154 195 244 291
#     4  11  20  28  44  70  93 115 151 198 238 270
#     4   9  18  31  43  56  82 122 158 184 220 274
#     4   9  17  31  51  73  96 121 154 197 233 260
#
# _framework density 16.609172999999998
#
# number of rings (size 3 to 8) (size 9 to 14) (size 15 to 20)
#    0.000    2.556    0.000    4.333    0.000    7.111 
#    0.000    1.111    0.000    2.667    0.000    8.556 
#    0.000    6.222    0.000    0.000    0.000    0.000 
#
# Total GULP energy -200455.244450 kJ/mol
# GULP energy per Si atom -5568.201235 kJ/mol
# Density = 1.657137 g / cm^3
# Si number density = 16.609173 Si / 1000 Ang^3
#
#
#
# Elastic Constant Matrix: (Units=GPa)
#
#
# Indices 1 2 3 4 5 6 
#
# 1 70.5455 19.3524 57.3765 0.0000 0.0000 0.0000
# 2 19.3524 33.0717 28.8277 0.0000 0.0000 0.0000
# 3 57.3765 28.8277 113.1360 0.0000 0.0000 0.0000
# 4 0.0000 0.0000 0.0000 28.5378 0.0000 0.0000
# 5 0.0000 0.0000 0.0000 0.0000 32.0511 0.0000
# 6 0.0000 0.0000 0.0000 0.0000 0.0000 5.6125
#
#
#
# Elastic Compliance Matrix: (Units=1/GPa)
#
#
# Indices 1 2 3 4 5 6 
#
# 1 0.024645 -0.004534 -0.011343 0.000000 0.000000 0.000000
# 2 -0.004534 0.039705 -0.007818 0.000000 0.000000 0.000000
# 3 -0.011343 -0.007818 0.016584 0.000000 0.000000 0.000000
# 4 0.000000 0.000000 0.000000 0.035041 0.000000 0.000000
# 5 0.000000 0.000000 0.000000 0.000000 0.031200 0.000000
# 6 0.000000 0.000000 0.000000 0.000000 0.000000 0.178172
#
#
# Mechanical properties :
#
#
# Convention : Reuss Voigt Hill
#
# Bulk Modulus (GPa) = 29.81176 47.54069 38.67623
# Shear Modulus (GPa) = 13.02363 20.65340 16.83851
#
# Velocity S-wave (km/s) = 2.80326 3.53015 3.18749
# Velocity P-wave (km/s) = 5.33532 6.73062 6.07317
#
# Compressibility (1/GPa) = 0.03354381
#
# Stress axis : x y z
#
# Youngs Moduli (GPa) = 40.57670 25.18587 60.30041
#
# Poissons Ratio (x) = 0.11418 0.68400
# Poissons Ratio (y) = 0.18396 0.47142
# Poissons Ratio (z) = 0.46027 0.19690
#
# Static dielectric constant tensor:
#      x y z
#    x 1.571210 0.000000 0.000000 
#    y 0.000000 1.591340 0.000000 
#    z 0.000000 0.000000 1.573940 
# 
# From -- ./inp_files/27803.got.cif
#   From: 2010.05.17/outbox.cif.g08.bks.cpg/sg47_14_cif.got.tgz:27803.got - 2010.06.03 20:15:42.
