data_PCOD9384361
_publ_section_title
;
Structure prediction by ZEFSAII (Michael W. Deem and Ramdas Pophale) SiO2 
 PCOD9384361
Probable space group: P M M M
;
_chemical_formula_sum "Si O2"
_cell_formula_units_Z 52
_cell_length_a 9.273391
_cell_length_b 14.265566
_cell_length_c 27.105338
_cell_angle_alpha 90.000000
_cell_angle_beta 90.000000
_cell_angle_gamma 90.000000
_cell_volume 3585.769809
_symmetry_space_group_name_H-M "P M M M"
_symmetry_group_IT_number 47
_symmetry_cell_setting 'orthorhombic'
loop_
_space_group_symop_operation_xyz
x,y,z
-x,-y,z
x,-y,-z
-x,y,-z
-x,-y,-z
x,y,-z
-x,y,z
x,-y,z
loop_
_atom_site_type_symbol
_atom_site_label
_atom_site_fract_x
_atom_site_fract_y
_atom_site_fract_z
Si Si1 0.828728 0.607664 0.599139
Si Si2 0.331064 0.886867 0.556229
Si Si3 0.171450 0.205139 0.352007
Si Si4 0.824833 0.889568 0.946816
Si Si5 0.670228 0.887505 0.740072
Si Si6 0.336833 0.386130 0.500000
Si Si7 0.832250 0.114151 0.839379
O O1 0.788949 0.500000 0.610926
O O2 0.800748 0.683831 0.641171
O O3 0.745635 0.638822 0.549873
O O4 0.000000 0.609208 0.588647
O O5 0.293081 0.858455 0.500000
O O6 0.500000 0.863254 0.564567
O O7 0.233575 0.843113 0.598615
O O8 0.320272 0.000000 0.558496
O O9 0.250056 0.162602 0.304847
O O10 0.000000 0.189904 0.348698
O O11 0.778780 0.851863 0.893309
O O12 0.000000 0.885746 0.945904
O O13 0.786587 0.000000 0.947646
O O14 0.777476 0.849230 0.000000
O O15 0.500000 0.869156 0.738681
O O16 0.737984 0.858207 0.792523
O O17 0.691055 0.000000 0.735103
O O18 0.340698 0.500000 0.500000
O O19 0.500000 0.350716 0.500000
O O20 0.000000 0.141189 0.832493
O O21 0.830204 0.000000 0.841459
#
# Coordination Sequence:
#
# PCOD9384361 Si02
#       7
#     8   8   8   8   8   4   8
#     4   9  19  35  50  64  86 110 127 151 194 245
#     4   9  19  35  50  63  83 110 133 156 196 244
#     4  11  22  32  47  67  82 101 134 169 200 237
#     4   7   9  14  27  49  74  98 127 165 206 240
#     4  10  20  32  44  58  80 110 140 171 210 249
#     4   9  17  29  47  69  86 101 124 151 179 220
#     4   8  13  22  37  55  75 101 135 174 207 235
#
# _framework density 14.501766999999999
#
# number of rings (size 3 to 8) (size 9 to 14) (size 15 to 20)
#    0.000    3.000    0.000    3.462    1.077    5.538 
#    0.000    0.769    0.000    0.462    0.000    3.231 
#    0.000    0.000    0.000    0.000    0.000    0.769 
#
# Total GULP energy -289539.972842 kJ/mol
# GULP energy per Si atom -5568.076401 kJ/mol
# Density = 1.446876 g / cm^3
# Si number density = 14.501767 Si / 1000 Ang^3
#
#
#
# Elastic Constant Matrix: (Units=GPa)
#
#
# Indices 1 2 3 4 5 6 
#
# 1 55.9681 32.0518 67.5992 0.0000 0.0000 0.0000
# 2 32.0518 37.0619 43.0677 0.0000 0.0000 0.0000
# 3 67.5992 43.0677 154.2150 0.0000 0.0000 0.0000
# 4 0.0000 0.0000 0.0000 5.4630 0.0000 0.0000
# 5 0.0000 0.0000 0.0000 0.0000 2.3450 0.0000
# 6 0.0000 0.0000 0.0000 0.0000 0.0000 10.4989
#
#
#
# Elastic Compliance Matrix: (Units=1/GPa)
#
#
# Indices 1 2 3 4 5 6 
#
# 1 0.051535 -0.027118 -0.015017 0.000000 0.000000 0.000000
# 2 -0.027118 0.054215 -0.003254 0.000000 0.000000 0.000000
# 3 -0.015017 -0.003254 0.013975 0.000000 0.000000 0.000000
# 4 0.000000 0.000000 0.000000 0.183049 0.000000 0.000000
# 5 0.000000 0.000000 0.000000 0.000000 0.426440 0.000000
# 6 0.000000 0.000000 0.000000 0.000000 0.000000 0.095249
#
#
# Mechanical properties :
#
#
# Convention : Reuss Voigt Hill
#
# Bulk Modulus (GPa) = 34.54409 59.18693 46.86551
# Shear Modulus (GPa) = 5.40606 10.62979 8.01793
#
# Velocity S-wave (km/s) = 1.93286 2.71033 2.35392
# Velocity P-wave (km/s) = 5.37155 7.12017 6.30676
#
# Compressibility (1/GPa) = 0.02894852
#
# Stress axis : x y z
#
# Youngs Moduli (GPa) = 19.40443 18.44507 71.55379
#
# Poissons Ratio (x) = 0.50020 1.07449
# Poissons Ratio (y) = 0.52621 0.23281
# Poissons Ratio (z) = 0.29139 0.06001
#
# Static dielectric constant tensor:
#      x y z
#    x 1.479720 0.000000 0.000000 
#    y 0.000000 1.480130 0.000000 
#    z 0.000000 0.000000 1.496400 
# 
# From -- ./inp_files/8065.got.cif
#   From: 2010.05.17/outbox.cif.g08.bks.cpg/sg47_5_cif.got.tgz:8065.got - 2010.06.03 20:15:42.
