data_PCOD9384372
_publ_section_title
;
Structure prediction by ZEFSAII (Michael W. Deem and Ramdas Pophale) SiO2 
 PCOD9384372
Probable space group: P M M M
;
_chemical_formula_sum "Si O2"
_cell_formula_units_Z 48
_cell_length_a 9.137422
_cell_length_b 22.576053
_cell_length_c 18.438407
_cell_angle_alpha 90.000000
_cell_angle_beta 90.000000
_cell_angle_gamma 90.000000
_cell_volume 3803.602252
_symmetry_space_group_name_H-M "P M M M"
_symmetry_group_IT_number 47
_symmetry_cell_setting 'orthorhombic'
loop_
_space_group_symop_operation_xyz
x,y,z
-x,-y,z
x,-y,-z
-x,y,-z
-x,-y,-z
x,y,-z
-x,y,z
x,-y,z
loop_
_atom_site_type_symbol
_atom_site_label
_atom_site_fract_x
_atom_site_fract_y
_atom_site_fract_z
Si Si1 0.830868 0.381825 0.411895
Si Si2 0.324758 0.868104 0.637055
Si Si3 0.828046 0.071386 0.227410
Si Si4 0.828978 0.071024 0.500000
Si Si5 0.330140 0.071854 0.919013
Si Si6 0.175642 0.751026 0.413134
Si Si7 0.668376 0.500000 0.588398
O O1 0.826883 0.381891 0.500000
O O2 0.780683 0.315853 0.391024
O O3 0.743362 0.439195 0.386635
O O4 0.000000 0.388198 0.390729
O O5 0.500000 0.870150 0.632907
O O6 0.265876 0.896943 0.710878
O O7 0.251983 0.904123 0.570619
O O8 0.264424 0.801528 0.627634
O O9 0.770766 0.089868 0.147903
O O10 0.000000 0.084375 0.236391
O O11 0.809961 0.000000 0.233880
O O12 0.000000 0.090079 0.500000
O O13 0.825489 0.000000 0.500000
O O14 0.500000 0.088859 0.907012
O O15 0.327167 0.000000 0.920149
O O16 0.285751 0.091706 0.000000
O O17 0.200567 0.757598 0.500000
O O18 0.000000 0.757146 0.402122
O O19 0.500000 0.500000 0.608657
O O20 0.677644 0.500000 0.500000
#
# Coordination Sequence:
#
# PCOD9384372 Si02
#       7
#     8   8   8   4   8   8   4
#     4   8  14  24  38  53  68  91 119 146 179 223
#     4  12  23  32  44  60  76  96 124 161 202 240
#     4  10  20  32  45  60  78 101 127 156 191 231
#     4  11  23  37  49  57  69  92 123 160 201 243
#     4   8  14  26  44  64  84 102 118 142 181 227
#     4   9  17  30  45  56  70  95 125 158 194 232
#     4   9  15  21  31  51  75  95 111 141 184 219
#
# _framework density 12.619616000000001
#
# number of rings (size 3 to 8) (size 9 to 14) (size 15 to 20)
#    0.000    2.500    0.833    4.500    0.000    5.667 
#    0.000    3.333    0.000    0.000    0.000    0.000 
#    0.000    0.000    0.000    0.000    0.000    0.000 
#
# Total GULP energy -267428.671850 kJ/mol
# GULP energy per Si atom -5571.430664 kJ/mol
# Density = 1.259089 g / cm^3
# Si number density = 12.619616 Si / 1000 Ang^3
#
#
#
# Elastic Constant Matrix: (Units=GPa)
#
#
# Indices 1 2 3 4 5 6 
#
# 1 87.5054 53.3156 42.3198 0.0000 0.0000 0.0000
# 2 53.3156 78.8563 29.0836 0.0000 0.0000 0.0000
# 3 42.3198 29.0836 64.4093 0.0000 0.0000 0.0000
# 4 0.0000 0.0000 0.0000 -0.5431 0.0000 0.0000
# 5 0.0000 0.0000 0.0000 0.0000 16.0503 0.0000
# 6 0.0000 0.0000 0.0000 0.0000 0.0000 7.4482
#
#
#
# Elastic Compliance Matrix: (Units=1/GPa)
#
#
# Indices 1 2 3 4 5 6 
#
# 1 0.023868 -0.012422 -0.010073 0.000000 0.000000 0.000000
# 2 -0.012422 0.021681 -0.001628 0.000000 0.000000 0.000000
# 3 -0.010073 -0.001628 0.022879 0.000000 0.000000 0.000000
# 4 0.000000 0.000000 0.000000 -1.841270 0.000000 0.000000
# 5 0.000000 0.000000 0.000000 0.000000 0.062304 0.000000
# 6 0.000000 0.000000 0.000000 0.000000 0.000000 0.134260
#
#
# Mechanical properties :
#
#
# Convention : Reuss Voigt Hill
#
# Bulk Modulus (GPa) = 49.55050 53.35656 51.45353
# Shear Modulus (GPa) = -3.28665 11.66121 4.18728
#
# Velocity S-wave (km/s) = -1.61557 3.04312 1.82353
# Velocity P-wave (km/s) = 5.98914 7.39729 6.73015
#
# Compressibility (1/GPa) = 0.02018143
#
# Stress axis : x y z
#
# Youngs Moduli (GPa) = 41.89647 46.12431 43.70772
#
# Poissons Ratio (x) = 0.57298 0.44028
# Poissons Ratio (y) = 0.52046 0.07114
# Poissons Ratio (z) = 0.42204 0.07507
#
# Static dielectric constant tensor:
#      x y z
#    x 1.419110 0.000000 0.000000 
#    y 0.000000 1.415820 0.000000 
#    z 0.000000 0.000000 1.394260 
# 
# From -- ./inp_files/26906.got.cif
#   From: 2010.05.17/outbox.cif.g08.bks.cpg/sg47_14_cif.got.tgz:26906.got - 2010.06.03 20:15:42.
