data_PCOD9384380
_publ_section_title
;
Structure prediction by ZEFSAII (Michael W. Deem and Ramdas Pophale) SiO2 
 PCOD9384380
Probable space group: P M M M
;
_chemical_formula_sum "Si O2"
_cell_formula_units_Z 64
_cell_length_a 9.025571
_cell_length_b 14.722844
_cell_length_c 32.194328
_cell_angle_alpha 90.000000
_cell_angle_beta 90.000000
_cell_angle_gamma 90.000000
_cell_volume 4278.049071
_symmetry_space_group_name_H-M "P M M M"
_symmetry_group_IT_number 47
_symmetry_cell_setting 'orthorhombic'
loop_
_space_group_symop_operation_xyz
x,y,z
-x,-y,z
x,-y,-z
-x,y,-z
-x,-y,-z
x,y,-z
-x,y,z
x,-y,z
loop_
_atom_site_type_symbol
_atom_site_label
_atom_site_fract_x
_atom_site_fract_y
_atom_site_fract_z
Si Si1 0.177533 0.107753 0.129570
Si Si2 0.819729 0.208204 0.045542
Si Si3 0.322549 0.791433 0.207574
Si Si4 0.677469 0.398394 0.828397
Si Si5 0.823262 0.892728 0.284538
Si Si6 0.821302 0.398947 0.918946
Si Si7 0.826412 0.110315 0.454101
Si Si8 0.330302 0.110447 0.629692
O O1 0.225871 0.149118 0.085244
O O2 0.260924 0.156424 0.167160
O O3 0.000000 0.123835 0.134050
O O4 0.201841 0.000000 0.130674
O O5 0.776065 0.312915 0.053656
O O6 0.000000 0.205096 0.045107
O O7 0.768443 0.177666 0.000000
O O8 0.500000 0.799936 0.209418
O O9 0.283309 0.685311 0.201156
O O10 0.251231 0.835291 0.248212
O O11 0.500000 0.394544 0.835118
O O12 0.713912 0.500000 0.812955
O O13 0.756424 0.386638 0.872812
O O14 0.763818 0.864479 0.329827
O O15 0.000000 0.884203 0.282863
O O16 0.786684 0.000000 0.278706
O O17 0.777660 0.500000 0.933863
O O18 0.000000 0.397184 0.916452
O O19 0.774291 0.140135 0.500000
O O20 0.737225 0.142676 0.414005
O O21 0.000000 0.133361 0.449950
O O22 0.818496 0.000000 0.454066
O O23 0.500000 0.139221 0.634415
O O24 0.328087 0.000000 0.628249
#
# Coordination Sequence:
#
# PCOD9384380 Si02
#       8
#     8   8   8   8   8   8   8   8
#     4  10  20  33  48  65  86 112 142 175 208 243
#     4   9  17  29  45  66  90 112 136 168 204 244
#     4  11  21  32  49  69  87 108 136 172 210 250
#     4   9  18  32  49  68  89 111 133 160 200 249
#     4  10  20  32  45  61  84 115 147 179 217 259
#     4   9  16  27  46  69  89 109 133 164 202 243
#     4   8  13  21  33  49  71 103 144 187 229 271
#     4   9  16  25  37  54  78 107 142 186 229 265
#
# _framework density 14.960089999999999
#
# number of rings (size 3 to 8) (size 9 to 14) (size 15 to 20)
#    0.000    2.625    1.250    1.875    0.000    5.250 
#    0.000    3.750    0.000    1.500    0.000    2.625 
#    0.000    0.000    0.000    0.000    0.000    0.625 
#
# Total GULP energy -356545.937763 kJ/mol
# GULP energy per Si atom -5571.030278 kJ/mol
# Density = 1.492604 g / cm^3
# Si number density = 14.960090 Si / 1000 Ang^3
#
#
#
# Elastic Constant Matrix: (Units=GPa)
#
#
# Indices 1 2 3 4 5 6 
#
# 1 30.7012 27.8099 39.3046 0.0000 0.0000 0.0000
# 2 27.8099 57.9262 47.6414 0.0000 0.0000 0.0000
# 3 39.3046 47.6414 126.7316 0.0000 0.0000 0.0000
# 4 0.0000 0.0000 0.0000 4.3039 0.0000 0.0000
# 5 0.0000 0.0000 0.0000 0.0000 -11.9500 0.0000
# 6 0.0000 0.0000 0.0000 0.0000 0.0000 13.5761
#
#
#
# Elastic Compliance Matrix: (Units=1/GPa)
#
#
# Indices 1 2 3 4 5 6 
#
# 1 0.070099 -0.022833 -0.013157 0.000000 0.000000 0.000000
# 2 -0.022833 0.032427 -0.005109 0.000000 0.000000 0.000000
# 3 -0.013157 -0.005109 0.013892 0.000000 0.000000 0.000000
# 4 0.000000 0.000000 0.000000 0.232346 0.000000 0.000000
# 5 0.000000 0.000000 0.000000 0.000000 -0.083682 0.000000
# 6 0.000000 0.000000 0.000000 0.000000 0.000000 0.073659
#
#
# Mechanical properties :
#
#
# Convention : Reuss Voigt Hill
#
# Bulk Modulus (GPa) = 29.22250 49.43010 39.32630
# Shear Modulus (GPa) = 11.56487 7.89287 9.72887
#
# Velocity S-wave (km/s) = 2.78339 2.29944 2.55291
# Velocity P-wave (km/s) = 5.46861 6.33742 5.91898
#
# Compressibility (1/GPa) = 0.03422020
#
# Stress axis : x y z
#
# Youngs Moduli (GPa) = 14.26560 30.83874 71.98549
#
# Poissons Ratio (x) = 0.70413 0.94712
# Poissons Ratio (y) = 0.32572 0.36775
# Poissons Ratio (z) = 0.18769 0.15754
#
# Static dielectric constant tensor:
#      x y z
#    x 1.502090 0.000000 0.000000 
#    y 0.000000 1.495460 0.000000 
#    z 0.000000 0.000000 1.490590 
# 
# From -- ./inp_files/25839.got.cif
#   From: 2010.05.17/outbox.cif.g08.bks.cpg/sg47_13_cif.got.tgz:25839.got - 2010.06.03 20:15:42.
