data_PCOD9384064
_publ_section_title
;
Structure prediction by ZEFSAII (Michael W. Deem and Ramdas Pophale) SiO2 
 PCOD9384064
Probable space group: P M M M
;
_chemical_formula_sum "Si O2"
_cell_formula_units_Z 52
_cell_length_a 12.076657
_cell_length_b 25.569806
_cell_length_c 8.952184
_cell_angle_alpha 90.000000
_cell_angle_beta 90.000000
_cell_angle_gamma 90.000000
_cell_volume 2764.414515
_symmetry_space_group_name_H-M "P M M M"
_symmetry_group_IT_number 47
_symmetry_cell_setting 'orthorhombic'
loop_
_space_group_symop_operation_xyz
x,y,z
-x,-y,z
x,-y,-z
-x,y,-z
-x,-y,-z
x,y,-z
-x,y,z
x,-y,z
loop_
_atom_site_type_symbol
_atom_site_label
_atom_site_fract_x
_atom_site_fract_y
_atom_site_fract_z
Si Si1 0.372528 0.351671 0.821280
Si Si2 0.238458 0.939397 0.821323
Si Si3 0.369521 0.845862 0.678452
Si Si4 0.770747 0.439041 0.678151
Si Si5 0.000000 0.889231 0.177388
Si Si6 0.768811 0.248876 0.179078
Si Si7 0.000000 0.224537 0.321984
Si Si8 0.000000 0.563617 0.170828
O O1 0.500000 0.341973 0.781339
O O2 0.324660 0.402400 0.740823
O O3 0.298419 0.301392 0.784426
O O4 0.366094 0.359470 0.000000
O O5 0.319847 0.900619 0.735259
O O6 0.111719 0.921551 0.792702
O O7 0.253275 0.000000 0.781120
O O8 0.256528 0.934016 0.000000
O O9 0.355833 0.841414 0.500000
O O10 0.500000 0.841558 0.713647
O O11 0.299776 0.800390 0.758597
O O12 0.776537 0.436219 0.500000
O O13 0.754377 0.500000 0.720267
O O14 0.887734 0.420623 0.746928
O O15 0.000000 0.836234 0.271658
O O16 0.000000 0.875667 0.000000
O O17 0.889301 0.249105 0.252942
O O18 0.778965 0.244194 0.000000
O O19 0.000000 0.228684 0.500000
O O20 0.000000 0.500000 0.171134
O O21 0.000000 0.581784 0.000000
#
# Coordination Sequence:
#
# PCOD9384064 Si02
#       8
#     8   8   8   8   4   8   4   4
#     4  10  23  42  63  88 118 156 204 253 298 349
#     4  10  21  37  60  89 120 157 202 248 295 353
#     4  11  24  40  59  85 119 159 199 245 303 359
#     4  10  21  37  59  89 125 163 201 244 299 360
#     4  10  19  36  61  89 120 155 193 240 297 355
#     4  11  23  42  66  90 117 153 198 247 299 355
#     4  12  24  38  62  95 126 154 190 238 297 362
#     4   9  17  32  57  86 116 154 199 245 292 344
#
# _framework density 18.810493000000001
#
# number of rings (size 3 to 8) (size 9 to 14) (size 15 to 20)
#    0.000    1.615    1.538    3.000    0.000    7.692 
#    0.000    3.846    0.000    1.385    0.000    0.000 
#    0.000    0.000    0.000    0.000    0.000    0.000 
#
# Total GULP energy -290673.376506 kJ/mol
# GULP energy per Si atom -5589.872625 kJ/mol
# Density = 1.876768 g / cm^3
# Si number density = 18.810493 Si / 1000 Ang^3
#
#
#
# Elastic Constant Matrix: (Units=GPa)
#
#
# Indices 1 2 3 4 5 6 
#
# 1 167.4211 80.6785 75.8818 0.0000 0.0000 0.0000
# 2 80.6785 109.6180 62.4381 0.0000 0.0000 0.0000
# 3 75.8818 62.4381 67.3358 0.0000 0.0000 0.0000
# 4 0.0000 0.0000 0.0000 2.5243 0.0000 0.0000
# 5 0.0000 0.0000 0.0000 0.0000 29.5802 0.0000
# 6 0.0000 0.0000 0.0000 0.0000 0.0000 5.9787
#
#
#
# Elastic Compliance Matrix: (Units=1/GPa)
#
#
# Indices 1 2 3 4 5 6 
#
# 1 0.012523 -0.002498 -0.011797 0.000000 0.000000 0.000000
# 2 -0.002498 0.019833 -0.015575 0.000000 0.000000 0.000000
# 3 -0.011797 -0.015575 0.042587 0.000000 0.000000 0.000000
# 4 0.000000 0.000000 0.000000 0.396143 0.000000 0.000000
# 5 0.000000 0.000000 0.000000 0.000000 0.033806 0.000000
# 6 0.000000 0.000000 0.000000 0.000000 0.000000 0.167262
#
#
# Mechanical properties :
#
#
# Convention : Reuss Voigt Hill
#
# Bulk Modulus (GPa) = 65.77346 86.93019 76.35182
# Shear Modulus (GPa) = 6.78462 15.97507 11.37985
#
# Velocity S-wave (km/s) = 1.90123 2.91737 2.46229
# Velocity P-wave (km/s) = 6.31362 7.59356 6.98298
#
# Compressibility (1/GPa) = 0.01520370
#
# Stress axis : x y z
#
# Youngs Moduli (GPa) = 79.85122 50.42207 23.48132
#
# Poissons Ratio (x) = 0.12595 0.27700
# Poissons Ratio (y) = 0.19945 0.36573
# Poissons Ratio (z) = 0.94197 0.78534
#
# Static dielectric constant tensor:
#      x y z
#    x 1.633000 0.000000 0.000000 
#    y 0.000000 1.631250 0.000000 
#    z 0.000000 0.000000 1.628990 
# 
# From -- ./inp_files/4684.got.cif
#   From: 2010.05.17/outbox.cif.g08.bks.cpg/sg47_3_cif.got.tgz:4684.got - 2010.06.03 20:15:42.
