data_PCOD9384841
_publ_section_title
;
Structure prediction by ZEFSAII (Michael W. Deem and Ramdas Pophale) SiO2 
 PCOD9384841
Probable space group: P M M M
;
_chemical_formula_sum "Si O2"
_cell_formula_units_Z 48
_cell_length_a 14.255678
_cell_length_b 14.722010
_cell_length_c 12.762505
_cell_angle_alpha 90.000000
_cell_angle_beta 90.000000
_cell_angle_gamma 90.000000
_cell_volume 2678.495437
_symmetry_space_group_name_H-M "P M M M"
_symmetry_group_IT_number 47
_symmetry_cell_setting 'orthorhombic'
loop_
_space_group_symop_operation_xyz
x,y,z
-x,-y,z
x,-y,-z
-x,y,-z
-x,-y,-z
x,y,-z
-x,y,z
x,-y,z
loop_
_atom_site_type_symbol
_atom_site_label
_atom_site_fract_x
_atom_site_fract_y
_atom_site_fract_z
Si Si1 0.394139 0.390205 0.000000
Si Si2 0.106029 0.639394 0.879009
Si Si3 0.386147 0.104083 0.500000
Si Si4 0.610706 0.226420 0.697833
Si Si5 0.296742 0.603409 0.781090
Si Si6 0.689049 0.896377 0.123707
Si Si7 0.898094 0.141267 0.122315
O O1 0.340854 0.367227 0.893494
O O2 0.398757 0.500000 0.000000
O O3 0.500000 0.353991 0.000000
O O4 0.185782 0.605330 0.801884
O O5 0.106885 0.749163 0.875197
O O6 0.000000 0.609966 0.855542
O O7 0.127039 0.612970 0.000000
O O8 0.500000 0.099875 0.500000
O O9 0.359491 0.160859 0.397153
O O10 0.351928 0.000000 0.500000
O O11 0.500000 0.245679 0.688861
O O12 0.667420 0.320623 0.701661
O O13 0.631064 0.171089 0.804234
O O14 0.326495 0.500000 0.757500
O O15 0.797956 0.892913 0.161573
O O16 0.655224 0.000000 0.132862
O O17 0.687277 0.871009 0.000000
O O18 0.000000 0.114355 0.168159
O O19 0.900488 0.113895 0.000000
#
# Coordination Sequence:
#
# PCOD9384841 Si02
#       7
#     4   8   4   8   8   8   8
#     4   9  18  30  43  65 104 152 190 215 249 313
#     4   9  16  28  47  71 105 151 196 233 268 310
#     4   9  20  42  67  85 100 129 181 233 275 328
#     4  11  23  38  58  79 105 141 181 225 274 321
#     4  11  21  33  50  77 111 147 188 227 268 323
#     4  10  20  32  49  78 112 142 174 215 271 334
#     4   8  14  26  44  67 100 141 179 214 256 312
#
# _framework density 17.920508000000002
#
# number of rings (size 3 to 8) (size 9 to 14) (size 15 to 20)
#    0.000    2.333    2.500    2.000    1.167    3.000 
#    0.000    3.750    0.000    1.500    0.000    2.333 
#    0.000    5.333    0.000    0.000    0.000    0.000 
#
# Total GULP energy -267659.084186 kJ/mol
# GULP energy per Si atom -5576.230921 kJ/mol
# Density = 1.787972 g / cm^3
# Si number density = 17.920508 Si / 1000 Ang^3
#
#
#
# Elastic Constant Matrix: (Units=GPa)
#
#
# Indices 1 2 3 4 5 6 
#
# 1 71.9218 24.8366 18.6079 0.0000 0.0000 0.0000
# 2 24.8366 123.1681 49.0592 0.0000 0.0000 0.0000
# 3 18.6079 49.0592 54.2334 0.0000 0.0000 0.0000
# 4 0.0000 0.0000 0.0000 15.8521 0.0000 0.0000
# 5 0.0000 0.0000 0.0000 0.0000 5.9384 0.0000
# 6 0.0000 0.0000 0.0000 0.0000 0.0000 19.7632
#
#
#
# Elastic Compliance Matrix: (Units=1/GPa)
#
#
# Indices 1 2 3 4 5 6 
#
# 1 0.015450 -0.001570 -0.003881 0.000000 0.000000 0.000000
# 2 -0.001570 0.012852 -0.011087 0.000000 0.000000 0.000000
# 3 -0.003881 -0.011087 0.029800 0.000000 0.000000 0.000000
# 4 0.000000 0.000000 0.000000 0.063083 0.000000 0.000000
# 5 0.000000 0.000000 0.000000 0.000000 0.168395 0.000000
# 6 0.000000 0.000000 0.000000 0.000000 0.000000 0.050599
#
#
# Mechanical properties :
#
#
# Convention : Reuss Voigt Hill
#
# Bulk Modulus (GPa) = 39.95852 48.25896 44.10874
# Shear Modulus (GPa) = 13.10285 18.76537 15.93411
#
# Velocity S-wave (km/s) = 2.70694 3.23947 2.98511
# Velocity P-wave (km/s) = 5.66711 6.40158 6.04550
#
# Compressibility (1/GPa) = 0.02502595
#
# Stress axis : x y z
#
# Youngs Moduli (GPa) = 64.72422 77.81188 33.55745
#
# Poissons Ratio (x) = 0.12213 0.13024
# Poissons Ratio (y) = 0.10159 0.37205
# Poissons Ratio (z) = 0.25121 0.86269
#
# Static dielectric constant tensor:
#      x y z
#    x 1.653180 0.000000 0.000000 
#    y 0.000000 1.657580 0.000000 
#    z 0.000000 0.000000 1.583330 
# 
# From -- ./inp_files/17553.got.cif
#   From: 2010.05.17/outbox.cif.g08.bks.cpg/sg47_9_cif.got.tgz:17553.got - 2010.06.03 20:15:42.
