data_PCOD9384871
_publ_section_title
;
Structure prediction by ZEFSAII (Michael W. Deem and Ramdas Pophale) SiO2 
 PCOD9384871
Probable space group: P M M M
;
_chemical_formula_sum "Si O2"
_cell_formula_units_Z 40
_cell_length_a 13.442064
_cell_length_b 20.133509
_cell_length_c 8.547351
_cell_angle_alpha 90.000000
_cell_angle_beta 90.000000
_cell_angle_gamma 90.000000
_cell_volume 2313.220172
_symmetry_space_group_name_H-M "P M M M"
_symmetry_group_IT_number 47
_symmetry_cell_setting 'orthorhombic'
loop_
_space_group_symop_operation_xyz
x,y,z
-x,-y,z
x,-y,-z
-x,y,-z
-x,-y,-z
x,y,-z
-x,y,z
x,-y,z
loop_
_atom_site_type_symbol
_atom_site_label
_atom_site_fract_x
_atom_site_fract_y
_atom_site_fract_z
Si Si1 0.892529 0.683561 0.189709
Si Si2 0.818349 0.830512 0.811556
Si Si3 0.617532 0.500000 0.674481
Si Si4 0.612073 0.219408 0.687394
Si Si5 0.317598 0.638918 0.187336
Si Si6 0.000000 0.923273 0.191124
O O1 0.869719 0.760095 0.228371
O O2 0.797253 0.642733 0.240649
O O3 0.000000 0.663060 0.250208
O O4 0.895177 0.680148 0.000000
O O5 0.705387 0.824445 0.748473
O O6 0.897812 0.886193 0.758930
O O7 0.810952 0.834524 0.000000
O O8 0.500000 0.500000 0.659694
O O9 0.662296 0.500000 0.500000
O O10 0.643235 0.567918 0.761824
O O11 0.615125 0.218228 0.500000
O O12 0.500000 0.198999 0.737918
O O13 0.629831 0.295617 0.742806
O O14 0.322844 0.645622 0.000000
O O15 0.000000 0.000000 0.238314
O O16 0.000000 0.920250 0.000000
#
# Coordination Sequence:
#
# PCOD9384871 Si02
#       6
#     8   8   4   8   8   4
#     4   8  13  25  46  70  95 121 152 191 236 287
#     4   9  16  28  50  76 102 133 168 204 244 295
#     4  11  23  37  50  63  90 130 163 199 252 307
#     4  10  20  33  49  71 101 133 166 209 259 303
#     4  10  20  32  51  75  95 122 163 208 250 298
#     4   9  16  28  51  83 113 136 163 204 253 299
#
# _framework density 17.291912
#
# number of rings (size 3 to 8) (size 9 to 14) (size 15 to 20)
#    0.000    2.600    1.000    3.300    0.000    4.800 
#    0.000    1.000    0.000    6.600    0.000    4.200 
#    0.000    0.000    0.000    0.000    0.000    0.000 
#
# Total GULP energy -222720.801577 kJ/mol
# GULP energy per Si atom -5568.020039 kJ/mol
# Density = 1.725256 g / cm^3
# Si number density = 17.291912 Si / 1000 Ang^3
#
#
#
# Elastic Constant Matrix: (Units=GPa)
#
#
# Indices 1 2 3 4 5 6 
#
# 1 169.3668 64.5596 26.9474 0.0000 0.0000 0.0000
# 2 64.5596 93.4666 17.3017 0.0000 0.0000 0.0000
# 3 26.9474 17.3017 28.4005 0.0000 0.0000 0.0000
# 4 0.0000 0.0000 0.0000 68.6832 0.0000 0.0000
# 5 0.0000 0.0000 0.0000 0.0000 103.3951 0.0000
# 6 0.0000 0.0000 0.0000 0.0000 0.0000 22.0787
#
#
#
# Elastic Compliance Matrix: (Units=1/GPa)
#
#
# Indices 1 2 3 4 5 6 
#
# 1 0.008632 -0.005011 -0.005137 0.000000 0.000000 0.000000
# 2 -0.005011 0.014968 -0.004364 0.000000 0.000000 0.000000
# 3 -0.005137 -0.004364 0.042744 0.000000 0.000000 0.000000
# 4 0.000000 0.000000 0.000000 0.014560 0.000000 0.000000
# 5 0.000000 0.000000 0.000000 0.000000 0.009672 0.000000
# 6 0.000000 0.000000 0.000000 0.000000 0.000000 0.045293
#
#
# Mechanical properties :
#
#
# Convention : Reuss Voigt Hill
#
# Bulk Modulus (GPa) = 26.79610 56.53903 41.66757
# Shear Modulus (GPa) = 28.19565 50.99308 39.59437
#
# Velocity S-wave (km/s) = 4.04241 5.43632 4.79034
# Velocity P-wave (km/s) = 6.10885 8.49544 7.39901
#
# Compressibility (1/GPa) = 0.03731886
#
# Stress axis : x y z
#
# Youngs Moduli (GPa) = 115.84843 66.80820 23.39525
#
# Poissons Ratio (x) = 0.33480 0.12019
# Poissons Ratio (y) = 0.58055 0.10209
# Poissons Ratio (z) = 0.59516 0.29154
#
# Static dielectric constant tensor:
#      x y z
#    x 1.630590 0.000000 0.000000 
#    y 0.000000 1.558560 0.000000 
#    z 0.000000 0.000000 1.593920 
# 
# From -- ./inp_files/4028.got.cif
#   From: 2010.05.17/outbox.cif.g08.bks.cpg/sg47_3_cif.got.tgz:4028.got - 2010.06.03 20:15:42.
