data_PCOD9384688
_publ_section_title
;
Structure prediction by ZEFSAII (Michael W. Deem and Ramdas Pophale) SiO2 
 PCOD9384688
Probable space group: P M M M
;
_chemical_formula_sum "Si O2"
_cell_formula_units_Z 48
_cell_length_a 9.593559
_cell_length_b 36.024715
_cell_length_c 7.741087
_cell_angle_alpha 90.000000
_cell_angle_beta 90.000000
_cell_angle_gamma 90.000000
_cell_volume 2675.360144
_symmetry_space_group_name_H-M "P M M M"
_symmetry_group_IT_number 47
_symmetry_cell_setting 'orthorhombic'
loop_
_space_group_symop_operation_xyz
x,y,z
-x,-y,z
x,-y,-z
-x,y,-z
-x,-y,-z
x,y,-z
-x,y,z
x,-y,z
loop_
_atom_site_type_symbol
_atom_site_label
_atom_site_fract_x
_atom_site_fract_y
_atom_site_fract_z
Si Si1 0.670460 0.903600 0.500000
Si Si2 0.659985 0.319211 0.788929
Si Si3 0.658916 0.458287 0.291640
Si Si4 0.843260 0.387855 0.206510
Si Si5 0.329792 0.818345 0.500000
Si Si6 0.330375 0.042074 0.197683
Si Si7 0.669855 0.236292 0.198015
O O1 0.500000 0.903266 0.500000
O O2 0.716352 0.860973 0.500000
O O3 0.715601 0.926896 0.332261
O O4 0.500000 0.324349 0.731742
O O5 0.755554 0.352753 0.726600
O O6 0.709773 0.277822 0.742306
O O7 0.657733 0.319507 0.000000
O O8 0.656841 0.458823 0.500000
O O9 0.500000 0.450722 0.232916
O O10 0.697538 0.500000 0.233498
O O11 0.761824 0.425990 0.237172
O O12 0.000000 0.389185 0.276076
O O13 0.851575 0.382954 0.000000
O O14 0.500000 0.818586 0.500000
O O15 0.285774 0.795311 0.330893
O O16 0.500000 0.042293 0.199173
O O17 0.288709 0.000000 0.246851
O O18 0.287102 0.048988 0.000000
O O19 0.500000 0.236711 0.195742
O O20 0.715457 0.230228 0.000000
#
# Coordination Sequence:
#
# PCOD9384688 Si02
#       7
#     4   8   8   8   4   8   8
#     4   9  15  20  27  40  60  83 107 148 207 258
#     4   8  14  27  46  63  82 112 145 175 212 260
#     4   9  19  36  54  70  91 122 159 192 221 261
#     4  10  20  32  48  73 101 123 146 182 228 274
#     4   9  16  23  32  51  73  91 120 162 210 268
#     4   8  13  20  28  37  51  77 116 156 194 245
#     4   8  14  25  39  53  72  99 129 165 209 255
#
# _framework density 17.941507999999999
#
# number of rings (size 3 to 8) (size 9 to 14) (size 15 to 20)
#    0.000    3.333    0.000    2.750    0.000    3.667 
#    1.500    5.833    0.000    0.000    0.000    0.000 
#    0.000    0.000    0.000    0.000    0.000    0.000 
#
# Total GULP energy -267385.143826 kJ/mol
# GULP energy per Si atom -5570.523830 kJ/mol
# Density = 1.790067 g / cm^3
# Si number density = 17.941508 Si / 1000 Ang^3
#
#
#
# Elastic Constant Matrix: (Units=GPa)
#
#
# Indices 1 2 3 4 5 6 
#
# 1 40.6683 62.7495 23.3577 0.0000 0.0000 0.0000
# 2 62.7495 199.3265 70.9247 0.0000 0.0000 0.0000
# 3 23.3577 70.9247 65.2039 0.0000 0.0000 0.0000
# 4 0.0000 0.0000 0.0000 14.8891 0.0000 0.0000
# 5 0.0000 0.0000 0.0000 0.0000 5.5362 0.0000
# 6 0.0000 0.0000 0.0000 0.0000 0.0000 -3.3675
#
#
#
# Elastic Compliance Matrix: (Units=1/GPa)
#
#
# Indices 1 2 3 4 5 6 
#
# 1 0.047875 -0.014632 -0.001234 0.000000 0.000000 0.000000
# 2 -0.014632 0.012657 -0.008526 0.000000 0.000000 0.000000
# 3 -0.001234 -0.008526 0.025052 0.000000 0.000000 0.000000
# 4 0.000000 0.000000 0.000000 0.067163 0.000000 0.000000
# 5 0.000000 0.000000 0.000000 0.000000 0.180628 0.000000
# 6 0.000000 0.000000 0.000000 0.000000 0.000000 -0.296959
#
#
# Mechanical properties :
#
#
# Convention : Reuss Voigt Hill
#
# Bulk Modulus (GPa) = 27.17372 68.80694 47.99033
# Shear Modulus (GPa) = 51.29946 13.28936 32.29441
#
# Velocity S-wave (km/s) = 5.35301 2.72454 4.24722
# Velocity P-wave (km/s) = 7.30649 6.95208 7.13149
#
# Compressibility (1/GPa) = 0.03680026
#
# Stress axis : x y z
#
# Youngs Moduli (GPa) = 20.88773 79.00830 39.91660
#
# Poissons Ratio (x) = 1.15608 0.04925
# Poissons Ratio (y) = 0.30564 0.34032
# Poissons Ratio (z) = 0.02577 0.67360
#
# Static dielectric constant tensor:
#      x y z
#    x 1.585270 0.000000 0.000000 
#    y 0.000000 1.609720 0.000000 
#    z 0.000000 0.000000 1.649130 
# 
# From -- ./inp_files/2665.got.cif
#   From: 2010.05.17/outbox.cif.g08.bks.cpg/sg47_2_cif.got.tgz:2665.got - 2010.06.03 20:15:42.
