data_PCOD9384600
_publ_section_title
;
Structure prediction by ZEFSAII (Michael W. Deem and Ramdas Pophale) SiO2 
 PCOD9384600
Probable space group: P M M M
;
_chemical_formula_sum "Si O2"
_cell_formula_units_Z 56
_cell_length_a 21.654619
_cell_length_b 7.483989
_cell_length_c 15.036538
_cell_angle_alpha 90.000000
_cell_angle_beta 90.000000
_cell_angle_gamma 90.000000
_cell_volume 2436.865411
_symmetry_space_group_name_H-M "P M M M"
_symmetry_group_IT_number 47
_symmetry_cell_setting 'orthorhombic'
loop_
_space_group_symop_operation_xyz
x,y,z
-x,-y,z
x,-y,-z
-x,y,-z
-x,-y,-z
x,y,-z
-x,y,z
x,-y,z
loop_
_atom_site_type_symbol
_atom_site_label
_atom_site_fract_x
_atom_site_fract_y
_atom_site_fract_z
Si Si1 0.200536 0.700544 0.604567
Si Si2 0.375876 0.711753 0.791144
Si Si3 0.664371 0.719004 0.602704
Si Si4 0.744724 0.715209 0.103841
Si Si5 0.931684 0.296042 0.357506
Si Si6 0.500000 0.212489 0.898683
Si Si7 0.929873 0.218256 0.000000
Si Si8 0.873765 0.788636 0.180048
O O1 0.208672 0.679749 0.500000
O O2 0.195548 0.500000 0.645562
O O3 0.266193 0.779565 0.630644
O O4 0.133540 0.790271 0.613738
O O5 0.364852 0.500000 0.784005
O O6 0.376400 0.774946 0.687820
O O7 0.319051 0.780795 0.851633
O O8 0.439236 0.737029 0.843596
O O9 0.650284 0.776021 0.500000
O O10 0.665676 0.500000 0.598798
O O11 0.743135 0.500000 0.098902
O O12 0.800300 0.762541 0.172133
O O13 0.753188 0.778361 0.000000
O O14 0.932233 0.500000 0.392780
O O15 0.917455 0.298882 0.253110
O O16 0.000000 0.220443 0.376311
O O17 0.500000 0.000000 0.905429
O O18 0.500000 0.285096 0.000000
O O19 0.895941 0.281505 0.913718
O O20 0.000000 0.271602 0.000000
O O21 0.927379 0.000000 0.000000
O O22 0.885047 0.000000 0.188665
#
# Coordination Sequence:
#
# PCOD9384600 Si02
#       8
#     8   8   8   8   8   4   4   8
#     4   8  14  27  49  76 106 138 171 214 270 326
#     4  10  20  36  61  88 114 150 189 223 266 322
#     4   8  14  27  51  84 116 143 177 224 273 319
#     4  10  20  34  54  81 110 136 172 229 285 328
#     4  10  20  32  47  71 102 134 174 226 279 328
#     4  11  25  43  60  83 118 156 191 231 272 313
#     4   9  18  32  47  63  87 124 171 216 255 305
#     4  11  21  34  51  70  97 135 177 219 267 325
#
# _framework density 22.980342
#
# number of rings (size 3 to 8) (size 9 to 14) (size 15 to 20)
#    0.000    2.429    0.714    3.214    0.000    5.143 
#    0.000    1.786    0.000    4.714    0.000    3.000 
#    0.000    0.000    0.000    0.000    0.000    0.000 
#
# Total GULP energy -312078.047116 kJ/mol
# GULP energy per Si atom -5572.822270 kJ/mol
# Density = 2.292804 g / cm^3
# Si number density = 22.980342 Si / 1000 Ang^3
#
#
#
# Elastic Constant Matrix: (Units=GPa)
#
#
# Indices 1 2 3 4 5 6 
#
# 1 132.0074 -9.8826 44.1119 0.0000 0.0000 0.0000
# 2 -9.8826 71.6596 3.9819 0.0000 0.0000 0.0000
# 3 44.1119 3.9819 127.3646 0.0000 0.0000 0.0000
# 4 0.0000 0.0000 0.0000 -40.6132 0.0000 0.0000
# 5 0.0000 0.0000 0.0000 0.0000 79.0258 0.0000
# 6 0.0000 0.0000 0.0000 0.0000 0.0000 2.4490
#
#
#
# Elastic Compliance Matrix: (Units=1/GPa)
#
#
# Indices 1 2 3 4 5 6 
#
# 1 0.008699 0.001369 -0.003056 0.000000 0.000000 0.000000
# 2 0.001369 0.014195 -0.000918 0.000000 0.000000 0.000000
# 3 -0.003056 -0.000918 0.008938 0.000000 0.000000 0.000000
# 4 0.000000 0.000000 0.000000 -0.024623 0.000000 0.000000
# 5 0.000000 0.000000 0.000000 0.000000 0.012654 0.000000
# 6 0.000000 0.000000 0.000000 0.000000 0.000000 0.408324
#
#
# Mechanical properties :
#
#
# Convention : Reuss Voigt Hill
#
# Bulk Modulus (GPa) = 37.56061 45.27268 41.41665
# Shear Modulus (GPa) = 11.30528 27.69369 19.49949
#
# Velocity S-wave (km/s) = 2.22041 3.47523 2.91611
# Velocity P-wave (km/s) = 4.79101 5.98718 5.42218
#
# Compressibility (1/GPa) = 0.02662363
#
# Stress axis : x y z
#
# Youngs Moduli (GPa) = 114.95667 70.44862 111.87594
#
# Poissons Ratio (x) = -0.09648 0.34185
# Poissons Ratio (y) = -0.15743 0.10271
# Poissons Ratio (z) = 0.35127 0.06468
#
# Static dielectric constant tensor:
#      x y z
#    x 1.871290 0.000000 0.000000 
#    y 0.000000 1.918880 0.000000 
#    z 0.000000 0.000000 1.924790 
# 
# From -- ./inp_files/25197.got.cif
#   From: 2010.05.17/outbox.cif.g08.bks.cpg/sg47_13_cif.got.tgz:25197.got - 2010.06.03 20:15:42.
