data_PCOD9384309
_publ_section_title
;
Structure prediction by ZEFSAII (Michael W. Deem and Ramdas Pophale) SiO2 
 PCOD9384309
Probable space group: P M M M
;
_chemical_formula_sum "Si O2"
_cell_formula_units_Z 40
_cell_length_a 9.981571
_cell_length_b 26.254753
_cell_length_c 7.762088
_cell_angle_alpha 90.000000
_cell_angle_beta 90.000000
_cell_angle_gamma 90.000000
_cell_volume 2034.161355
_symmetry_space_group_name_H-M "P M M M"
_symmetry_group_IT_number 47
_symmetry_cell_setting 'orthorhombic'
loop_
_space_group_symop_operation_xyz
x,y,z
-x,-y,z
x,-y,-z
-x,y,-z
-x,-y,-z
x,y,-z
-x,y,z
x,-y,z
loop_
_atom_site_type_symbol
_atom_site_label
_atom_site_fract_x
_atom_site_fract_y
_atom_site_fract_z
Si Si1 0.847931 0.558406 0.289581
Si Si2 0.849725 0.147332 0.793340
Si Si3 0.347686 0.943617 0.292994
Si Si4 0.153096 0.262081 0.791942
Si Si5 0.348164 0.646270 0.705834
O O1 0.847146 0.559190 0.500000
O O2 0.821557 0.500000 0.237869
O O3 0.738621 0.598576 0.226783
O O4 0.000000 0.572081 0.236575
O O5 0.747780 0.102758 0.751650
O O6 0.813858 0.204448 0.732896
O O7 0.000000 0.135668 0.729588
O O8 0.855952 0.150451 0.000000
O O9 0.352761 0.945677 0.500000
O O10 0.500000 0.935472 0.230573
O O11 0.302874 0.000000 0.232396
O O12 0.261265 0.303166 0.735707
O O13 0.000000 0.274030 0.734888
O O14 0.151585 0.262256 0.000000
O O15 0.357778 0.639490 0.500000
O O16 0.500000 0.649256 0.774035
#
# Coordination Sequence:
#
# PCOD9384309 Si02
#       5
#     8   8   8   8   8
#     4   8  14  26  45  68  94 126 163 200 238 282
#     4   9  19  35  53  74  98 124 160 205 247 287
#     4   9  19  35  52  72 101 134 164 195 235 285
#     4   9  19  36  54  70  93 128 166 202 243 290
#     4  10  20  31  46  73 104 130 159 197 242 291
#
# _framework density 19.664123
#
# number of rings (size 3 to 8) (size 9 to 14) (size 15 to 20)
#    0.000    3.000    0.000    3.000    0.000    5.200 
#    0.000   11.000    0.000    0.600    0.000    4.200 
#    0.000    0.000    0.000    0.000    0.000    0.000 
#
# Total GULP energy -223048.155807 kJ/mol
# GULP energy per Si atom -5576.203895 kJ/mol
# Density = 1.961937 g / cm^3
# Si number density = 19.664123 Si / 1000 Ang^3
#
#
#
# Elastic Constant Matrix: (Units=GPa)
#
#
# Indices 1 2 3 4 5 6 
#
# 1 177.2537 149.9501 8.7574 0.0000 0.0000 0.0000
# 2 149.9501 181.6884 4.6911 0.0000 0.0000 0.0000
# 3 8.7574 4.6911 24.4889 0.0000 0.0000 0.0000
# 4 0.0000 0.0000 0.0000 32.0964 0.0000 0.0000
# 5 0.0000 0.0000 0.0000 0.0000 21.2536 0.0000
# 6 0.0000 0.0000 0.0000 0.0000 0.0000 -253.3343
#
#
#
# Elastic Compliance Matrix: (Units=1/GPa)
#
#
# Indices 1 2 3 4 5 6 
#
# 1 0.019041 -0.015616 -0.003818 0.000000 0.000000 0.000000
# 2 -0.015616 0.018339 0.002072 0.000000 0.000000 0.000000
# 3 -0.003818 0.002072 0.041803 0.000000 0.000000 0.000000
# 4 0.000000 0.000000 0.000000 0.031156 0.000000 0.000000
# 5 0.000000 0.000000 0.000000 0.000000 0.047051 0.000000
# 6 0.000000 0.000000 0.000000 0.000000 0.000000 -0.003947
#
#
# Mechanical properties :
#
#
# Convention : Reuss Voigt Hill
#
# Bulk Modulus (GPa) = 22.49314 78.91425 50.70369
# Shear Modulus (GPa) = 24.63209 -25.32805 -0.34798
#
# Velocity S-wave (km/s) = 3.54311 -3.59281 -0.42112
# Velocity P-wave (km/s) = 5.31052 4.79658 5.06008
#
# Compressibility (1/GPa) = 0.04445800
#
# Stress axis : x y z
#
# Youngs Moduli (GPa) = 52.51809 54.52921 23.92161
#
# Poissons Ratio (x) = 0.85154 0.09133
# Poissons Ratio (y) = 0.82014 -0.04955
# Poissons Ratio (z) = 0.20050 -0.11296
#
# Static dielectric constant tensor:
#      x y z
#    x 1.680070 0.000000 0.000000 
#    y 0.000000 1.682830 0.000000 
#    z 0.000000 0.000000 1.734930 
# 
# From -- ./inp_files/1361.got.cif
#   From: 2010.05.17/outbox.cif.g08.bks.cpg/sg47_1_cif.got.tgz:1361.got - 2010.06.03 20:15:42.
