data_PCOD9384608
_publ_section_title
;
Structure prediction by ZEFSAII (Michael W. Deem and Ramdas Pophale) SiO2 
 PCOD9384608
Probable space group: P M M M
;
_chemical_formula_sum "Si O2"
_cell_formula_units_Z 48
_cell_length_a 32.001827
_cell_length_b 9.438658
_cell_length_c 8.548600
_cell_angle_alpha 90.000000
_cell_angle_beta 90.000000
_cell_angle_gamma 90.000000
_cell_volume 2582.141393
_symmetry_space_group_name_H-M "P M M M"
_symmetry_group_IT_number 47
_symmetry_cell_setting 'orthorhombic'
loop_
_space_group_symop_operation_xyz
x,y,z
-x,-y,z
x,-y,-z
-x,y,-z
-x,-y,-z
x,y,-z
-x,y,z
x,-y,z
loop_
_atom_site_type_symbol
_atom_site_label
_atom_site_fract_x
_atom_site_fract_y
_atom_site_fract_z
Si Si1 0.751315 0.835357 0.812955
Si Si2 0.920744 0.336151 0.187400
Si Si3 0.500000 0.172584 0.681450
Si Si4 0.842331 0.165078 0.687228
Si Si5 0.000000 0.163802 0.687579
Si Si6 0.408971 0.835652 0.691418
Si Si7 0.672480 0.663626 0.310733
O O1 0.795951 0.792675 0.741553
O O2 0.713172 0.742288 0.752763
O O3 0.744096 0.000000 0.768152
O O4 0.753984 0.827347 0.000000
O O5 0.923017 0.500000 0.239885
O O6 0.877811 0.263426 0.240725
O O7 0.959154 0.245885 0.253896
O O8 0.923107 0.334406 0.000000
O O9 0.500000 0.219221 0.500000
O O10 0.545148 0.213829 0.748646
O O11 0.500000 0.000000 0.680481
O O12 0.844846 0.171214 0.500000
O O13 0.848694 0.000000 0.735230
O O14 0.000000 0.163259 0.500000
O O15 0.000000 0.000000 0.741493
O O16 0.410495 0.833009 0.500000
O O17 0.369879 0.742174 0.741507
O O18 0.402808 0.000000 0.736173
O O19 0.673466 0.669879 0.500000
O O20 0.672132 0.500000 0.263271
#
# Coordination Sequence:
#
# PCOD9384608 Si02
#       7
#     8   8   4   8   4   8   8
#     4  10  21  37  57  79 102 133 175 220 265 313
#     4  11  24  40  59  86 119 153 188 225 268 319
#     4   7  10  18  35  61  90 121 160 205 252 300
#     4  10  21  38  61  87 112 140 177 220 267 320
#     4  11  24  41  62  88 116 149 192 237 278 320
#     4   8  13  23  41  64  92 127 166 208 253 302
#     4  10  20  32  47  71 103 137 172 210 256 311
#
# _framework density 18.589221999999999
#
# number of rings (size 3 to 8) (size 9 to 14) (size 15 to 20)
#    0.000    2.333    0.000    4.000    0.000    8.667 
#    0.000    0.417    0.000    2.500    0.000    0.583 
#    0.000    4.667    0.000    0.000    0.000    0.000 
#
# Total GULP energy -267901.473655 kJ/mol
# GULP energy per Si atom -5581.280701 kJ/mol
# Density = 1.854691 g / cm^3
# Si number density = 18.589222 Si / 1000 Ang^3
#
#
#
# Elastic Constant Matrix: (Units=GPa)
#
#
# Indices 1 2 3 4 5 6 
#
# 1 199.6601 118.3905 33.8934 0.0000 0.0000 0.0000
# 2 118.3905 127.1635 32.3450 0.0000 0.0000 0.0000
# 3 33.8934 32.3450 23.5901 0.0000 0.0000 0.0000
# 4 0.0000 0.0000 0.0000 21.5146 0.0000 0.0000
# 5 0.0000 0.0000 0.0000 0.0000 769.5645 0.0000
# 6 0.0000 0.0000 0.0000 0.0000 0.0000 -22.3883
#
#
#
# Elastic Compliance Matrix: (Units=1/GPa)
#
#
# Indices 1 2 3 4 5 6 
#
# 1 0.011298 -0.009812 -0.002780 0.000000 0.000000 0.000000
# 2 -0.009812 0.020596 -0.014142 0.000000 0.000000 0.000000
# 3 -0.002780 -0.014142 0.065776 0.000000 0.000000 0.000000
# 4 0.000000 0.000000 0.000000 0.046480 0.000000 0.000000
# 5 0.000000 0.000000 0.000000 0.000000 0.001299 0.000000
# 6 0.000000 0.000000 0.000000 0.000000 0.000000 -0.044666
#
#
# Mechanical properties :
#
#
# Convention : Reuss Voigt Hill
#
# Bulk Modulus (GPa) = 22.62352 79.96350 51.29351
# Shear Modulus (GPa) = 29.58825 164.79049 97.18937
#
# Velocity S-wave (km/s) = 3.99393 9.42554 7.23852
# Velocity P-wave (km/s) = 5.78492 12.71078 9.87495
#
# Compressibility (1/GPa) = 0.04420178
#
# Stress axis : x y z
#
# Youngs Moduli (GPa) = 88.50735 48.55276 15.20320
#
# Poissons Ratio (x) = 0.47640 0.04226
# Poissons Ratio (y) = 0.86843 0.21501
# Poissons Ratio (z) = 0.24604 0.68666
#
# Static dielectric constant tensor:
#      x y z
#    x 1.627970 0.000000 0.000000 
#    y 0.000000 1.625360 0.000000 
#    z 0.000000 0.000000 1.633960 
# 
# From -- ./inp_files/13815.got.cif
#   From: 2010.05.17/outbox.cif.g08.bks.cpg/sg47_7_cif.got.tgz:13815.got - 2010.06.03 20:15:42.
