data_PCOD9384718
_publ_section_title
;
Structure prediction by ZEFSAII (Michael W. Deem and Ramdas Pophale) SiO2 
 PCOD9384718
Probable space group: P M M M
;
_chemical_formula_sum "Si O2"
_cell_formula_units_Z 40
_cell_length_a 9.200045
_cell_length_b 7.414377
_cell_length_c 28.339924
_cell_angle_alpha 90.000000
_cell_angle_beta 90.000000
_cell_angle_gamma 90.000000
_cell_volume 1933.139958
_symmetry_space_group_name_H-M "P M M M"
_symmetry_group_IT_number 47
_symmetry_cell_setting 'orthorhombic'
loop_
_space_group_symop_operation_xyz
x,y,z
-x,-y,z
x,-y,-z
-x,y,-z
-x,-y,-z
x,y,-z
-x,y,z
x,-y,z
loop_
_atom_site_type_symbol
_atom_site_label
_atom_site_fract_x
_atom_site_fract_y
_atom_site_fract_z
Si Si1 0.827596 0.500000 0.443853
Si Si2 0.672125 0.783762 0.379337
Si Si3 0.165066 0.215774 0.715863
Si Si4 0.667404 0.720110 0.000000
Si Si5 0.167509 0.720560 0.094763
Si Si6 0.335582 0.715165 0.812269
O O1 0.807330 0.500000 0.500000
O O2 0.752401 0.673230 0.420031
O O3 0.000000 0.500000 0.433742
O O4 0.500000 0.746726 0.379209
O O5 0.743161 0.724897 0.329574
O O6 0.691420 0.000000 0.384667
O O7 0.246503 0.254502 0.764557
O O8 0.000000 0.286370 0.715729
O O9 0.156652 0.000000 0.712142
O O10 0.750253 0.777086 0.952700
O O11 0.667583 0.500000 0.000000
O O12 0.500000 0.777600 0.000000
O O13 0.167713 0.500000 0.094989
O O14 0.250727 0.782644 0.141675
O O15 0.000000 0.777338 0.094899
O O16 0.500000 0.786073 0.808792
O O17 0.345879 0.500000 0.818210
#
# Coordination Sequence:
#
# PCOD9384718 Si02
#       6
#     4   8   8   4   8   8
#     4  11  25  43  65  95 129 167 209 252 301 358
#     4  10  22  41  65  92 124 162 205 254 305 358
#     4  10  21  37  57  81 110 146 187 229 278 338
#     4   9  15  23  37  57  86 125 166 211 266 327
#     4   9  16  26  40  61  91 127 169 216 268 326
#     4  10  20  32  48  73 105 139 176 222 276 332
#
# _framework density 20.691725000000002
#
# number of rings (size 3 to 8) (size 9 to 14) (size 15 to 20)
#    0.000    2.200    0.000    3.000    1.400    8.400 
#    0.000    2.000    0.000    0.000    0.000    0.700 
#    0.000    5.600    0.000    0.000    0.000    0.000 
#
# Total GULP energy -223597.415507 kJ/mol
# GULP energy per Si atom -5589.935388 kJ/mol
# Density = 2.064463 g / cm^3
# Si number density = 20.691725 Si / 1000 Ang^3
#
#
#
# Elastic Constant Matrix: (Units=GPa)
#
#
# Indices 1 2 3 4 5 6 
#
# 1 240.1885 42.5379 141.9920 0.0000 0.0000 0.0000
# 2 42.5379 75.7784 35.7145 0.0000 0.0000 0.0000
# 3 141.9920 35.7145 202.3948 0.0000 0.0000 0.0000
# 4 0.0000 0.0000 0.0000 69.9257 0.0000 0.0000
# 5 0.0000 0.0000 0.0000 0.0000 49.8429 0.0000
# 6 0.0000 0.0000 0.0000 0.0000 0.0000 14.5152
#
#
#
# Elastic Compliance Matrix: (Units=1/GPa)
#
#
# Indices 1 2 3 4 5 6 
#
# 1 0.007344 -0.001848 -0.004826 0.000000 0.000000 0.000000
# 2 -0.001848 0.014858 -0.001326 0.000000 0.000000 0.000000
# 3 -0.004826 -0.001326 0.008560 0.000000 0.000000 0.000000
# 4 0.000000 0.000000 0.000000 0.014301 0.000000 0.000000
# 5 0.000000 0.000000 0.000000 0.000000 0.020063 0.000000
# 6 0.000000 0.000000 0.000000 0.000000 0.000000 0.068893
#
#
# Mechanical properties :
#
#
# Convention : Reuss Voigt Hill
#
# Bulk Modulus (GPa) = 67.73317 106.53897 87.13607
# Shear Modulus (GPa) = 32.27073 46.73125 39.50099
#
# Velocity S-wave (km/s) = 3.95346 4.75747 4.37398
# Velocity P-wave (km/s) = 7.32429 9.04315 8.22872
#
# Compressibility (1/GPa) = 0.01476382
#
# Stress axis : x y z
#
# Youngs Moduli (GPa) = 136.17367 67.30214 116.81721
#
# Poissons Ratio (x) = 0.12436 0.56375
# Poissons Ratio (y) = 0.25163 0.15485
# Poissons Ratio (z) = 0.65716 0.08921
#
# Static dielectric constant tensor:
#      x y z
#    x 1.719230 0.000000 0.000000 
#    y 0.000000 1.836230 0.000000 
#    z 0.000000 0.000000 1.681950 
# 
# From -- ./inp_files/33105.got.cif
#   From: 2010.05.17/outbox.cif.g08.bks.cpg/sg47_17_cif.got.tgz:33105.got - 2010.06.03 20:15:42.
