data_PCOD9384827
_publ_section_title
;
Structure prediction by ZEFSAII (Michael W. Deem and Ramdas Pophale) SiO2 
 PCOD9384827
Probable space group: P M M M
;
_chemical_formula_sum "Si O2"
_cell_formula_units_Z 36
_cell_length_a 23.656374
_cell_length_b 8.515137
_cell_length_c 9.675865
_cell_angle_alpha 90.000000
_cell_angle_beta 90.000000
_cell_angle_gamma 90.000000
_cell_volume 1949.079787
_symmetry_space_group_name_H-M "P M M M"
_symmetry_group_IT_number 47
_symmetry_cell_setting 'orthorhombic'
loop_
_space_group_symop_operation_xyz
x,y,z
-x,-y,z
x,-y,-z
-x,y,-z
-x,-y,-z
x,y,-z
-x,y,z
x,-y,z
loop_
_atom_site_type_symbol
_atom_site_label
_atom_site_fract_x
_atom_site_fract_y
_atom_site_fract_z
Si Si1 0.603039 0.811789 0.840304
Si Si2 0.063857 0.808650 0.158960
Si Si3 0.169409 0.190147 0.659022
Si Si4 0.272473 0.311869 0.840461
Si Si5 0.500000 0.311861 0.340808
O O1 0.665402 0.750963 0.803015
O O2 0.555090 0.747464 0.740117
O O3 0.602668 0.000000 0.835948
O O4 0.591877 0.762967 0.000000
O O5 0.113003 0.755290 0.260994
O O6 0.000000 0.758916 0.195949
O O7 0.063924 0.000000 0.160778
O O8 0.075156 0.761486 0.000000
O O9 0.169914 0.242033 0.500000
O O10 0.224155 0.247370 0.741308
O O11 0.169230 0.000000 0.660396
O O12 0.273050 0.500000 0.835414
O O13 0.261306 0.262918 0.000000
O O14 0.500000 0.500000 0.339989
O O15 0.500000 0.257522 0.500000
#
# Coordination Sequence:
#
# PCOD9384827 Si02
#       5
#     8   8   8   8   4
#     4  10  21  38  61  86 109 137 177 223 268 313
#     4   8  14  26  46  72 101 134 173 217 263 310
#     4  10  20  32  49  76 108 141 175 213 262 318
#     4  10  21  37  57  79 103 136 178 221 266 315
#     4  11  24  39  56  82 116 151 182 213 256 310
#
# _framework density 18.470253
#
# number of rings (size 3 to 8) (size 9 to 14) (size 15 to 20)
#    0.000    2.333    0.000    3.333    0.000    7.556 
#    0.000    2.222    0.000    0.667    0.000    4.667 
#    0.000    0.000    0.000    0.000    0.000    0.000 
#
# Total GULP energy -200985.668774 kJ/mol
# GULP energy per Si atom -5582.935244 kJ/mol
# Density = 1.842821 g / cm^3
# Si number density = 18.470253 Si / 1000 Ang^3
#
#
#
# Elastic Constant Matrix: (Units=GPa)
#
#
# Indices 1 2 3 4 5 6 
#
# 1 199.2127 31.8752 150.1388 0.0000 0.0000 0.0000
# 2 31.8752 21.2155 32.3610 0.0000 0.0000 0.0000
# 3 150.1388 32.3610 155.2444 0.0000 0.0000 0.0000
# 4 0.0000 0.0000 0.0000 21.9853 0.0000 0.0000
# 5 0.0000 0.0000 0.0000 0.0000 -33.2992 0.0000
# 6 0.0000 0.0000 0.0000 0.0000 0.0000 -134.7550
#
#
#
# Elastic Compliance Matrix: (Units=1/GPa)
#
#
# Indices 1 2 3 4 5 6 
#
# 1 0.018522 -0.000740 -0.017759 0.000000 0.000000 0.000000
# 2 -0.000740 0.069139 -0.013696 0.000000 0.000000 0.000000
# 3 -0.017759 -0.013696 0.026471 0.000000 0.000000 0.000000
# 4 0.000000 0.000000 0.000000 0.045485 0.000000 0.000000
# 5 0.000000 0.000000 0.000000 0.000000 -0.030031 0.000000
# 6 0.000000 0.000000 0.000000 0.000000 0.000000 -0.007421
#
#
# Mechanical properties :
#
#
# Convention : Reuss Voigt Hill
#
# Bulk Modulus (GPa) = 20.10376 89.38028 54.74202
# Shear Modulus (GPa) = 24.61382 -18.46059 3.07661
#
# Velocity S-wave (km/s) = 3.65447 -3.16488 1.29203
# Velocity P-wave (km/s) = 5.35862 5.92800 5.65049
#
# Compressibility (1/GPa) = 0.04974194
#
# Stress axis : x y z
#
# Youngs Moduli (GPa) = 53.98853 14.46358 37.77666
#
# Poissons Ratio (x) = 0.01071 0.67087
# Poissons Ratio (y) = 0.03997 0.51740
# Poissons Ratio (z) = 0.95878 0.19810
#
# Static dielectric constant tensor:
#      x y z
#    x 1.605480 0.000000 0.000000 
#    y 0.000000 1.629860 0.000000 
#    z 0.000000 0.000000 1.625440 
# 
# From -- ./inp_files/1435.got.cif
#   From: 2010.05.17/outbox.cif.g08.bks.cpg/sg47_1_cif.got.tgz:1435.got - 2010.06.03 20:15:42.
