data_PCOD9384609
_publ_section_title
;
Structure prediction by ZEFSAII (Michael W. Deem and Ramdas Pophale) SiO2 
 PCOD9384609
Probable space group: P M M M
;
_chemical_formula_sum "Si O2"
_cell_formula_units_Z 52
_cell_length_a 15.097649
_cell_length_b 9.244869
_cell_length_c 23.154062
_cell_angle_alpha 90.000000
_cell_angle_beta 90.000000
_cell_angle_gamma 90.000000
_cell_volume 3231.746431
_symmetry_space_group_name_H-M "P M M M"
_symmetry_group_IT_number 47
_symmetry_cell_setting 'orthorhombic'
loop_
_space_group_symop_operation_xyz
x,y,z
-x,-y,z
x,-y,-z
-x,y,-z
-x,-y,-z
x,y,-z
-x,y,z
x,-y,z
loop_
_atom_site_type_symbol
_atom_site_label
_atom_site_fract_x
_atom_site_fract_y
_atom_site_fract_z
Si Si1 0.297043 0.170302 0.719724
Si Si2 0.901008 0.170346 0.247807
Si Si3 0.500000 0.175168 0.067609
Si Si4 0.329962 0.826425 0.854427
Si Si5 0.605932 0.329401 0.616655
Si Si6 0.607686 0.833527 0.500000
Si Si7 0.000000 0.838874 0.932517
Si Si8 0.147632 0.672053 0.868801
O O1 0.190506 0.195939 0.717802
O O2 0.333185 0.199779 0.784917
O O3 0.346037 0.264331 0.672205
O O4 0.312268 0.000000 0.708603
O O5 0.890820 0.271977 0.192341
O O6 0.000000 0.191771 0.273411
O O7 0.895958 0.000000 0.230499
O O8 0.414305 0.214290 0.106451
O O9 0.500000 0.000000 0.064758
O O10 0.500000 0.225519 0.000000
O O11 0.245402 0.736688 0.874692
O O12 0.315400 0.000000 0.860684
O O13 0.500000 0.307975 0.622736
O O14 0.622166 0.500000 0.611209
O O15 0.635236 0.248078 0.558270
O O16 0.500000 0.832143 0.500000
O O17 0.636647 0.000000 0.500000
O O18 0.084928 0.748166 0.914502
O O19 0.000000 0.000000 0.905156
O O20 0.000000 0.855466 0.000000
O O21 0.146338 0.500000 0.872030
#
# Coordination Sequence:
#
# PCOD9384609 Si02
#       8
#     8   8   4   8   8   4   4   8
#     4   9  18  30  48  75 102 132 171 212 252 300
#     4   9  17  32  54  74  98 131 166 204 250 304
#     4   9  18  34  57  79  95 122 173 224 257 297
#     4   9  19  35  54  75 100 132 171 215 259 305
#     4  10  20  32  47  71 106 143 175 210 253 301
#     4   9  17  31  51  73  98 135 178 215 249 294
#     4  11  23  37  53  71  93 125 163 200 243 302
#     4  11  21  33  51  75 101 126 154 198 254 311
#
# _framework density 16.090371999999999
#
# number of rings (size 3 to 8) (size 9 to 14) (size 15 to 20)
#    0.000    2.385    0.769    3.231    1.077    5.538 
#    0.000    1.923    0.000    0.462    0.000    0.538 
#    0.000    4.308    0.000    0.000    0.000    0.000 
#
# Total GULP energy -289688.169958 kJ/mol
# GULP energy per Si atom -5570.926345 kJ/mol
# Density = 1.605375 g / cm^3
# Si number density = 16.090372 Si / 1000 Ang^3
#
#
#
# Elastic Constant Matrix: (Units=GPa)
#
#
# Indices 1 2 3 4 5 6 
#
# 1 105.8386 67.5632 67.9092 0.0000 0.0000 0.0000
# 2 67.5632 99.3642 69.8159 0.0000 0.0000 0.0000
# 3 67.9092 69.8159 103.7497 0.0000 0.0000 0.0000
# 4 0.0000 0.0000 0.0000 -613.3885 0.0000 0.0000
# 5 0.0000 0.0000 0.0000 0.0000 33.4460 0.0000
# 6 0.0000 0.0000 0.0000 0.0000 0.0000 13.6245
#
#
#
# Elastic Compliance Matrix: (Units=1/GPa)
#
#
# Indices 1 2 3 4 5 6 
#
# 1 0.019134 -0.007987 -0.007150 0.000000 0.000000 0.000000
# 2 -0.007987 0.022424 -0.009862 0.000000 0.000000 0.000000
# 3 -0.007150 -0.009862 0.020955 0.000000 0.000000 0.000000
# 4 0.000000 0.000000 0.000000 -0.001630 0.000000 0.000000
# 5 0.000000 0.000000 0.000000 0.000000 0.029899 0.000000
# 6 0.000000 0.000000 0.000000 0.000000 0.000000 0.073397
#
#
# Mechanical properties :
#
#
# Convention : Reuss Voigt Hill
#
# Bulk Modulus (GPa) = 79.89763 79.94768 79.92266
# Shear Modulus (GPa) = 22.89926 -106.35264 -41.72669
#
# Velocity S-wave (km/s) = 3.77658 -8.13883 -5.09794
# Velocity P-wave (km/s) = 8.29338 6.20695 3.88934
#
# Compressibility (1/GPa) = 0.01251602
#
# Stress axis : x y z
#
# Youngs Moduli (GPa) = 52.26196 44.59533 47.72186
#
# Poissons Ratio (x) = 0.35618 0.34120
# Poissons Ratio (y) = 0.41741 0.47062
# Poissons Ratio (z) = 0.37366 0.43979
#
# Static dielectric constant tensor:
#      x y z
#    x 1.562560 0.000000 0.000000 
#    y 0.000000 1.531410 0.000000 
#    z 0.000000 0.000000 1.526190 
# 
# From -- ./inp_files/30939.got.cif
#   From: 2010.05.17/outbox.cif.g08.bks.cpg/sg47_16_cif.got.tgz:30939.got - 2010.06.03 20:15:42.
