data_PCOD9384166
_publ_section_title
;
Structure prediction by ZEFSAII (Michael W. Deem and Ramdas Pophale) SiO2 
 PCOD9384166
Probable space group: P M M M
;
_chemical_formula_sum "Si O2"
_cell_formula_units_Z 40
_cell_length_a 13.042150
_cell_length_b 24.962858
_cell_length_c 8.356192
_cell_angle_alpha 90.000000
_cell_angle_beta 90.000000
_cell_angle_gamma 90.000000
_cell_volume 2720.519902
_symmetry_space_group_name_H-M "P M M M"
_symmetry_group_IT_number 47
_symmetry_cell_setting 'orthorhombic'
loop_
_space_group_symop_operation_xyz
x,y,z
-x,-y,z
x,-y,-z
-x,y,-z
-x,-y,-z
x,y,-z
-x,y,z
x,-y,z
loop_
_atom_site_type_symbol
_atom_site_label
_atom_site_fract_x
_atom_site_fract_y
_atom_site_fract_z
Si Si1 0.000000 0.937092 0.809145
Si Si2 0.780815 0.061841 0.691177
Si Si3 0.624789 0.562200 0.500000
Si Si4 0.381813 0.147083 0.808749
Si Si5 0.375637 0.737186 0.316070
Si Si6 0.624923 0.624932 0.821359
O O1 0.107788 0.916082 0.743627
O O2 0.000000 0.000000 0.761498
O O3 0.000000 0.933351 0.000000
O O4 0.776826 0.061032 0.500000
O O5 0.690800 0.099026 0.755762
O O6 0.771142 0.000000 0.749423
O O7 0.654334 0.500000 0.500000
O O8 0.500000 0.564800 0.500000
O O9 0.657894 0.591035 0.665309
O O10 0.500000 0.138885 0.754427
O O11 0.343607 0.204073 0.740901
O O12 0.382577 0.150699 0.000000
O O13 0.345784 0.727904 0.500000
O O14 0.500000 0.737724 0.310201
O O15 0.343703 0.686632 0.209696
O O16 0.500000 0.623329 0.820969
O O17 0.657475 0.607276 0.000000
#
# Coordination Sequence:
#
# PCOD9384166 Si02
#       6
#     4   8   4   8   8   8
#     4   9  17  31  51  69  83 103 133 169 207 248
#     4  10  20  33  48  65  85 109 138 172 212 259
#     4   9  16  24  32  46  68  92 123 164 207 246
#     4  10  20  31  43  62  86 111 140 175 216 260
#     4   9  15  25  40  55  73  98 130 167 206 248
#     4   9  15  23  35  49  66  92 126 163 204 247
#
# _framework density 14.703071
#
# number of rings (size 3 to 8) (size 9 to 14) (size 15 to 20)
#    0.000    2.600    1.000    2.100    0.000    6.800 
#    0.000    4.000    0.000    0.000    0.000    0.000 
#    0.000    0.000    0.000    0.000    0.000    0.000 
#
# Total GULP energy -222695.577472 kJ/mol
# GULP energy per Si atom -5567.389437 kJ/mol
# Density = 1.466961 g / cm^3
# Si number density = 14.703071 Si / 1000 Ang^3
#
#
#
# Elastic Constant Matrix: (Units=GPa)
#
#
# Indices 1 2 3 4 5 6 
#
# 1 36.4418 26.4439 19.5505 0.0000 0.0000 0.0000
# 2 26.4439 84.8740 40.1925 0.0000 0.0000 0.0000
# 3 19.5505 40.1925 79.6402 0.0000 0.0000 0.0000
# 4 0.0000 0.0000 0.0000 15.8362 0.0000 0.0000
# 5 0.0000 0.0000 0.0000 0.0000 15.1644 0.0000
# 6 0.0000 0.0000 0.0000 0.0000 0.0000 -0.6909
#
#
#
# Elastic Compliance Matrix: (Units=1/GPa)
#
#
# Indices 1 2 3 4 5 6 
#
# 1 0.036513 -0.009371 -0.004234 0.000000 0.000000 0.000000
# 2 -0.009371 0.017887 -0.006727 0.000000 0.000000 0.000000
# 3 -0.004234 -0.006727 0.016991 0.000000 0.000000 0.000000
# 4 0.000000 0.000000 0.000000 0.063146 0.000000 0.000000
# 5 0.000000 0.000000 0.000000 0.000000 0.065944 0.000000
# 6 0.000000 0.000000 0.000000 0.000000 0.000000 -1.447420
#
#
# Mechanical properties :
#
#
# Convention : Reuss Voigt Hill
#
# Bulk Modulus (GPa) = 32.54480 41.48111 37.01296
# Shear Modulus (GPa) = -4.18049 13.71322 4.76636
#
# Velocity S-wave (km/s) = -1.68803 3.05729 1.80244
# Velocity P-wave (km/s) = 4.28760 6.38251 5.43691
#
# Compressibility (1/GPa) = 0.03072688
#
# Stress axis : x y z
#
# Youngs Moduli (GPa) = 27.38785 55.90513 58.85552
#
# Poissons Ratio (x) = 0.52389 0.24919
# Poissons Ratio (y) = 0.25665 0.39592
# Poissons Ratio (z) = 0.11596 0.37607
#
# Static dielectric constant tensor:
#      x y z
#    x 1.454090 0.000000 0.000000 
#    y 0.000000 1.494930 0.000000 
#    z 0.000000 0.000000 1.512020 
# 
# From -- ./inp_files/4140.got.cif
#   From: 2010.05.17/outbox.cif.g08.bks.cpg/sg47_3_cif.got.tgz:4140.got - 2010.06.03 20:15:42.
