data_PCOD9384862
_publ_section_title
;
Structure prediction by ZEFSAII (Michael W. Deem and Ramdas Pophale) SiO2 
 PCOD9384862
Probable space group: P M M M
;
_chemical_formula_sum "Si O2"
_cell_formula_units_Z 64
_cell_length_a 24.832972
_cell_length_b 15.286575
_cell_length_c 8.364214
_cell_angle_alpha 90.000000
_cell_angle_beta 90.000000
_cell_angle_gamma 90.000000
_cell_volume 3175.148385
_symmetry_space_group_name_H-M "P M M M"
_symmetry_group_IT_number 47
_symmetry_cell_setting 'orthorhombic'
loop_
_space_group_symop_operation_xyz
x,y,z
-x,-y,z
x,-y,-z
-x,y,-z
-x,-y,-z
x,y,-z
-x,y,z
x,-y,z
loop_
_atom_site_type_symbol
_atom_site_label
_atom_site_fract_x
_atom_site_fract_y
_atom_site_fract_z
Si Si1 0.890671 0.098216 0.194862
Si Si2 0.843614 0.601247 0.309344
Si Si3 0.767058 0.100229 0.807384
Si Si4 0.275150 0.599481 0.809880
Si Si5 0.564495 0.595727 0.818291
Si Si6 0.940253 0.277633 0.193501
Si Si7 0.440216 0.781854 0.685942
Si Si8 0.326215 0.773591 0.690920
O O1 0.828818 0.117515 0.242874
O O2 0.928040 0.177980 0.245393
O O3 0.905065 0.000000 0.248453
O O4 0.891361 0.096421 0.000000
O O5 0.838187 0.606390 0.500000
O O6 0.854070 0.500000 0.264403
O O7 0.786058 0.625677 0.234310
O O8 0.892455 0.661261 0.253773
O O9 0.723934 0.167282 0.741164
O O10 0.754398 0.000000 0.761514
O O11 0.766124 0.105397 0.000000
O O12 0.283582 0.500000 0.747711
O O13 0.314300 0.674715 0.747308
O O14 0.279838 0.596685 0.000000
O O15 0.500000 0.587311 0.831412
O O16 0.585750 0.500000 0.769706
O O17 0.569479 0.677390 0.701792
O O18 0.584189 0.614756 0.000000
O O19 0.000000 0.304921 0.246188
O O20 0.939184 0.279314 0.000000
O O21 0.443127 0.806903 0.500000
O O22 0.500000 0.800628 0.756889
O O23 0.383041 0.813611 0.755009
O O24 0.329850 0.772632 0.500000
#
# Coordination Sequence:
#
# PCOD9384862 Si02
#       8
#     8   8   8   8   8   8   8   8
#     4   8  15  30  52  77 105 136 169 207 254 308
#     4  10  21  37  56  76 101 137 181 229 278 321
#     4   9  18  34  57  82 106 135 174 221 272 325
#     4  10  21  37  57  80 107 140 177 219 270 326
#     4   8  14  25  41  61  85 115 155 202 246 288
#     4  10  20  32  50  79 111 144 183 222 259 307
#     4   9  19  34  48  65  94 133 174 211 250 302
#     4  11  22  34  53  80 108 139 174 217 267 317
#
# _framework density 20.156538000000001
#
# number of rings (size 3 to 8) (size 9 to 14) (size 15 to 20)
#    0.000    2.625    0.000    3.000    0.000    5.250 
#    0.000    6.250    0.000    1.500    0.000    3.500 
#    0.000    0.000    0.000    0.000    0.000    0.000 
#
# Total GULP energy -356796.058091 kJ/mol
# GULP energy per Si atom -5574.938408 kJ/mol
# Density = 2.011066 g / cm^3
# Si number density = 20.156538 Si / 1000 Ang^3
#
#
#
# Elastic Constant Matrix: (Units=GPa)
#
#
# Indices 1 2 3 4 5 6 
#
# 1 123.9277 37.6064 14.5123 0.0000 0.0000 0.0000
# 2 37.6064 38.1522 9.1622 0.0000 0.0000 0.0000
# 3 14.5123 9.1622 15.3235 0.0000 0.0000 0.0000
# 4 0.0000 0.0000 0.0000 1.3872 0.0000 0.0000
# 5 0.0000 0.0000 0.0000 0.0000 19.1975 0.0000
# 6 0.0000 0.0000 0.0000 0.0000 0.0000 0.2228
#
#
#
# Elastic Compliance Matrix: (Units=1/GPa)
#
#
# Indices 1 2 3 4 5 6 
#
# 1 0.011825 -0.010469 -0.004939 0.000000 0.000000 0.000000
# 2 -0.010469 0.039875 -0.013927 0.000000 0.000000 0.000000
# 3 -0.004939 -0.013927 0.078264 0.000000 0.000000 0.000000
# 4 0.000000 0.000000 0.000000 0.720884 0.000000 0.000000
# 5 0.000000 0.000000 0.000000 0.000000 0.052090 0.000000
# 6 0.000000 0.000000 0.000000 0.000000 0.000000 4.489105
#
#
# Mechanical properties :
#
#
# Convention : Reuss Voigt Hill
#
# Bulk Modulus (GPa) = 14.02655 33.32946 23.67801
# Shear Modulus (GPa) = 0.91333 11.90299 6.40816
#
# Velocity S-wave (km/s) = 0.67387 2.43271 1.78496
# Velocity P-wave (km/s) = 2.75307 4.94591 4.00259
#
# Compressibility (1/GPa) = 0.07129336
#
# Stress axis : x y z
#
# Youngs Moduli (GPa) = 84.56996 25.07854 12.77733
#
# Poissons Ratio (x) = 0.26255 0.06311
# Poissons Ratio (y) = 0.88539 0.17794
# Poissons Ratio (z) = 0.41768 0.34926
#
# Static dielectric constant tensor:
#      x y z
#    x 1.754550 0.000000 0.000000 
#    y 0.000000 1.724150 0.000000 
#    z 0.000000 0.000000 1.713360 
# 
# From -- ./inp_files/12660.got.cif
#   From: 2010.05.17/outbox.cif.g08.bks.cpg/sg47_7_cif.got.tgz:12660.got - 2010.06.03 20:15:42.
