data_PCOD9384052
_publ_section_title
;
Structure prediction by ZEFSAII (Michael W. Deem and Ramdas Pophale) SiO2 
 PCOD9384052
Probable space group: P M M M
;
_chemical_formula_sum "Si O2"
_cell_formula_units_Z 56
_cell_length_a 15.730178
_cell_length_b 21.812292
_cell_length_c 8.739495
_cell_angle_alpha 90.000000
_cell_angle_beta 90.000000
_cell_angle_gamma 90.000000
_cell_volume 2998.618929
_symmetry_space_group_name_H-M "P M M M"
_symmetry_group_IT_number 47
_symmetry_cell_setting 'orthorhombic'
loop_
_space_group_symop_operation_xyz
x,y,z
-x,-y,z
x,-y,-z
-x,y,-z
-x,-y,-z
x,y,-z
-x,y,z
x,-y,z
loop_
_atom_site_type_symbol
_atom_site_label
_atom_site_fract_x
_atom_site_fract_y
_atom_site_fract_z
Si Si1 0.667378 0.000000 0.818304
Si Si2 0.596162 0.866414 0.816554
Si Si3 0.253071 0.346063 0.816200
Si Si4 0.401384 0.428900 0.684251
Si Si5 0.751219 0.789980 0.681967
Si Si6 0.146242 0.000000 0.681314
Si Si7 0.903949 0.570357 0.186223
Si Si8 0.903895 0.130066 0.182720
O O1 0.615546 0.061880 0.787710
O O2 0.753838 0.000000 0.722711
O O3 0.689673 0.000000 0.000000
O O4 0.500000 0.851410 0.769717
O O5 0.667313 0.826260 0.735354
O O6 0.603121 0.857297 0.000000
O O7 0.335741 0.383489 0.762873
O O8 0.251610 0.278324 0.748122
O O9 0.169750 0.383997 0.763582
O O10 0.251879 0.342486 0.000000
O O11 0.394023 0.423861 0.500000
O O12 0.500000 0.416287 0.724044
O O13 0.383262 0.500000 0.725278
O O14 0.755097 0.788518 0.500000
O O15 0.832572 0.826561 0.745918
O O16 0.107902 0.938451 0.753157
O O17 0.133652 0.000000 0.500000
O O18 0.887075 0.500000 0.233770
O O19 0.000000 0.586981 0.234489
O O20 0.903653 0.570574 0.000000
O O21 0.000000 0.151152 0.216036
O O22 0.892282 0.128492 0.000000
#
# Coordination Sequence:
#
# PCOD9384052 Si02
#       8
#     4   8   8   8   8   4   8   8
#     4  10  19  35  63  91 121 153 187 237 295 352
#     4  10  21  39  64  91 118 152 195 242 295 355
#     4  11  22  36  58  86 116 153 199 243 288 345
#     4   9  19  37  60  86 118 155 193 238 297 358
#     4  12  26  42  59  83 119 160 200 247 300 352
#     4  12  23  36  61  95 127 156 189 239 299 355
#     4   8  15  30  54  85 117 145 178 226 282 337
#     4  11  24  43  66  89 116 155 201 248 299 354
#
# _framework density 18.675265
#
# number of rings (size 3 to 8) (size 9 to 14) (size 15 to 20)
#    0.000    1.714    1.429    4.500    0.000    5.429 
#    0.000    2.143    0.000    2.571    0.000    5.000 
#    0.000    0.000    0.000    0.000    0.000    0.000 
#
# Total GULP energy -312932.712614 kJ/mol
# GULP energy per Si atom -5588.084154 kJ/mol
# Density = 1.863276 g / cm^3
# Si number density = 18.675265 Si / 1000 Ang^3
#
#
#
# Elastic Constant Matrix: (Units=GPa)
#
#
# Indices 1 2 3 4 5 6 
#
# 1 171.5983 113.1847 75.8673 0.0000 0.0000 0.0000
# 2 113.1847 163.4825 63.5466 0.0000 0.0000 0.0000
# 3 75.8673 63.5466 70.4780 0.0000 0.0000 0.0000
# 4 0.0000 0.0000 0.0000 30.3936 0.0000 0.0000
# 5 0.0000 0.0000 0.0000 0.0000 -70.6620 0.0000
# 6 0.0000 0.0000 0.0000 0.0000 0.0000 -11.8375
#
#
#
# Elastic Compliance Matrix: (Units=1/GPa)
#
#
# Indices 1 2 3 4 5 6 
#
# 1 0.014075 -0.005936 -0.009800 0.000000 0.000000 0.000000
# 2 -0.005936 0.011921 -0.004359 0.000000 0.000000 0.000000
# 3 -0.009800 -0.004359 0.028668 0.000000 0.000000 0.000000
# 4 0.000000 0.000000 0.000000 0.032902 0.000000 0.000000
# 5 0.000000 0.000000 0.000000 0.000000 -0.014152 0.000000
# 6 0.000000 0.000000 0.000000 0.000000 0.000000 -0.084477
#
#
# Mechanical properties :
#
#
# Convention : Reuss Voigt Hill
#
# Bulk Modulus (GPa) = 69.08125 101.19512 85.13819
# Shear Modulus (GPa) = 147.27669 -0.22382 73.52644
#
# Velocity S-wave (km/s) = 8.89006 -0.34657 6.28144
# Velocity P-wave (km/s) = 11.93518 7.35827 9.91445
#
# Compressibility (1/GPa) = 0.01447571
#
# Stress axis : x y z
#
# Youngs Moduli (GPa) = 71.04618 83.88882 34.88209
#
# Poissons Ratio (x) = 0.49793 0.34184
# Poissons Ratio (y) = 0.42170 0.15204
# Poissons Ratio (z) = 0.69624 0.36564
#
# Static dielectric constant tensor:
#      x y z
#    x 1.638760 0.000000 0.000000 
#    y 0.000000 1.614350 0.000000 
#    z 0.000000 0.000000 1.626180 
# 
# From -- ./inp_files/7426.got.cif
#   From: 2010.05.17/outbox.cif.g08.bks.cpg/sg47_4_cif.got.tgz:7426.got - 2010.06.03 20:15:42.
