data_PCOD9384672
_publ_section_title
;
Structure prediction by ZEFSAII (Michael W. Deem and Ramdas Pophale) SiO2 
 PCOD9384672
Probable space group: P M M M
;
_chemical_formula_sum "Si O2"
_cell_formula_units_Z 52
_cell_length_a 8.244480
_cell_length_b 9.671737
_cell_length_c 36.435663
_cell_angle_alpha 90.000000
_cell_angle_beta 90.000000
_cell_angle_gamma 90.000000
_cell_volume 2905.323010
_symmetry_space_group_name_H-M "P M M M"
_symmetry_group_IT_number 47
_symmetry_cell_setting 'orthorhombic'
loop_
_space_group_symop_operation_xyz
x,y,z
-x,-y,z
x,-y,-z
-x,y,-z
-x,-y,-z
x,y,-z
-x,y,z
x,-y,z
loop_
_atom_site_type_symbol
_atom_site_label
_atom_site_fract_x
_atom_site_fract_y
_atom_site_fract_z
Si Si1 0.193406 0.340859 0.742738
Si Si2 0.687312 0.332603 0.336136
Si Si3 0.802111 0.339699 0.959176
Si Si4 0.306111 0.840631 0.810778
Si Si5 0.179582 0.331286 0.586745
Si Si6 0.196033 0.159359 0.890669
Si Si7 0.500000 0.668640 0.542481
O O1 0.250923 0.500000 0.747506
O O2 0.262494 0.284250 0.704247
O O3 0.241737 0.250763 0.777568
O O4 0.000000 0.343752 0.739392
O O5 0.500000 0.299521 0.343449
O O6 0.701950 0.500000 0.334812
O O7 0.792111 0.287401 0.370996
O O8 0.755256 0.500000 0.954798
O O9 0.745338 0.248280 0.925177
O O10 0.000000 0.335931 0.958915
O O11 0.751092 0.292825 0.000000
O O12 0.500000 0.841089 0.809463
O O13 0.251845 0.788756 0.850870
O O14 0.247901 0.000000 0.807433
O O15 0.181726 0.500000 0.586289
O O16 0.334905 0.286558 0.562953
O O17 0.000000 0.288289 0.574005
O O18 0.000000 0.160812 0.890996
O O19 0.250038 0.000000 0.894182
O O20 0.500000 0.500000 0.543670
O O21 0.500000 0.710078 0.500000
#
# Coordination Sequence:
#
# PCOD9384672 Si02
#       7
#     8   8   8   8   8   8   4
#     4  10  20  32  48  72  96 118 152 198 241 283
#     4   9  15  25  41  60  84 112 143 184 234 283
#     4   8  14  25  42  66  94 119 144 180 228 277
#     4  10  21  36  51  67  92 127 162 194 235 288
#     4   9  15  23  35  50  71 103 143 187 237 289
#     4   9  17  29  46  67  89 115 149 188 227 270
#     4   9  16  24  32  46  70 102 145 193 239 289
#
# _framework density 17.898183
#
# number of rings (size 3 to 8) (size 9 to 14) (size 15 to 20)
#    0.000    2.846    0.769    1.846    0.000    4.923 
#    0.000    4.615    0.000    0.462    0.000    3.231 
#    0.000    0.000    0.000    0.000    0.000    1.538 
#
# Total GULP energy -289725.949870 kJ/mol
# GULP energy per Si atom -5571.652882 kJ/mol
# Density = 1.785745 g / cm^3
# Si number density = 17.898183 Si / 1000 Ang^3
#
#
#
# Elastic Constant Matrix: (Units=GPa)
#
#
# Indices 1 2 3 4 5 6 
#
# 1 64.8372 12.5805 51.9102 0.0000 0.0000 0.0000
# 2 12.5805 19.6404 37.8045 0.0000 0.0000 0.0000
# 3 51.9102 37.8045 155.7601 0.0000 0.0000 0.0000
# 4 0.0000 0.0000 0.0000 -12.8338 0.0000 0.0000
# 5 0.0000 0.0000 0.0000 0.0000 0.5654 0.0000
# 6 0.0000 0.0000 0.0000 0.0000 0.0000 9.6094
#
#
#
# Elastic Compliance Matrix: (Units=1/GPa)
#
#
# Indices 1 2 3 4 5 6 
#
# 1 0.021036 0.000037 -0.007020 0.000000 0.000000 0.000000
# 2 0.000037 0.095557 -0.023205 0.000000 0.000000 0.000000
# 3 -0.007020 -0.023205 0.014392 0.000000 0.000000 0.000000
# 4 0.000000 0.000000 0.000000 -0.077919 0.000000 0.000000
# 5 0.000000 0.000000 0.000000 0.000000 1.768764 0.000000
# 6 0.000000 0.000000 0.000000 0.000000 0.000000 0.104065
#
#
# Mechanical properties :
#
#
# Convention : Reuss Voigt Hill
#
# Bulk Modulus (GPa) = 14.16226 49.42534 31.79380
# Shear Modulus (GPa) = 2.48780 8.66436 5.57608
#
# Velocity S-wave (km/s) = 1.18025 2.20260 1.76698
# Velocity P-wave (km/s) = 3.12845 5.84322 4.68671
#
# Compressibility (1/GPa) = 0.07061019
#
# Stress axis : x y z
#
# Youngs Moduli (GPa) = 47.53712 10.46492 69.48431
#
# Poissons Ratio (x) = -0.00039 0.48777
# Poissons Ratio (y) = -0.00178 1.61240
# Poissons Ratio (z) = 0.33370 0.24284
#
# Static dielectric constant tensor:
#      x y z
#    x 1.630420 0.000000 0.000000 
#    y 0.000000 1.596840 0.000000 
#    z 0.000000 0.000000 1.612150 
# 
# From -- ./inp_files/34296.got.cif
#   From: 2010.05.17/outbox.cif.g08.bks.cpg/sg47_18_cif.got.tgz:34296.got - 2010.06.03 20:15:42.
