data_PCOD9384274
_publ_section_title
;
Structure prediction by ZEFSAII (Michael W. Deem and Ramdas Pophale) SiO2 
 PCOD9384274
Probable space group: P M M M
;
_chemical_formula_sum "Si O2"
_cell_formula_units_Z 64
_cell_length_a 15.856449
_cell_length_b 9.541615
_cell_length_c 23.759931
_cell_angle_alpha 90.000000
_cell_angle_beta 90.000000
_cell_angle_gamma 90.000000
_cell_volume 3594.785648
_symmetry_space_group_name_H-M "P M M M"
_symmetry_group_IT_number 47
_symmetry_cell_setting 'orthorhombic'
loop_
_space_group_symop_operation_xyz
x,y,z
-x,-y,z
x,-y,-z
-x,y,-z
-x,-y,-z
x,y,-z
-x,y,z
x,-y,z
loop_
_atom_site_type_symbol
_atom_site_label
_atom_site_fract_x
_atom_site_fract_y
_atom_site_fract_z
Si Si1 0.096697 0.329237 0.395240
Si Si2 0.747479 0.167220 0.936520
Si Si3 0.594372 0.664576 0.887314
Si Si4 0.401416 0.831906 0.648531
Si Si5 0.900047 0.345297 0.271090
Si Si6 0.632642 0.160669 0.779159
Si Si7 0.278647 0.668158 0.436002
Si Si8 0.824701 0.841498 0.178050
O O1 0.092438 0.500000 0.393945
O O2 0.121164 0.281523 0.331932
O O3 0.178887 0.292699 0.431384
O O4 0.000000 0.283543 0.409710
O O5 0.662670 0.252457 0.923824
O O6 0.811647 0.204429 0.886413
O O7 0.730701 0.000000 0.929978
O O8 0.776935 0.192115 0.000000
O O9 0.500000 0.678580 0.910526
O O10 0.615366 0.500000 0.883804
O O11 0.595734 0.734290 0.825320
O O12 0.500000 0.799883 0.636300
O O13 0.384377 0.800055 0.714617
O O14 0.337043 0.749209 0.608442
O O15 0.389632 0.000000 0.641934
O O16 0.860508 0.500000 0.267127
O O17 0.878445 0.257252 0.216995
O O18 0.000000 0.359791 0.274127
O O19 0.731978 0.158927 0.793515
O O20 0.602036 0.000000 0.787493
O O21 0.306764 0.695642 0.500000
O O22 0.283698 0.500000 0.425818
O O23 0.857294 0.000000 0.178550
#
# Coordination Sequence:
#
# PCOD9384274 Si02
#       8
#     8   8   8   8   8   8   8   8
#     4   8  15  30  52  77 104 132 162 198 243 300
#     4   9  19  35  51  66  88 124 169 208 240 280
#     4  10  20  31  45  70 101 127 153 192 243 295
#     4  10  21  36  54  74  97 132 176 217 257 301
#     4   9  17  29  47  72 100 128 155 184 228 291
#     4   9  18  33  52  73  96 123 160 204 248 297
#     4  10  21  35  52  76 103 132 169 212 256 301
#     4   9  17  29  48  73  96 119 151 196 246 289
#
# _framework density 17.803564999999999
#
# number of rings (size 3 to 8) (size 9 to 14) (size 15 to 20)
#    0.000    2.750    0.000    3.000    0.000    5.750 
#    0.000    3.750    0.000    1.500    0.000    3.500 
#    0.000    0.000    0.000    0.000    0.000    0.000 
#
# Total GULP energy -356447.932556 kJ/mol
# GULP energy per Si atom -5569.498946 kJ/mol
# Density = 1.776304 g / cm^3
# Si number density = 17.803565 Si / 1000 Ang^3
#
#
#
# Elastic Constant Matrix: (Units=GPa)
#
#
# Indices 1 2 3 4 5 6 
#
# 1 31.8422 7.4114 34.0715 0.0000 0.0000 0.0000
# 2 7.4114 20.2996 19.7004 0.0000 0.0000 0.0000
# 3 34.0715 19.7004 89.3798 0.0000 0.0000 0.0000
# 4 0.0000 0.0000 0.0000 63.6373 0.0000 0.0000
# 5 0.0000 0.0000 0.0000 0.0000 6.5596 0.0000
# 6 0.0000 0.0000 0.0000 0.0000 0.0000 55.2125
#
#
#
# Elastic Compliance Matrix: (Units=1/GPa)
#
#
# Indices 1 2 3 4 5 6 
#
# 1 0.053040 0.000327 -0.020291 0.000000 0.000000 0.000000
# 2 0.000327 0.062669 -0.013938 0.000000 0.000000 0.000000
# 3 -0.020291 -0.013938 0.021995 0.000000 0.000000 0.000000
# 4 0.000000 0.000000 0.000000 0.015714 0.000000 0.000000
# 5 0.000000 0.000000 0.000000 0.000000 0.152449 0.000000
# 6 0.000000 0.000000 0.000000 0.000000 0.000000 0.018112
#
#
# Mechanical properties :
#
#
# Convention : Reuss Voigt Hill
#
# Bulk Modulus (GPa) = 14.30593 29.32089 21.81341
# Shear Modulus (GPa) = 12.04579 30.43776 21.24177
#
# Velocity S-wave (km/s) = 2.60396 4.13927 3.45790
# Velocity P-wave (km/s) = 4.13446 6.27293 5.31241
#
# Compressibility (1/GPa) = 0.06990107
#
# Stress axis : x y z
#
# Youngs Moduli (GPa) = 18.85362 15.95691 45.46465
#
# Poissons Ratio (x) = -0.00522 0.92252
# Poissons Ratio (y) = -0.00617 0.63367
# Poissons Ratio (z) = 0.38256 0.22240
#
# Static dielectric constant tensor:
#      x y z
#    x 1.626520 0.000000 0.000000 
#    y 0.000000 1.606660 0.000000 
#    z 0.000000 0.000000 1.616770 
# 
# From -- ./inp_files/25577.got.cif
#   From: 2010.05.17/outbox.cif.g08.bks.cpg/sg47_13_cif.got.tgz:25577.got - 2010.06.03 20:15:42.
