data_PCOD9384150
_publ_section_title
;
Structure prediction by ZEFSAII (Michael W. Deem and Ramdas Pophale) SiO2 
 PCOD9384150
Probable space group: P M M M
;
_chemical_formula_sum "Si O2"
_cell_formula_units_Z 52
_cell_length_a 27.555868
_cell_length_b 14.111886
_cell_length_c 9.075364
_cell_angle_alpha 90.000000
_cell_angle_beta 90.000000
_cell_angle_gamma 90.000000
_cell_volume 3529.093853
_symmetry_space_group_name_H-M "P M M M"
_symmetry_group_IT_number 47
_symmetry_cell_setting 'orthorhombic'
loop_
_space_group_symop_operation_xyz
x,y,z
-x,-y,z
x,-y,-z
-x,y,-z
-x,-y,-z
x,y,-z
-x,y,z
x,-y,z
loop_
_atom_site_type_symbol
_atom_site_label
_atom_site_fract_x
_atom_site_fract_y
_atom_site_fract_z
Si Si1 0.607916 0.390674 0.676281
Si Si2 0.350119 0.894199 0.178631
Si Si3 0.098374 0.615329 0.669829
Si Si4 0.700442 0.297267 0.178362
Si Si5 0.197949 0.388629 0.176558
Si Si6 0.000000 0.615526 0.169928
Si Si7 0.445037 0.219142 0.822631
O O1 0.609720 0.378887 0.500000
O O2 0.596502 0.500000 0.709202
O O3 0.659777 0.362676 0.746565
O O4 0.569889 0.317350 0.746168
O O5 0.313013 0.810657 0.220806
O O6 0.403841 0.856961 0.219833
O O7 0.340359 0.000000 0.234175
O O8 0.349072 0.897928 0.000000
O O9 0.097754 0.644046 0.500000
O O10 0.097987 0.500000 0.674810
O O11 0.148298 0.644305 0.747815
O O12 0.049341 0.647019 0.750732
O O13 0.754267 0.330317 0.219020
O O14 0.695685 0.305603 0.000000
O O15 0.205690 0.500000 0.212906
O O16 0.192142 0.382660 0.000000
O O17 0.000000 0.500000 0.174239
O O18 0.000000 0.643907 0.000000
O O19 0.500000 0.191469 0.786204
O O20 0.441779 0.231103 0.000000
#
# Coordination Sequence:
#
# PCOD9384150 Si02
#       7
#     8   8   8   8   8   4   8
#     4  10  20  31  43  60  82 108 135 163 198 238
#     4   8  14  26  45  67  86 102 125 161 203 243
#     4   9  16  24  34  50  73 102 137 174 207 237
#     4   9  17  29  45  63  82 106 136 168 201 240
#     4   9  16  25  37  54  77 105 136 168 200 233
#     4   9  15  23  35  49  69 101 140 177 208 237
#     4   9  18  31  46  64  83 104 132 163 195 235
#
# _framework density 14.734660999999999
#
# number of rings (size 3 to 8) (size 9 to 14) (size 15 to 20)
#    0.000    3.000    0.000    2.538    0.000    6.154 
#    0.000    4.615    0.000    7.385    0.000    4.308 
#    0.000    0.000    0.000    0.692    0.000   16.385 
#
# Total GULP energy -289566.785170 kJ/mol
# GULP energy per Si atom -5568.592023 kJ/mol
# Density = 1.470112 g / cm^3
# Si number density = 14.734661 Si / 1000 Ang^3
#
#
#
# Elastic Constant Matrix: (Units=GPa)
#
#
# Indices 1 2 3 4 5 6 
#
# 1 127.0938 32.1539 36.1526 0.0000 0.0000 0.0000
# 2 32.1539 62.0479 16.3702 0.0000 0.0000 0.0000
# 3 36.1526 16.3702 29.3268 0.0000 0.0000 0.0000
# 4 0.0000 0.0000 0.0000 5.3763 0.0000 0.0000
# 5 0.0000 0.0000 0.0000 0.0000 7.8955 0.0000
# 6 0.0000 0.0000 0.0000 0.0000 0.0000 9.9276
#
#
#
# Elastic Compliance Matrix: (Units=1/GPa)
#
#
# Indices 1 2 3 4 5 6 
#
# 1 0.012529 -0.002835 -0.013862 0.000000 0.000000 0.000000
# 2 -0.002835 0.019542 -0.007413 0.000000 0.000000 0.000000
# 3 -0.013862 -0.007413 0.055325 0.000000 0.000000 0.000000
# 4 0.000000 0.000000 0.000000 0.186000 0.000000 0.000000
# 5 0.000000 0.000000 0.000000 0.000000 0.126655 0.000000
# 6 0.000000 0.000000 0.000000 0.000000 0.000000 0.100730
#
#
# Mechanical properties :
#
#
# Convention : Reuss Voigt Hill
#
# Bulk Modulus (GPa) = 25.52672 43.09131 34.30901
# Shear Modulus (GPa) = 8.89587 13.55933 11.22760
#
# Velocity S-wave (km/s) = 2.45977 3.03683 2.76340
# Velocity P-wave (km/s) = 5.04274 6.45018 5.78938
#
# Compressibility (1/GPa) = 0.03917463
#
# Stress axis : x y z
#
# Youngs Moduli (GPa) = 79.81707 51.17288 18.07504
#
# Poissons Ratio (x) = 0.14509 0.25056
# Poissons Ratio (y) = 0.22630 0.13399
# Poissons Ratio (z) = 1.10643 0.37934
#
# Static dielectric constant tensor:
#      x y z
#    x 1.484780 0.000000 0.000000 
#    y 0.000000 1.471470 0.000000 
#    z 0.000000 0.000000 1.487690 
# 
# From -- ./inp_files/13393.got.cif
#   From: 2010.05.17/outbox.cif.g08.bks.cpg/sg47_7_cif.got.tgz:13393.got - 2010.06.03 20:15:42.
