data_PCOD9384807
_publ_section_title
;
Structure prediction by ZEFSAII (Michael W. Deem and Ramdas Pophale) SiO2 
 PCOD9384807
Probable space group: P M M M
;
_chemical_formula_sum "Si O2"
_cell_formula_units_Z 44
_cell_length_a 29.369111
_cell_length_b 7.540078
_cell_length_c 9.483167
_cell_angle_alpha 90.000000
_cell_angle_beta 90.000000
_cell_angle_gamma 90.000000
_cell_volume 2100.003593
_symmetry_space_group_name_H-M "P M M M"
_symmetry_group_IT_number 47
_symmetry_cell_setting 'orthorhombic'
loop_
_space_group_symop_operation_xyz
x,y,z
-x,-y,z
x,-y,-z
-x,y,-z
-x,-y,-z
x,y,-z
-x,y,z
x,-y,z
loop_
_atom_site_type_symbol
_atom_site_label
_atom_site_fract_x
_atom_site_fract_y
_atom_site_fract_z
Si Si1 0.273090 0.712483 0.659820
Si Si2 0.551304 0.216365 0.337512
Si Si3 0.362817 0.213289 0.159735
Si Si4 0.098946 0.786005 0.338745
Si Si5 0.811995 0.711812 0.840547
Si Si6 0.000000 0.795197 0.671683
O O1 0.275290 0.781889 0.500000
O O2 0.267969 0.500000 0.650284
O O3 0.319049 0.746552 0.745685
O O4 0.229602 0.782296 0.746144
O O5 0.559816 0.269083 0.500000
O O6 0.500000 0.271592 0.298310
O O7 0.591280 0.278682 0.235637
O O8 0.551590 0.000000 0.335762
O O9 0.366378 0.000000 0.152719
O O10 0.357719 0.280035 0.000000
O O11 0.107585 0.724791 0.500000
O O12 0.140339 0.741791 0.237448
O O13 0.049215 0.717959 0.289487
O O14 0.095421 0.000000 0.344680
O O15 0.805723 0.500000 0.849893
O O16 0.811657 0.782455 0.000000
O O17 0.000000 0.796793 0.500000
O O18 0.000000 0.000000 0.720450
#
# Coordination Sequence:
#
# PCOD9384807 Si02
#       6
#     8   8   8   8   8   4
#     4  10  21  37  56  74  93 125 168 208 248 295
#     4   8  14  26  45  69  98 132 167 202 241 284
#     4  10  20  32  49  76 106 133 162 199 244 293
#     4   9  17  31  53  78 101 128 164 204 244 286
#     4  10  21  36  52  71  98 131 164 200 245 295
#     4   7  12  26  48  73 100 128 160 199 240 283
#
# _framework density 20.952345000000001
#
# number of rings (size 3 to 8) (size 9 to 14) (size 15 to 20)
#    0.000    2.818    0.000    3.273    0.000    4.727 
#    0.000    2.727    0.000    4.909    0.000    3.818 
#    0.000    0.000    0.000    0.000    0.000    0.000 
#
# Total GULP energy -245559.480376 kJ/mol
# GULP energy per Si atom -5580.897281 kJ/mol
# Density = 2.090466 g / cm^3
# Si number density = 20.952345 Si / 1000 Ang^3
#
#
#
# Elastic Constant Matrix: (Units=GPa)
#
#
# Indices 1 2 3 4 5 6 
#
# 1 222.3678 0.3589 143.6580 0.0000 0.0000 0.0000
# 2 0.3589 52.2991 8.1287 0.0000 0.0000 0.0000
# 3 143.6580 8.1287 189.8315 0.0000 0.0000 0.0000
# 4 0.0000 0.0000 0.0000 14.3055 0.0000 0.0000
# 5 0.0000 0.0000 0.0000 0.0000 -201.4167 0.0000
# 6 0.0000 0.0000 0.0000 0.0000 0.0000 32.0607
#
#
#
# Elastic Compliance Matrix: (Units=1/GPa)
#
#
# Indices 1 2 3 4 5 6 
#
# 1 0.008849 0.000987 -0.006739 0.000000 0.000000 0.000000
# 2 0.000987 0.019359 -0.001576 0.000000 0.000000 0.000000
# 3 -0.006739 -0.001576 0.010435 0.000000 0.000000 0.000000
# 4 0.000000 0.000000 0.000000 0.069903 0.000000 0.000000
# 5 0.000000 0.000000 0.000000 0.000000 -0.004965 0.000000
# 6 0.000000 0.000000 0.000000 0.000000 0.000000 0.031191
#
#
# Mechanical properties :
#
#
# Convention : Reuss Voigt Hill
#
# Bulk Modulus (GPa) = 41.68876 85.42107 63.55491
# Shear Modulus (GPa) = 31.76145 -10.18658 10.78744
#
# Velocity S-wave (km/s) = 3.89767 -2.20734 2.27150
# Velocity P-wave (km/s) = 6.34002 5.86185 6.10562
#
# Compressibility (1/GPa) = 0.02398728
#
# Stress axis : x y z
#
# Youngs Moduli (GPa) = 113.00641 51.65581 95.83059
#
# Poissons Ratio (x) = -0.05097 0.64579
# Poissons Ratio (y) = -0.11150 0.15099
# Poissons Ratio (z) = 0.76154 0.08139
#
# Static dielectric constant tensor:
#      x y z
#    x 1.735390 0.000000 0.000000 
#    y 0.000000 1.812530 0.000000 
#    z 0.000000 0.000000 1.725370 
# 
# From -- ./inp_files/13590.got.cif
#   From: 2010.05.17/outbox.cif.g08.bks.cpg/sg47_7_cif.got.tgz:13590.got - 2010.06.03 20:15:42.
