data_PCOD9384901
_publ_section_title
;
Structure prediction by ZEFSAII (Michael W. Deem and Ramdas Pophale) SiO2 
 PCOD9384901
Probable space group: P M M M
;
_chemical_formula_sum "Si O2"
_cell_formula_units_Z 52
_cell_length_a 14.170277
_cell_length_b 9.130980
_cell_length_c 29.318214
_cell_angle_alpha 90.000000
_cell_angle_beta 90.000000
_cell_angle_gamma 90.000000
_cell_volume 3793.440198
_symmetry_space_group_name_H-M "P M M M"
_symmetry_group_IT_number 47
_symmetry_cell_setting 'orthorhombic'
loop_
_space_group_symop_operation_xyz
x,y,z
-x,-y,z
x,-y,-z
-x,y,-z
-x,-y,-z
x,y,-z
-x,y,z
x,-y,z
loop_
_atom_site_type_symbol
_atom_site_label
_atom_site_fract_x
_atom_site_fract_y
_atom_site_fract_z
Si Si1 0.613578 0.172644 0.327117
Si Si2 0.385287 0.668059 0.233718
Si Si3 0.385377 0.671193 0.949432
Si Si4 0.613204 0.171594 0.500000
Si Si5 0.291406 0.674869 0.586864
Si Si6 0.890331 0.172593 0.445484
Si Si7 0.384884 0.168707 0.142023
O O1 0.500000 0.189360 0.331943
O O2 0.641021 0.236569 0.277727
O O3 0.664268 0.261701 0.366951
O O4 0.634783 0.000000 0.330366
O O5 0.500000 0.667159 0.232668
O O6 0.354154 0.500000 0.238107
O O7 0.354025 0.739157 0.186059
O O8 0.500000 0.677751 0.949437
O O9 0.360640 0.500000 0.944161
O O10 0.352780 0.762727 0.905926
O O11 0.354548 0.721052 0.000000
O O12 0.500000 0.177766 0.500000
O O13 0.653391 0.251199 0.544577
O O14 0.641768 0.000000 0.500000
O O15 0.298972 0.500000 0.584993
O O16 0.183757 0.728073 0.580870
O O17 0.877632 0.194909 0.500000
O O18 0.000000 0.202482 0.434988
O O19 0.872345 0.000000 0.436589
O O20 0.500000 0.172623 0.141732
O O21 0.356814 0.000000 0.146271
#
# Coordination Sequence:
#
# PCOD9384901 Si02
#       7
#     8   8   8   4   8   8   8
#     4  10  20  33  47  61  80 108 138 166 197 236
#     4   9  16  26  39  53  69  90 119 156 194 230
#     4   8  13  20  28  38  54  77 105 139 182 229
#     4  11  23  37  50  63  84 115 145 168 192 229
#     4  12  23  33  48  70  91 110 132 163 200 237
#     4   9  18  34  55  73  89 111 136 161 191 231
#     4   9  15  21  30  44  61  82 110 144 183 229
#
# _framework density 13.707874
#
# number of rings (size 3 to 8) (size 9 to 14) (size 15 to 20)
#    0.000    2.385    0.769    4.385    0.000    7.692 
#    0.000    2.308    0.000    0.000    0.000    0.000 
#    0.000    0.000    0.000    0.000    0.000    0.000 
#
# Total GULP energy -289839.725142 kJ/mol
# GULP energy per Si atom -5573.840868 kJ/mol
# Density = 1.367667 g / cm^3
# Si number density = 13.707874 Si / 1000 Ang^3
#
#
#
# Elastic Constant Matrix: (Units=GPa)
#
#
# Indices 1 2 3 4 5 6 
#
# 1 31.8718 34.1255 25.9262 0.0000 0.0000 0.0000
# 2 34.1255 119.8129 70.3897 0.0000 0.0000 0.0000
# 3 25.9262 70.3897 117.5565 0.0000 0.0000 0.0000
# 4 0.0000 0.0000 0.0000 25.1476 0.0000 0.0000
# 5 0.0000 0.0000 0.0000 0.0000 0.4043 0.0000
# 6 0.0000 0.0000 0.0000 0.0000 0.0000 9.7013
#
#
#
# Elastic Compliance Matrix: (Units=1/GPa)
#
#
# Indices 1 2 3 4 5 6 
#
# 1 0.046086 -0.011038 -0.003555 0.000000 0.000000 0.000000
# 2 -0.011038 0.015519 -0.006858 0.000000 0.000000 0.000000
# 3 -0.003555 -0.006858 0.013397 0.000000 0.000000 0.000000
# 4 0.000000 0.000000 0.000000 0.039765 0.000000 0.000000
# 5 0.000000 0.000000 0.000000 0.000000 2.473322 0.000000
# 6 0.000000 0.000000 0.000000 0.000000 0.000000 0.103079
#
#
# Mechanical properties :
#
#
# Convention : Reuss Voigt Hill
#
# Bulk Modulus (GPa) = 31.15223 58.90267 45.02745
# Shear Modulus (GPa) = 1.82165 16.30398 9.06281
#
# Velocity S-wave (km/s) = 1.15403 3.45249 2.57405
# Velocity P-wave (km/s) = 4.95488 7.67829 6.46170
#
# Compressibility (1/GPa) = 0.03210043
#
# Stress axis : x y z
#
# Youngs Moduli (GPa) = 21.69875 64.43536 74.64327
#
# Poissons Ratio (x) = 0.71123 0.26533
# Poissons Ratio (y) = 0.23951 0.51193
# Poissons Ratio (z) = 0.07713 0.44192
#
# Static dielectric constant tensor:
#      x y z
#    x 1.423170 0.000000 0.000000 
#    y 0.000000 1.456790 0.000000 
#    z 0.000000 0.000000 1.451910 
# 
# From -- ./inp_files/13425.got.cif
#   From: 2010.05.17/outbox.cif.g08.bks.cpg/sg47_7_cif.got.tgz:13425.got - 2010.06.03 20:15:42.
