data_PCOD9384249
_publ_section_title
;
Structure prediction by ZEFSAII (Michael W. Deem and Ramdas Pophale) SiO2 
 PCOD9384249
Probable space group: P M M M
;
_chemical_formula_sum "Si O2"
_cell_formula_units_Z 56
_cell_length_a 24.709460
_cell_length_b 14.952865
_cell_length_c 7.458855
_cell_angle_alpha 90.000000
_cell_angle_beta 90.000000
_cell_angle_gamma 90.000000
_cell_volume 2755.877007
_symmetry_space_group_name_H-M "P M M M"
_symmetry_group_IT_number 47
_symmetry_cell_setting 'orthorhombic'
loop_
_space_group_symop_operation_xyz
x,y,z
-x,-y,z
x,-y,-z
-x,y,-z
-x,-y,-z
x,y,-z
-x,y,z
x,-y,z
loop_
_atom_site_type_symbol
_atom_site_label
_atom_site_fract_x
_atom_site_fract_y
_atom_site_fract_z
Si Si1 0.854820 0.398907 0.287297
Si Si2 0.355553 0.250000 0.219690
Si Si3 0.439774 0.397274 0.781604
Si Si4 0.560226 0.897274 0.781604
Si Si5 0.232697 0.250001 0.213263
Si Si6 0.854818 0.101094 0.287296
Si Si7 0.062179 0.249999 0.719789
O O1 0.863111 0.406573 0.500000
O O2 0.851232 0.500000 0.215039
O O3 0.801479 0.338050 0.263906
O O4 0.904290 0.337343 0.219426
O O5 0.390871 0.335166 0.276989
O O6 0.390871 0.164834 0.276989
O O7 0.293895 0.250001 0.283006
O O8 0.354394 0.250000 0.000000
O O9 0.500000 0.366511 0.726487
O O10 0.433254 0.500000 0.726559
O O11 0.439799 0.395689 0.000000
O O12 0.500000 0.866511 0.726487
O O13 0.566746 0.000000 0.726559
O O14 0.560201 0.895689 0.000000
O O15 0.198522 0.161952 0.263901
O O16 0.235617 0.250004 0.000000
O O17 0.863108 0.093427 0.500000
O O18 0.904289 0.162655 0.219427
O O19 0.851231 0.000000 0.215039
O O20 0.063063 0.249999 0.500000
O O21 0.000000 0.249999 0.775627
#
# Coordination Sequence:
#
# PCOD9384249 Si02
#       7
#     8   8   8   8   8   8   8
#     4   9  18  33  51  69  93 126 158 188 226 272
#     4   9  16  24  35  54  81 112 144 179 220 264
#     4   8  13  21  33  49  72 105 141 174 214 268
#     4   8  13  21  33  49  72 105 141 174 214 268
#     4  10  20  31  45  68  96 125 158 195 230 267
#     4   9  18  33  51  69  93 126 158 188 226 272
#     4   8  14  26  47  76 101 115 140 189 238 275
#
# _framework density 20.320209999999999
#
# number of rings (size 3 to 8) (size 9 to 14) (size 15 to 20)
#    0.000    3.286    0.000    2.571    0.000    4.000 
#    0.000    5.714    0.000    6.857    0.000    8.000 
#    0.000    9.143    0.000   25.143    0.000   20.571 
#
# Total GULP energy -312275.663515 kJ/mol
# GULP energy per Si atom -5576.351134 kJ/mol
# Density = 2.027396 g / cm^3
# Si number density = 20.320210 Si / 1000 Ang^3
#
#
#
# Elastic Constant Matrix: (Units=GPa)
#
#
# Indices 1 2 3 4 5 6 
#
# 1 230.6664 129.7531 0.8251 0.0000 0.0000 0.0000
# 2 129.7531 197.1312 6.2354 0.0000 0.0000 0.0000
# 3 0.8251 6.2354 59.5098 0.0000 0.0000 0.0000
# 4 0.0000 0.0000 0.0000 0.2447 0.0000 0.0000
# 5 0.0000 0.0000 0.0000 0.0000 14.5763 0.0000
# 6 0.0000 0.0000 0.0000 0.0000 0.0000 41.5412
#
#
#
# Elastic Compliance Matrix: (Units=1/GPa)
#
#
# Indices 1 2 3 4 5 6 
#
# 1 0.006893 -0.004549 0.000381 0.000000 0.000000 0.000000
# 2 -0.004549 0.008092 -0.000785 0.000000 0.000000 0.000000
# 3 0.000381 -0.000785 0.016881 0.000000 0.000000 0.000000
# 4 0.000000 0.000000 0.000000 4.086131 0.000000 0.000000
# 5 0.000000 0.000000 0.000000 0.000000 0.068605 0.000000
# 6 0.000000 0.000000 0.000000 0.000000 0.000000 0.024072
#
#
# Mechanical properties :
#
#
# Convention : Reuss Voigt Hill
#
# Bulk Modulus (GPa) = 45.53708 84.54829 65.04268
# Shear Modulus (GPa) = 1.18262 34.63869 17.91065
#
# Velocity S-wave (km/s) = 0.76371 4.13321 2.97209
# Velocity P-wave (km/s) = 4.82038 8.02971 6.62240
#
# Compressibility (1/GPa) = 0.02196013
#
# Stress axis : x y z
#
# Youngs Moduli (GPa) = 145.08077 123.58352 59.23850
#
# Poissons Ratio (x) = 0.56217 -0.02257
# Poissons Ratio (y) = 0.65996 0.04649
# Poissons Ratio (z) = -0.05529 0.09699
#
# Static dielectric constant tensor:
#      x y z
#    x 1.693680 0.000000 0.000000 
#    y 0.000000 1.702860 0.000000 
#    z 0.000000 0.000000 1.801910 
# 
# From -- ./inp_files/11258.got.cif
#   From: 2010.05.17/outbox.cif.g08.bks.cpg/sg47_6_cif.got.tgz:11258.got - 2010.06.03 20:15:42.
