data_PCOD9384733
_publ_section_title
;
Structure prediction by ZEFSAII (Michael W. Deem and Ramdas Pophale) SiO2 
 PCOD9384733
Probable space group: P M M M
;
_chemical_formula_sum "Si O2"
_cell_formula_units_Z 41
_cell_length_a 7.330033
_cell_length_b 30.126676
_cell_length_c 8.582995
_cell_angle_alpha 90.000000
_cell_angle_beta 90.000000
_cell_angle_gamma 90.000000
_cell_volume 1895.378745
_symmetry_space_group_name_H-M "P M M M"
_symmetry_group_IT_number 47
_symmetry_cell_setting 'orthorhombic'
loop_
_space_group_symop_operation_xyz
x,y,z
-x,-y,z
x,-y,-z
-x,y,-z
-x,-y,-z
x,y,-z
-x,y,z
x,-y,z
loop_
_atom_site_type_symbol
_atom_site_label
_atom_site_fract_x
_atom_site_fract_y
_atom_site_fract_z
Si Si1 0.782048 0.092040 0.326291
Si Si2 0.222869 0.000000 0.820920
Si Si3 0.000000 0.500000 0.500000
Si Si4 0.720932 0.634756 0.175049
Si Si5 0.282336 0.186276 0.173421
Si Si6 0.722558 0.416576 0.500000
Si Si7 0.277588 0.724246 0.674834
O O1 0.711067 0.098675 0.500000
O O2 0.714087 0.045666 0.257021
O O3 0.749223 0.136465 0.230158
O O4 0.000000 0.087264 0.334060
O O5 0.000000 0.000000 0.815035
O O6 0.276020 0.000000 0.000000
O O7 0.160468 0.538840 0.500000
O O8 0.500000 0.633368 0.170784
O O9 0.768554 0.608573 0.335359
O O10 0.777153 0.685740 0.206275
O O11 0.781661 0.620124 0.000000
O O12 0.500000 0.191543 0.167827
O O13 0.215481 0.226407 0.280747
O O14 0.209764 0.191840 0.000000
O O15 0.500000 0.422302 0.500000
O O16 0.220271 0.712742 0.500000
O O17 0.500000 0.724189 0.674582
#
# Coordination Sequence:
#
# PCOD9384733 Si02
#       7
#     8   4   1   8   8   4   8
#     4  10  20  34  52  72  96 127 169 218 272 330
#     4   9  17  31  52  73  90 119 164 216 270 329
#     4  12  26  44  70  94 132 174 210 260 322 356
#     4   9  16  30  57  89 119 154 199 248 294 347
#     4  10  20  32  48  74 108 143 178 219 272 333
#     4  10  21  41  65  94 127 165 212 258 308 365
#     4   9  15  26  48  80 113 146 187 232 278 336
#
# _framework density 21.63156
#
# number of rings (size 3 to 8) (size 9 to 14) (size 15 to 20)
#    0.000    2.439    0.976    2.195    0.000    5.854 
#    0.000    1.951    2.146    5.268    0.000    0.000 
#    0.000    0.000    0.000    0.000    0.000    0.000 
#
# Total GULP energy -228506.352609 kJ/mol
# GULP energy per Si atom -5573.325673 kJ/mol
# Density = 2.158233 g / cm^3
# Si number density = 21.631560 Si / 1000 Ang^3
#
#
#
# Elastic Constant Matrix: (Units=GPa)
#
#
# Indices 1 2 3 4 5 6 
#
# 1 90.4270 12.5685 9.3547 0.0000 0.0000 0.0000
# 2 12.5685 146.1966 62.4469 0.0000 0.0000 0.0000
# 3 9.3547 62.4469 155.4245 0.0000 0.0000 0.0000
# 4 0.0000 0.0000 0.0000 -5.9409 0.0000 0.0000
# 5 0.0000 0.0000 0.0000 0.0000 -2.8167 0.0000
# 6 0.0000 0.0000 0.0000 0.0000 0.0000 -352.1944
#
#
#
# Elastic Compliance Matrix: (Units=1/GPa)
#
#
# Indices 1 2 3 4 5 6 
#
# 1 0.011208 -0.000815 -0.000347 0.000000 0.000000 0.000000
# 2 -0.000815 0.008317 -0.003292 0.000000 0.000000 0.000000
# 3 -0.000347 -0.003292 0.007778 0.000000 0.000000 0.000000
# 4 0.000000 0.000000 0.000000 -0.168325 0.000000 0.000000
# 5 0.000000 0.000000 0.000000 0.000000 -0.355028 0.000000
# 6 0.000000 0.000000 0.000000 0.000000 0.000000 -0.002839
#
#
# Mechanical properties :
#
#
# Convention : Reuss Voigt Hill
#
# Bulk Modulus (GPa) = 54.36940 62.30983 58.33962
# Shear Modulus (GPa) = -10.33378 -51.67854 -31.00616
#
# Velocity S-wave (km/s) = -2.18805 -4.89308 -3.79010
# Velocity P-wave (km/s) = 4.33653 1.74796 2.80625
#
# Compressibility (1/GPa) = 0.01839270
#
# Stress axis : x y z
#
# Youngs Moduli (GPa) = 89.22312 120.24281 128.57284
#
# Poissons Ratio (x) = 0.09804 0.04461
# Poissons Ratio (y) = 0.07275 0.42331
# Poissons Ratio (z) = 0.03096 0.39588
#
# Static dielectric constant tensor:
#      x y z
#    x 1.866090 0.000000 0.000000 
#    y 0.000000 1.798620 0.000000 
#    z 0.000000 0.000000 1.807350 
# 
# From -- ./inp_files/1907.got.cif
#   From: 2010.05.17/outbox.cif.g08.bks.cpg/sg47_1_cif.got.tgz:1907.got - 2010.06.03 20:15:42.
