data_PCOD9384418
_publ_section_title
;
Structure prediction by ZEFSAII (Michael W. Deem and Ramdas Pophale) SiO2 
 PCOD9384418
Probable space group: P M M M
;
_chemical_formula_sum "Si O2"
_cell_formula_units_Z 64
_cell_length_a 9.304082
_cell_length_b 22.130870
_cell_length_c 14.861330
_cell_angle_alpha 90.000000
_cell_angle_beta 90.000000
_cell_angle_gamma 90.000000
_cell_volume 3060.058255
_symmetry_space_group_name_H-M "P M M M"
_symmetry_group_IT_number 47
_symmetry_cell_setting 'orthorhombic'
loop_
_space_group_symop_operation_xyz
x,y,z
-x,-y,z
x,-y,-z
-x,y,-z
-x,-y,-z
x,y,-z
-x,y,z
x,-y,z
loop_
_atom_site_type_symbol
_atom_site_label
_atom_site_fract_x
_atom_site_fract_y
_atom_site_fract_z
Si Si1 0.162359 0.808963 0.606985
Si Si2 0.668435 0.319580 0.109346
Si Si3 0.665074 0.932627 0.637290
Si Si4 0.664303 0.808716 0.107297
Si Si5 0.665749 0.689677 0.610062
Si Si6 0.832455 0.568020 0.609529
Si Si7 0.833372 0.565175 0.890298
Si Si8 0.666568 0.935961 0.147147
O O1 0.150908 0.799538 0.500000
O O2 0.240921 0.873699 0.617076
O O3 0.252705 0.750893 0.640347
O O4 0.000000 0.810711 0.644448
O O5 0.500000 0.321739 0.130357
O O6 0.728622 0.254542 0.138979
O O7 0.749009 0.377628 0.144845
O O8 0.679068 0.321943 0.000000
O O9 0.500000 0.923815 0.606410
O O10 0.660581 0.936660 0.745307
O O11 0.713653 0.000000 0.606002
O O12 0.500000 0.811945 0.144497
O O13 0.738118 0.872517 0.124107
O O14 0.651731 0.803797 0.000000
O O15 0.666109 0.690115 0.500000
O O16 0.500000 0.691188 0.639452
O O17 0.742127 0.626871 0.637659
O O18 0.828459 0.567791 0.500000
O O19 0.785288 0.500000 0.637861
O O20 0.000000 0.575096 0.635459
O O21 0.774818 0.500000 0.862054
O O22 0.000000 0.568736 0.865318
O O23 0.828831 0.566030 0.000000
O O24 0.500000 0.934273 0.113612
O O25 0.729474 0.000000 0.116143
#
# Coordination Sequence:
#
# PCOD9384418 Si02
#       8
#     8   8   8   8   8   8   8   8
#     4  10  20  32  46  64  86 112 142 177 217 262
#     4   8  13  20  30  47  73 103 132 163 200 238
#     4   9  18  32  48  65  86 112 141 174 213 257
#     4   8  13  21  35  58  87 115 142 173 207 243
#     4   9  16  25  38  57  82 111 142 177 216 256
#     4   8  13  21  33  50  76 112 149 180 211 249
#     4   8  13  20  29  42  63  94 131 167 201 238
#     4   8  14  25  41  61  85 113 143 173 207 248
#
# _framework density 20.914634
#
# number of rings (size 3 to 8) (size 9 to 14) (size 15 to 20)
#    0.000    3.500    0.000    3.000    0.000    3.500 
#    0.000    5.000    0.000    0.750    0.000    0.000 
#    0.000    1.000    0.000   16.875    0.000   19.625 
#
# Total GULP energy -356362.174974 kJ/mol
# GULP energy per Si atom -5568.158984 kJ/mol
# Density = 2.086703 g / cm^3
# Si number density = 20.914634 Si / 1000 Ang^3
#
#
#
# Elastic Constant Matrix: (Units=GPa)
#
#
# Indices 1 2 3 4 5 6 
#
# 1 84.9059 102.7264 0.7777 0.0000 0.0000 0.0000
# 2 102.7264 286.6568 6.6296 0.0000 0.0000 0.0000
# 3 0.7777 6.6296 48.6388 0.0000 0.0000 0.0000
# 4 0.0000 0.0000 0.0000 57.8864 0.0000 0.0000
# 5 0.0000 0.0000 0.0000 0.0000 -4.2478 0.0000
# 6 0.0000 0.0000 0.0000 0.0000 0.0000 102.4582
#
#
#
# Elastic Compliance Matrix: (Units=1/GPa)
#
#
# Indices 1 2 3 4 5 6 
#
# 1 0.020816 -0.007475 0.000686 0.000000 0.000000 0.000000
# 2 -0.007475 0.006184 -0.000723 0.000000 0.000000 0.000000
# 3 0.000686 -0.000723 0.020647 0.000000 0.000000 0.000000
# 4 0.000000 0.000000 0.000000 0.017275 0.000000 0.000000
# 5 0.000000 0.000000 0.000000 0.000000 -0.235417 0.000000
# 6 0.000000 0.000000 0.000000 0.000000 0.000000 0.009760
#
#
# Mechanical properties :
#
#
# Convention : Reuss Voigt Hill
#
# Bulk Modulus (GPa) = 30.65425 71.16320 50.90872
# Shear Modulus (GPa) = -37.08235 51.89055 7.40410
#
# Velocity S-wave (km/s) = -4.21531 4.98643 1.88357
# Velocity P-wave (km/s) = 3.00052 8.20074 5.39671
#
# Compressibility (1/GPa) = 0.03262190
#
# Stress axis : x y z
#
# Youngs Moduli (GPa) = 48.04015 161.70419 48.43236
#
# Poissons Ratio (x) = 1.20881 -0.03323
# Poissons Ratio (y) = 0.35912 0.03504
# Poissons Ratio (z) = -0.03296 0.11697
#
# Static dielectric constant tensor:
#      x y z
#    x 1.704520 0.000000 0.000000 
#    y 0.000000 1.809110 0.000000 
#    z 0.000000 0.000000 1.803810 
# 
# From -- ./inp_files/26991.got.cif
#   From: 2010.05.17/outbox.cif.g08.bks.cpg/sg47_14_cif.got.tgz:26991.got - 2010.06.03 20:15:42.
