data_PCOD9384465
_publ_section_title
;
Structure prediction by ZEFSAII (Michael W. Deem and Ramdas Pophale) SiO2 
 PCOD9384465
Probable space group: P M M M
;
_chemical_formula_sum "Si O2"
_cell_formula_units_Z 56
_cell_length_a 19.656958
_cell_length_b 8.416834
_cell_length_c 19.283611
_cell_angle_alpha 90.000000
_cell_angle_beta 90.000000
_cell_angle_gamma 90.000000
_cell_volume 3190.460952
_symmetry_space_group_name_H-M "P M M M"
_symmetry_group_IT_number 47
_symmetry_cell_setting 'orthorhombic'
loop_
_space_group_symop_operation_xyz
x,y,z
-x,-y,z
x,-y,-z
-x,y,-z
-x,-y,-z
x,y,-z
-x,y,z
x,-y,z
loop_
_atom_site_type_symbol
_atom_site_label
_atom_site_fract_x
_atom_site_fract_y
_atom_site_fract_z
Si Si1 0.206261 0.689802 0.210450
Si Si2 0.161502 0.807956 0.422243
Si Si3 0.708267 0.310133 0.657530
Si Si4 0.572476 0.186968 0.084154
Si Si5 0.076987 0.192086 0.290110
Si Si6 0.422268 0.191679 0.579849
Si Si7 0.279573 0.192249 0.920360
O O1 0.207365 0.500000 0.210348
O O2 0.262114 0.746039 0.267906
O O3 0.132821 0.747362 0.236114
O O4 0.225236 0.752864 0.135106
O O5 0.146230 0.754705 0.500000
O O6 0.234617 0.746439 0.397061
O O7 0.105855 0.758229 0.365467
O O8 0.163945 0.000000 0.421715
O O9 0.706759 0.500000 0.658685
O O10 0.635066 0.249791 0.632678
O O11 0.500000 0.257505 0.107528
O O12 0.645757 0.253631 0.104209
O O13 0.571715 0.000000 0.103258
O O14 0.572887 0.191579 0.000000
O O15 0.000000 0.247210 0.278550
O O16 0.077019 0.000000 0.288295
O O17 0.407141 0.242252 0.500000
O O18 0.500000 0.242049 0.596057
O O19 0.421364 0.000000 0.580189
O O20 0.282638 0.000000 0.921118
O O21 0.267672 0.243164 0.000000
#
# Coordination Sequence:
#
# PCOD9384465 Si02
#       7
#     8   8   8   8   8   8   8
#     4  10  21  35  50  70  98 131 162 193 234 286
#     4   9  17  29  47  72 100 128 157 192 236 283
#     4  10  20  32  46  66  94 129 168 204 237 281
#     4   7  10  19  38  65  94 119 144 179 223 268
#     4   9  18  33  53  75  98 126 159 194 233 279
#     4   9  18  32  49  69  93 123 163 212 261 300
#     4   9  17  30  51  77 100 124 159 203 245 285
#
# _framework density 17.552322
#
# number of rings (size 3 to 8) (size 9 to 14) (size 15 to 20)
#    0.000    3.000    0.000    3.000    0.000    5.143 
#    0.000    2.857    0.000    3.429    0.000    9.000 
#    0.000    0.000    0.000    0.000    0.000    0.000 
#
# Total GULP energy -311894.689644 kJ/mol
# GULP energy per Si atom -5569.548029 kJ/mol
# Density = 1.751237 g / cm^3
# Si number density = 17.552322 Si / 1000 Ang^3
#
#
#
# Elastic Constant Matrix: (Units=GPa)
#
#
# Indices 1 2 3 4 5 6 
#
# 1 147.6567 22.2121 81.4861 0.0000 0.0000 0.0000
# 2 22.2121 10.1350 18.2982 0.0000 0.0000 0.0000
# 3 81.4861 18.2982 102.0201 0.0000 0.0000 0.0000
# 4 0.0000 0.0000 0.0000 10.9282 0.0000 0.0000
# 5 0.0000 0.0000 0.0000 0.0000 12.8406 0.0000
# 6 0.0000 0.0000 0.0000 0.0000 0.0000 2.9820
#
#
#
# Elastic Compliance Matrix: (Units=1/GPa)
#
#
# Indices 1 2 3 4 5 6 
#
# 1 0.013486 -0.014950 -0.008090 0.000000 0.000000 0.000000
# 2 -0.014950 0.162492 -0.017204 0.000000 0.000000 0.000000
# 3 -0.008090 -0.017204 0.019350 0.000000 0.000000 0.000000
# 4 0.000000 0.000000 0.000000 0.091507 0.000000 0.000000
# 5 0.000000 0.000000 0.000000 0.000000 0.077878 0.000000
# 6 0.000000 0.000000 0.000000 0.000000 0.000000 0.335342
#
#
# Mechanical properties :
#
#
# Convention : Reuss Voigt Hill
#
# Bulk Modulus (GPa) = 8.70773 55.97829 32.34301
# Shear Modulus (GPa) = 6.10633 14.53786 10.32209
#
# Velocity S-wave (km/s) = 1.86721 2.88107 2.42766
# Velocity P-wave (km/s) = 3.10168 6.55964 5.13076
#
# Compressibility (1/GPa) = 0.11484046
#
# Stress axis : x y z
#
# Youngs Moduli (GPa) = 74.15037 6.15413 51.68068
#
# Poissons Ratio (x) = 0.09200 0.41811
# Poissons Ratio (y) = 1.10853 0.88910
# Poissons Ratio (z) = 0.59990 0.10587
#
# Static dielectric constant tensor:
#      x y z
#    x 1.611240 0.000000 0.000000 
#    y 0.000000 1.599450 0.000000 
#    z 0.000000 0.000000 1.596540 
# 
# From -- ./inp_files/26957.got.cif
#   From: 2010.05.17/outbox.cif.g08.bks.cpg/sg47_14_cif.got.tgz:26957.got - 2010.06.03 20:15:42.
