data_PCOD9384252
_publ_section_title
;
Structure prediction by ZEFSAII (Michael W. Deem and Ramdas Pophale) SiO2 
 PCOD9384252
Probable space group: P M M M
;
_chemical_formula_sum "Si O2"
_cell_formula_units_Z 52
_cell_length_a 23.835908
_cell_length_b 15.633115
_cell_length_c 8.513638
_cell_angle_alpha 90.000000
_cell_angle_beta 90.000000
_cell_angle_gamma 90.000000
_cell_volume 3172.432594
_symmetry_space_group_name_H-M "P M M M"
_symmetry_group_IT_number 47
_symmetry_cell_setting 'orthorhombic'
loop_
_space_group_symop_operation_xyz
x,y,z
-x,-y,z
x,-y,-z
-x,y,-z
-x,-y,-z
x,y,-z
-x,y,z
x,-y,z
loop_
_atom_site_type_symbol
_atom_site_label
_atom_site_fract_x
_atom_site_fract_y
_atom_site_fract_z
Si Si1 0.102440 0.821449 0.183859
Si Si2 0.561417 0.103456 0.316288
Si Si3 0.777016 0.776730 0.311866
Si Si4 0.815206 0.406512 0.691199
Si Si5 0.061289 0.647603 0.312633
Si Si6 0.681398 0.099785 0.186463
Si Si7 0.933402 0.000000 0.322814
O O1 0.167480 0.812746 0.229382
O O2 0.069137 0.748215 0.277937
O O3 0.084006 0.915159 0.232822
O O4 0.093983 0.806457 0.000000
O O5 0.566936 0.126990 0.500000
O O6 0.500000 0.133760 0.259275
O O7 0.617613 0.127260 0.225372
O O8 0.559750 0.000000 0.309834
O O9 0.784302 0.780800 0.500000
O O10 0.778060 0.675941 0.265357
O O11 0.724453 0.834327 0.264228
O O12 0.816856 0.406724 0.500000
O O13 0.795464 0.500000 0.743384
O O14 0.880046 0.392872 0.745535
O O15 0.060592 0.633532 0.500000
O O16 0.000000 0.619175 0.251401
O O17 0.688936 0.000000 0.240298
O O18 0.689935 0.100469 0.000000
O O19 0.909426 0.000000 0.500000
O O20 0.000000 0.000000 0.334169
#
# Coordination Sequence:
#
# PCOD9384252 Si02
#       7
#     8   8   8   8   8   8   4
#     4  11  22  34  48  65  88 116 148 189 233 276
#     4   8  14  26  44  66  94 129 167 201 232 268
#     4  10  20  34  51  69  92 123 157 194 236 281
#     4   8  15  29  49  72  93 114 147 192 239 283
#     4   9  17  30  48  69  92 116 143 177 223 282
#     4  10  20  31  45  68  99 132 166 201 234 270
#     4  11  23  37  51  65  83 111 150 191 230 277
#
# _framework density 16.391207000000001
#
# number of rings (size 3 to 8) (size 9 to 14) (size 15 to 20)
#    0.000    2.538    0.000    4.385    1.077    4.308 
#    0.000    3.077    0.000   11.538    0.000    4.308 
#    0.000    0.615    0.000    7.077    0.000    2.308 
#
# Total GULP energy -289704.173221 kJ/mol
# GULP energy per Si atom -5571.234100 kJ/mol
# Density = 1.635390 g / cm^3
# Si number density = 16.391207 Si / 1000 Ang^3
#
#
#
# Elastic Constant Matrix: (Units=GPa)
#
#
# Indices 1 2 3 4 5 6 
#
# 1 72.4331 34.2392 4.8028 0.0000 0.0000 0.0000
# 2 34.2392 90.7882 2.6640 0.0000 0.0000 0.0000
# 3 4.8028 2.6640 15.0833 0.0000 0.0000 0.0000
# 4 0.0000 0.0000 0.0000 -0.6716 0.0000 0.0000
# 5 0.0000 0.0000 0.0000 0.0000 -43.8498 0.0000
# 6 0.0000 0.0000 0.0000 0.0000 0.0000 8.2446
#
#
#
# Elastic Compliance Matrix: (Units=1/GPa)
#
#
# Indices 1 2 3 4 5 6 
#
# 1 0.017077 -0.006313 -0.004322 0.000000 0.000000 0.000000
# 2 -0.006313 0.013406 -0.000357 0.000000 0.000000 0.000000
# 3 -0.004322 -0.000357 0.067738 0.000000 0.000000 0.000000
# 4 0.000000 0.000000 0.000000 -1.488904 0.000000 0.000000
# 5 0.000000 0.000000 0.000000 0.000000 -0.022805 0.000000
# 6 0.000000 0.000000 0.000000 0.000000 0.000000 0.121292
#
#
# Mechanical properties :
#
#
# Convention : Reuss Voigt Hill
#
# Bulk Modulus (GPa) = 13.11744 29.07961 21.09853
# Shear Modulus (GPa) = -4.01672 1.85119 -1.08277
#
# Velocity S-wave (km/s) = -1.56712 1.06388 -0.81364
# Velocity P-wave (km/s) = 2.17845 4.39188 3.46657
#
# Compressibility (1/GPa) = 0.07623440
#
# Stress axis : x y z
#
# Youngs Moduli (GPa) = 58.55900 74.59277 14.76272
#
# Poissons Ratio (x) = 0.47093 0.06381
# Poissons Ratio (y) = 0.36971 0.00528
# Poissons Ratio (z) = 0.25312 0.02667
#
# Static dielectric constant tensor:
#      x y z
#    x 1.560340 0.000000 0.000000 
#    y 0.000000 1.571060 0.000000 
#    z 0.000000 0.000000 1.571370 
# 
# From -- ./inp_files/12481.got.cif
#   From: 2010.05.17/outbox.cif.g08.bks.cpg/sg47_7_cif.got.tgz:12481.got - 2010.06.03 20:15:42.
