data_PCOD9384342
_publ_section_title
;
Structure prediction by ZEFSAII (Michael W. Deem and Ramdas Pophale) SiO2 
 PCOD9384342
Probable space group: P M M M
;
_chemical_formula_sum "Si O2"
_cell_formula_units_Z 45
_cell_length_a 7.543837
_cell_length_b 18.663270
_cell_length_c 14.547409
_cell_angle_alpha 90.000000
_cell_angle_beta 90.000000
_cell_angle_gamma 90.000000
_cell_volume 2048.168508
_symmetry_space_group_name_H-M "P M M M"
_symmetry_group_IT_number 47
_symmetry_cell_setting 'orthorhombic'
loop_
_space_group_symop_operation_xyz
x,y,z
-x,-y,z
x,-y,-z
-x,y,-z
-x,-y,-z
x,y,-z
-x,y,z
x,-y,z
loop_
_atom_site_type_symbol
_atom_site_label
_atom_site_fract_x
_atom_site_fract_y
_atom_site_fract_z
Si Si1 0.703074 0.076656 0.194220
Si Si2 0.801777 0.643515 0.224059
Si Si3 0.222157 0.500000 0.676018
Si Si4 0.711762 0.273105 0.600410
Si Si5 0.500000 0.500000 0.500000
Si Si6 0.209755 0.104564 0.600168
Si Si7 0.789270 0.772121 0.103460
O O1 0.500000 0.075375 0.164642
O O2 0.710879 0.077530 0.305081
O O3 0.770809 0.152899 0.157935
O O4 0.785576 0.000000 0.164198
O O5 0.728191 0.568831 0.261296
O O6 0.808519 0.689035 0.317683
O O7 0.715827 0.701032 0.154175
O O8 0.000000 0.627010 0.189774
O O9 0.341089 0.500000 0.582818
O O10 0.000000 0.500000 0.661150
O O11 0.757185 0.303301 0.500000
O O12 0.500000 0.280434 0.612491
O O13 0.759114 0.189744 0.600890
O O14 0.276447 0.079705 0.500000
O O15 0.000000 0.089891 0.603602
O O16 0.000000 0.760692 0.099000
O O17 0.720048 0.780023 0.000000
#
# Coordination Sequence:
#
# PCOD9384342 Si02
#       7
#     8   8   4   8   1   8   8
#     4  11  24  40  59  87 123 161 203 257 321 387
#     4  10  21  39  61  89 127 167 209 259 313 373
#     4  10  25  43  64  98 143 184 222 270 319 373
#     4  10  20  31  52  84 119 157 202 247 295 359
#     4  12  26  44  68 102 146 188 232 260 312 386
#     4  10  20  35  55  83 117 158 204 250 302 366
#     4  10  22  42  68  94 119 156 209 266 325 388
#
# _framework density 21.970849000000001
#
# number of rings (size 3 to 8) (size 9 to 14) (size 15 to 20)
#    0.000    1.778    1.778    1.733    2.489    4.622 
#    0.000    4.000    0.000    2.667    0.000    0.622 
#    0.000    0.000    0.000    0.000    0.000    0.178 
#
# Total GULP energy -250625.403610 kJ/mol
# GULP energy per Si atom -5569.453414 kJ/mol
# Density = 2.192084 g / cm^3
# Si number density = 21.970849 Si / 1000 Ang^3
#
#
#
# Elastic Constant Matrix: (Units=GPa)
#
#
# Indices 1 2 3 4 5 6 
#
# 1 78.5136 5.9695 10.3145 0.0000 0.0000 0.0000
# 2 5.9695 170.2258 79.6341 0.0000 0.0000 0.0000
# 3 10.3145 79.6341 126.8296 0.0000 0.0000 0.0000
# 4 0.0000 0.0000 0.0000 -53.9504 0.0000 0.0000
# 5 0.0000 0.0000 0.0000 0.0000 21.2775 0.0000
# 6 0.0000 0.0000 0.0000 0.0000 0.0000 1.5080
#
#
#
# Elastic Compliance Matrix: (Units=1/GPa)
#
#
# Indices 1 2 3 4 5 6 
#
# 1 0.012875 0.000054 -0.001081 0.000000 0.000000 0.000000
# 2 0.000054 0.008318 -0.005227 0.000000 0.000000 0.000000
# 3 -0.001081 -0.005227 0.011255 0.000000 0.000000 0.000000
# 4 0.000000 0.000000 0.000000 -0.018536 0.000000 0.000000
# 5 0.000000 0.000000 0.000000 0.000000 0.046998 0.000000
# 6 0.000000 0.000000 0.000000 0.000000 0.000000 0.663125
#
#
# Mechanical properties :
#
#
# Convention : Reuss Voigt Hill
#
# Bulk Modulus (GPa) = 50.15263 63.04502 56.59883
# Shear Modulus (GPa) = 6.72777 12.41043 9.56910
#
# Velocity S-wave (km/s) = 1.75179 2.37925 2.08921
# Velocity P-wave (km/s) = 5.19309 6.02536 5.62464
#
# Compressibility (1/GPa) = 0.01993914
#
# Stress axis : x y z
#
# Youngs Moduli (GPa) = 77.67265 120.22167 88.85306
#
# Poissons Ratio (x) = -0.00652 0.09606
# Poissons Ratio (y) = -0.00422 0.46445
# Poissons Ratio (z) = 0.08397 0.62841
#
# Static dielectric constant tensor:
#      x y z
#    x 1.862390 0.000000 0.000000 
#    y 0.000000 1.863300 0.000000 
#    z 0.000000 0.000000 1.800090 
# 
# From -- ./inp_files/20948.got.cif
#   From: 2010.05.17/outbox.cif.g08.bks.cpg/sg47_11_cif.got.tgz:20948.got - 2010.06.03 20:15:42.
