data_PCOD9384914
_publ_section_title
;
Structure prediction by ZEFSAII (Michael W. Deem and Ramdas Pophale) SiO2 
 PCOD9384914
Probable space group: P M M M
;
_chemical_formula_sum "Si O2"
_cell_formula_units_Z 36
_cell_length_a 11.855103
_cell_length_b 8.991195
_cell_length_c 21.165292
_cell_angle_alpha 90.000000
_cell_angle_beta 90.000000
_cell_angle_gamma 90.000000
_cell_volume 2256.041128
_symmetry_space_group_name_H-M "P M M M"
_symmetry_group_IT_number 47
_symmetry_cell_setting 'orthorhombic'
loop_
_space_group_symop_operation_xyz
x,y,z
-x,-y,z
x,-y,-z
-x,y,-z
-x,-y,-z
x,y,-z
-x,y,z
x,-y,z
loop_
_atom_site_type_symbol
_atom_site_label
_atom_site_fract_x
_atom_site_fract_y
_atom_site_fract_z
Si Si1 0.365919 0.822606 0.739189
Si Si2 0.245066 0.679199 0.379928
Si Si3 0.365128 0.824729 0.500000
Si Si4 0.362929 0.670951 0.870810
Si Si5 0.637587 0.827986 0.000000
Si Si6 0.000000 0.680397 0.573035
O O1 0.500000 0.790845 0.730408
O O2 0.295858 0.743671 0.684351
O O3 0.332058 0.761233 0.808024
O O4 0.351802 0.000000 0.736387
O O5 0.252588 0.500000 0.380236
O O6 0.314961 0.745774 0.438381
O O7 0.114919 0.723639 0.392039
O O8 0.500000 0.812467 0.500000
O O9 0.335910 0.000000 0.500000
O O10 0.500000 0.670825 0.872652
O O11 0.325876 0.500000 0.866756
O O12 0.325017 0.746502 0.936010
O O13 0.500000 0.824822 0.000000
O O14 0.671452 0.000000 0.000000
O O15 0.000000 0.500000 0.570419
O O16 0.000000 0.732843 0.500000
#
# Coordination Sequence:
#
# PCOD9384914 Si02
#       6
#     8   8   4   8   4   4
#     4  10  20  33  47  67  99 132 159 195 244 290
#     4  11  21  35  55  73  92 121 159 198 238 288
#     4  11  23  36  49  70 100 127 152 189 236 283
#     4   9  16  26  41  62  89 124 166 203 233 276
#     4   9  15  23  37  59  89 126 163 198 239 281
#     4   9  18  36  56  74  94 117 150 199 250 286
#
# _framework density 15.957157
#
# number of rings (size 3 to 8) (size 9 to 14) (size 15 to 20)
#    0.000    2.111    1.111    3.333    0.000    8.889 
#    0.000    2.778    0.000    0.000    0.000    0.000 
#    0.000    0.889    0.000    9.556    0.000    7.333 
#
# Total GULP energy -200823.298058 kJ/mol
# GULP energy per Si atom -5578.424946 kJ/mol
# Density = 1.592084 g / cm^3
# Si number density = 15.957157 Si / 1000 Ang^3
#
#
#
# Elastic Constant Matrix: (Units=GPa)
#
#
# Indices 1 2 3 4 5 6 
#
# 1 66.5811 48.6732 61.0940 0.0000 0.0000 0.0000
# 2 48.6732 100.9502 75.4185 0.0000 0.0000 0.0000
# 3 61.0940 75.4185 174.1815 0.0000 0.0000 0.0000
# 4 0.0000 0.0000 0.0000 29.1962 0.0000 0.0000
# 5 0.0000 0.0000 0.0000 0.0000 -2.5990 0.0000
# 6 0.0000 0.0000 0.0000 0.0000 0.0000 7.8360
#
#
#
# Elastic Compliance Matrix: (Units=1/GPa)
#
#
# Indices 1 2 3 4 5 6 
#
# 1 0.026369 -0.008579 -0.005534 0.000000 0.000000 0.000000
# 2 -0.008579 0.017434 -0.004539 0.000000 0.000000 0.000000
# 3 -0.005534 -0.004539 0.009648 0.000000 0.000000 0.000000
# 4 0.000000 0.000000 0.000000 0.034251 0.000000 0.000000
# 5 0.000000 0.000000 0.000000 0.000000 -0.384763 0.000000
# 6 0.000000 0.000000 0.000000 0.000000 0.000000 0.127616
#
#
# Mechanical properties :
#
#
# Convention : Reuss Voigt Hill
#
# Bulk Modulus (GPa) = 61.93968 79.12048 70.53008
# Shear Modulus (GPa) = -39.44525 17.32179 -11.06173
#
# Velocity S-wave (km/s) = -4.97726 3.29830 -2.63575
# Velocity P-wave (km/s) = 2.42274 8.01222 5.91884
#
# Compressibility (1/GPa) = 0.01614474
#
# Stress axis : x y z
#
# Youngs Moduli (GPa) = 37.92294 57.35995 103.65108
#
# Poissons Ratio (x) = 0.49212 0.57363
# Poissons Ratio (y) = 0.32536 0.47051
# Poissons Ratio (z) = 0.20987 0.26038
#
# Static dielectric constant tensor:
#      x y z
#    x 1.510060 0.000000 0.000000 
#    y 0.000000 1.535110 0.000000 
#    z 0.000000 0.000000 1.519290 
# 
# From -- ./inp_files/18860.got.cif
#   From: 2010.05.17/outbox.cif.g08.bks.cpg/sg47_10_cif.got.tgz:18860.got - 2010.06.03 20:15:42.
