data_PCOD9384211
_publ_section_title
;
Structure prediction by ZEFSAII (Michael W. Deem and Ramdas Pophale) SiO2 
 PCOD9384211
Probable space group: P M M M
;
_chemical_formula_sum "Si O2"
_cell_formula_units_Z 52
_cell_length_a 8.034149
_cell_length_b 9.859291
_cell_length_c 36.669301
_cell_angle_alpha 90.000000
_cell_angle_beta 90.000000
_cell_angle_gamma 90.000000
_cell_volume 2904.612476
_symmetry_space_group_name_H-M "P M M M"
_symmetry_group_IT_number 47
_symmetry_cell_setting 'orthorhombic'
loop_
_space_group_symop_operation_xyz
x,y,z
-x,-y,z
x,-y,-z
-x,y,-z
-x,-y,-z
x,y,-z
-x,y,z
x,-y,z
loop_
_atom_site_type_symbol
_atom_site_label
_atom_site_fract_x
_atom_site_fract_y
_atom_site_fract_z
Si Si1 0.302186 0.344827 0.745032
Si Si2 0.803815 0.340867 0.333114
Si Si3 0.796769 0.343036 0.959295
Si Si4 0.201026 0.843720 0.811510
Si Si5 0.315862 0.334419 0.589525
Si Si6 0.203216 0.156627 0.893274
Si Si7 0.000000 0.334428 0.542016
O O1 0.500000 0.351063 0.740947
O O2 0.238411 0.500000 0.749897
O O3 0.232191 0.285099 0.707057
O O4 0.260060 0.254386 0.779765
O O5 0.755019 0.500000 0.330213
O O6 0.712318 0.286283 0.368851
O O7 0.000000 0.334822 0.340641
O O8 0.748318 0.500000 0.954521
O O9 0.737389 0.250800 0.926088
O O10 0.000000 0.339723 0.958946
O O11 0.745046 0.298541 0.000000
O O12 0.255367 0.801995 0.852389
O O13 0.000000 0.843074 0.811358
O O14 0.254542 0.000000 0.805665
O O15 0.500000 0.296317 0.576682
O O16 0.308740 0.500000 0.590618
O O17 0.165075 0.290618 0.563720
O O18 0.000000 0.160273 0.893551
O O19 0.251355 0.000000 0.898777
O O20 0.000000 0.500000 0.542198
O O21 0.000000 0.291191 0.500000
#
# Coordination Sequence:
#
# PCOD9384211 Si02
#       7
#     8   8   8   8   8   8   4
#     4  10  20  31  44  66  91 113 145 189 230 272
#     4   9  15  25  41  59  80 106 138 179 228 277
#     4   8  13  20  30  48  76 107 137 171 214 263
#     4   9  18  32  47  63  86 117 152 187 226 275
#     4   9  15  23  35  50  71 102 140 184 234 283
#     4   8  14  24  37  53  74 103 140 178 213 256
#     4   9  16  24  32  46  70 102 145 191 233 283
#
# _framework density 17.902559
#
# number of rings (size 3 to 8) (size 9 to 14) (size 15 to 20)
#    0.000    3.154    0.769    2.308    0.000    4.308 
#    0.000    4.615    0.000    0.000    0.000    0.000 
#    0.000    0.615    0.000    6.769    0.000   12.615 
#
# Total GULP energy -289586.765356 kJ/mol
# GULP energy per Si atom -5568.976257 kJ/mol
# Density = 1.786181 g / cm^3
# Si number density = 17.902559 Si / 1000 Ang^3
#
#
#
# Elastic Constant Matrix: (Units=GPa)
#
#
# Indices 1 2 3 4 5 6 
#
# 1 51.1918 15.6278 50.6881 0.0000 0.0000 0.0000
# 2 15.6278 26.6327 49.9743 0.0000 0.0000 0.0000
# 3 50.6881 49.9743 167.2967 0.0000 0.0000 0.0000
# 4 0.0000 0.0000 0.0000 -7.6646 0.0000 0.0000
# 5 0.0000 0.0000 0.0000 0.0000 -6.2969 0.0000
# 6 0.0000 0.0000 0.0000 0.0000 0.0000 6.4697
#
#
#
# Elastic Compliance Matrix: (Units=1/GPa)
#
#
# Indices 1 2 3 4 5 6 
#
# 1 0.027922 -0.001160 -0.008113 0.000000 0.000000 0.000000
# 2 -0.001160 0.085485 -0.025184 0.000000 0.000000 0.000000
# 3 -0.008113 -0.025184 0.015959 0.000000 0.000000 0.000000
# 4 0.000000 0.000000 0.000000 -0.130471 0.000000 0.000000
# 5 0.000000 0.000000 0.000000 0.000000 -0.158809 0.000000
# 6 0.000000 0.000000 0.000000 0.000000 0.000000 0.154566
#
#
# Mechanical properties :
#
#
# Convention : Reuss Voigt Hill
#
# Bulk Modulus (GPa) = 16.54262 53.07797 34.81029
# Shear Modulus (GPa) = 59.72420 7.09039 33.40730
#
# Velocity S-wave (km/s) = 5.78214 1.99227 4.32448
# Velocity P-wave (km/s) = 7.33743 5.91649 6.66494
#
# Compressibility (1/GPa) = 0.06044992
#
# Stress axis : x y z
#
# Youngs Moduli (GPa) = 35.81396 11.69790 62.66229
#
# Poissons Ratio (x) = 0.01358 0.50840
# Poissons Ratio (y) = 0.04156 1.57811
# Poissons Ratio (z) = 0.29057 0.29460
#
# Static dielectric constant tensor:
#      x y z
#    x 1.645550 0.000000 0.000000 
#    y 0.000000 1.586450 0.000000 
#    z 0.000000 0.000000 1.627860 
# 
# From -- ./inp_files/34301.got.cif
#   From: 2010.05.17/outbox.cif.g08.bks.cpg/sg47_18_cif.got.tgz:34301.got - 2010.06.03 20:15:42.
