data_PCOD9384738
_publ_section_title
;
Structure prediction by ZEFSAII (Michael W. Deem and Ramdas Pophale) SiO2 
 PCOD9384738
Probable space group: P M M M
;
_chemical_formula_sum "Si O2"
_cell_formula_units_Z 52
_cell_length_a 8.682304
_cell_length_b 28.719828
_cell_length_c 11.961243
_cell_angle_alpha 90.000000
_cell_angle_beta 90.000000
_cell_angle_gamma 90.000000
_cell_volume 2982.587107
_symmetry_space_group_name_H-M "P M M M"
_symmetry_group_IT_number 47
_symmetry_cell_setting 'orthorhombic'
loop_
_space_group_symop_operation_xyz
x,y,z
-x,-y,z
x,-y,-z
-x,y,-z
-x,-y,-z
x,y,-z
-x,y,z
x,-y,z
loop_
_atom_site_type_symbol
_atom_site_label
_atom_site_fract_x
_atom_site_fract_y
_atom_site_fract_z
Si Si1 0.685867 0.177204 0.628605
Si Si2 0.812481 0.000000 0.868823
Si Si3 0.319155 0.551299 0.364465
Si Si4 0.682550 0.850717 0.000000
Si Si5 0.178922 0.648505 0.634232
Si Si6 0.815363 0.900123 0.218372
Si Si7 0.181113 0.749044 0.000000
Si Si8 0.682520 0.731491 0.769094
O O1 0.734062 0.184479 0.500000
O O2 0.500000 0.176029 0.631535
O O3 0.748307 0.128873 0.678253
O O4 0.733930 0.220669 0.707077
O O5 0.765162 0.046580 0.803207
O O6 0.000000 0.000000 0.873120
O O7 0.761533 0.000000 0.000000
O O8 0.309696 0.550727 0.500000
O O9 0.500000 0.556165 0.336469
O O10 0.265752 0.500000 0.325955
O O11 0.227705 0.596795 0.327135
O O12 0.758173 0.873183 0.891356
O O13 0.721511 0.796564 0.000000
O O14 0.500000 0.858155 0.000000
O O15 0.197860 0.650251 0.500000
O O16 0.281690 0.688207 0.689403
O O17 0.000000 0.657101 0.659841
O O18 0.000000 0.899236 0.224308
O O19 0.228996 0.724461 0.114707
O O20 0.000000 0.759282 0.000000
O O21 0.500000 0.735370 0.790044
#
# Coordination Sequence:
#
# PCOD9384738 Si02
#       8
#     8   4   8   4   8   8   4   8
#     4  10  22  39  57  78 108 144 179 217 263 318
#     4   9  18  34  55  82 111 137 172 217 271 320
#     4   8  14  26  45  69  99 138 183 227 272 323
#     4  12  22  35  55  82 113 141 171 212 263 322
#     4  10  20  32  48  75 111 147 184 226 270 318
#     4  11  21  36  59  83 108 140 177 222 266 312
#     4  12  24  38  57  83 109 137 173 218 267 314
#     4  11  22  37  57  79 106 142 180 219 265 319
#
# _framework density 17.434528
#
# number of rings (size 3 to 8) (size 9 to 14) (size 15 to 20)
#    0.000    1.769    2.308    3.692    0.000    2.769 
#    0.000    3.846    0.000    2.308    0.000    0.538 
#    0.000    4.308    0.000    0.000    0.000    0.000 
#
# Total GULP energy -290136.238705 kJ/mol
# GULP energy per Si atom -5579.543052 kJ/mol
# Density = 1.739485 g / cm^3
# Si number density = 17.434528 Si / 1000 Ang^3
#
#
#
# Elastic Constant Matrix: (Units=GPa)
#
#
# Indices 1 2 3 4 5 6 
#
# 1 23.9486 13.9210 24.7362 0.0000 0.0000 0.0000
# 2 13.9210 89.5446 19.3065 0.0000 0.0000 0.0000
# 3 24.7362 19.3065 71.1420 0.0000 0.0000 0.0000
# 4 0.0000 0.0000 0.0000 12.7483 0.0000 0.0000
# 5 0.0000 0.0000 0.0000 0.0000 23.0723 0.0000
# 6 0.0000 0.0000 0.0000 0.0000 0.0000 28.3691
#
#
#
# Elastic Compliance Matrix: (Units=1/GPa)
#
#
# Indices 1 2 3 4 5 6 
#
# 1 0.067882 -0.005804 -0.022028 0.000000 0.000000 0.000000
# 2 -0.005804 0.012358 -0.001336 0.000000 0.000000 0.000000
# 3 -0.022028 -0.001336 0.022078 0.000000 0.000000 0.000000
# 4 0.000000 0.000000 0.000000 0.078442 0.000000 0.000000
# 5 0.000000 0.000000 0.000000 0.000000 0.043342 0.000000
# 6 0.000000 0.000000 0.000000 0.000000 0.000000 0.035250
#
#
# Mechanical properties :
#
#
# Convention : Reuss Voigt Hill
#
# Bulk Modulus (GPa) = 22.73589 33.39585 28.06587
# Shear Modulus (GPa) = 15.04455 21.28271 18.16363
#
# Velocity S-wave (km/s) = 2.94073 3.49767 3.23122
# Velocity P-wave (km/s) = 4.95980 5.95888 5.48214
#
# Compressibility (1/GPa) = 0.04398332
#
# Stress axis : x y z
#
# Youngs Moduli (GPa) = 14.73150 80.91991 45.29426
#
# Poissons Ratio (x) = 0.46965 0.99772
# Poissons Ratio (y) = 0.08550 0.06050
# Poissons Ratio (z) = 0.32450 0.10808
#
# Static dielectric constant tensor:
#      x y z
#    x 1.590160 0.000000 0.000000 
#    y 0.000000 1.605070 0.000000 
#    z 0.000000 0.000000 1.588280 
# 
# From -- ./inp_files/15520.got.cif
#   From: 2010.05.17/outbox.cif.g08.bks.cpg/sg47_8_cif.got.tgz:15520.got - 2010.06.03 20:15:42.
