data_PCOD9384552
_publ_section_title
;
Structure prediction by ZEFSAII (Michael W. Deem and Ramdas Pophale) SiO2 
 PCOD9384552
Probable space group: P M M M
;
_chemical_formula_sum "Si O2"
_cell_formula_units_Z 64
_cell_length_a 18.551536
_cell_length_b 7.577296
_cell_length_c 21.218780
_cell_angle_alpha 90.000000
_cell_angle_beta 90.000000
_cell_angle_gamma 90.000000
_cell_volume 2982.734080
_symmetry_space_group_name_H-M "P M M M"
_symmetry_group_IT_number 47
_symmetry_cell_setting 'orthorhombic'
loop_
_space_group_symop_operation_xyz
x,y,z
-x,-y,z
x,-y,-z
-x,y,-z
-x,-y,-z
x,y,-z
-x,y,z
x,-y,z
loop_
_atom_site_type_symbol
_atom_site_label
_atom_site_fract_x
_atom_site_fract_y
_atom_site_fract_z
Si Si1 0.423026 0.288696 0.836545
Si Si2 0.131182 0.213529 0.070854
Si Si3 0.628693 0.282601 0.297467
Si Si4 0.078232 0.291109 0.206999
Si Si5 0.781237 0.211894 0.431639
Si Si6 0.205594 0.707707 0.706101
Si Si7 0.704668 0.210841 0.069354
Si Si8 0.387775 0.295107 0.432292
O O1 0.500000 0.223531 0.861948
O O2 0.426223 0.500000 0.833443
O O3 0.411489 0.226141 0.765284
O O4 0.354157 0.249586 0.878682
O O5 0.087937 0.271323 0.132001
O O6 0.214015 0.274719 0.081245
O O7 0.129609 0.000000 0.070397
O O8 0.108837 0.270226 0.000000
O O9 0.628747 0.500000 0.300185
O O10 0.712305 0.222719 0.290857
O O11 0.594341 0.221067 0.363515
O O12 0.076949 0.500000 0.220820
O O13 0.146969 0.217435 0.245283
O O14 0.000000 0.217149 0.225331
O O15 0.813278 0.261542 0.500000
O O16 0.817907 0.270588 0.366832
O O17 0.699832 0.287628 0.431061
O O18 0.775295 0.000000 0.429819
O O19 0.212622 0.500000 0.719885
O O20 0.710661 0.000000 0.066271
O O21 0.681988 0.275605 0.000000
O O22 0.409952 0.216374 0.500000
O O23 0.410116 0.500000 0.433214
#
# Coordination Sequence:
#
# PCOD9384552 Si02
#       8
#     8   8   8   8   8   8   8   8
#     4  10  20  32  47  69  98 130 161 195 237 286
#     4   9  19  36  56  77 100 127 161 199 240 289
#     4   8  14  26  44  65  89 119 155 192 230 272
#     4  10  21  35  51  74 103 132 163 200 240 283
#     4   9  16  25  40  66  96 119 146 193 246 288
#     4   9  17  30  48  67  90 124 162 197 235 283
#     4   9  19  36  55  73  94 121 155 197 241 283
#     4   8  13  23  41  63  87 118 155 192 232 280
#
# _framework density 21.456823
#
# number of rings (size 3 to 8) (size 9 to 14) (size 15 to 20)
#    0.000    3.000    0.000    2.625    0.000    4.250 
#    0.000    7.500    0.000    0.750    0.000    5.250 
#    0.000    0.000    0.000   32.625    0.000   30.250 
#
# Total GULP energy -356744.805046 kJ/mol
# GULP energy per Si atom -5574.137579 kJ/mol
# Density = 2.140799 g / cm^3
# Si number density = 21.456823 Si / 1000 Ang^3
#
#
#
# Elastic Constant Matrix: (Units=GPa)
#
#
# Indices 1 2 3 4 5 6 
#
# 1 62.9395 3.0702 33.3722 0.0000 0.0000 0.0000
# 2 3.0702 46.8665 -10.7081 0.0000 0.0000 0.0000
# 3 33.3722 -10.7081 92.5085 0.0000 0.0000 0.0000
# 4 0.0000 0.0000 0.0000 25.2436 0.0000 0.0000
# 5 0.0000 0.0000 0.0000 0.0000 -30.1787 0.0000
# 6 0.0000 0.0000 0.0000 0.0000 0.0000 58.3899
#
#
#
# Elastic Compliance Matrix: (Units=1/GPa)
#
#
# Indices 1 2 3 4 5 6 
#
# 1 0.020061 -0.003048 -0.007590 0.000000 0.000000 0.000000
# 2 -0.003048 0.022380 0.003690 0.000000 0.000000 0.000000
# 3 -0.007590 0.003690 0.013975 0.000000 0.000000 0.000000
# 4 0.000000 0.000000 0.000000 0.039614 0.000000 0.000000
# 5 0.000000 0.000000 0.000000 0.000000 -0.033136 0.000000
# 6 0.000000 0.000000 0.000000 0.000000 0.000000 0.017126
#
#
# Mechanical properties :
#
#
# Convention : Reuss Voigt Hill
#
# Bulk Modulus (GPa) = 23.51820 28.19814 25.85817
# Shear Modulus (GPa) = 46.25763 22.46297 34.36030
#
# Velocity S-wave (km/s) = 4.64815 3.23908 4.00605
# Velocity P-wave (km/s) = 6.30805 5.21145 5.78579
#
# Compressibility (1/GPa) = 0.04252025
#
# Stress axis : x y z
#
# Youngs Moduli (GPa) = 49.84704 44.68270 71.55629
#
# Poissons Ratio (x) = 0.13621 0.54311
# Poissons Ratio (y) = 0.15195 -0.26406
# Poissons Ratio (z) = 0.37834 -0.16489
#
# Static dielectric constant tensor:
#      x y z
#    x 1.783530 0.000000 0.000000 
#    y 0.000000 1.920090 0.000000 
#    z 0.000000 0.000000 1.815010 
# 
# From -- ./inp_files/9918.got.cif
#   From: 2010.05.17/outbox.cif.g08.bks.cpg/sg47_5_cif.got.tgz:9918.got - 2010.06.03 20:15:42.
