data_PCOD9384196
_publ_section_title
;
Structure prediction by ZEFSAII (Michael W. Deem and Ramdas Pophale) SiO2 
 PCOD9384196
Probable space group: P M M M
;
_chemical_formula_sum "Si O2"
_cell_formula_units_Z 64
_cell_length_a 8.979162
_cell_length_b 15.569502
_cell_length_c 26.333751
_cell_angle_alpha 90.000000
_cell_angle_beta 90.000000
_cell_angle_gamma 90.000000
_cell_volume 3681.486849
_symmetry_space_group_name_H-M "P M M M"
_symmetry_group_IT_number 47
_symmetry_cell_setting 'orthorhombic'
loop_
_space_group_symop_operation_xyz
x,y,z
-x,-y,z
x,-y,-z
-x,y,-z
-x,-y,-z
x,y,-z
-x,y,z
x,-y,z
loop_
_atom_site_type_symbol
_atom_site_label
_atom_site_fract_x
_atom_site_fract_y
_atom_site_fract_z
Si Si1 0.676374 0.596142 0.249995
Si Si2 0.326630 0.104178 0.943525
Si Si3 0.822098 0.902780 0.334993
Si Si4 0.678804 0.788482 0.248038
Si Si5 0.671658 0.121121 0.556589
Si Si6 0.825663 0.103081 0.839795
Si Si7 0.667175 0.326513 0.556646
Si Si8 0.163412 0.599174 0.646702
O O1 0.500000 0.593095 0.241088
O O2 0.735994 0.500000 0.234390
O O3 0.728793 0.691066 0.232562
O O4 0.714913 0.604339 0.309429
O O5 0.500000 0.128333 0.936087
O O6 0.228323 0.131230 0.895822
O O7 0.322316 0.000000 0.944321
O O8 0.279260 0.133174 0.000000
O O9 0.747759 0.829331 0.299757
O O10 0.764245 0.901000 0.393173
O O11 0.000000 0.891284 0.334035
O O12 0.788993 0.000000 0.315082
O O13 0.500000 0.787086 0.253900
O O14 0.729660 0.850839 0.203024
O O15 0.725085 0.094102 0.500000
O O16 0.500000 0.092523 0.562558
O O17 0.665350 0.224029 0.554780
O O18 0.000000 0.121743 0.832313
O O19 0.806313 0.000000 0.836434
O O20 0.698824 0.359294 0.500000
O O21 0.500000 0.356021 0.571199
O O22 0.787392 0.350751 0.597672
O O23 0.155585 0.500000 0.632105
O O24 0.000000 0.625948 0.666058
#
# Coordination Sequence:
#
# PCOD9384196 Si02
#       8
#     8   8   8   8   8   8   8   8
#     4   9  19  36  55  73  93 118 151 193 241 292
#     4   8  14  26  45  69  99 138 183 225 258 288
#     4  11  24  38  51  71 100 130 159 195 241 292
#     4  11  22  35  54  76  98 129 167 205 246 294
#     4   9  19  36  55  72  89 112 148 194 238 281
#     4  10  20  32  47  71 106 145 180 214 252 292
#     4   9  18  32  48  65  85 110 141 176 217 269
#     4  10  20  31  44  65  90 113 139 175 222 277
#
# _framework density 17.38428
#
# number of rings (size 3 to 8) (size 9 to 14) (size 15 to 20)
#    0.000    2.375    0.000    3.750    0.000    9.750 
#    0.000    5.000    0.000    0.000    0.000    0.000 
#    0.000    0.500    0.000    5.750    0.000    1.875 
#
# Total GULP energy -356428.677189 kJ/mol
# GULP energy per Si atom -5569.198081 kJ/mol
# Density = 1.734471 g / cm^3
# Si number density = 17.384280 Si / 1000 Ang^3
#
#
#
# Elastic Constant Matrix: (Units=GPa)
#
#
# Indices 1 2 3 4 5 6 
#
# 1 29.4408 22.0041 20.3227 0.0000 0.0000 0.0000
# 2 22.0041 45.3885 22.0307 0.0000 0.0000 0.0000
# 3 20.3227 22.0307 67.0410 0.0000 0.0000 0.0000
# 4 0.0000 0.0000 0.0000 3.9821 0.0000 0.0000
# 5 0.0000 0.0000 0.0000 0.0000 -38.2173 0.0000
# 6 0.0000 0.0000 0.0000 0.0000 0.0000 16.5508
#
#
#
# Elastic Compliance Matrix: (Units=1/GPa)
#
#
# Indices 1 2 3 4 5 6 
#
# 1 0.058400 -0.023461 -0.009994 0.000000 0.000000 0.000000
# 2 -0.023461 0.035638 -0.004599 0.000000 0.000000 0.000000
# 3 -0.009994 -0.004599 0.019457 0.000000 0.000000 0.000000
# 4 0.000000 0.000000 0.000000 0.251122 0.000000 0.000000
# 5 0.000000 0.000000 0.000000 0.000000 -0.026166 0.000000
# 6 0.000000 0.000000 0.000000 0.000000 0.000000 0.060420
#
#
# Mechanical properties :
#
#
# Convention : Reuss Voigt Hill
#
# Bulk Modulus (GPa) = 26.74717 30.06502 28.40610
# Shear Modulus (GPa) = 10.25764 1.63065 5.94415
#
# Velocity S-wave (km/s) = 2.43173 0.96956 1.85113
# Velocity P-wave (km/s) = 4.82739 4.31107 4.57652
#
# Compressibility (1/GPa) = 0.03738713
#
# Stress axis : x y z
#
# Youngs Moduli (GPa) = 17.12334 28.05971 51.39517
#
# Poissons Ratio (x) = 0.65831 0.51362
# Poissons Ratio (y) = 0.40173 0.23638
# Poissons Ratio (z) = 0.17112 0.12906
#
# Static dielectric constant tensor:
#      x y z
#    x 1.606830 0.000000 0.000000 
#    y 0.000000 1.642260 0.000000 
#    z 0.000000 0.000000 1.590460 
# 
# From -- ./inp_files/7921.got.cif
#   From: 2010.05.17/outbox.cif.g08.bks.cpg/sg47_4_cif.got.tgz:7921.got - 2010.06.03 20:15:42.
