data_PCOD9384652
_publ_section_title
;
Structure prediction by ZEFSAII (Michael W. Deem and Ramdas Pophale) SiO2 
 PCOD9384652
Probable space group: P M M M
;
_chemical_formula_sum "Si O2"
_cell_formula_units_Z 56
_cell_length_a 20.899355
_cell_length_b 7.406379
_cell_length_c 16.298417
_cell_angle_alpha 90.000000
_cell_angle_beta 90.000000
_cell_angle_gamma 90.000000
_cell_volume 2522.808237
_symmetry_space_group_name_H-M "P M M M"
_symmetry_group_IT_number 47
_symmetry_cell_setting 'orthorhombic'
loop_
_space_group_symop_operation_xyz
x,y,z
-x,-y,z
x,-y,-z
-x,y,-z
-x,-y,-z
x,y,-z
-x,y,z
x,-y,z
loop_
_atom_site_type_symbol
_atom_site_label
_atom_site_fract_x
_atom_site_fract_y
_atom_site_fract_z
Si Si1 0.708024 0.780270 0.183883
Si Si2 0.929058 0.716483 0.766524
Si Si3 0.253023 0.782501 0.367233
Si Si4 0.604846 0.780301 0.412190
Si Si5 0.827988 0.215604 0.089745
Si Si6 0.430689 0.220464 0.769915
Si Si7 0.888949 0.707973 0.588700
O O1 0.738954 0.731779 0.271830
O O2 0.757533 0.716942 0.115533
O O3 0.634221 0.720029 0.184954
O O4 0.706244 0.000000 0.181790
O O5 0.930079 0.500000 0.759471
O O6 0.877333 0.754060 0.836451
O O7 0.912246 0.787638 0.675320
O O8 0.000000 0.778723 0.790280
O O9 0.320112 0.731009 0.407930
O O10 0.188147 0.709128 0.404504
O O11 0.248724 0.000000 0.372163
O O12 0.578228 0.720235 0.500000
O O13 0.575091 0.723093 0.325802
O O14 0.601237 0.000000 0.411298
O O15 0.822707 0.000000 0.084112
O O16 0.847997 0.284013 0.000000
O O17 0.500000 0.277165 0.802354
O O18 0.429563 0.000000 0.770349
O O19 0.907054 0.788296 0.500000
O O20 0.910919 0.500000 0.587193
#
# Coordination Sequence:
#
# PCOD9384652 Si02
#       7
#     8   8   8   8   8   8   8
#     4   8  14  26  44  66  93 124 160 202 244 287
#     4  10  22  39  56  75 103 136 165 199 246 296
#     4   9  15  26  45  65  89 125 165 203 245 290
#     4   8  13  19  29  51  82 115 156 202 241 280
#     4  10  20  35  57  81 102 128 164 205 251 303
#     4   8  13  20  32  53  85 127 164 192 233 287
#     4  10  20  32  48  72 100 129 164 204 242 283
#
# _framework density 22.197485
#
# number of rings (size 3 to 8) (size 9 to 14) (size 15 to 20)
#    0.000    3.000    1.429    2.143    0.000    2.286 
#    0.000    4.286    0.000    0.429    0.000    5.000 
#    0.000   14.286    0.000   32.714    0.000   27.714 
#
# Total GULP energy -312382.458323 kJ/mol
# GULP energy per Si atom -5578.258184 kJ/mol
# Density = 2.214696 g / cm^3
# Si number density = 22.197485 Si / 1000 Ang^3
#
#
#
# Elastic Constant Matrix: (Units=GPa)
#
#
# Indices 1 2 3 4 5 6 
#
# 1 146.7173 1.1487 72.7819 0.0000 0.0000 0.0000
# 2 1.1487 72.5326 8.9762 0.0000 0.0000 0.0000
# 3 72.7819 8.9762 140.4399 0.0000 0.0000 0.0000
# 4 0.0000 0.0000 0.0000 12.8633 0.0000 0.0000
# 5 0.0000 0.0000 0.0000 0.0000 -14.2735 0.0000
# 6 0.0000 0.0000 0.0000 0.0000 0.0000 10.6503
#
#
#
# Elastic Compliance Matrix: (Units=1/GPa)
#
#
# Indices 1 2 3 4 5 6 
#
# 1 0.009189 0.000447 -0.004791 0.000000 0.000000 0.000000
# 2 0.000447 0.013919 -0.001121 0.000000 0.000000 0.000000
# 3 -0.004791 -0.001121 0.009675 0.000000 0.000000 0.000000
# 4 0.000000 0.000000 0.000000 0.077741 0.000000 0.000000
# 5 0.000000 0.000000 0.000000 0.000000 -0.070060 0.000000
# 6 0.000000 0.000000 0.000000 0.000000 0.000000 0.093894
#
#
# Mechanical properties :
#
#
# Convention : Reuss Voigt Hill
#
# Bulk Modulus (GPa) = 45.76066 58.38927 52.07497
# Shear Modulus (GPa) = 32.77171 20.30023 26.53597
#
# Velocity S-wave (km/s) = 3.84653 3.02740 3.46128
# Velocity P-wave (km/s) = 6.35513 6.21142 6.28369
#
# Compressibility (1/GPa) = 0.02185283
#
# Stress axis : x y z
#
# Youngs Moduli (GPa) = 108.82810 71.84629 103.36065
#
# Poissons Ratio (x) = -0.03214 0.49516
# Poissons Ratio (y) = -0.04868 0.11591
# Poissons Ratio (z) = 0.52135 0.08057
#
# Static dielectric constant tensor:
#      x y z
#    x 1.808390 0.000000 0.000000 
#    y 0.000000 1.895090 0.000000 
#    z 0.000000 0.000000 1.821810 
# 
# From -- ./inp_files/25148.got.cif
#   From: 2010.05.17/outbox.cif.g08.bks.cpg/sg47_13_cif.got.tgz:25148.got - 2010.06.03 20:15:42.
