data_PCOD9384476
_publ_section_title
;
Structure prediction by ZEFSAII (Michael W. Deem and Ramdas Pophale) SiO2 
 PCOD9384476
Probable space group: P M M M
;
_chemical_formula_sum "Si O2"
_cell_formula_units_Z 56
_cell_length_a 15.075597
_cell_length_b 21.092778
_cell_length_c 9.279683
_cell_angle_alpha 90.000000
_cell_angle_beta 90.000000
_cell_angle_gamma 90.000000
_cell_volume 2950.811327
_symmetry_space_group_name_H-M "P M M M"
_symmetry_group_IT_number 47
_symmetry_cell_setting 'orthorhombic'
loop_
_space_group_symop_operation_xyz
x,y,z
-x,-y,z
x,-y,-z
-x,y,-z
-x,-y,-z
x,y,-z
-x,y,z
x,-y,z
loop_
_atom_site_type_symbol
_atom_site_label
_atom_site_fract_x
_atom_site_fract_y
_atom_site_fract_z
Si Si1 0.655278 0.928601 0.659025
Si Si2 0.899738 0.796828 0.827684
Si Si3 0.893827 0.573281 0.667625
Si Si4 0.131590 0.070945 0.334313
Si Si5 0.219520 0.676360 0.172418
Si Si6 0.395339 0.815288 0.843056
Si Si7 0.396055 0.692801 0.329458
O O1 0.626202 0.905278 0.500000
O O2 0.761672 0.930408 0.659646
O O3 0.628777 0.883948 0.788136
O O4 0.621868 0.000000 0.675812
O O5 0.891925 0.866090 0.754552
O O6 0.825671 0.744526 0.784113
O O7 0.000000 0.772537 0.796867
O O8 0.892015 0.804929 0.000000
O O9 0.870979 0.586680 0.500000
O O10 0.869824 0.500000 0.697598
O O11 0.846131 0.622428 0.770609
O O12 0.000000 0.578414 0.680755
O O13 0.100905 0.077400 0.500000
O O14 0.104091 0.000000 0.281775
O O15 0.315848 0.661167 0.241761
O O16 0.225678 0.675886 0.000000
O O17 0.500000 0.812637 0.859164
O O18 0.377244 0.765280 0.717687
O O19 0.354724 0.799612 0.000000
O O20 0.386982 0.683703 0.500000
O O21 0.500000 0.678288 0.291204
#
# Coordination Sequence:
#
# PCOD9384476 Si02
#       7
#     8   8   8   8   8   8   8
#     4   9  18  32  48  65  87 119 162 212 266 328
#     4  10  22  37  51  74 109 144 179 221 272 331
#     4   9  19  37  61  90 125 164 203 238 273 323
#     4   9  19  35  52  70  93 125 171 225 275 323
#     4  11  22  36  58  87 119 153 189 234 286 337
#     4  10  20  32  46  67  96 127 162 211 272 334
#     4  10  21  37  57  80 107 142 184 229 278 333
#
# _framework density 18.977831999999999
#
# number of rings (size 3 to 8) (size 9 to 14) (size 15 to 20)
#    0.000    2.286    0.000    3.857    0.000    8.286 
#    0.000    5.000    0.000    0.429    0.000    3.000 
#    0.000    0.000    0.000    0.000    0.000    0.000 
#
# Total GULP energy -312056.392806 kJ/mol
# GULP energy per Si atom -5572.435586 kJ/mol
# Density = 1.893464 g / cm^3
# Si number density = 18.977832 Si / 1000 Ang^3
#
#
#
# Elastic Constant Matrix: (Units=GPa)
#
#
# Indices 1 2 3 4 5 6 
#
# 1 60.2502 36.1365 46.7619 0.0000 0.0000 0.0000
# 2 36.1365 68.2679 39.4300 0.0000 0.0000 0.0000
# 3 46.7619 39.4300 64.5229 0.0000 0.0000 0.0000
# 4 0.0000 0.0000 0.0000 24.0667 0.0000 0.0000
# 5 0.0000 0.0000 0.0000 0.0000 18.0749 0.0000
# 6 0.0000 0.0000 0.0000 0.0000 0.0000 21.7832
#
#
#
# Elastic Compliance Matrix: (Units=1/GPa)
#
#
# Indices 1 2 3 4 5 6 
#
# 1 0.039894 -0.006828 -0.024740 0.000000 0.000000 0.000000
# 2 -0.006828 0.023807 -0.009600 0.000000 0.000000 0.000000
# 3 -0.024740 -0.009600 0.039295 0.000000 0.000000 0.000000
# 4 0.000000 0.000000 0.000000 0.041551 0.000000 0.000000
# 5 0.000000 0.000000 0.000000 0.000000 0.055325 0.000000
# 6 0.000000 0.000000 0.000000 0.000000 0.000000 0.045907
#
#
# Mechanical properties :
#
#
# Convention : Reuss Voigt Hill
#
# Bulk Modulus (GPa) = 48.40271 48.63310 48.51791
# Shear Modulus (GPa) = 14.92523 17.49913 16.21218
#
# Velocity S-wave (km/s) = 2.80742 3.03988 2.92596
# Velocity P-wave (km/s) = 6.00575 6.16466 6.08573
#
# Compressibility (1/GPa) = 0.02066000
#
# Stress axis : x y z
#
# Youngs Moduli (GPa) = 25.06626 42.00385 25.44856
#
# Poissons Ratio (x) = 0.28681 0.62960
# Poissons Ratio (y) = 0.17115 0.24431
# Poissons Ratio (z) = 0.62014 0.40324
#
# Static dielectric constant tensor:
#      x y z
#    x 1.709290 0.000000 0.000000 
#    y 0.000000 1.685400 0.000000 
#    z 0.000000 0.000000 1.652990 
# 
# From -- ./inp_files/7297.got.cif
#   From: 2010.05.17/outbox.cif.g08.bks.cpg/sg47_4_cif.got.tgz:7297.got - 2010.06.03 20:15:42.
