data_PCOD9384324
_publ_section_title
;
Structure prediction by ZEFSAII (Michael W. Deem and Ramdas Pophale) SiO2 
 PCOD9384324
Probable space group: P M M M
;
_chemical_formula_sum "Si O2"
_cell_formula_units_Z 48
_cell_length_a 34.984483
_cell_length_b 7.487767
_cell_length_c 9.468956
_cell_angle_alpha 90.000000
_cell_angle_beta 90.000000
_cell_angle_gamma 90.000000
_cell_volume 2480.446593
_symmetry_space_group_name_H-M "P M M M"
_symmetry_group_IT_number 47
_symmetry_cell_setting 'orthorhombic'
loop_
_space_group_symop_operation_xyz
x,y,z
-x,-y,z
x,-y,-z
-x,y,-z
-x,-y,-z
x,y,-z
-x,y,z
x,-y,z
loop_
_atom_site_type_symbol
_atom_site_label
_atom_site_fract_x
_atom_site_fract_y
_atom_site_fract_z
Si Si1 0.042917 0.282117 0.337025
Si Si2 0.407485 0.500000 0.331210
Si Si3 0.735926 0.788507 0.834372
Si Si4 0.885114 0.286360 0.840919
Si Si5 0.454748 0.212019 0.163926
Si Si6 0.671504 0.500000 0.166808
Si Si7 0.809747 0.214204 0.340155
O O1 0.049299 0.228968 0.500000
O O2 0.043242 0.500000 0.335435
O O3 0.077022 0.218124 0.238017
O O4 0.000000 0.227092 0.295007
O O5 0.406779 0.500000 0.500000
O O6 0.430012 0.329331 0.269113
O O7 0.365338 0.500000 0.264433
O O8 0.698425 0.671745 0.807197
O O9 0.771504 0.725797 0.740063
O O10 0.729263 0.000000 0.810970
O O11 0.745976 0.764995 0.000000
O O12 0.889490 0.500000 0.850050
O O13 0.847498 0.254174 0.748912
O O14 0.881036 0.216505 0.000000
O O15 0.500000 0.247048 0.183275
O O16 0.448699 0.000000 0.182419
O O17 0.445485 0.256012 0.000000
O O18 0.660799 0.500000 0.000000
O O19 0.812463 0.283099 0.500000
O O20 0.806886 0.000000 0.346911
#
# Coordination Sequence:
#
# PCOD9384324 Si02
#       7
#     8   4   8   8   8   4   8
#     4   8  14  26  44  66  95 130 165 202 247 300
#     4  12  25  37  54  87 128 164 198 243 303 360
#     4   9  19  37  59  81 106 138 180 233 286 333
#     4  10  20  31  47  74 103 131 166 207 251 301
#     4   9  19  38  64  90 117 157 209 258 302 352
#     4  10  22  39  59  82 110 151 201 241 280 342
#     4  10  21  36  54  76 102 133 167 207 262 323
#
# _framework density 19.351354000000001
#
# number of rings (size 3 to 8) (size 9 to 14) (size 15 to 20)
#    0.000    2.500    0.000    3.000    1.167    5.333 
#    0.000    4.167    0.000    0.500    0.000    3.500 
#    0.000    0.000    0.000    0.000    0.000    0.000 
#
# Total GULP energy -268041.718029 kJ/mol
# GULP energy per Si atom -5584.202459 kJ/mol
# Density = 1.930731 g / cm^3
# Si number density = 19.351354 Si / 1000 Ang^3
#
#
#
# Elastic Constant Matrix: (Units=GPa)
#
#
# Indices 1 2 3 4 5 6 
#
# 1 156.6215 49.7350 131.7333 0.0000 0.0000 0.0000
# 2 49.7350 69.4390 52.9599 0.0000 0.0000 0.0000
# 3 131.7333 52.9599 174.4358 0.0000 0.0000 0.0000
# 4 0.0000 0.0000 0.0000 10.4488 0.0000 0.0000
# 5 0.0000 0.0000 0.0000 0.0000 44.6392 0.0000
# 6 0.0000 0.0000 0.0000 0.0000 0.0000 84.4538
#
#
#
# Elastic Compliance Matrix: (Units=1/GPa)
#
#
# Indices 1 2 3 4 5 6 
#
# 1 0.018064 -0.003297 -0.012641 0.000000 0.000000 0.000000
# 2 -0.003297 0.019342 -0.003382 0.000000 0.000000 0.000000
# 3 -0.012641 -0.003382 0.016306 0.000000 0.000000 0.000000
# 4 0.000000 0.000000 0.000000 0.095705 0.000000 0.000000
# 5 0.000000 0.000000 0.000000 0.000000 0.022402 0.000000
# 6 0.000000 0.000000 0.000000 0.000000 0.000000 0.011841
#
#
# Mechanical properties :
#
#
# Convention : Reuss Voigt Hill
#
# Bulk Modulus (GPa) = 66.35046 96.59477 81.47262
# Shear Modulus (GPa) = 21.99497 38.97956 30.48726
#
# Velocity S-wave (km/s) = 3.37502 4.49297 3.97351
# Velocity P-wave (km/s) = 7.03913 8.77157 7.95267
#
# Compressibility (1/GPa) = 0.01507149
#
# Stress axis : x y z
#
# Youngs Moduli (GPa) = 55.35913 51.69967 61.32735
#
# Poissons Ratio (x) = 0.17047 0.77522
# Poissons Ratio (y) = 0.18253 0.20744
# Poissons Ratio (z) = 0.69978 0.17487
#
# Static dielectric constant tensor:
#      x y z
#    x 1.637250 0.000000 0.000000 
#    y 0.000000 1.727450 0.000000 
#    z 0.000000 0.000000 1.664430 
# 
# From -- ./inp_files/13990.got.cif
#   From: 2010.05.17/outbox.cif.g08.bks.cpg/sg47_7_cif.got.tgz:13990.got - 2010.06.03 20:15:42.
