data_PCOD9384874
_publ_section_title
;
Structure prediction by ZEFSAII (Michael W. Deem and Ramdas Pophale) SiO2 
 PCOD9384874
Probable space group: P M M M
;
_chemical_formula_sum "Si O2"
_cell_formula_units_Z 56
_cell_length_a 20.449127
_cell_length_b 16.449803
_cell_length_c 7.777658
_cell_angle_alpha 90.000000
_cell_angle_beta 90.000000
_cell_angle_gamma 90.000000
_cell_volume 2616.280569
_symmetry_space_group_name_H-M "P M M M"
_symmetry_group_IT_number 47
_symmetry_cell_setting 'orthorhombic'
loop_
_space_group_symop_operation_xyz
x,y,z
-x,-y,z
x,-y,-z
-x,y,-z
-x,-y,-z
x,y,-z
-x,y,z
x,-y,z
loop_
_atom_site_type_symbol
_atom_site_label
_atom_site_fract_x
_atom_site_fract_y
_atom_site_fract_z
Si Si1 0.428441 0.775403 0.294813
Si Si2 0.925425 0.000000 0.209688
Si Si3 0.000000 0.406463 0.211709
Si Si4 0.173714 0.139384 0.791186
Si Si5 0.677475 0.092707 0.294246
Si Si6 0.602714 0.408857 0.199042
Si Si7 0.125883 0.309812 0.197828
Si Si8 0.248498 0.405643 0.695283
O O1 0.428576 0.786086 0.500000
O O2 0.500000 0.799803 0.226728
O O3 0.370677 0.835040 0.228368
O O4 0.421637 0.677892 0.268075
O O5 0.881503 0.924059 0.262158
O O6 0.000000 0.000000 0.271054
O O7 0.928015 0.000000 0.000000
O O8 0.064644 0.358804 0.271162
O O9 0.000000 0.500000 0.267793
O O10 0.000000 0.408537 0.000000
O O11 0.246886 0.115827 0.737652
O O12 0.148659 0.225429 0.722615
O O13 0.175767 0.141272 0.000000
O O14 0.668803 0.089359 0.500000
O O15 0.665269 0.000000 0.228520
O O16 0.585649 0.500000 0.272750
O O17 0.680928 0.401056 0.218429
O O18 0.583985 0.411528 0.000000
O O19 0.190913 0.363090 0.204754
O O20 0.107607 0.292588 0.000000
O O21 0.253820 0.372870 0.500000
O O22 0.231585 0.500000 0.684589
#
# Coordination Sequence:
#
# PCOD9384874 Si02
#       8
#     8   4   4   8   8   8   8   8
#     4  10  22  39  59  85 116 151 191 234 281 335
#     4   9  18  32  53  79 110 143 174 218 275 329
#     4   9  18  32  49  72 106 145 184 231 283 333
#     4  10  20  34  55  83 110 141 181 226 275 332
#     4  10  21  38  60  84 113 150 190 235 285 339
#     4  10  21  37  58  84 114 148 186 229 280 338
#     4  10  20  32  51  77 105 139 182 229 277 330
#     4  10  20  34  53  77 105 139 180 226 275 326
#
# _framework density 21.404433000000001
#
# number of rings (size 3 to 8) (size 9 to 14) (size 15 to 20)
#    0.000    2.143    0.714    2.143    1.000    6.571 
#    0.000    3.214    0.000    2.143    0.000    2.000 
#    0.000    0.000    0.000    0.000    0.000    0.000 
#
# Total GULP energy -312322.912422 kJ/mol
# GULP energy per Si atom -5577.194865 kJ/mol
# Density = 2.135572 g / cm^3
# Si number density = 21.404433 Si / 1000 Ang^3
#
#
#
# Elastic Constant Matrix: (Units=GPa)
#
#
# Indices 1 2 3 4 5 6 
#
# 1 164.1028 108.8222 -0.0554 0.0000 0.0000 0.0000
# 2 108.8222 163.3189 10.8154 0.0000 0.0000 0.0000
# 3 -0.0554 10.8154 34.4278 0.0000 0.0000 0.0000
# 4 0.0000 0.0000 0.0000 18.1135 0.0000 0.0000
# 5 0.0000 0.0000 0.0000 0.0000 17.8549 0.0000
# 6 0.0000 0.0000 0.0000 0.0000 0.0000 14.3260
#
#
#
# Elastic Compliance Matrix: (Units=1/GPa)
#
#
# Indices 1 2 3 4 5 6 
#
# 1 0.011108 -0.007560 0.002393 0.000000 0.000000 0.000000
# 2 -0.007560 0.011398 -0.003593 0.000000 0.000000 0.000000
# 3 0.002393 -0.003593 0.030179 0.000000 0.000000 0.000000
# 4 0.000000 0.000000 0.000000 0.055208 0.000000 0.000000
# 5 0.000000 0.000000 0.000000 0.000000 0.056007 0.000000
# 6 0.000000 0.000000 0.000000 0.000000 0.000000 0.069803
#
#
# Mechanical properties :
#
#
# Convention : Reuss Voigt Hill
#
# Bulk Modulus (GPa) = 28.43742 66.77933 47.60838
# Shear Modulus (GPa) = 19.01550 26.21002 22.61276
#
# Velocity S-wave (km/s) = 2.98382 3.50310 3.25384
# Velocity P-wave (km/s) = 5.01852 6.90137 6.03384
#
# Compressibility (1/GPa) = 0.03516493
#
# Stress axis : x y z
#
# Youngs Moduli (GPa) = 90.02840 87.73439 33.13583
#
# Poissons Ratio (x) = 0.66324 -0.07928
# Poissons Ratio (y) = 0.68058 0.11905
# Poissons Ratio (z) = -0.21541 0.31521
#
# Static dielectric constant tensor:
#      x y z
#    x 1.744900 0.000000 0.000000 
#    y 0.000000 1.550290 0.000000 
#    z 0.000000 0.000000 1.818120 
# 
# From -- ./inp_files/11305.got.cif
#   From: 2010.05.17/outbox.cif.g08.bks.cpg/sg47_6_cif.got.tgz:11305.got - 2010.06.03 20:15:42.
