data_PCOD9384236
_publ_section_title
;
Structure prediction by ZEFSAII (Michael W. Deem and Ramdas Pophale) SiO2 
 PCOD9384236
Probable space group: P M M M
;
_chemical_formula_sum "Si O2"
_cell_formula_units_Z 52
_cell_length_a 15.712344
_cell_length_b 22.141076
_cell_length_c 9.312577
_cell_angle_alpha 90.000000
_cell_angle_beta 90.000000
_cell_angle_gamma 90.000000
_cell_volume 3239.735674
_symmetry_space_group_name_H-M "P M M M"
_symmetry_group_IT_number 47
_symmetry_cell_setting 'orthorhombic'
loop_
_space_group_symop_operation_xyz
x,y,z
-x,-y,z
x,-y,-z
-x,y,-z
-x,-y,-z
x,y,-z
-x,y,z
x,-y,z
loop_
_atom_site_type_symbol
_atom_site_label
_atom_site_fract_x
_atom_site_fract_y
_atom_site_fract_z
Si Si1 0.904479 0.205125 0.333189
Si Si2 0.262511 0.648466 0.831539
Si Si3 0.094484 0.648197 0.333647
Si Si4 0.396997 0.000000 0.165159
Si Si5 0.598751 0.429673 0.328408
Si Si6 0.734313 0.206584 0.830334
Si Si7 0.398522 0.876757 0.328552
O O1 0.890498 0.187811 0.500000
O O2 0.906013 0.278456 0.329979
O O3 0.825585 0.186363 0.234631
O O4 0.000000 0.185112 0.290086
O O5 0.172806 0.628524 0.762978
O O6 0.338269 0.614145 0.753259
O O7 0.270928 0.720870 0.811863
O O8 0.263506 0.636049 0.000000
O O9 0.107354 0.630741 0.500000
O O10 0.000000 0.628149 0.288020
O O11 0.373708 0.060225 0.252118
O O12 0.500000 0.000000 0.159492
O O13 0.366143 0.000000 0.000000
O O14 0.608502 0.422528 0.500000
O O15 0.500000 0.417475 0.293215
O O16 0.616038 0.500000 0.294275
O O17 0.658799 0.174577 0.743777
O O18 0.729040 0.193279 0.000000
O O19 0.385106 0.879733 0.500000
O O20 0.500000 0.866943 0.304696
#
# Coordination Sequence:
#
# PCOD9384236 Si02
#       7
#     8   8   8   4   8   8   8
#     4   8  14  26  44  65  90 121 157 195 232 272
#     4  10  20  31  46  71 100 127 153 188 237 286
#     4   8  14  26  45  67  91 122 157 189 224 271
#     4   9  17  31  51  71  92 121 156 195 239 283
#     4   9  19  36  55  71  87 114 156 200 237 278
#     4  10  20  31  44  68 101 131 158 190 233 283
#     4  10  20  33  49  69  94 126 164 201 234 273
#
# _framework density 16.050692000000002
#
# number of rings (size 3 to 8) (size 9 to 14) (size 15 to 20)
#    0.000    2.846    0.000    3.000    0.000    5.538 
#    0.000    6.923    0.000    0.462    0.000    3.769 
#    0.000    4.308    0.000    0.000    0.000    0.000 
#
# Total GULP energy -289682.624125 kJ/mol
# GULP energy per Si atom -5570.819695 kJ/mol
# Density = 1.601416 g / cm^3
# Si number density = 16.050692 Si / 1000 Ang^3
#
#
#
# Elastic Constant Matrix: (Units=GPa)
#
#
# Indices 1 2 3 4 5 6 
#
# 1 115.0807 50.7232 85.0232 0.0000 0.0000 0.0000
# 2 50.7232 32.9937 47.8200 0.0000 0.0000 0.0000
# 3 85.0232 47.8200 103.0806 0.0000 0.0000 0.0000
# 4 0.0000 0.0000 0.0000 23.6373 0.0000 0.0000
# 5 0.0000 0.0000 0.0000 0.0000 7.3571 0.0000
# 6 0.0000 0.0000 0.0000 0.0000 0.0000 -6.5697
#
#
#
# Elastic Compliance Matrix: (Units=1/GPa)
#
#
# Indices 1 2 3 4 5 6 
#
# 1 0.030138 -0.031451 -0.010269 0.000000 0.000000 0.000000
# 2 -0.031451 0.125331 -0.032201 0.000000 0.000000 0.000000
# 3 -0.010269 -0.032201 0.033109 0.000000 0.000000 0.000000
# 4 0.000000 0.000000 0.000000 0.042306 0.000000 0.000000
# 5 0.000000 0.000000 0.000000 0.000000 0.135923 0.000000
# 6 0.000000 0.000000 0.000000 0.000000 0.000000 -0.152214
#
#
# Mechanical properties :
#
#
# Convention : Reuss Voigt Hill
#
# Bulk Modulus (GPa) = 24.54697 68.69865 46.62281
# Shear Modulus (GPa) = 13.29740 9.39085 11.34412
#
# Velocity S-wave (km/s) = 2.88143 2.42146 2.66140
# Velocity P-wave (km/s) = 5.13778 7.12123 6.20921
#
# Compressibility (1/GPa) = 0.04073822
#
# Stress axis : x y z
#
# Youngs Moduli (GPa) = 33.18030 7.97887 30.20302
#
# Poissons Ratio (x) = 0.25094 0.31014
# Poissons Ratio (y) = 1.04354 0.97257
# Poissons Ratio (z) = 0.34072 0.25693
#
# Static dielectric constant tensor:
#      x y z
#    x 1.537800 0.000000 0.000000 
#    y 0.000000 1.520410 0.000000 
#    z 0.000000 0.000000 1.531200 
# 
# From -- ./inp_files/6985.got.cif
#   From: 2010.05.17/outbox.cif.g08.bks.cpg/sg47_4_cif.got.tgz:6985.got - 2010.06.03 20:15:42.
