data_PCOD9384387
_publ_section_title
;
Structure prediction by ZEFSAII (Michael W. Deem and Ramdas Pophale) SiO2 
 PCOD9384387
Probable space group: P M M M
;
_chemical_formula_sum "Si O2"
_cell_formula_units_Z 40
_cell_length_a 23.434254
_cell_length_b 12.660831
_cell_length_c 9.182876
_cell_angle_alpha 90.000000
_cell_angle_beta 90.000000
_cell_angle_gamma 90.000000
_cell_volume 2724.532950
_symmetry_space_group_name_H-M "P M M M"
_symmetry_group_IT_number 47
_symmetry_cell_setting 'orthorhombic'
loop_
_space_group_symop_operation_xyz
x,y,z
-x,-y,z
x,-y,-z
-x,y,-z
-x,-y,-z
x,y,-z
-x,y,z
x,-y,z
loop_
_atom_site_type_symbol
_atom_site_label
_atom_site_fract_x
_atom_site_fract_y
_atom_site_fract_z
Si Si1 0.500000 0.628703 0.668274
Si Si2 0.730137 0.628427 0.332283
Si Si3 0.615310 0.628784 0.831613
Si Si4 0.847303 0.373843 0.172635
Si Si5 0.069261 0.000000 0.832387
Si Si6 0.931847 0.216490 0.672888
O O1 0.500000 0.500000 0.669069
O O2 0.500000 0.661854 0.500000
O O3 0.557423 0.662296 0.750943
O O4 0.732735 0.663491 0.500000
O O5 0.728731 0.500000 0.333589
O O6 0.672119 0.663296 0.253214
O O7 0.786744 0.657796 0.243559
O O8 0.615476 0.500000 0.830601
O O9 0.616092 0.661642 0.000000
O O10 0.854225 0.500000 0.193618
O O11 0.897093 0.310036 0.251830
O O12 0.847246 0.353190 0.000000
O O13 0.085926 0.106044 0.747491
O O14 0.000000 0.000000 0.834657
O O15 0.088909 0.000000 0.000000
O O16 0.921328 0.213467 0.500000
O O17 0.000000 0.229547 0.694694
#
# Coordination Sequence:
#
# PCOD9384387 Si02
#       6
#     4   8   8   8   4   8
#     4   9  15  21  29  43  63  87 119 160 203 242
#     4   9  16  26  39  53  71  98 132 168 205 246
#     4   9  15  22  32  46  65  90 122 161 203 243
#     4  10  20  32  45  62  85 113 145 179 214 254
#     4   9  17  31  51  71  89 109 135 168 207 252
#     4  10  20  33  49  68  89 112 139 173 213 256
#
# _framework density 14.681416
#
# number of rings (size 3 to 8) (size 9 to 14) (size 15 to 20)
#    0.000    2.600    0.000    3.000    0.000   10.000 
#    0.000    2.000    0.000    0.000    0.000    0.000 
#    0.000    0.000    0.000    0.000    0.000    1.000 
#
# Total GULP energy -222888.305708 kJ/mol
# GULP energy per Si atom -5572.207643 kJ/mol
# Density = 1.464800 g / cm^3
# Si number density = 14.681416 Si / 1000 Ang^3
#
#
#
# Elastic Constant Matrix: (Units=GPa)
#
#
# Indices 1 2 3 4 5 6 
#
# 1 101.5586 39.1066 87.5477 0.0000 0.0000 0.0000
# 2 39.1066 32.0783 45.9672 0.0000 0.0000 0.0000
# 3 87.5477 45.9672 160.3049 0.0000 0.0000 0.0000
# 4 0.0000 0.0000 0.0000 17.2614 0.0000 0.0000
# 5 0.0000 0.0000 0.0000 0.0000 30.4584 0.0000
# 6 0.0000 0.0000 0.0000 0.0000 0.0000 -1.1367
#
#
#
# Elastic Compliance Matrix: (Units=1/GPa)
#
#
# Indices 1 2 3 4 5 6 
#
# 1 0.023057 -0.017085 -0.007693 0.000000 0.000000 0.000000
# 2 -0.017085 0.065577 -0.009474 0.000000 0.000000 0.000000
# 3 -0.007693 -0.009474 0.013156 0.000000 0.000000 0.000000
# 4 0.000000 0.000000 0.000000 0.057933 0.000000 0.000000
# 5 0.000000 0.000000 0.000000 0.000000 0.032832 0.000000
# 6 0.000000 0.000000 0.000000 0.000000 0.000000 -0.879774
#
#
# Mechanical properties :
#
#
# Convention : Reuss Voigt Hill
#
# Bulk Modulus (GPa) = 30.04149 71.02053 50.53101
# Shear Modulus (GPa) = -8.22883 17.40464 4.58791
#
# Velocity S-wave (km/s) = -2.37004 3.44683 1.76968
# Velocity P-wave (km/s) = 3.60794 8.01999 6.21842
#
# Compressibility (1/GPa) = 0.03328730
#
# Stress axis : x y z
#
# Youngs Moduli (GPa) = 43.37052 15.24919 76.00990
#
# Poissons Ratio (x) = 0.26053 0.58476
# Poissons Ratio (y) = 0.74098 0.72009
# Poissons Ratio (z) = 0.33366 0.14447
#
# Static dielectric constant tensor:
#      x y z
#    x 1.480040 0.000000 0.000000 
#    y 0.000000 1.451810 0.000000 
#    z 0.000000 0.000000 1.491260 
# 
# From -- ./inp_files/4052.got.cif
#   From: 2010.05.17/outbox.cif.g08.bks.cpg/sg47_3_cif.got.tgz:4052.got - 2010.06.03 20:15:42.
