data_PCOD9384266
_publ_section_title
;
Structure prediction by ZEFSAII (Michael W. Deem and Ramdas Pophale) SiO2 
 PCOD9384266
Probable space group: P M M M
;
_chemical_formula_sum "Si O2"
_cell_formula_units_Z 44
_cell_length_a 29.084563
_cell_length_b 7.365717
_cell_length_c 9.657852
_cell_angle_alpha 90.000000
_cell_angle_beta 90.000000
_cell_angle_gamma 90.000000
_cell_volume 2068.988694
_symmetry_space_group_name_H-M "P M M M"
_symmetry_group_IT_number 47
_symmetry_cell_setting 'orthorhombic'
loop_
_space_group_symop_operation_xyz
x,y,z
-x,-y,z
x,-y,-z
-x,y,-z
-x,-y,-z
x,y,-z
-x,y,z
x,-y,z
loop_
_atom_site_type_symbol
_atom_site_label
_atom_site_fract_x
_atom_site_fract_y
_atom_site_fract_z
Si Si1 0.000000 0.221461 0.339830
Si Si2 0.173845 0.778910 0.659153
Si Si3 0.911986 0.778325 0.159601
Si Si4 0.277614 0.781958 0.656261
Si Si5 0.364736 0.285153 0.154967
Si Si6 0.551643 0.278648 0.659292
O O1 0.045071 0.277576 0.254458
O O2 0.000000 0.280405 0.500000
O O3 0.000000 0.000000 0.342353
O O4 0.163541 0.725748 0.500000
O O5 0.135099 0.719547 0.766269
O O6 0.225930 0.720344 0.692460
O O7 0.173498 0.000000 0.660612
O O8 0.912104 0.000000 0.158262
O O9 0.915805 0.720186 0.000000
O O10 0.288520 0.717997 0.500000
O O11 0.317315 0.734971 0.762546
O O12 0.275716 0.000000 0.651094
O O13 0.372902 0.500000 0.143843
O O14 0.407561 0.212395 0.243320
O O15 0.361905 0.210656 0.000000
O O16 0.559140 0.223299 0.500000
O O17 0.500000 0.224208 0.701391
O O18 0.552211 0.500000 0.659617
#
# Coordination Sequence:
#
# PCOD9384266 Si02
#       6
#     4   8   8   8   8   8
#     4   9  15  21  29  41  61  93 130 167 208 251
#     4   8  14  25  39  54  73  99 134 174 213 255
#     4   9  15  21  30  46  68  94 127 167 209 254
#     4   9  18  32  49  67  87 116 155 193 226 264
#     4  10  20  31  45  69  98 124 149 180 222 269
#     4   8  14  26  45  67  89 115 148 183 218 259
#
# _framework density 21.266425999999999
#
# number of rings (size 3 to 8) (size 9 to 14) (size 15 to 20)
#    0.000    3.182    0.000    3.000    0.000    5.818 
#    0.000    3.636    0.000    0.545    0.000    3.818 
#    0.000    0.000    0.000    0.818    0.000   16.182 
#
# Total GULP energy -245631.346518 kJ/mol
# GULP energy per Si atom -5582.530603 kJ/mol
# Density = 2.121802 g / cm^3
# Si number density = 21.266426 Si / 1000 Ang^3
#
#
#
# Elastic Constant Matrix: (Units=GPa)
#
#
# Indices 1 2 3 4 5 6 
#
# 1 204.2399 2.6119 164.7760 0.0000 0.0000 0.0000
# 2 2.6119 75.8652 5.4345 0.0000 0.0000 0.0000
# 3 164.7760 5.4345 207.5156 0.0000 0.0000 0.0000
# 4 0.0000 0.0000 0.0000 -0.1174 0.0000 0.0000
# 5 0.0000 0.0000 0.0000 0.0000 -11.2953 0.0000
# 6 0.0000 0.0000 0.0000 0.0000 0.0000 8.3915
#
#
#
# Elastic Compliance Matrix: (Units=1/GPa)
#
#
# Indices 1 2 3 4 5 6 
#
# 1 0.013631 0.000307 -0.010832 0.000000 0.000000 0.000000
# 2 0.000307 0.013213 -0.000589 0.000000 0.000000 0.000000
# 3 -0.010832 -0.000589 0.013435 0.000000 0.000000 0.000000
# 4 0.000000 0.000000 0.000000 -8.517529 0.000000 0.000000
# 5 0.000000 0.000000 0.000000 0.000000 -0.088532 0.000000
# 6 0.000000 0.000000 0.000000 0.000000 0.000000 0.119168
#
#
# Mechanical properties :
#
#
# Convention : Reuss Voigt Hill
#
# Bulk Modulus (GPa) = 55.40141 92.58503 73.99322
# Shear Modulus (GPa) = -0.59394 20.38231 9.89419
#
# Velocity S-wave (km/s) = -0.52905 3.09921 2.15930
# Velocity P-wave (km/s) = 5.07292 7.51246 6.40982
#
# Compressibility (1/GPa) = 0.01805008
#
# Stress axis : x y z
#
# Youngs Moduli (GPa) = 73.36267 75.68332 74.43223
#
# Poissons Ratio (x) = -0.02321 0.80622
# Poissons Ratio (y) = -0.02249 0.04388
# Poissons Ratio (z) = 0.79463 0.04461
#
# Static dielectric constant tensor:
#      x y z
#    x 1.732480 0.000000 0.000000 
#    y 0.000000 1.877750 0.000000 
#    z 0.000000 0.000000 1.729560 
# 
# From -- ./inp_files/13548.got.cif
#   From: 2010.05.17/outbox.cif.g08.bks.cpg/sg47_7_cif.got.tgz:13548.got - 2010.06.03 20:15:42.
