data_PCOD9384977
_publ_section_title
;
Structure prediction by ZEFSAII (Michael W. Deem and Ramdas Pophale) SiO2 
 PCOD9384977
Probable space group: P M M M
;
_chemical_formula_sum "Si O2"
_cell_formula_units_Z 64
_cell_length_a 14.839676
_cell_length_b 8.990738
_cell_length_c 32.456707
_cell_angle_alpha 90.000000
_cell_angle_beta 90.000000
_cell_angle_gamma 90.000000
_cell_volume 4330.362129
_symmetry_space_group_name_H-M "P M M M"
_symmetry_group_IT_number 47
_symmetry_cell_setting 'orthorhombic'
loop_
_space_group_symop_operation_xyz
x,y,z
-x,-y,z
x,-y,-z
-x,y,-z
-x,-y,-z
x,y,-z
-x,y,z
x,-y,z
loop_
_atom_site_type_symbol
_atom_site_label
_atom_site_fract_x
_atom_site_fract_y
_atom_site_fract_z
Si Si1 0.287598 0.319081 0.294457
Si Si2 0.898715 0.321411 0.668997
Si Si3 0.101946 0.822063 0.578714
Si Si4 0.396332 0.681426 0.624011
Si Si5 0.721379 0.321016 0.545726
Si Si6 0.390660 0.325268 0.954720
Si Si7 0.605215 0.320700 0.785875
Si Si8 0.390372 0.171132 0.128851
O O1 0.291110 0.500000 0.293733
O O2 0.183555 0.277253 0.301555
O O3 0.343854 0.271359 0.334775
O O4 0.334475 0.268250 0.252420
O O5 0.891865 0.500000 0.662023
O O6 0.888067 0.241401 0.625067
O O7 0.000000 0.290356 0.684439
O O8 0.180758 0.749910 0.552229
O O9 0.000000 0.784669 0.564877
O O10 0.110530 0.000000 0.579043
O O11 0.500000 0.730064 0.624237
O O12 0.396462 0.500000 0.624118
O O13 0.343201 0.728426 0.582984
O O14 0.686581 0.285094 0.500000
O O15 0.729716 0.500000 0.548652
O O16 0.500000 0.314801 0.954736
O O17 0.369063 0.500000 0.951515
O O18 0.358030 0.241171 0.914144
O O19 0.360490 0.270673 0.000000
O O20 0.500000 0.278823 0.779220
O O21 0.608159 0.500000 0.787525
O O22 0.636004 0.257709 0.829836
O O23 0.500000 0.177879 0.127826
O O24 0.363795 0.000000 0.131685
#
# Coordination Sequence:
#
# PCOD9384977 Si02
#       8
#     8   8   8   8   8   8   8   8
#     4   9  15  25  43  66  85 103 132 167 202 240
#     4   9  16  28  48  70  90 109 130 162 203 245
#     4  10  20  33  49  68  89 112 136 162 196 240
#     4   9  16  27  45  68  90 108 132 170 206 236
#     4  10  20  33  49  69  90 111 136 166 202 243
#     4   8  13  21  33  48  66  92 130 174 214 249
#     4   9  16  25  38  55  75 102 136 170 202 238
#     4   9  16  24  33  47  71 101 132 169 211 249
#
# _framework density 14.779363999999999
#
# number of rings (size 3 to 8) (size 9 to 14) (size 15 to 20)
#    0.000    2.875    1.250    1.500    0.000    4.750 
#    0.000    4.375    0.000    0.375    0.000    0.875 
#    0.000    0.000    0.000    0.000    0.000    0.625 
#
# Total GULP energy -356363.773613 kJ/mol
# GULP energy per Si atom -5568.183963 kJ/mol
# Density = 1.474573 g / cm^3
# Si number density = 14.779364 Si / 1000 Ang^3
#
#
#
# Elastic Constant Matrix: (Units=GPa)
#
#
# Indices 1 2 3 4 5 6 
#
# 1 72.0217 15.7397 53.3106 0.0000 0.0000 0.0000
# 2 15.7397 11.3381 28.3855 0.0000 0.0000 0.0000
# 3 53.3106 28.3855 134.2468 0.0000 0.0000 0.0000
# 4 0.0000 0.0000 0.0000 -0.2717 0.0000 0.0000
# 5 0.0000 0.0000 0.0000 0.0000 6.6814 0.0000
# 6 0.0000 0.0000 0.0000 0.0000 0.0000 6.6738
#
#
#
# Elastic Compliance Matrix: (Units=1/GPa)
#
#
# Indices 1 2 3 4 5 6 
#
# 1 0.021226 -0.017771 -0.004672 0.000000 0.000000 0.000000
# 2 -0.017771 0.202279 -0.035713 0.000000 0.000000 0.000000
# 3 -0.004672 -0.035713 0.016855 0.000000 0.000000 0.000000
# 4 0.000000 0.000000 0.000000 -3.680760 0.000000 0.000000
# 5 0.000000 0.000000 0.000000 0.000000 0.149670 0.000000
# 6 0.000000 0.000000 0.000000 0.000000 0.000000 0.149839
#
#
# Mechanical properties :
#
#
# Convention : Reuss Voigt Hill
#
# Bulk Modulus (GPa) = 8.06135 45.83092 26.94614
# Shear Modulus (GPa) = -1.67604 10.62809 4.47603
#
# Velocity S-wave (km/s) = -1.06607 2.68454 1.74217
# Velocity P-wave (km/s) = 1.98771 6.37859 4.72427
#
# Compressibility (1/GPa) = 0.12404864
#
# Stress axis : x y z
#
# Youngs Moduli (GPa) = 47.11126 4.94366 59.32803
#
# Poissons Ratio (x) = 0.08785 0.27716
# Poissons Ratio (y) = 0.83722 2.11881
# Poissons Ratio (z) = 0.22008 0.17656
#
# Static dielectric constant tensor:
#      x y z
#    x 1.482150 0.000000 0.000000 
#    y 0.000000 1.489130 0.000000 
#    z 0.000000 0.000000 1.495320 
# 
# From -- ./inp_files/22182.got.cif
#   From: 2010.05.17/outbox.cif.g08.bks.cpg/sg47_12_cif.got.tgz:22182.got - 2010.06.03 20:15:42.
