data_PCOD9384611
_publ_section_title
;
Structure prediction by ZEFSAII (Michael W. Deem and Ramdas Pophale) SiO2 
 PCOD9384611
Probable space group: P M M M
;
_chemical_formula_sum "Si O2"
_cell_formula_units_Z 52
_cell_length_a 9.681192
_cell_length_b 16.577425
_cell_length_c 14.677277
_cell_angle_alpha 90.000000
_cell_angle_beta 90.000000
_cell_angle_gamma 90.000000
_cell_volume 2355.544947
_symmetry_space_group_name_H-M "P M M M"
_symmetry_group_IT_number 47
_symmetry_cell_setting 'orthorhombic'
loop_
_space_group_symop_operation_xyz
x,y,z
-x,-y,z
x,-y,-z
-x,y,-z
-x,-y,-z
x,y,-z
-x,y,z
x,-y,z
loop_
_atom_site_type_symbol
_atom_site_label
_atom_site_fract_x
_atom_site_fract_y
_atom_site_fract_z
Si Si1 0.652536 0.779023 0.135446
Si Si2 0.159391 0.907359 0.362884
Si Si3 0.850301 0.908389 0.858580
Si Si4 0.838989 0.407724 0.389981
Si Si5 0.659177 0.752964 0.647532
Si Si6 0.345004 0.500000 0.887597
Si Si7 0.151139 0.636999 0.895327
O O1 0.500000 0.759904 0.101179
O O2 0.711747 0.865511 0.110290
O O3 0.649416 0.769141 0.244283
O O4 0.773310 0.720998 0.103468
O O5 0.154644 0.907019 0.252106
O O6 0.256675 0.831689 0.389747
O O7 0.000000 0.895045 0.392735
O O8 0.201004 0.000000 0.388786
O O9 0.000000 0.871331 0.884558
O O10 0.851739 0.000000 0.888235
O O11 0.836599 0.409023 0.500000
O O12 0.799580 0.500000 0.360538
O O13 0.743253 0.331163 0.363686
O O14 0.000000 0.394427 0.362671
O O15 0.500000 0.747618 0.613501
O O16 0.500000 0.500000 0.854435
O O17 0.259636 0.575996 0.853309
O O18 0.352872 0.500000 0.000000
O O19 0.000000 0.637940 0.853217
O O20 0.135879 0.610147 0.000000
#
# Coordination Sequence:
#
# PCOD9384611 Si02
#       7
#     8   8   8   8   8   4   8
#     4  10  20  32  47  72 104 135 165 201 249 299
#     4   8  14  26  46  71  99 134 172 207 246 295
#     4   8  14  26  45  68  94 126 164 205 247 292
#     4   9  19  37  59  79  99 130 174 216 252 297
#     4  10  20  32  49  77 109 137 166 206 256 305
#     4   9  17  31  51  71  91 117 150 191 240 293
#     4  10  20  34  52  72  94 125 168 210 247 295
#
# _framework density 22.075572000000001
#
# number of rings (size 3 to 8) (size 9 to 14) (size 15 to 20)
#    0.000    2.846    0.000    3.000    0.000    4.923 
#    1.385    3.846    0.000    0.923    0.000    6.462 
#    0.000    0.000    0.000    0.000    0.000    0.000 
#
# Total GULP energy -289843.037227 kJ/mol
# GULP energy per Si atom -5573.904562 kJ/mol
# Density = 2.202533 g / cm^3
# Si number density = 22.075572 Si / 1000 Ang^3
#
#
#
# Elastic Constant Matrix: (Units=GPa)
#
#
# Indices 1 2 3 4 5 6 
#
# 1 204.6915 111.6862 8.3497 0.0000 0.0000 0.0000
# 2 111.6862 164.7794 4.1409 0.0000 0.0000 0.0000
# 3 8.3497 4.1409 69.1036 0.0000 0.0000 0.0000
# 4 0.0000 0.0000 0.0000 18.8410 0.0000 0.0000
# 5 0.0000 0.0000 0.0000 0.0000 5.0178 0.0000
# 6 0.0000 0.0000 0.0000 0.0000 0.0000 44.0804
#
#
#
# Elastic Compliance Matrix: (Units=1/GPa)
#
#
# Indices 1 2 3 4 5 6 
#
# 1 0.007779 -0.005257 -0.000625 0.000000 0.000000 0.000000
# 2 -0.005257 0.009630 0.000058 0.000000 0.000000 0.000000
# 3 -0.000625 0.000058 0.014543 0.000000 0.000000 0.000000
# 4 0.000000 0.000000 0.000000 0.053076 0.000000 0.000000
# 5 0.000000 0.000000 0.000000 0.000000 0.199291 0.000000
# 6 0.000000 0.000000 0.000000 0.000000 0.000000 0.022686
#
#
# Mechanical properties :
#
#
# Convention : Reuss Voigt Hill
#
# Bulk Modulus (GPa) = 49.24883 76.32536 62.78710
# Shear Modulus (GPa) = 15.36467 34.54767 24.95617
#
# Velocity S-wave (km/s) = 2.64105 3.96027 3.36592
# Velocity P-wave (km/s) = 5.62653 7.45394 6.60375
#
# Compressibility (1/GPa) = 0.02030505
#
# Stress axis : x y z
#
# Youngs Moduli (GPa) = 128.54611 103.83732 68.76134
#
# Poissons Ratio (x) = 0.54588 0.04297
# Poissons Ratio (y) = 0.67577 -0.00400
# Poissons Ratio (z) = 0.08033 -0.00603
#
# Static dielectric constant tensor:
#      x y z
#    x 1.798420 0.000000 0.000000 
#    y 0.000000 1.907290 0.000000 
#    z 0.000000 0.000000 1.914640 
# 
# From -- ./inp_files/29575.got.cif
#   From: 2010.05.17/outbox.cif.g08.bks.cpg/sg47_15_cif.got.tgz:29575.got - 2010.06.03 20:15:42.
