data_PCOD9384058
_publ_section_title
;
Structure prediction by ZEFSAII (Michael W. Deem and Ramdas Pophale) SiO2 
 PCOD9384058
Probable space group: P M M M
;
_chemical_formula_sum "Si O2"
_cell_formula_units_Z 45
_cell_length_a 22.335252
_cell_length_b 13.386357
_cell_length_c 7.635585
_cell_angle_alpha 90.000000
_cell_angle_beta 90.000000
_cell_angle_gamma 90.000000
_cell_volume 2282.945669
_symmetry_space_group_name_H-M "P M M M"
_symmetry_group_IT_number 47
_symmetry_cell_setting 'orthorhombic'
loop_
_space_group_symop_operation_xyz
x,y,z
-x,-y,z
x,-y,-z
-x,y,-z
-x,-y,-z
x,y,-z
-x,y,z
x,-y,z
loop_
_atom_site_type_symbol
_atom_site_label
_atom_site_fract_x
_atom_site_fract_y
_atom_site_fract_z
Si Si1 0.500000 0.000000 0.500000
Si Si2 0.068314 0.282726 0.791630
Si Si3 0.704369 0.112257 0.707450
Si Si4 0.428957 0.500000 0.713830
Si Si5 0.068239 0.500000 0.708421
Si Si6 0.156049 0.888591 0.787910
Si Si7 0.617098 0.713891 0.287239
Si Si8 0.500000 0.835780 0.195339
O O1 0.500000 0.084755 0.347582
O O2 0.094347 0.393778 0.763195
O O3 0.111645 0.196927 0.721907
O O4 0.000000 0.279269 0.720509
O O5 0.063901 0.268148 0.000000
O O6 0.691417 0.107276 0.500000
O O7 0.775288 0.125103 0.732270
O O8 0.669808 0.210596 0.774061
O O9 0.688193 0.000000 0.777947
O O10 0.500000 0.500000 0.768697
O O11 0.431112 0.500000 0.500000
O O12 0.392346 0.599055 0.768826
O O13 0.065596 0.500000 0.500000
O O14 0.000000 0.500000 0.781022
O O15 0.137047 0.000000 0.732859
O O16 0.155633 0.886225 0.000000
O O17 0.619463 0.711991 0.500000
O O18 0.557640 0.768033 0.223816
O O19 0.500000 0.877983 0.000000
#
# Coordination Sequence:
#
# PCOD9384058 Si02
#       8
#     1   8   8   4   4   8   8   4
#     4  12  26  44  56  80 136 152 178 248 284 342
#     4   9  17  30  50  74 101 135 174 217 272 333
#     4   9  19  33  53  74 101 146 189 225 275 331
#     4   9  16  30  57  84 107 149 189 221 283 341
#     4   9  17  29  46  71 100 130 165 209 261 314
#     4   9  18  33  51  73 103 137 175 223 271 321
#     4  10  19  36  58  81 114 149 187 235 283 336
#     4  12  25  38  60  89 116 155 192 232 293 346
#
# _framework density 19.711375
#
# number of rings (size 3 to 8) (size 9 to 14) (size 15 to 20)
#    0.000    2.489    1.778    0.400    1.244    2.844 
#    0.000    3.556    0.000    1.067    0.000    4.978 
#    0.000    0.000    0.000    0.000    0.000    0.000 
#
# Total GULP energy -250516.052488 kJ/mol
# GULP energy per Si atom -5567.023389 kJ/mol
# Density = 1.966651 g / cm^3
# Si number density = 19.711375 Si / 1000 Ang^3
#
#
#
# Elastic Constant Matrix: (Units=GPa)
#
#
# Indices 1 2 3 4 5 6 
#
# 1 75.5833 96.8926 -3.2433 0.0000 0.0000 0.0000
# 2 96.8926 235.0790 25.7949 0.0000 0.0000 0.0000
# 3 -3.2433 25.7949 52.6721 0.0000 0.0000 0.0000
# 4 0.0000 0.0000 0.0000 11.9825 0.0000 0.0000
# 5 0.0000 0.0000 0.0000 0.0000 17.3377 0.0000
# 6 0.0000 0.0000 0.0000 0.0000 0.0000 33.1938
#
#
#
# Elastic Compliance Matrix: (Units=1/GPa)
#
#
# Indices 1 2 3 4 5 6 
#
# 1 0.031462 -0.013929 0.008759 0.000000 0.000000 0.000000
# 2 -0.013929 0.010662 -0.006079 0.000000 0.000000 0.000000
# 3 0.008759 -0.006079 0.022502 0.000000 0.000000 0.000000
# 4 0.000000 0.000000 0.000000 0.083455 0.000000 0.000000
# 5 0.000000 0.000000 0.000000 0.000000 0.057678 0.000000
# 6 0.000000 0.000000 0.000000 0.000000 0.000000 0.030126
#
#
# Mechanical properties :
#
#
# Convention : Reuss Voigt Hill
#
# Bulk Modulus (GPa) = 23.73770 66.91365 45.32567
# Shear Modulus (GPa) = 18.35365 28.76215 23.55790
#
# Velocity S-wave (km/s) = 3.05474 3.82405 3.46083
# Velocity P-wave (km/s) = 4.95082 7.31561 6.24615
#
# Compressibility (1/GPa) = 0.04212708
#
# Stress axis : x y z
#
# Youngs Moduli (GPa) = 31.78438 93.79131 44.44092
#
# Poissons Ratio (x) = 1.30640 -0.38924
# Poissons Ratio (y) = 0.44272 0.27016
# Poissons Ratio (z) = -0.27838 0.57017
#
# Static dielectric constant tensor:
#      x y z
#    x 1.672540 0.000000 0.000000 
#    y 0.000000 1.725100 0.000000 
#    z 0.000000 0.000000 1.724200 
# 
# From -- ./inp_files/12394.got.cif
#   From: 2010.05.17/outbox.cif.g08.bks.cpg/sg47_7_cif.got.tgz:12394.got - 2010.06.03 20:15:42.
