data_PCOD9384860
_publ_section_title
;
Structure prediction by ZEFSAII (Michael W. Deem and Ramdas Pophale) SiO2 
 PCOD9384860
Probable space group: P M M M
;
_chemical_formula_sum "Si O2"
_cell_formula_units_Z 64
_cell_length_a 26.054545
_cell_length_b 7.571641
_cell_length_c 15.185935
_cell_angle_alpha 90.000000
_cell_angle_beta 90.000000
_cell_angle_gamma 90.000000
_cell_volume 2995.815367
_symmetry_space_group_name_H-M "P M M M"
_symmetry_group_IT_number 47
_symmetry_cell_setting 'orthorhombic'
loop_
_space_group_symop_operation_xyz
x,y,z
-x,-y,z
x,-y,-z
-x,y,-z
-x,-y,-z
x,y,-z
-x,y,z
x,-y,z
loop_
_atom_site_type_symbol
_atom_site_label
_atom_site_fract_x
_atom_site_fract_y
_atom_site_fract_z
Si Si1 0.364633 0.288259 0.253469
Si Si2 0.841363 0.711455 0.399540
Si Si3 0.250439 0.703519 0.277883
Si Si4 0.944557 0.787040 0.708979
Si Si5 0.201016 0.788087 0.904079
Si Si6 0.557129 0.787809 0.100817
Si Si7 0.920910 0.213083 0.904069
Si Si8 0.557723 0.715510 0.600030
O O1 0.361074 0.500000 0.261250
O O2 0.307208 0.216982 0.267266
O O3 0.395399 0.257767 0.163122
O O4 0.401325 0.220042 0.330568
O O5 0.843408 0.778855 0.500000
O O6 0.835623 0.500000 0.404063
O O7 0.792518 0.781701 0.343669
O O8 0.894380 0.740916 0.346930
O O9 0.257066 0.500000 0.306310
O O10 0.226866 0.706091 0.180343
O O11 0.941197 0.721945 0.810355
O O12 0.000000 0.730234 0.671739
O O13 0.944564 0.000000 0.713063
O O14 0.140151 0.755013 0.901403
O O15 0.207672 0.000000 0.898808
O O16 0.220446 0.729081 0.000000
O O17 0.500000 0.725936 0.131656
O O18 0.554985 0.000000 0.098793
O O19 0.563970 0.726355 0.000000
O O20 0.928929 0.000000 0.904923
O O21 0.939515 0.278191 0.000000
O O22 0.568851 0.768701 0.500000
O O23 0.500000 0.771473 0.622774
O O24 0.558000 0.500000 0.601531
#
# Coordination Sequence:
#
# PCOD9384860 Si02
#       8
#     8   8   8   8   8   8   8   8
#     4  10  20  32  50  78 107 133 168 217 266 308
#     4  10  22  40  58  74  99 140 183 218 261 319
#     4  10  21  35  51  75 105 136 172 216 263 307
#     4  10  20  34  56  85 111 134 167 217 269 312
#     4   9  17  31  53  76  98 131 172 207 243 297
#     4   9  19  36  55  75 104 144 185 220 257 305
#     4   8  14  27  49  77 106 133 162 198 244 300
#     4   8  14  26  46  72  99 125 155 196 249 305
#
# _framework density 21.363133000000001
#
# number of rings (size 3 to 8) (size 9 to 14) (size 15 to 20)
#    0.000    2.750    1.250    1.875    0.000    3.750 
#    0.000    8.125    0.000    0.750    0.000    4.375 
#    0.000    0.000    0.000    0.000    0.000    0.000 
#
# Total GULP energy -356952.672035 kJ/mol
# GULP energy per Si atom -5577.385501 kJ/mol
# Density = 2.131451 g / cm^3
# Si number density = 21.363133 Si / 1000 Ang^3
#
#
#
# Elastic Constant Matrix: (Units=GPa)
#
#
# Indices 1 2 3 4 5 6 
#
# 1 179.5345 12.4852 113.8977 0.0000 0.0000 0.0000
# 2 12.4852 46.5401 4.4048 0.0000 0.0000 0.0000
# 3 113.8977 4.4048 157.1490 0.0000 0.0000 0.0000
# 4 0.0000 0.0000 0.0000 10.5336 0.0000 0.0000
# 5 0.0000 0.0000 0.0000 0.0000 70.4952 0.0000
# 6 0.0000 0.0000 0.0000 0.0000 0.0000 7.3135
#
#
#
# Elastic Compliance Matrix: (Units=1/GPa)
#
#
# Indices 1 2 3 4 5 6 
#
# 1 0.010513 -0.002105 -0.007560 0.000000 0.000000 0.000000
# 2 -0.002105 0.021965 0.000910 0.000000 0.000000 0.000000
# 3 -0.007560 0.000910 0.011817 0.000000 0.000000 0.000000
# 4 0.000000 0.000000 0.000000 0.094935 0.000000 0.000000
# 5 0.000000 0.000000 0.000000 0.000000 0.014185 0.000000
# 6 0.000000 0.000000 0.000000 0.000000 0.000000 0.136733
#
#
# Mechanical properties :
#
#
# Convention : Reuss Voigt Hill
#
# Bulk Modulus (GPa) = 37.33442 71.64433 54.48937
# Shear Modulus (GPa) = 15.79345 34.49752 25.14548
#
# Velocity S-wave (km/s) = 2.72193 4.02284 3.43454
# Velocity P-wave (km/s) = 5.23379 7.42879 6.42571
#
# Compressibility (1/GPa) = 0.02678494
#
# Stress axis : x y z
#
# Youngs Moduli (GPa) = 95.12383 45.52623 84.62099
#
# Poissons Ratio (x) = 0.09582 0.63976
# Poissons Ratio (y) = 0.20020 -0.07698
# Poissons Ratio (z) = 0.71916 -0.04142
#
# Static dielectric constant tensor:
#      x y z
#    x 1.773710 0.000000 0.000000 
#    y 0.000000 1.830350 0.000000 
#    z 0.000000 0.000000 1.789730 
# 
# From -- ./inp_files/21911.got.cif
#   From: 2010.05.17/outbox.cif.g08.bks.cpg/sg47_11_cif.got.tgz:21911.got - 2010.06.03 20:15:42.
