data_PCOD9384927
_publ_section_title
;
Structure prediction by ZEFSAII (Michael W. Deem and Ramdas Pophale) SiO2 
 PCOD9384927
Probable space group: P M M M
;
_chemical_formula_sum "Si O2"
_cell_formula_units_Z 52
_cell_length_a 14.771482
_cell_length_b 26.181118
_cell_length_c 7.477479
_cell_angle_alpha 90.000000
_cell_angle_beta 90.000000
_cell_angle_gamma 90.000000
_cell_volume 2891.794715
_symmetry_space_group_name_H-M "P M M M"
_symmetry_group_IT_number 47
_symmetry_cell_setting 'orthorhombic'
loop_
_space_group_symop_operation_xyz
x,y,z
-x,-y,z
x,-y,-z
-x,y,-z
-x,-y,-z
x,y,-z
-x,y,z
x,-y,z
loop_
_atom_site_type_symbol
_atom_site_label
_atom_site_fract_x
_atom_site_fract_y
_atom_site_fract_z
Si Si1 0.100671 0.094122 0.789259
Si Si2 0.100290 0.785465 0.715760
Si Si3 0.705806 0.944500 0.292522
Si Si4 0.609574 0.557878 0.000000
Si Si5 0.288242 0.256981 0.281738
Si Si6 0.607443 0.641008 0.287506
Si Si7 0.604622 0.155918 0.281238
O O1 0.114380 0.154945 0.762708
O O2 0.186643 0.065394 0.711572
O O3 0.000000 0.081636 0.718511
O O4 0.100407 0.083571 0.000000
O O5 0.099538 0.783119 0.500000
O O6 0.185049 0.752112 0.777662
O O7 0.000000 0.770715 0.780192
O O8 0.677932 0.946527 0.500000
O O9 0.656301 0.894732 0.216376
O O10 0.685539 0.000000 0.212219
O O11 0.633916 0.591527 0.173134
O O12 0.644585 0.500000 0.000000
O O13 0.500000 0.554790 0.000000
O O14 0.288766 0.256928 0.500000
O O15 0.335584 0.309587 0.228808
O O16 0.345508 0.207584 0.223803
O O17 0.619929 0.633095 0.500000
O O18 0.500000 0.650929 0.258473
O O19 0.608228 0.156121 0.500000
O O20 0.500000 0.155521 0.229204
#
# Coordination Sequence:
#
# PCOD9384927 Si02
#       7
#     8   8   8   4   8   8   8
#     4  10  20  33  48  66  88 113 144 184 233 289
#     4   9  16  28  48  70  93 121 151 186 231 284
#     4  10  20  33  48  66  86 110 147 191 231 279
#     4   9  18  32  48  70 103 139 174 206 236 277
#     4   9  15  26  45  69  96 123 153 190 235 283
#     4   9  17  29  46  70 100 133 168 205 242 280
#     4   9  16  27  45  68  91 116 147 186 235 284
#
# _framework density 17.981912000000001
#
# number of rings (size 3 to 8) (size 9 to 14) (size 15 to 20)
#    0.000    2.692    1.538    0.923    0.000    4.000 
#    1.385    4.615    0.000    0.462    0.000    1.077 
#    0.000    1.231    0.000    6.000    0.000    0.154 
#
# Total GULP energy -290079.678512 kJ/mol
# GULP energy per Si atom -5578.455356 kJ/mol
# Density = 1.794098 g / cm^3
# Si number density = 17.981912 Si / 1000 Ang^3
#
#
#
# Elastic Constant Matrix: (Units=GPa)
#
#
# Indices 1 2 3 4 5 6 
#
# 1 93.8134 66.0575 11.1564 0.0000 0.0000 0.0000
# 2 66.0575 152.2649 24.3710 0.0000 0.0000 0.0000
# 3 11.1564 24.3710 56.6576 0.0000 0.0000 0.0000
# 4 0.0000 0.0000 0.0000 43.2750 0.0000 0.0000
# 5 0.0000 0.0000 0.0000 0.0000 -9.6807 0.0000
# 6 0.0000 0.0000 0.0000 0.0000 0.0000 19.0028
#
#
#
# Elastic Compliance Matrix: (Units=1/GPa)
#
#
# Indices 1 2 3 4 5 6 
#
# 1 0.015349 -0.006632 -0.000170 0.000000 0.000000 0.000000
# 2 -0.006632 0.009918 -0.002961 0.000000 0.000000 0.000000
# 3 -0.000170 -0.002961 0.018957 0.000000 0.000000 0.000000
# 4 0.000000 0.000000 0.000000 0.023108 0.000000 0.000000
# 5 0.000000 0.000000 0.000000 0.000000 -0.103298 0.000000
# 6 0.000000 0.000000 0.000000 0.000000 0.000000 0.052624
#
#
# Mechanical properties :
#
#
# Convention : Reuss Voigt Hill
#
# Bulk Modulus (GPa) = 40.48530 56.21174 48.34852
# Shear Modulus (GPa) = 112.57183 23.92948 68.25065
#
# Velocity S-wave (km/s) = 7.92078 3.65191 6.16746
# Velocity P-wave (km/s) = 10.30606 7.00785 8.81263
#
# Compressibility (1/GPa) = 0.02470033
#
# Stress axis : x y z
#
# Youngs Moduli (GPa) = 65.14903 100.82174 52.75164
#
# Poissons Ratio (x) = 0.66864 0.00895
# Poissons Ratio (y) = 0.43206 0.15617
# Poissons Ratio (z) = 0.01106 0.29848
#
# Static dielectric constant tensor:
#      x y z
#    x 1.621700 0.000000 0.000000 
#    y 0.000000 1.590120 0.000000 
#    z 0.000000 0.000000 1.740280 
# 
# From -- ./inp_files/6938.got.cif
#   From: 2010.05.17/outbox.cif.g08.bks.cpg/sg47_4_cif.got.tgz:6938.got - 2010.06.03 20:15:42.
