data_PCOD9384883
_publ_section_title
;
Structure prediction by ZEFSAII (Michael W. Deem and Ramdas Pophale) SiO2 
 PCOD9384883
Probable space group: P M M M
;
_chemical_formula_sum "Si O2"
_cell_formula_units_Z 64
_cell_length_a 14.179322
_cell_length_b 26.674264
_cell_length_c 9.501335
_cell_angle_alpha 90.000000
_cell_angle_beta 90.000000
_cell_angle_gamma 90.000000
_cell_volume 3593.623222
_symmetry_space_group_name_H-M "P M M M"
_symmetry_group_IT_number 47
_symmetry_cell_setting 'orthorhombic'
loop_
_space_group_symop_operation_xyz
x,y,z
-x,-y,z
x,-y,-z
-x,y,-z
-x,-y,-z
x,y,-z
-x,y,z
x,-y,z
loop_
_atom_site_type_symbol
_atom_site_label
_atom_site_fract_x
_atom_site_fract_y
_atom_site_fract_z
Si Si1 0.387964 0.056837 0.667834
Si Si2 0.698501 0.556084 0.166573
Si Si3 0.891033 0.799593 0.166527
Si Si4 0.613982 0.648793 0.336728
Si Si5 0.885471 0.298368 0.340130
Si Si6 0.386129 0.746923 0.836340
Si Si7 0.706964 0.853414 0.167230
Si Si8 0.891681 0.396535 0.835179
O O1 0.374012 0.061606 0.500000
O O2 0.500000 0.061999 0.694280
O O3 0.333646 0.099999 0.749050
O O4 0.360530 0.000000 0.708762
O O5 0.668850 0.500000 0.207888
O O6 0.651257 0.600230 0.254789
O O7 0.811697 0.561901 0.182956
O O8 0.677851 0.562808 0.000000
O O9 0.859636 0.750867 0.253032
O O10 0.817568 0.843774 0.194020
O O11 0.000000 0.811184 0.200024
O O12 0.885794 0.787735 0.000000
O O13 0.642639 0.648129 0.500000
O O14 0.500000 0.648043 0.331515
O O15 0.644536 0.700226 0.259605
O O16 0.850884 0.297377 0.500000
O O17 0.861997 0.349214 0.258802
O O18 0.000000 0.297860 0.344134
O O19 0.500000 0.750018 0.829714
O O20 0.344404 0.800882 0.795088
O O21 0.359644 0.737479 0.000000
O O22 0.692536 0.860644 0.000000
O O23 0.000000 0.411032 0.801514
O O24 0.890598 0.381531 0.000000
#
# Coordination Sequence:
#
# PCOD9384883 Si02
#       8
#     8   8   8   8   8   8   8   8
#     4   9  19  36  56  79 110 146 180 217 266 322
#     4  10  22  38  56  78 101 129 169 214 260 313
#     4   9  18  32  48  70 106 147 182 217 259 305
#     4  10  22  39  57  77 102 134 171 211 259 315
#     4   9  17  29  46  70  99 131 170 212 252 300
#     4   9  18  33  52  76 107 137 166 208 262 316
#     4  10  20  32  52  82 110 141 182 224 263 305
#     4   9  18  33  53  75 101 133 166 204 253 309
#
# _framework density 17.809324
#
# number of rings (size 3 to 8) (size 9 to 14) (size 15 to 20)
#    0.000    2.625    0.000    1.500    1.750    5.500 
#    0.000    4.375    0.000    0.375    0.000    5.250 
#    0.000    0.000    0.000    0.000    0.000    0.000 
#
# Total GULP energy -357105.688048 kJ/mol
# GULP energy per Si atom -5579.776376 kJ/mol
# Density = 1.776879 g / cm^3
# Si number density = 17.809324 Si / 1000 Ang^3
#
#
#
# Elastic Constant Matrix: (Units=GPa)
#
#
# Indices 1 2 3 4 5 6 
#
# 1 58.3663 56.9528 38.9311 0.0000 0.0000 0.0000
# 2 56.9528 156.6041 79.5180 0.0000 0.0000 0.0000
# 3 38.9311 79.5180 66.7084 0.0000 0.0000 0.0000
# 4 0.0000 0.0000 0.0000 -169.2293 0.0000 0.0000
# 5 0.0000 0.0000 0.0000 0.0000 18.5308 0.0000
# 6 0.0000 0.0000 0.0000 0.0000 0.0000 26.3977
#
#
#
# Elastic Compliance Matrix: (Units=1/GPa)
#
#
# Indices 1 2 3 4 5 6 
#
# 1 0.029545 -0.005040 -0.011234 0.000000 0.000000 0.000000
# 2 -0.005040 0.017037 -0.017367 0.000000 0.000000 0.000000
# 3 -0.011234 -0.017367 0.042248 0.000000 0.000000 0.000000
# 4 0.000000 0.000000 0.000000 -0.005909 0.000000 0.000000
# 5 0.000000 0.000000 0.000000 0.000000 0.053964 0.000000
# 6 0.000000 0.000000 0.000000 0.000000 0.000000 0.037882
#
#
# Mechanical properties :
#
#
# Convention : Reuss Voigt Hill
#
# Bulk Modulus (GPa) = 46.40900 70.27584 58.34242
# Shear Modulus (GPa) = 20.06166 -17.77503 1.14331
#
# Velocity S-wave (km/s) = 3.35993 -3.16266 0.80210
# Velocity P-wave (km/s) = 6.41620 5.11950 5.80417
#
# Compressibility (1/GPa) = 0.02154754
#
# Stress axis : x y z
#
# Youngs Moduli (GPa) = 33.84690 58.69680 23.66958
#
# Poissons Ratio (x) = 0.29585 0.26591
# Poissons Ratio (y) = 0.17060 0.41106
# Poissons Ratio (z) = 0.38024 1.01936
#
# Static dielectric constant tensor:
#      x y z
#    x 1.648370 0.000000 0.000000 
#    y 0.000000 1.566740 0.000000 
#    z 0.000000 0.000000 1.598990 
# 
# From -- ./inp_files/7785.got.cif
#   From: 2010.05.17/outbox.cif.g08.bks.cpg/sg47_4_cif.got.tgz:7785.got - 2010.06.03 20:15:42.
