data_PCOD9384198
_publ_section_title
;
Structure prediction by ZEFSAII (Michael W. Deem and Ramdas Pophale) SiO2 
 PCOD9384198
Probable space group: P M M M
;
_chemical_formula_sum "Si O2"
_cell_formula_units_Z 36
_cell_length_a 7.421588
_cell_length_b 24.647515
_cell_length_c 9.639093
_cell_angle_alpha 90.000000
_cell_angle_beta 90.000000
_cell_angle_gamma 90.000000
_cell_volume 1763.218571
_symmetry_space_group_name_H-M "P M M M"
_symmetry_group_IT_number 47
_symmetry_cell_setting 'orthorhombic'
loop_
_space_group_symop_operation_xyz
x,y,z
-x,-y,z
x,-y,-z
-x,y,-z
-x,-y,-z
x,y,-z
-x,y,z
x,-y,z
loop_
_atom_site_type_symbol
_atom_site_label
_atom_site_fract_x
_atom_site_fract_y
_atom_site_fract_z
Si Si1 0.780236 0.438859 0.840433
Si Si2 0.713711 0.883249 0.168175
Si Si3 0.280333 0.000000 0.164459
Si Si4 0.214624 0.339403 0.343892
Si Si5 0.716763 0.234724 0.841356
O O1 0.725483 0.500000 0.800873
O O2 0.715146 0.391332 0.740619
O O3 0.000000 0.438300 0.839535
O O4 0.725862 0.429026 0.000000
O O5 0.500000 0.883769 0.198686
O O6 0.784264 0.941584 0.219801
O O7 0.784404 0.824201 0.211176
O O8 0.731411 0.883307 0.000000
O O9 0.500000 0.000000 0.173659
O O10 0.238143 0.000000 0.000000
O O11 0.286319 0.335388 0.500000
O O12 0.241658 0.284700 0.257013
O O13 0.000000 0.347124 0.353700
O O14 0.500000 0.230508 0.848566
O O15 0.780526 0.244002 0.000000
#
# Coordination Sequence:
#
# PCOD9384198 Si02
#       5
#     8   8   4   8   8
#     4   8  14  26  45  67  88 110 138 174 216 259
#     4   7  10  17  31  54  82 108 134 167 210 258
#     4   7   8  12  26  50  80 107 128 160 210 259
#     4  10  20  31  44  65  91 118 148 180 214 253
#     4   9  17  29  45  65  89 117 148 180 216 260
#
# _framework density 20.417207999999999
#
# number of rings (size 3 to 8) (size 9 to 14) (size 15 to 20)
#    0.000    3.667    0.000    4.000    0.000    2.222 
#    0.000    2.222    0.000    0.667    0.000    6.222 
#    0.000   10.667    0.000    0.000    0.000    0.000 
#
# Total GULP energy -200468.366567 kJ/mol
# GULP energy per Si atom -5568.565738 kJ/mol
# Density = 2.037074 g / cm^3
# Si number density = 20.417208 Si / 1000 Ang^3
#
#
#
# Elastic Constant Matrix: (Units=GPa)
#
#
# Indices 1 2 3 4 5 6 
#
# 1 63.9249 6.0986 4.3825 0.0000 0.0000 0.0000
# 2 6.0986 261.9592 115.7649 0.0000 0.0000 0.0000
# 3 4.3825 115.7649 88.1234 0.0000 0.0000 0.0000
# 4 0.0000 0.0000 0.0000 -5.9161 0.0000 0.0000
# 5 0.0000 0.0000 0.0000 0.0000 5.9995 0.0000
# 6 0.0000 0.0000 0.0000 0.0000 0.0000 14.9200
#
#
#
# Elastic Compliance Matrix: (Units=1/GPa)
#
#
# Indices 1 2 3 4 5 6 
#
# 1 0.015697 -0.000049 -0.000717 0.000000 0.000000 0.000000
# 2 -0.000049 0.009101 -0.011953 0.000000 0.000000 0.000000
# 3 -0.000717 -0.011953 0.027086 0.000000 0.000000 0.000000
# 4 0.000000 0.000000 0.000000 -0.169030 0.000000 0.000000
# 5 0.000000 0.000000 0.000000 0.000000 0.166682 0.000000
# 6 0.000000 0.000000 0.000000 0.000000 0.000000 0.067024
#
#
# Mechanical properties :
#
#
# Convention : Reuss Voigt Hill
#
# Bulk Modulus (GPa) = 37.81165 74.05552 55.93358
# Shear Modulus (GPa) = 33.15385 22.18476 27.66930
#
# Velocity S-wave (km/s) = 4.03404 3.29989 3.68529
# Velocity P-wave (km/s) = 6.34489 7.13225 6.75006
#
# Compressibility (1/GPa) = 0.02644688
#
# Stress axis : x y z
#
# Youngs Moduli (GPa) = 63.70591 109.88061 36.91993
#
# Poissons Ratio (x) = 0.00536 0.02646
# Poissons Ratio (y) = 0.00311 0.44130
# Poissons Ratio (z) = 0.04565 1.31340
#
# Static dielectric constant tensor:
#      x y z
#    x 1.833960 0.000000 0.000000 
#    y 0.000000 1.776180 0.000000 
#    z 0.000000 0.000000 1.675400 
# 
# From -- ./inp_files/3883.got.cif
#   From: 2010.05.17/outbox.cif.g08.bks.cpg/sg47_2_cif.got.tgz:3883.got - 2010.06.03 20:15:42.
