data_PCOD9384091
_publ_section_title
;
Structure prediction by ZEFSAII (Michael W. Deem and Ramdas Pophale) SiO2 
 PCOD9384091
Probable space group: P M M M
;
_chemical_formula_sum "Si O2"
_cell_formula_units_Z 40
_cell_length_a 7.529047
_cell_length_b 29.615211
_cell_length_c 8.073902
_cell_angle_alpha 90.000000
_cell_angle_beta 90.000000
_cell_angle_gamma 90.000000
_cell_volume 1800.272772
_symmetry_space_group_name_H-M "P M M M"
_symmetry_group_IT_number 47
_symmetry_cell_setting 'orthorhombic'
loop_
_space_group_symop_operation_xyz
x,y,z
-x,-y,z
x,-y,-z
-x,y,-z
-x,-y,-z
x,y,-z
-x,y,z
x,-y,z
loop_
_atom_site_type_symbol
_atom_site_label
_atom_site_fract_x
_atom_site_fract_y
_atom_site_fract_z
Si Si1 0.301904 0.305981 0.194943
Si Si2 0.717622 0.886605 0.307900
Si Si3 0.283119 0.948079 0.000000
Si Si4 0.211209 0.596246 0.686515
Si Si5 0.792896 0.500000 0.296121
Si Si6 0.702824 0.212422 0.302205
O O1 0.500000 0.306442 0.270211
O O2 0.232910 0.356128 0.225550
O O3 0.210616 0.260490 0.260636
O O4 0.310566 0.299830 0.000000
O O5 0.771121 0.895613 0.500000
O O6 0.500000 0.885265 0.310034
O O7 0.778713 0.836243 0.254199
O O8 0.771867 0.922199 0.168014
O O9 0.500000 0.947579 0.000000
O O10 0.225906 0.000000 0.000000
O O11 0.281674 0.601519 0.500000
O O12 0.283081 0.548662 0.757211
O O13 0.000000 0.589281 0.674953
O O14 0.786703 0.500000 0.500000
O O15 0.000000 0.500000 0.244953
O O16 0.692087 0.210016 0.500000
O O17 0.500000 0.214079 0.233374
#
# Coordination Sequence:
#
# PCOD9384091 Si02
#       6
#     8   8   4   8   4   8
#     4  10  20  30  42  64  92 119 146 180 223 268
#     4   8  14  23  34  48  67  95 134 177 219 263
#     4   9  16  22  30  46  68  98 135 176 221 262
#     4   9  17  31  51  70  87 111 145 184 224 266
#     4   7  12  26  48  69  84 104 142 185 218 257
#     4   8  14  25  40  56  74 101 138 179 219 257
#
# _framework density 22.218855000000001
#
# number of rings (size 3 to 8) (size 9 to 14) (size 15 to 20)
#    0.000    3.400    0.000    3.000    1.400    2.000 
#    0.000    3.000    0.000    4.800    0.000    0.000 
#    0.000    0.000    0.000    0.000    0.000    2.000 
#
# Total GULP energy -222680.101905 kJ/mol
# GULP energy per Si atom -5567.002548 kJ/mol
# Density = 2.216828 g / cm^3
# Si number density = 22.218855 Si / 1000 Ang^3
#
#
#
# Elastic Constant Matrix: (Units=GPa)
#
#
# Indices 1 2 3 4 5 6 
#
# 1 51.4072 12.6305 1.4850 0.0000 0.0000 0.0000
# 2 12.6305 262.8786 83.1455 0.0000 0.0000 0.0000
# 3 1.4850 83.1455 67.6216 0.0000 0.0000 0.0000
# 4 0.0000 0.0000 0.0000 72.1531 0.0000 0.0000
# 5 0.0000 0.0000 0.0000 0.0000 0.0180 0.0000
# 6 0.0000 0.0000 0.0000 0.0000 0.0000 3.3920
#
#
#
# Elastic Compliance Matrix: (Units=1/GPa)
#
#
# Indices 1 2 3 4 5 6 
#
# 1 0.019744 -0.001328 0.001199 0.000000 0.000000 0.000000
# 2 -0.001328 0.006314 -0.007735 0.000000 0.000000 0.000000
# 3 0.001199 -0.007735 0.024272 0.000000 0.000000 0.000000
# 4 0.000000 0.000000 0.000000 0.013859 0.000000 0.000000
# 5 0.000000 0.000000 0.000000 0.000000 55.654864 0.000000
# 6 0.000000 0.000000 0.000000 0.000000 0.000000 0.294811
#
#
# Mechanical properties :
#
#
# Convention : Reuss Voigt Hill
#
# Bulk Modulus (GPa) = 28.89858 64.04770 46.47314
# Shear Modulus (GPa) = 0.08922 34.08904 17.08913
#
# Velocity S-wave (km/s) = 0.20060 3.92119 2.77632
# Velocity P-wave (km/s) = 3.61776 7.02776 5.58917
#
# Compressibility (1/GPa) = 0.03460378
#
# Stress axis : x y z
#
# Youngs Moduli (GPa) = 50.64785 158.37307 41.19962
#
# Poissons Ratio (x) = 0.21031 -0.04941
# Poissons Ratio (y) = 0.06726 0.31866
# Poissons Ratio (z) = -0.06074 1.22495
#
# Static dielectric constant tensor:
#      x y z
#    x 1.908870 0.000000 0.000000 
#    y 0.000000 1.882060 0.000000 
#    z 0.000000 0.000000 1.772070 
# 
# From -- ./inp_files/1695.got.cif
#   From: 2010.05.17/outbox.cif.g08.bks.cpg/sg47_1_cif.got.tgz:1695.got - 2010.06.03 20:15:42.
