data_PCOD9384877
_publ_section_title
;
Structure prediction by ZEFSAII (Michael W. Deem and Ramdas Pophale) SiO2 
 PCOD9384877
Probable space group: P M M M
;
_chemical_formula_sum "Si O2"
_cell_formula_units_Z 64
_cell_length_a 26.867969
_cell_length_b 9.259870
_cell_length_c 14.445676
_cell_angle_alpha 90.000000
_cell_angle_beta 90.000000
_cell_angle_gamma 90.000000
_cell_volume 3593.996072
_symmetry_space_group_name_H-M "P M M M"
_symmetry_group_IT_number 47
_symmetry_cell_setting 'orthorhombic'
loop_
_space_group_symop_operation_xyz
x,y,z
-x,-y,z
x,-y,-z
-x,y,-z
-x,-y,-z
x,y,-z
-x,y,z
x,-y,z
loop_
_atom_site_type_symbol
_atom_site_label
_atom_site_fract_x
_atom_site_fract_y
_atom_site_fract_z
Si Si1 0.145559 0.827481 0.788220
Si Si2 0.056846 0.326559 0.891726
Si Si3 0.299062 0.663768 0.612295
Si Si4 0.400220 0.828097 0.608786
Si Si5 0.348623 0.327088 0.891067
Si Si6 0.198739 0.828422 0.392755
Si Si7 0.248008 0.828825 0.110712
Si Si8 0.445087 0.672738 0.773655
O O1 0.098379 0.748101 0.830124
O O2 0.155252 0.798005 0.679903
O O3 0.196688 0.784082 0.840558
O O4 0.139996 0.000000 0.800848
O O5 0.060432 0.500000 0.884081
O O6 0.000000 0.285340 0.867689
O O7 0.064858 0.289490 0.000000
O O8 0.298603 0.656850 0.500000
O O9 0.303099 0.500000 0.647992
O O10 0.347082 0.758222 0.635598
O O11 0.247689 0.741003 0.637066
O O12 0.409194 0.797784 0.500000
O O13 0.439216 0.753785 0.676480
O O14 0.398996 0.000000 0.620620
O O15 0.343573 0.500000 0.883070
O O16 0.297681 0.253295 0.857293
O O17 0.398657 0.283005 0.837660
O O18 0.353923 0.291855 0.000000
O O19 0.187282 0.795083 0.500000
O O20 0.209988 0.000000 0.387109
O O21 0.254538 0.000000 0.127237
O O22 0.243003 0.806075 0.000000
O O23 0.500000 0.701574 0.813780
O O24 0.441156 0.500000 0.759179
#
# Coordination Sequence:
#
# PCOD9384877 Si02
#       8
#     8   8   8   8   8   8   8   8
#     4  10  20  32  51  80 109 142 183 222 261 307
#     4   9  19  36  56  79 109 143 178 220 271 322
#     4   9  17  30  49  73 100 131 170 213 256 305
#     4  10  21  36  54  75 101 134 170 209 255 311
#     4   9  19  36  56  77 101 132 170 209 254 312
#     4   9  18  32  48  71 108 148 183 219 260 305
#     4   9  18  32  49  73 106 137 165 206 260 312
#     4  10  22  38  55  77 102 129 167 216 265 312
#
# _framework density 17.807478
#
# number of rings (size 3 to 8) (size 9 to 14) (size 15 to 20)
#    0.000    2.625    0.000    1.500    1.750    5.500 
#    0.000    4.375    0.000    0.375    0.000    5.250 
#    0.000    0.000    0.000    0.000    0.000    0.000 
#
# Total GULP energy -357091.992432 kJ/mol
# GULP energy per Si atom -5579.562382 kJ/mol
# Density = 1.776695 g / cm^3
# Si number density = 17.807478 Si / 1000 Ang^3
#
#
#
# Elastic Constant Matrix: (Units=GPa)
#
#
# Indices 1 2 3 4 5 6 
#
# 1 140.0379 44.4824 69.1160 0.0000 0.0000 0.0000
# 2 44.4824 27.0510 32.8754 0.0000 0.0000 0.0000
# 3 69.1160 32.8754 76.4847 0.0000 0.0000 0.0000
# 4 0.0000 0.0000 0.0000 20.1036 0.0000 0.0000
# 5 0.0000 0.0000 0.0000 0.0000 31.8446 0.0000
# 6 0.0000 0.0000 0.0000 0.0000 0.0000 54.1833
#
#
#
# Elastic Compliance Matrix: (Units=1/GPa)
#
#
# Indices 1 2 3 4 5 6 
#
# 1 0.016478 -0.018843 -0.006791 0.000000 0.000000 0.000000
# 2 -0.018843 0.098946 -0.025502 0.000000 0.000000 0.000000
# 3 -0.006791 -0.025502 0.030173 0.000000 0.000000 0.000000
# 4 0.000000 0.000000 0.000000 0.049742 0.000000 0.000000
# 5 0.000000 0.000000 0.000000 0.000000 0.031402 0.000000
# 6 0.000000 0.000000 0.000000 0.000000 0.000000 0.018456
#
#
# Mechanical properties :
#
#
# Convention : Reuss Voigt Hill
#
# Bulk Modulus (GPa) = 23.08194 59.61347 41.34771
# Shear Modulus (GPa) = 13.81550 27.69962 20.75756
#
# Velocity S-wave (km/s) = 2.78839 3.94827 3.41789
# Velocity P-wave (km/s) = 4.83290 7.37119 6.23263
#
# Compressibility (1/GPa) = 0.04332391
#
# Stress axis : x y z
#
# Youngs Moduli (GPa) = 60.68631 10.10656 33.14192
#
# Poissons Ratio (x) = 0.19044 0.22508
# Poissons Ratio (y) = 1.14351 0.84520
# Poissons Ratio (z) = 0.41214 0.25774
#
# Static dielectric constant tensor:
#      x y z
#    x 1.585780 0.000000 0.000000 
#    y 0.000000 1.596350 0.000000 
#    z 0.000000 0.000000 1.638950 
# 
# From -- ./inp_files/7839.got.cif
#   From: 2010.05.17/outbox.cif.g08.bks.cpg/sg47_4_cif.got.tgz:7839.got - 2010.06.03 20:15:42.
