data_PCOD9384475
_publ_section_title
;
Structure prediction by ZEFSAII (Michael W. Deem and Ramdas Pophale) SiO2 
 PCOD9384475
Probable space group: P M M M
;
_chemical_formula_sum "Si O2"
_cell_formula_units_Z 52
_cell_length_a 15.208752
_cell_length_b 13.433696
_cell_length_c 15.393369
_cell_angle_alpha 90.000000
_cell_angle_beta 90.000000
_cell_angle_gamma 90.000000
_cell_volume 3145.015386
_symmetry_space_group_name_H-M "P M M M"
_symmetry_group_IT_number 47
_symmetry_cell_setting 'orthorhombic'
loop_
_space_group_symop_operation_xyz
x,y,z
-x,-y,z
x,-y,-z
-x,y,-z
-x,-y,-z
x,y,-z
-x,y,z
x,-y,z
loop_
_atom_site_type_symbol
_atom_site_label
_atom_site_fract_x
_atom_site_fract_y
_atom_site_fract_z
Si Si1 0.607117 0.886914 0.000000
Si Si2 0.899925 0.888458 0.394503
Si Si3 0.397027 0.779686 0.824808
Si Si4 0.397112 0.884967 0.356433
Si Si5 0.899493 0.620820 0.099594
Si Si6 0.752537 0.267219 0.599248
Si Si7 0.258106 0.382260 0.228555
O O1 0.633705 0.829853 0.913494
O O2 0.500000 0.889756 0.000000
O O3 0.638512 0.000000 0.000000
O O4 0.899354 0.890223 0.500000
O O5 0.830640 0.805663 0.369522
O O6 0.000000 0.867629 0.367310
O O7 0.875730 0.000000 0.365320
O O8 0.500000 0.753592 0.832038
O O9 0.389971 0.858822 0.745991
O O10 0.339500 0.683502 0.804222
O O11 0.500000 0.873317 0.380762
O O12 0.333994 0.803188 0.399110
O O13 0.372085 0.000000 0.374150
O O14 0.900793 0.500000 0.099231
O O15 0.827463 0.648765 0.171663
O O16 0.000000 0.653469 0.118518
O O17 0.877277 0.651485 0.000000
O O18 0.767840 0.299722 0.500000
O O19 0.749138 0.354215 0.669762
O O20 0.270982 0.500000 0.217327
#
# Coordination Sequence:
#
# PCOD9384475 Si02
#       7
#     4   8   8   8   8   8   8
#     4   9  16  28  49  75 102 129 153 183 235 301
#     4   8  14  26  45  68  93 120 149 186 239 301
#     4   9  18  31  47  71 101 131 163 197 237 292
#     4   9  17  30  48  69  95 126 160 203 252 295
#     4   8  15  30  52  74  93 115 149 197 246 285
#     4  10  20  32  46  67  95 127 166 210 251 294
#     4  10  21  34  49  69  95 131 170 210 249 286
#
# _framework density 16.534099999999999
#
# number of rings (size 3 to 8) (size 9 to 14) (size 15 to 20)
#    0.000    3.000    0.000    1.846    1.077    4.308 
#    0.000    0.769    0.000    1.385    0.000    8.615 
#    0.000    0.615    0.000    0.000    0.000    0.000 
#
# Total GULP energy -289531.906982 kJ/mol
# GULP energy per Si atom -5567.921288 kJ/mol
# Density = 1.649647 g / cm^3
# Si number density = 16.534100 Si / 1000 Ang^3
#
#
#
# Elastic Constant Matrix: (Units=GPa)
#
#
# Indices 1 2 3 4 5 6 
#
# 1 50.8271 24.1902 23.7418 0.0000 0.0000 0.0000
# 2 24.1902 61.5824 25.5825 0.0000 0.0000 0.0000
# 3 23.7418 25.5825 87.1673 0.0000 0.0000 0.0000
# 4 0.0000 0.0000 0.0000 4.7661 0.0000 0.0000
# 5 0.0000 0.0000 0.0000 0.0000 19.1042 0.0000
# 6 0.0000 0.0000 0.0000 0.0000 0.0000 17.7869
#
#
#
# Elastic Compliance Matrix: (Units=1/GPa)
#
#
# Indices 1 2 3 4 5 6 
#
# 1 0.025723 -0.008193 -0.004602 0.000000 0.000000 0.000000
# 2 -0.008193 0.021102 -0.003962 0.000000 0.000000 0.000000
# 3 -0.004602 -0.003962 0.013888 0.000000 0.000000 0.000000
# 4 0.000000 0.000000 0.000000 0.209814 0.000000 0.000000
# 5 0.000000 0.000000 0.000000 0.000000 0.052344 0.000000
# 6 0.000000 0.000000 0.000000 0.000000 0.000000 0.056221
#
#
# Mechanical properties :
#
#
# Convention : Reuss Voigt Hill
#
# Bulk Modulus (GPa) = 36.76290 38.51175 37.63733
# Shear Modulus (GPa) = 11.85751 16.73561 14.29656
#
# Velocity S-wave (km/s) = 2.68088 3.18494 2.94372
# Velocity P-wave (km/s) = 5.64497 6.07190 5.86232
#
# Compressibility (1/GPa) = 0.02720133
#
# Stress axis : x y z
#
# Youngs Moduli (GPa) = 38.87531 47.38796 72.00286
#
# Poissons Ratio (x) = 0.38823 0.33134
# Poissons Ratio (y) = 0.31849 0.28526
# Poissons Ratio (z) = 0.17890 0.18774
#
# Static dielectric constant tensor:
#      x y z
#    x 1.568700 0.000000 0.000000 
#    y 0.000000 1.532480 0.000000 
#    z 0.000000 0.000000 1.572620 
# 
# From -- ./inp_files/22787.got.cif
#   From: 2010.05.17/outbox.cif.g08.bks.cpg/sg47_12_cif.got.tgz:22787.got - 2010.06.03 20:15:42.
