data_PCOD9384519
_publ_section_title
;
Structure prediction by ZEFSAII (Michael W. Deem and Ramdas Pophale) SiO2 
 PCOD9384519
Probable space group: P M M M
;
_chemical_formula_sum "Si O2"
_cell_formula_units_Z 48
_cell_length_a 9.747365
_cell_length_b 32.433443
_cell_length_c 7.547286
_cell_angle_alpha 90.000000
_cell_angle_beta 90.000000
_cell_angle_gamma 90.000000
_cell_volume 2386.003578
_symmetry_space_group_name_H-M "P M M M"
_symmetry_group_IT_number 47
_symmetry_cell_setting 'orthorhombic'
loop_
_space_group_symop_operation_xyz
x,y,z
-x,-y,z
x,-y,-z
-x,y,-z
-x,-y,-z
x,y,-z
-x,y,z
x,-y,z
loop_
_atom_site_type_symbol
_atom_site_label
_atom_site_fract_x
_atom_site_fract_y
_atom_site_fract_z
Si Si1 0.344253 0.879234 0.787265
Si Si2 0.841464 0.045851 0.783695
Si Si3 0.664898 0.455717 0.212528
Si Si4 0.659522 0.365391 0.217287
Si Si5 0.343871 0.786308 0.709887
Si Si6 0.154573 0.709555 0.790650
O O1 0.500000 0.882607 0.719244
O O2 0.249794 0.916197 0.720428
O O3 0.296030 0.832854 0.748790
O O4 0.349137 0.883056 0.000000
O O5 0.000000 0.050585 0.730668
O O6 0.794047 0.000000 0.729754
O O7 0.839508 0.046330 0.000000
O O8 0.500000 0.455533 0.238894
O O9 0.716875 0.500000 0.282008
O O10 0.710815 0.410750 0.276247
O O11 0.687113 0.456191 0.000000
O O12 0.500000 0.359670 0.269840
O O13 0.754755 0.328293 0.280881
O O14 0.658916 0.365617 0.000000
O O15 0.352722 0.781927 0.500000
O O16 0.500000 0.781519 0.782748
O O17 0.239805 0.751612 0.772848
O O18 0.000000 0.712336 0.717890
O O19 0.142402 0.701680 0.000000
#
# Coordination Sequence:
#
# PCOD9384519 Si02
#       6
#     8   8   8   8   8   8
#     4   9  17  29  47  71  95 118 147 185 227 270
#     4   8  14  25  42  66  95 123 150 182 219 258
#     4   7   9  14  27  50  79 109 142 179 217 258
#     4   8  13  22  38  59  83 114 150 186 224 265
#     4  10  21  36  52  69  91 120 154 193 237 283
#     4  10  20  32  47  68  93 121 154 192 232 275
#
# _framework density 20.117322999999999
#
# number of rings (size 3 to 8) (size 9 to 14) (size 15 to 20)
#    0.000    3.333    0.000    3.000    0.000    3.000 
#    0.000    3.333    0.000    1.000    0.000    7.000 
#    0.000    0.667    0.000    7.667    0.000    8.833 
#
# Total GULP energy -267453.770943 kJ/mol
# GULP energy per Si atom -5571.953561 kJ/mol
# Density = 2.007154 g / cm^3
# Si number density = 20.117323 Si / 1000 Ang^3
#
#
#
# Elastic Constant Matrix: (Units=GPa)
#
#
# Indices 1 2 3 4 5 6 
#
# 1 92.7580 116.1521 4.4670 0.0000 0.0000 0.0000
# 2 116.1521 235.5473 -1.7458 0.0000 0.0000 0.0000
# 3 4.4670 -1.7458 46.3106 0.0000 0.0000 0.0000
# 4 0.0000 0.0000 0.0000 -46.2710 0.0000 0.0000
# 5 0.0000 0.0000 0.0000 0.0000 -1.4259 0.0000
# 6 0.0000 0.0000 0.0000 0.0000 0.0000 4.9762
#
#
#
# Elastic Compliance Matrix: (Units=1/GPa)
#
#
# Indices 1 2 3 4 5 6 
#
# 1 0.028679 -0.014167 -0.003300 0.000000 0.000000 0.000000
# 2 -0.014167 0.011245 0.001790 0.000000 0.000000 0.000000
# 3 -0.003300 0.001790 0.021979 0.000000 0.000000 0.000000
# 4 0.000000 0.000000 0.000000 -0.021612 0.000000 0.000000
# 5 0.000000 0.000000 0.000000 0.000000 -0.701323 0.000000
# 6 0.000000 0.000000 0.000000 0.000000 0.000000 0.200959
#
#
# Mechanical properties :
#
#
# Convention : Reuss Voigt Hill
#
# Bulk Modulus (GPa) = 32.73365 68.04029 50.38697
# Shear Modulus (GPa) = -11.94639 8.50534 -1.72052
#
# Velocity S-wave (km/s) = -2.43952 2.05841 -0.92580
# Velocity P-wave (km/s) = 2.89339 6.28845 4.89470
#
# Compressibility (1/GPa) = 0.03054960
#
# Stress axis : x y z
#
# Youngs Moduli (GPa) = 34.86842 88.93229 45.49758
#
# Poissons Ratio (x) = 1.25987 0.15016
# Poissons Ratio (y) = 0.49397 -0.08146
# Poissons Ratio (z) = 0.11508 -0.15922
#
# Static dielectric constant tensor:
#      x y z
#    x 1.678340 0.000000 0.000000 
#    y 0.000000 1.729970 0.000000 
#    z 0.000000 0.000000 1.752580 
# 
# From -- ./inp_files/2501.got.cif
#   From: 2010.05.17/outbox.cif.g08.bks.cpg/sg47_2_cif.got.tgz:2501.got - 2010.06.03 20:15:42.
