data_PCOD9384854
_publ_section_title
;
Structure prediction by ZEFSAII (Michael W. Deem and Ramdas Pophale) SiO2 
 PCOD9384854
Probable space group: P M M M
;
_chemical_formula_sum "Si O2"
_cell_formula_units_Z 48
_cell_length_a 9.183638
_cell_length_b 8.312193
_cell_length_c 33.779833
_cell_angle_alpha 90.000000
_cell_angle_beta 90.000000
_cell_angle_gamma 90.000000
_cell_volume 2578.623125
_symmetry_space_group_name_H-M "P M M M"
_symmetry_group_IT_number 47
_symmetry_cell_setting 'orthorhombic'
loop_
_space_group_symop_operation_xyz
x,y,z
-x,-y,z
x,-y,-z
-x,y,-z
-x,-y,-z
x,y,-z
-x,y,z
x,-y,z
loop_
_atom_site_type_symbol
_atom_site_label
_atom_site_fract_x
_atom_site_fract_y
_atom_site_fract_z
Si Si1 0.665395 0.807863 0.500000
Si Si2 0.830895 0.308419 0.267867
Si Si3 0.822550 0.500000 0.045727
Si Si4 0.165628 0.307949 0.422561
Si Si5 0.832293 0.807108 0.815730
Si Si6 0.178186 0.813696 0.904304
Si Si7 0.666220 0.191873 0.345230
O O1 0.500000 0.744706 0.500000
O O2 0.748121 0.753737 0.460635
O O3 0.659908 0.000000 0.500000
O O4 0.831920 0.500000 0.271754
O O5 0.768609 0.263192 0.224602
O O6 0.741349 0.236159 0.303915
O O7 0.000000 0.251047 0.269771
O O8 0.777323 0.666473 0.067367
O O9 0.000000 0.500000 0.046637
O O10 0.776831 0.500000 0.000000
O O11 0.160850 0.500000 0.424830
O O12 0.244383 0.260400 0.382057
O O13 0.000000 0.245582 0.422803
O O14 0.770911 0.774503 0.859406
O O15 0.000000 0.747452 0.816774
O O16 0.834654 0.000000 0.811941
O O17 0.000000 0.816018 0.903622
O O18 0.220807 0.000000 0.914190
O O19 0.500000 0.251899 0.346140
O O20 0.664054 0.000000 0.349155
#
# Coordination Sequence:
#
# PCOD9384854 Si02
#       7
#     4   8   4   8   8   8   8
#     4  11  24  41  62  90 120 149 184 221 262 316
#     4  10  20  32  50  77 103 129 166 212 260 311
#     4   9  16  22  30  46  70 106 151 199 251 304
#     4  11  24  41  62  88 115 143 180 224 267 312
#     4   8  14  25  41  61  85 115 152 199 253 302
#     4   8  14  23  34  49  72 105 147 196 250 304
#     4  11  24  40  57  78 106 142 180 215 258 314
#
# _framework density 18.614585000000002
#
# number of rings (size 3 to 8) (size 9 to 14) (size 15 to 20)
#    0.000    2.333    0.000    4.000    1.167    9.667 
#    0.000    1.667    0.000    0.000    0.000    0.000 
#    0.000    0.000    0.000    0.000    0.000    1.667 
#
# Total GULP energy -267679.655840 kJ/mol
# GULP energy per Si atom -5576.659497 kJ/mol
# Density = 1.857222 g / cm^3
# Si number density = 18.614585 Si / 1000 Ang^3
#
#
#
# Elastic Constant Matrix: (Units=GPa)
#
#
# Indices 1 2 3 4 5 6 
#
# 1 76.8553 29.4963 54.2913 0.0000 0.0000 0.0000
# 2 29.4963 70.5586 64.0732 0.0000 0.0000 0.0000
# 3 54.2913 64.0732 158.6752 0.0000 0.0000 0.0000
# 4 0.0000 0.0000 0.0000 41.8276 0.0000 0.0000
# 5 0.0000 0.0000 0.0000 0.0000 -14.9897 0.0000
# 6 0.0000 0.0000 0.0000 0.0000 0.0000 16.0264
#
#
#
# Elastic Compliance Matrix: (Units=1/GPa)
#
#
# Indices 1 2 3 4 5 6 
#
# 1 0.017545 -0.002974 -0.004802 0.000000 0.000000 0.000000
# 2 -0.002974 0.022882 -0.008223 0.000000 0.000000 0.000000
# 3 -0.004802 -0.008223 0.011266 0.000000 0.000000 0.000000
# 4 0.000000 0.000000 0.000000 0.023908 0.000000 0.000000
# 5 0.000000 0.000000 0.000000 0.000000 -0.066713 0.000000
# 6 0.000000 0.000000 0.000000 0.000000 0.000000 0.062397
#
#
# Mechanical properties :
#
#
# Convention : Reuss Voigt Hill
#
# Bulk Modulus (GPa) = 50.77128 66.86785 58.81956
# Shear Modulus (GPa) = 45.51754 19.12142 32.31948
#
# Velocity S-wave (km/s) = 4.95032 3.20852 4.17135
# Velocity P-wave (km/s) = 7.74651 7.05169 7.40726
#
# Compressibility (1/GPa) = 0.01969618
#
# Stress axis : x y z
#
# Youngs Moduli (GPa) = 56.99576 43.70163 88.76583
#
# Poissons Ratio (x) = 0.12995 0.42629
# Poissons Ratio (y) = 0.16948 0.72988
# Poissons Ratio (z) = 0.27372 0.35934
#
# Static dielectric constant tensor:
#      x y z
#    x 1.639730 0.000000 0.000000 
#    y 0.000000 1.639120 0.000000 
#    z 0.000000 0.000000 1.658070 
# 
# From -- ./inp_files/34106.got.cif
#   From: 2010.05.17/outbox.cif.g08.bks.cpg/sg47_18_cif.got.tgz:34106.got - 2010.06.03 20:15:42.
