data_PCOD9384720
_publ_section_title
;
Structure prediction by ZEFSAII (Michael W. Deem and Ramdas Pophale) SiO2 
 PCOD9384720
Probable space group: P M M M
;
_chemical_formula_sum "Si O2"
_cell_formula_units_Z 52
_cell_length_a 23.991709
_cell_length_b 9.284760
_cell_length_c 14.005660
_cell_angle_alpha 90.000000
_cell_angle_beta 90.000000
_cell_angle_gamma 90.000000
_cell_volume 3119.862447
_symmetry_space_group_name_H-M "P M M M"
_symmetry_group_IT_number 47
_symmetry_cell_setting 'orthorhombic'
loop_
_space_group_symop_operation_xyz
x,y,z
-x,-y,z
x,-y,-z
-x,y,-z
-x,-y,-z
x,y,-z
-x,y,z
x,-y,z
loop_
_atom_site_type_symbol
_atom_site_label
_atom_site_fract_x
_atom_site_fract_y
_atom_site_fract_z
Si Si1 0.226471 0.672047 0.721479
Si Si2 0.000000 0.833791 0.616933
Si Si3 0.111388 0.670726 0.612458
Si Si4 0.826208 0.831154 0.113862
Si Si5 0.437680 0.332994 0.384150
Si Si6 0.062324 0.664892 0.884076
Si Si7 0.326534 0.830168 0.385222
O O1 0.232742 0.500000 0.725475
O O2 0.168833 0.704839 0.665371
O O3 0.217878 0.740790 0.825468
O O4 0.277620 0.744039 0.666630
O O5 0.943279 0.754575 0.647203
O O6 0.000000 0.828268 0.500000
O O7 0.000000 0.000000 0.646043
O O8 0.118791 0.702604 0.500000
O O9 0.100916 0.500000 0.621488
O O10 0.887271 0.769212 0.140375
O O11 0.822689 0.000000 0.136267
O O12 0.819268 0.812785 0.000000
O O13 0.438510 0.329977 0.500000
O O14 0.500000 0.289768 0.352276
O O15 0.428288 0.500000 0.356687
O O16 0.386546 0.233148 0.354625
O O17 0.073504 0.500000 0.851994
O O18 0.000000 0.707094 0.853270
O O19 0.061067 0.660906 0.000000
O O20 0.321501 0.810188 0.500000
O O21 0.322838 0.000000 0.365508
#
# Coordination Sequence:
#
# PCOD9384720 Si02
#       7
#     8   4   8   8   8   8   8
#     4  11  22  35  52  72  94 126 166 205 244 292
#     4   9  17  29  47  69  90 115 148 189 237 284
#     4   9  18  33  51  69  90 118 153 193 236 283
#     4  10  21  36  52  70  94 122 153 196 251 305
#     4   8  14  26  45  69  99 137 177 210 238 274
#     4   8  14  27  48  70  89 111 142 181 228 287
#     4  10  20  32  48  73 106 140 170 205 247 289
#
# _framework density 16.667401999999999
#
# number of rings (size 3 to 8) (size 9 to 14) (size 15 to 20)
#    0.000    2.692    0.000    3.000    0.000    5.231 
#    1.385    4.615    0.000    0.000    0.000    0.000 
#    0.000    0.615    0.000    6.462    0.000    3.077 
#
# Total GULP energy -290148.045043 kJ/mol
# GULP energy per Si atom -5579.770097 kJ/mol
# Density = 1.662947 g / cm^3
# Si number density = 16.667402 Si / 1000 Ang^3
#
#
#
# Elastic Constant Matrix: (Units=GPa)
#
#
# Indices 1 2 3 4 5 6 
#
# 1 135.8574 90.0438 39.3559 0.0000 0.0000 0.0000
# 2 90.0438 96.6645 37.4058 0.0000 0.0000 0.0000
# 3 39.3559 37.4058 50.2227 0.0000 0.0000 0.0000
# 4 0.0000 0.0000 0.0000 16.1056 0.0000 0.0000
# 5 0.0000 0.0000 0.0000 0.0000 12.6197 0.0000
# 6 0.0000 0.0000 0.0000 0.0000 0.0000 -11.5413
#
#
#
# Elastic Compliance Matrix: (Units=1/GPa)
#
#
# Indices 1 2 3 4 5 6 
#
# 1 0.019451 -0.017169 -0.002455 0.000000 0.000000 0.000000
# 2 -0.017169 0.029688 -0.008658 0.000000 0.000000 0.000000
# 3 -0.002455 -0.008658 0.028283 0.000000 0.000000 0.000000
# 4 0.000000 0.000000 0.000000 0.062090 0.000000 0.000000
# 5 0.000000 0.000000 0.000000 0.000000 0.079241 0.000000
# 6 0.000000 0.000000 0.000000 0.000000 0.000000 -0.086645
#
#
# Mechanical properties :
#
#
# Convention : Reuss Voigt Hill
#
# Bulk Modulus (GPa) = 47.94000 68.48395 58.21197
# Shear Modulus (GPa) = 25.55910 11.16607 18.36258
#
# Velocity S-wave (km/s) = 3.92021 2.59112 3.32280
# Velocity P-wave (km/s) = 7.02253 7.08023 7.05144
#
# Compressibility (1/GPa) = 0.02085941
#
# Stress axis : x y z
#
# Youngs Moduli (GPa) = 51.41137 33.68357 35.35634
#
# Poissons Ratio (x) = 0.57830 0.08680
# Poissons Ratio (y) = 0.88267 0.30611
# Poissons Ratio (z) = 0.12622 0.29162
#
# Static dielectric constant tensor:
#      x y z
#    x 1.545720 0.000000 0.000000 
#    y 0.000000 1.555000 0.000000 
#    z 0.000000 0.000000 1.586410 
# 
# From -- ./inp_files/11067.got.cif
#   From: 2010.05.17/outbox.cif.g08.bks.cpg/sg47_6_cif.got.tgz:11067.got - 2010.06.03 20:15:42.
