data_PCOD9384595
_publ_section_title
;
Structure prediction by ZEFSAII (Michael W. Deem and Ramdas Pophale) SiO2 
 PCOD9384595
Probable space group: P M M M
;
_chemical_formula_sum "Si O2"
_cell_formula_units_Z 52
_cell_length_a 7.544536
_cell_length_b 35.334325
_cell_length_c 9.446276
_cell_angle_alpha 90.000000
_cell_angle_beta 90.000000
_cell_angle_gamma 90.000000
_cell_volume 2518.198524
_symmetry_space_group_name_H-M "P M M M"
_symmetry_group_IT_number 47
_symmetry_cell_setting 'orthorhombic'
loop_
_space_group_symop_operation_xyz
x,y,z
-x,-y,z
x,-y,-z
-x,y,-z
-x,-y,-z
x,y,-z
-x,y,z
x,-y,z
loop_
_atom_site_type_symbol
_atom_site_label
_atom_site_fract_x
_atom_site_fract_y
_atom_site_fract_z
Si Si1 0.712952 0.148135 0.160655
Si Si2 0.217150 0.000000 0.836388
Si Si3 0.786984 0.541314 0.838156
Si Si4 0.288108 0.384558 0.340325
Si Si5 0.717384 0.220558 0.664230
Si Si6 0.787813 0.073057 0.661145
Si Si7 0.294141 0.303404 0.672610
O O1 0.500000 0.151147 0.153402
O O2 0.777080 0.186272 0.237504
O O3 0.752682 0.111763 0.256008
O O4 0.779772 0.143959 0.000000
O O5 0.276720 0.962668 0.752330
O O6 0.000000 0.000000 0.837555
O O7 0.273709 0.000000 0.000000
O O8 0.725809 0.500000 0.783208
O O9 0.740950 0.578128 0.749808
O O10 0.000000 0.539964 0.841836
O O11 0.723976 0.545021 0.000000
O O12 0.219750 0.390200 0.500000
O O13 0.500000 0.379493 0.349741
O O14 0.217981 0.344132 0.282551
O O15 0.768170 0.214375 0.500000
O O16 0.500000 0.221410 0.665511
O O17 0.780785 0.262334 0.711239
O O18 0.718929 0.073749 0.500000
O O19 0.000000 0.068857 0.652050
O O20 0.291492 0.304302 0.500000
O O21 0.500000 0.302492 0.717997
#
# Coordination Sequence:
#
# PCOD9384595 Si02
#       7
#     8   4   8   8   8   8   8
#     4  10  20  32  47  71 102 131 159 195 239 282
#     4   9  17  31  52  75  98 125 156 192 238 289
#     4   9  19  35  50  63  85 121 161 195 228 272
#     4   9  17  29  47  73 100 120 144 186 236 280
#     4   8  13  24  44  66  89 122 160 192 224 268
#     4  10  20  34  53  75  97 124 161 201 237 278
#     4   7  11  22  41  65  92 120 149 183 225 272
#
# _framework density 20.649683
#
# number of rings (size 3 to 8) (size 9 to 14) (size 15 to 20)
#    0.000    3.154    0.000    3.462    0.000    4.000 
#    0.000    3.462    0.000    6.000    0.000    2.154 
#    0.000    0.000    0.000    0.000    0.000    0.000 
#
# Total GULP energy -289874.449709 kJ/mol
# GULP energy per Si atom -5574.508648 kJ/mol
# Density = 2.060268 g / cm^3
# Si number density = 20.649683 Si / 1000 Ang^3
#
#
#
# Elastic Constant Matrix: (Units=GPa)
#
#
# Indices 1 2 3 4 5 6 
#
# 1 48.6256 5.1892 5.7491 0.0000 0.0000 0.0000
# 2 5.1892 259.3999 121.2225 0.0000 0.0000 0.0000
# 3 5.7491 121.2225 134.3039 0.0000 0.0000 0.0000
# 4 0.0000 0.0000 0.0000 854.6205 0.0000 0.0000
# 5 0.0000 0.0000 0.0000 0.0000 13.0514 0.0000
# 6 0.0000 0.0000 0.0000 0.0000 0.0000 25.8909
#
#
#
# Elastic Compliance Matrix: (Units=1/GPa)
#
#
# Indices 1 2 3 4 5 6 
#
# 1 0.020670 0.000000 -0.000885 0.000000 0.000000 0.000000
# 2 0.000000 0.006667 -0.006018 0.000000 0.000000 0.000000
# 3 -0.000885 -0.006018 0.012915 0.000000 0.000000 0.000000
# 4 0.000000 0.000000 0.000000 0.001170 0.000000 0.000000
# 5 0.000000 0.000000 0.000000 0.000000 0.076620 0.000000
# 6 0.000000 0.000000 0.000000 0.000000 0.000000 0.038624
#
#
# Mechanical properties :
#
#
# Convention : Reuss Voigt Hill
#
# Bulk Modulus (GPa) = 37.81116 78.51680 58.16398
# Shear Modulus (GPa) = 27.88810 199.39046 113.63928
#
# Velocity S-wave (km/s) = 3.67895 9.83708 7.42640
# Velocity P-wave (km/s) = 6.03297 12.92788 10.08779
#
# Compressibility (1/GPa) = 0.02644722
#
# Stress axis : x y z
#
# Youngs Moduli (GPa) = 48.37947 149.98465 77.42662
#
# Poissons Ratio (x) = 0.00000 0.06851
# Poissons Ratio (y) = 0.00000 0.46595
# Poissons Ratio (z) = 0.04281 0.90260
#
# Static dielectric constant tensor:
#      x y z
#    x 1.809690 0.000000 0.000000 
#    y 0.000000 1.756860 0.000000 
#    z 0.000000 0.000000 1.706470 
# 
# From -- ./inp_files/4560.got.cif
#   From: 2010.05.17/outbox.cif.g08.bks.cpg/sg47_3_cif.got.tgz:4560.got - 2010.06.03 20:15:42.
