data_PCOD9384147
_publ_section_title
;
Structure prediction by ZEFSAII (Michael W. Deem and Ramdas Pophale) SiO2 
 PCOD9384147
Probable space group: P M M M
;
_chemical_formula_sum "Si O2"
_cell_formula_units_Z 52
_cell_length_a 7.634881
_cell_length_b 28.154973
_cell_length_c 14.093559
_cell_angle_alpha 90.000000
_cell_angle_beta 90.000000
_cell_angle_gamma 90.000000
_cell_volume 3029.549588
_symmetry_space_group_name_H-M "P M M M"
_symmetry_group_IT_number 47
_symmetry_cell_setting 'orthorhombic'
loop_
_space_group_symop_operation_xyz
x,y,z
-x,-y,z
x,-y,-z
-x,y,-z
-x,-y,-z
x,y,-z
-x,y,z
x,-y,z
loop_
_atom_site_type_symbol
_atom_site_label
_atom_site_fract_x
_atom_site_fract_y
_atom_site_fract_z
Si Si1 0.708826 0.500000 0.384833
Si Si2 0.707696 0.899217 0.393976
Si Si3 0.214666 0.851307 0.893537
Si Si4 0.788316 0.800953 0.295044
Si Si5 0.205499 0.947654 0.199918
Si Si6 0.710880 0.397957 0.609471
Si Si7 0.209607 0.294596 0.608532
O O1 0.500000 0.500000 0.366507
O O2 0.728908 0.500000 0.500000
O O3 0.776347 0.551377 0.350610
O O4 0.776412 0.908171 0.500000
O O5 0.500000 0.907157 0.394754
O O6 0.740142 0.844554 0.364046
O O7 0.781802 0.931503 0.309631
O O8 0.271278 0.815677 0.810301
O O9 0.276246 0.903827 0.861665
O O10 0.000000 0.851766 0.892288
O O11 0.270018 0.839824 0.000000
O O12 0.723358 0.750504 0.333112
O O13 0.000000 0.799428 0.292834
O O14 0.000000 0.950427 0.176283
O O15 0.282539 0.000000 0.185913
O O16 0.774362 0.395786 0.500000
O O17 0.500000 0.400717 0.607010
O O18 0.755682 0.346730 0.651507
O O19 0.278693 0.293241 0.500000
O O20 0.000000 0.289791 0.602890
#
# Coordination Sequence:
#
# PCOD9384147 Si02
#       7
#     4   8   8   8   8   8   8
#     4   7  10  18  31  45  63  91 128 165 194 218
#     4  10  20  31  43  60  81 105 132 161 191 221
#     4   8  14  26  45  66  82  96 121 158 194 227
#     4   9  17  29  44  60  79 104 131 159 193 233
#     4   9  18  31  46  64  83 103 127 153 185 228
#     4   8  13  21  33  48  67  95 131 165 192 219
#     4   9  16  24  34  51  76 103 129 157 188 221
#
# _framework density 17.164268
#
# number of rings (size 3 to 8) (size 9 to 14) (size 15 to 20)
#    0.000    3.308    0.000    2.769    0.000    3.385 
#    0.000    5.000    0.000    9.692    0.000    4.308 
#    0.000    0.000    0.000    0.692    0.000   16.077 
#
# Total GULP energy -289473.146057 kJ/mol
# GULP energy per Si atom -5566.791270 kJ/mol
# Density = 1.712520 g / cm^3
# Si number density = 17.164268 Si / 1000 Ang^3
#
#
#
# Elastic Constant Matrix: (Units=GPa)
#
#
# Indices 1 2 3 4 5 6 
#
# 1 33.0663 3.8555 -0.3418 0.0000 0.0000 0.0000
# 2 3.8555 131.1652 17.4830 0.0000 0.0000 0.0000
# 3 -0.3418 17.4830 56.1280 0.0000 0.0000 0.0000
# 4 0.0000 0.0000 0.0000 5.2319 0.0000 0.0000
# 5 0.0000 0.0000 0.0000 0.0000 884.0853 0.0000
# 6 0.0000 0.0000 0.0000 0.0000 0.0000 15.4858
#
#
#
# Elastic Compliance Matrix: (Units=1/GPa)
#
#
# Indices 1 2 3 4 5 6 
#
# 1 0.030359 -0.000957 0.000483 0.000000 0.000000 0.000000
# 2 -0.000957 0.007984 -0.002493 0.000000 0.000000 0.000000
# 3 0.000483 -0.002493 0.018596 0.000000 0.000000 0.000000
# 4 0.000000 0.000000 0.000000 0.191135 0.000000 0.000000
# 5 0.000000 0.000000 0.000000 0.000000 0.001131 0.000000
# 6 0.000000 0.000000 0.000000 0.000000 0.000000 0.064575
#
#
# Mechanical properties :
#
#
# Convention : Reuss Voigt Hill
#
# Bulk Modulus (GPa) = 19.60567 29.15033 24.37800
# Shear Modulus (GPa) = 14.84933 194.25145 104.55039
#
# Velocity S-wave (km/s) = 2.94450 10.64977 7.81306
# Velocity P-wave (km/s) = 4.79659 12.97088 9.77883
#
# Compressibility (1/GPa) = 0.05100564
#
# Stress axis : x y z
#
# Youngs Moduli (GPa) = 32.93939 125.24479 53.77546
#
# Poissons Ratio (x) = 0.11983 -0.02597
# Poissons Ratio (y) = 0.03151 0.13405
# Poissons Ratio (z) = -0.01591 0.31222
#
# Static dielectric constant tensor:
#      x y z
#    x 1.648680 0.000000 0.000000 
#    y 0.000000 1.631480 0.000000 
#    z 0.000000 0.000000 1.560790 
# 
# From -- ./inp_files/22022.got.cif
#   From: 2010.05.17/outbox.cif.g08.bks.cpg/sg47_12_cif.got.tgz:22022.got - 2010.06.03 20:15:42.
