data_PCOD9384991
_publ_section_title
;
Structure prediction by ZEFSAII (Michael W. Deem and Ramdas Pophale) SiO2 
 PCOD9384991
Probable space group: P M M M
;
_chemical_formula_sum "Si O2"
_cell_formula_units_Z 32
_cell_length_a 8.147617
_cell_length_b 7.366122
_cell_length_c 24.303900
_cell_angle_alpha 90.000000
_cell_angle_beta 90.000000
_cell_angle_gamma 90.000000
_cell_volume 1458.631146
_symmetry_space_group_name_H-M "P M M M"
_symmetry_group_IT_number 47
_symmetry_cell_setting 'orthorhombic'
loop_
_space_group_symop_operation_xyz
x,y,z
-x,-y,z
x,-y,-z
-x,y,-z
-x,-y,-z
x,y,-z
-x,y,z
x,-y,z
loop_
_atom_site_type_symbol
_atom_site_label
_atom_site_fract_x
_atom_site_fract_y
_atom_site_fract_z
Si Si1 0.322408 0.211385 0.821394
Si Si2 0.809177 0.719025 0.939134
Si Si3 0.684220 0.779010 0.563752
Si Si4 0.000000 0.777486 0.240130
Si Si5 0.000000 0.221548 0.632665
O O1 0.500000 0.291880 0.808122
O O2 0.292096 0.219449 0.886773
O O3 0.163036 0.287487 0.791085
O O4 0.328554 0.000000 0.805626
O O5 0.806520 0.500000 0.938852
O O6 0.000000 0.774985 0.932364
O O7 0.753734 0.778030 0.000000
O O8 0.708881 0.725995 0.500000
O O9 0.500000 0.722321 0.580745
O O10 0.835021 0.718772 0.601322
O O11 0.684776 0.000000 0.564701
O O12 0.000000 0.725088 0.303750
O O13 0.000000 0.000000 0.237498
O O14 0.000000 0.000000 0.631317
#
# Coordination Sequence:
#
# PCOD9384991 Si02
#       5
#     8   8   8   4   4
#     4  10  20  33  49  68  92 123 156 189 228 275
#     4   9  18  33  53  75  96 118 147 186 232 280
#     4   8  13  20  30  47  71  97 130 176 224 265
#     4   9  18  31  42  57  83 114 152 195 230 262
#     4   9  15  22  35  50  68 101 142 181 222 264
#
# _framework density 21.938378
#
# number of rings (size 3 to 8) (size 9 to 14) (size 15 to 20)
#    0.000    3.000    1.250    1.875    0.000    4.000 
#    0.000    8.750    0.000    0.000    0.000    0.000 
#    0.000    0.000    0.000    0.000    0.000   10.000 
#
# Total GULP energy -178659.242773 kJ/mol
# GULP energy per Si atom -5583.101337 kJ/mol
# Density = 2.188845 g / cm^3
# Si number density = 21.938378 Si / 1000 Ang^3
#
#
#
# Elastic Constant Matrix: (Units=GPa)
#
#
# Indices 1 2 3 4 5 6 
#
# 1 232.4923 9.8623 128.9998 0.0000 0.0000 0.0000
# 2 9.8623 78.6385 -2.5909 0.0000 0.0000 0.0000
# 3 128.9998 -2.5909 139.8623 0.0000 0.0000 0.0000
# 4 0.0000 0.0000 0.0000 41.1642 0.0000 0.0000
# 5 0.0000 0.0000 0.0000 0.0000 -10.3888 0.0000
# 6 0.0000 0.0000 0.0000 0.0000 0.0000 -12.8696
#
#
#
# Elastic Compliance Matrix: (Units=1/GPa)
#
#
# Indices 1 2 3 4 5 6 
#
# 1 0.008960 -0.001397 -0.008290 0.000000 0.000000 0.000000
# 2 -0.001397 0.012942 0.001528 0.000000 0.000000 0.000000
# 3 -0.008290 0.001528 0.014825 0.000000 0.000000 0.000000
# 4 0.000000 0.000000 0.000000 0.024293 0.000000 0.000000
# 5 0.000000 0.000000 0.000000 0.000000 -0.096258 0.000000
# 6 0.000000 0.000000 0.000000 0.000000 0.000000 -0.077702
#
#
# Mechanical properties :
#
#
# Convention : Reuss Voigt Hill
#
# Bulk Modulus (GPa) = 48.99841 80.39285 64.69563
# Shear Modulus (GPa) = -55.66756 24.56263 -15.55247
#
# Velocity S-wave (km/s) = -5.04278 3.34970 -2.66544
# Velocity P-wave (km/s) = 3.39457 7.18923 4.48118
#
# Compressibility (1/GPa) = 0.02040883
#
# Stress axis : x y z
#
# Youngs Moduli (GPa) = 111.60129 77.26808 67.45478
#
# Poissons Ratio (x) = 0.10794 0.55923
# Poissons Ratio (y) = 0.15590 -0.10308
# Poissons Ratio (z) = 0.92522 -0.11808
#
# Static dielectric constant tensor:
#      x y z
#    x 1.797170 0.000000 0.000000 
#    y 0.000000 1.854640 0.000000 
#    z 0.000000 0.000000 1.741710 
# 
# From -- ./inp_files/3840.got.cif
#   From: 2010.05.17/outbox.cif.g08.bks.cpg/sg47_2_cif.got.tgz:3840.got - 2010.06.03 20:15:42.
