data_PCOD9384952
_publ_section_title
;
Structure prediction by ZEFSAII (Michael W. Deem and Ramdas Pophale) SiO2 
 PCOD9384952
Probable space group: P M M M
;
_chemical_formula_sum "Si O2"
_cell_formula_units_Z 40
_cell_length_a 8.938038
_cell_length_b 11.944482
_cell_length_c 23.899846
_cell_angle_alpha 90.000000
_cell_angle_beta 90.000000
_cell_angle_gamma 90.000000
_cell_volume 2551.553152
_symmetry_space_group_name_H-M "P M M M"
_symmetry_group_IT_number 47
_symmetry_cell_setting 'orthorhombic'
loop_
_space_group_symop_operation_xyz
x,y,z
-x,-y,z
x,-y,-z
-x,y,-z
-x,-y,-z
x,y,-z
-x,y,z
x,-y,z
loop_
_atom_site_type_symbol
_atom_site_label
_atom_site_fract_x
_atom_site_fract_y
_atom_site_fract_z
Si Si1 0.680259 0.729680 0.391879
Si Si2 0.824582 0.864006 0.938221
Si Si3 0.820168 0.500000 0.566575
Si Si4 0.681459 0.126487 0.500000
Si Si5 0.821543 0.868052 0.708379
Si Si6 0.670537 0.864084 0.175221
O O1 0.500000 0.721117 0.390325
O O2 0.751946 0.609438 0.404181
O O3 0.725283 0.807382 0.444518
O O4 0.740160 0.790245 0.336536
O O5 0.735371 0.823735 0.884060
O O6 0.000000 0.835826 0.932796
O O7 0.816332 0.000000 0.938148
O O8 0.771671 0.827187 0.000000
O O9 0.780930 0.500000 0.500000
O O10 0.000000 0.500000 0.570759
O O11 0.500000 0.122469 0.500000
O O12 0.738441 0.000000 0.500000
O O13 0.770028 0.836129 0.770982
O O14 0.000000 0.858345 0.703187
O O15 0.781553 0.000000 0.699628
O O16 0.500000 0.827223 0.183428
O O17 0.670231 0.000000 0.172503
#
# Coordination Sequence:
#
# PCOD9384952 Si02
#       6
#     8   8   4   4   8   8
#     4  11  21  35  55  75  97 123 158 197 236 282
#     4   8  13  21  33  50  75 110 151 192 233 276
#     4  11  23  39  57  75  99 125 154 191 236 287
#     4   9  18  31  49  74 100 123 148 185 232 277
#     4  10  20  33  48  68  96 128 160 195 240 291
#     4   9  16  25  38  57  82 115 155 196 235 276
#
# _framework density 15.676727
#
# number of rings (size 3 to 8) (size 9 to 14) (size 15 to 20)
#    0.000    2.400    1.000    3.300    0.000    5.200 
#    0.000    2.000    0.000    2.400    0.000    0.000 
#    0.000    0.000    0.000    0.900    0.000   17.000 
#
# Total GULP energy -222940.917400 kJ/mol
# GULP energy per Si atom -5573.522935 kJ/mol
# Density = 1.564105 g / cm^3
# Si number density = 15.676727 Si / 1000 Ang^3
#
#
#
# Elastic Constant Matrix: (Units=GPa)
#
#
# Indices 1 2 3 4 5 6 
#
# 1 67.0583 34.5691 50.5134 0.0000 0.0000 0.0000
# 2 34.5691 78.8998 49.8965 0.0000 0.0000 0.0000
# 3 50.5134 49.8965 134.5736 0.0000 0.0000 0.0000
# 4 0.0000 0.0000 0.0000 -1.0087 0.0000 0.0000
# 5 0.0000 0.0000 0.0000 0.0000 30.1081 0.0000
# 6 0.0000 0.0000 0.0000 0.0000 0.0000 15.5930
#
#
#
# Elastic Compliance Matrix: (Units=1/GPa)
#
#
# Indices 1 2 3 4 5 6 
#
# 1 0.022756 -0.005968 -0.006329 0.000000 0.000000 0.000000
# 2 -0.005968 0.018122 -0.004479 0.000000 0.000000 0.000000
# 3 -0.006329 -0.004479 0.011467 0.000000 0.000000 0.000000
# 4 0.000000 0.000000 0.000000 -0.991351 0.000000 0.000000
# 5 0.000000 0.000000 0.000000 0.000000 0.033214 0.000000
# 6 0.000000 0.000000 0.000000 0.000000 0.000000 0.064131
#
#
# Mechanical properties :
#
#
# Convention : Reuss Voigt Hill
#
# Bulk Modulus (GPa) = 53.21023 61.16554 57.18789
# Shear Modulus (GPa) = -6.23562 18.64199 6.20319
#
# Velocity S-wave (km/s) = -1.99656 3.45215 1.99136
# Velocity P-wave (km/s) = 5.35732 7.41561 6.46885
#
# Compressibility (1/GPa) = 0.01879338
#
# Stress axis : x y z
#
# Youngs Moduli (GPa) = 43.94357 55.18279 87.20518
#
# Poissons Ratio (x) = 0.32933 0.55193
# Poissons Ratio (y) = 0.26225 0.39058
# Poissons Ratio (z) = 0.27812 0.24716
#
# Static dielectric constant tensor:
#      x y z
#    x 1.525140 0.000000 0.000000 
#    y 0.000000 1.495740 0.000000 
#    z 0.000000 0.000000 1.529420 
# 
# From -- ./inp_files/4083.got.cif
#   From: 2010.05.17/outbox.cif.g08.bks.cpg/sg47_3_cif.got.tgz:4083.got - 2010.06.03 20:15:42.
