data_PCOD9384012
_publ_section_title
;
Structure prediction by ZEFSAII (Michael W. Deem and Ramdas Pophale) SiO2 
 PCOD9384012
Probable space group: P M M M
;
_chemical_formula_sum "Si O2"
_cell_formula_units_Z 52
_cell_length_a 12.520698
_cell_length_b 26.098815
_cell_length_c 7.980779
_cell_angle_alpha 90.000000
_cell_angle_beta 90.000000
_cell_angle_gamma 90.000000
_cell_volume 2607.922097
_symmetry_space_group_name_H-M "P M M M"
_symmetry_group_IT_number 47
_symmetry_cell_setting 'orthorhombic'
loop_
_space_group_symop_operation_xyz
x,y,z
-x,-y,z
x,-y,-z
-x,y,-z
-x,-y,-z
x,y,-z
-x,y,z
x,-y,z
loop_
_atom_site_type_symbol
_atom_site_label
_atom_site_fract_x
_atom_site_fract_y
_atom_site_fract_z
Si Si1 0.765993 0.557476 0.196718
Si Si2 0.000000 0.561492 0.688302
Si Si3 0.718193 0.334589 0.197461
Si Si4 0.876710 0.058193 0.202644
Si Si5 0.878070 0.248046 0.700111
Si Si6 0.265027 0.153160 0.699400
Si Si7 0.500000 0.714912 0.306736
Si Si8 0.500000 0.837662 0.694733
O O1 0.749708 0.500000 0.269430
O O2 0.708282 0.607534 0.268185
O O3 0.890651 0.572431 0.217268
O O4 0.740377 0.553393 0.000000
O O5 0.000000 0.500000 0.673157
O O6 0.000000 0.583613 0.500000
O O7 0.814154 0.300613 0.270364
O O8 0.607481 0.305635 0.224943
O O9 0.738894 0.338954 0.000000
O O10 0.801120 0.101613 0.274348
O O11 0.000000 0.067600 0.252061
O O12 0.848696 0.000000 0.253051
O O13 0.872393 0.060340 0.000000
O O14 0.885601 0.240855 0.500000
O O15 0.804455 0.201209 0.766868
O O16 0.000000 0.248111 0.766102
O O17 0.278072 0.163025 0.500000
O O18 0.385081 0.147550 0.770176
O O19 0.500000 0.698640 0.500000
O O20 0.500000 0.776128 0.303688
O O21 0.500000 0.855824 0.500000
#
# Coordination Sequence:
#
# PCOD9384012 Si02
#       8
#     8   4   8   8   8   8   4   4
#     4   9  19  36  54  73 105 147 182 219 275 336
#     4   9  17  29  49  77 105 135 177 225 266 317
#     4  11  23  37  57  84 110 139 186 235 274 331
#     4   9  19  36  56  80 114 153 188 226 278 331
#     4  10  21  36  55  82 115 150 184 224 282 341
#     4  10  19  35  58  83 109 144 191 232 268 322
#     4  11  21  41  64  79 106 148 185 225 283 338
#     4   9  18  35  58  79 106 144 185 223 270 327
#
# _framework density 19.939245
#
# number of rings (size 3 to 8) (size 9 to 14) (size 15 to 20)
#    0.000    2.231    1.538    1.846    1.077    4.308 
#    0.000    1.923    0.000    4.615    0.000    0.000 
#    0.000    0.000    0.000    0.000    0.000    0.000 
#
# Total GULP energy -289928.589003 kJ/mol
# GULP energy per Si atom -5575.549789 kJ/mol
# Density = 1.989386 g / cm^3
# Si number density = 19.939245 Si / 1000 Ang^3
#
#
#
# Elastic Constant Matrix: (Units=GPa)
#
#
# Indices 1 2 3 4 5 6 
#
# 1 122.6228 57.0876 4.5466 0.0000 0.0000 0.0000
# 2 57.0876 103.4181 1.3119 0.0000 0.0000 0.0000
# 3 4.5466 1.3119 14.0926 0.0000 0.0000 0.0000
# 4 0.0000 0.0000 0.0000 24.9257 0.0000 0.0000
# 5 0.0000 0.0000 0.0000 0.0000 0.3489 0.0000
# 6 0.0000 0.0000 0.0000 0.0000 0.0000-1435.4473
#
#
#
# Elastic Compliance Matrix: (Units=1/GPa)
#
#
# Indices 1 2 3 4 5 6 
#
# 1 0.011102 -0.006090 -0.003015 0.000000 0.000000 0.000000
# 2 -0.006090 0.013022 0.000753 0.000000 0.000000 0.000000
# 3 -0.003015 0.000753 0.071862 0.000000 0.000000 0.000000
# 4 0.000000 0.000000 0.000000 0.040119 0.000000 0.000000
# 5 0.000000 0.000000 0.000000 0.000000 2.866060 0.000000
# 6 0.000000 0.000000 0.000000 0.000000 0.000000 -0.000697
#
#
# Mechanical properties :
#
#
# Convention : Reuss Voigt Hill
#
# Bulk Modulus (GPa) = 12.61336 40.66950 26.64143
# Shear Modulus (GPa) = 1.64225 -270.22204 -134.28990
#
# Velocity S-wave (km/s) = 0.90852 -11.65405 -8.21558
# Velocity P-wave (km/s) = 2.72767 12.67471 8.75237
#
# Compressibility (1/GPa) = 0.07928103
#
# Stress axis : x y z
#
# Youngs Moduli (GPa) = 90.07200 76.79423 13.91557
#
# Poissons Ratio (x) = 0.46770 0.04195
# Poissons Ratio (y) = 0.54856 -0.01047
# Poissons Ratio (z) = 0.27156 -0.05780
#
# Static dielectric constant tensor:
#      x y z
#    x 1.647630 0.000000 0.000000 
#    y 0.000000 1.713430 0.000000 
#    z 0.000000 0.000000 1.725870 
# 
# From -- ./inp_files/4660.got.cif
#   From: 2010.05.17/outbox.cif.g08.bks.cpg/sg47_3_cif.got.tgz:4660.got - 2010.06.03 20:15:42.
