data_PCOD9384781
_publ_section_title
;
Structure prediction by ZEFSAII (Michael W. Deem and Ramdas Pophale) SiO2 
 PCOD9384781
Probable space group: P M M M
;
_chemical_formula_sum "Si O2"
_cell_formula_units_Z 40
_cell_length_a 26.201141
_cell_length_b 7.609264
_cell_length_c 9.966904
_cell_angle_alpha 90.000000
_cell_angle_beta 90.000000
_cell_angle_gamma 90.000000
_cell_volume 1987.115594
_symmetry_space_group_name_H-M "P M M M"
_symmetry_group_IT_number 47
_symmetry_cell_setting 'orthorhombic'
loop_
_space_group_symop_operation_xyz
x,y,z
-x,-y,z
x,-y,-z
-x,y,-z
-x,-y,-z
x,y,-z
-x,y,z
x,-y,z
loop_
_atom_site_type_symbol
_atom_site_label
_atom_site_fract_x
_atom_site_fract_y
_atom_site_fract_z
Si Si1 0.646633 0.288425 0.652161
Si Si2 0.442818 0.285391 0.154587
Si Si3 0.941470 0.285314 0.652169
Si Si4 0.145895 0.707937 0.151227
Si Si5 0.237144 0.208200 0.347682
O O1 0.639622 0.222954 0.500000
O O2 0.642761 0.500000 0.649004
O O3 0.602668 0.222965 0.750809
O O4 0.704496 0.245860 0.692765
O O5 0.500000 0.232061 0.197208
O O6 0.442217 0.500000 0.156151
O O7 0.435431 0.232191 0.000000
O O8 0.927705 0.231378 0.500000
O O9 0.940624 0.500000 0.652677
O O10 0.901192 0.220072 0.761120
O O11 0.000000 0.232992 0.678603
O O12 0.136502 0.500000 0.138838
O O13 0.196749 0.726620 0.239658
O O14 0.150282 0.779720 0.000000
O O15 0.229383 0.280061 0.500000
O O16 0.230837 0.000000 0.355118
#
# Coordination Sequence:
#
# PCOD9384781 Si02
#       5
#     8   8   8   8   8
#     4   9  17  29  47  71  95 119 152 196 241 283
#     4   8  14  25  42  66  95 123 150 184 229 280
#     4   8  14  26  46  72 100 129 160 194 234 281
#     4  10  20  32  49  75 103 130 161 198 241 288
#     4  10  21  36  52  69  93 128 167 205 246 291
#
# _framework density 20.129677999999998
#
# number of rings (size 3 to 8) (size 9 to 14) (size 15 to 20)
#    0.000    3.000    0.000    2.400    0.000    4.000 
#    0.000    6.000    0.000    1.200    0.000    8.400 
#    0.000    0.000    0.000    0.000    0.000    0.000 
#
# Total GULP energy -223128.908453 kJ/mol
# GULP energy per Si atom -5578.222711 kJ/mol
# Density = 2.008386 g / cm^3
# Si number density = 20.129678 Si / 1000 Ang^3
#
#
#
# Elastic Constant Matrix: (Units=GPa)
#
#
# Indices 1 2 3 4 5 6 
#
# 1 175.7908 -2.2031 145.3342 0.0000 0.0000 0.0000
# 2 -2.2031 41.8768 6.2860 0.0000 0.0000 0.0000
# 3 145.3342 6.2860 160.3406 0.0000 0.0000 0.0000
# 4 0.0000 0.0000 0.0000 2.2906 0.0000 0.0000
# 5 0.0000 0.0000 0.0000 0.0000 31.4096 0.0000
# 6 0.0000 0.0000 0.0000 0.0000 0.0000 -56.8800
#
#
#
# Elastic Compliance Matrix: (Units=1/GPa)
#
#
# Indices 1 2 3 4 5 6 
#
# 1 0.023497 0.004459 -0.021472 0.000000 0.000000 0.000000
# 2 0.004459 0.024867 -0.005017 0.000000 0.000000 0.000000
# 3 -0.021472 -0.005017 0.025896 0.000000 0.000000 0.000000
# 4 0.000000 0.000000 0.000000 0.436571 0.000000 0.000000
# 5 0.000000 0.000000 0.000000 0.000000 0.031837 0.000000
# 6 0.000000 0.000000 0.000000 0.000000 0.000000 -0.017581
#
#
# Mechanical properties :
#
#
# Convention : Reuss Voigt Hill
#
# Bulk Modulus (GPa) = 33.11243 75.20473 54.15858
# Shear Modulus (GPa) = 8.63238 10.60345 9.61791
#
# Velocity S-wave (km/s) = 2.07309 2.29761 2.18823
# Velocity P-wave (km/s) = 4.71333 6.66933 5.77475
#
# Compressibility (1/GPa) = 0.03020014
#
# Stress axis : x y z
#
# Youngs Moduli (GPa) = 42.55911 40.21360 38.61563
#
# Poissons Ratio (x) = -0.17932 0.82917
# Poissons Ratio (y) = -0.18978 0.19373
# Poissons Ratio (z) = 0.91385 0.20175
#
# Static dielectric constant tensor:
#      x y z
#    x 1.684860 0.000000 0.000000 
#    y 0.000000 1.745890 0.000000 
#    z 0.000000 0.000000 1.601400 
# 
# From -- ./inp_files/1439.got.cif
#   From: 2010.05.17/outbox.cif.g08.bks.cpg/sg47_1_cif.got.tgz:1439.got - 2010.06.03 20:15:42.
