data_PCOD9384503
_publ_section_title
;
Structure prediction by ZEFSAII (Michael W. Deem and Ramdas Pophale) SiO2 
 PCOD9384503
Probable space group: P M M M
;
_chemical_formula_sum "Si O2"
_cell_formula_units_Z 52
_cell_length_a 19.332939
_cell_length_b 19.315096
_cell_length_c 8.687714
_cell_angle_alpha 90.000000
_cell_angle_beta 90.000000
_cell_angle_gamma 90.000000
_cell_volume 3244.145075
_symmetry_space_group_name_H-M "P M M M"
_symmetry_group_IT_number 47
_symmetry_cell_setting 'orthorhombic'
loop_
_space_group_symop_operation_xyz
x,y,z
-x,-y,z
x,-y,-z
-x,y,-z
-x,-y,-z
x,y,-z
-x,y,z
x,-y,z
loop_
_atom_site_type_symbol
_atom_site_label
_atom_site_fract_x
_atom_site_fract_y
_atom_site_fract_z
Si Si1 0.579570 0.345243 0.185491
Si Si2 0.420678 0.078748 0.812394
Si Si3 0.332671 0.208866 0.185648
Si Si4 0.080094 0.647937 0.183753
Si Si5 0.295851 0.423519 0.314703
Si Si6 0.209400 0.710673 0.684187
Si Si7 0.083845 0.500000 0.673789
O O1 0.500000 0.347958 0.234774
O O2 0.615003 0.271719 0.226381
O O3 0.627624 0.404215 0.257443
O O4 0.581666 0.350909 0.000000
O O5 0.500000 0.094880 0.766398
O O6 0.367033 0.137161 0.761449
O O7 0.404680 0.000000 0.764391
O O8 0.420271 0.079602 0.000000
O O9 0.258390 0.228289 0.254982
O O10 0.327002 0.207753 0.000000
O O11 0.132333 0.704294 0.251365
O O12 0.101844 0.571690 0.244177
O O13 0.000000 0.658823 0.230620
O O14 0.083258 0.647987 0.000000
O O15 0.294963 0.423060 0.500000
O O16 0.274696 0.500000 0.261566
O O17 0.247379 0.360501 0.262240
O O18 0.207947 0.711732 0.500000
O O19 0.112066 0.500000 0.500000
O O20 0.000000 0.500000 0.667118
#
# Coordination Sequence:
#
# PCOD9384503 Si02
#       7
#     8   8   8   8   8   8   4
#     4   9  17  28  42  60  80 105 140 180 222 265
#     4   8  13  22  41  71 100 124 154 191 228 267
#     4   9  16  28  45  64  90 120 149 183 224 267
#     4  10  20  33  48  68  92 115 145 187 232 277
#     4   9  19  33  44  56  76 104 140 182 225 265
#     4  10  20  32  47  64  85 116 152 187 225 273
#     4   9  17  29  45  65  89 117 146 177 220 273
#
# _framework density 16.028876
#
# number of rings (size 3 to 8) (size 9 to 14) (size 15 to 20)
#    0.000    2.846    0.000    2.077    1.077    5.231 
#    0.000    1.538    0.000    1.846    0.000    1.077 
#    0.000    0.615    0.000    7.077    0.000    2.000 
#
# Total GULP energy -289854.406662 kJ/mol
# GULP energy per Si atom -5574.123205 kJ/mol
# Density = 1.599239 g / cm^3
# Si number density = 16.028876 Si / 1000 Ang^3
#
#
#
# Elastic Constant Matrix: (Units=GPa)
#
#
# Indices 1 2 3 4 5 6 
#
# 1 103.2508 47.3259 22.1986 0.0000 0.0000 0.0000
# 2 47.3259 89.1811 17.6422 0.0000 0.0000 0.0000
# 3 22.1986 17.6422 14.9353 0.0000 0.0000 0.0000
# 4 0.0000 0.0000 0.0000 9.3742 0.0000 0.0000
# 5 0.0000 0.0000 0.0000 0.0000 17.6899 0.0000
# 6 0.0000 0.0000 0.0000 0.0000 0.0000 26.1680
#
#
#
# Elastic Compliance Matrix: (Units=1/GPa)
#
#
# Indices 1 2 3 4 5 6 
#
# 1 0.015689 -0.004845 -0.017596 0.000000 0.000000 0.000000
# 2 -0.004845 0.016128 -0.011851 0.000000 0.000000 0.000000
# 3 -0.017596 -0.011851 0.107107 0.000000 0.000000 0.000000
# 4 0.000000 0.000000 0.000000 0.106676 0.000000 0.000000
# 5 0.000000 0.000000 0.000000 0.000000 0.056529 0.000000
# 6 0.000000 0.000000 0.000000 0.000000 0.000000 0.038215
#
#
# Mechanical properties :
#
#
# Convention : Reuss Voigt Hill
#
# Bulk Modulus (GPa) = 14.21635 42.41119 28.31377
# Shear Modulus (GPa) = 11.56407 18.65979 15.11193
#
# Velocity S-wave (km/s) = 2.68890 3.41564 3.07383
# Velocity P-wave (km/s) = 4.30450 6.48631 5.50458
#
# Compressibility (1/GPa) = 0.07034155
#
# Stress axis : x y z
#
# Youngs Moduli (GPa) = 63.73975 62.00208 9.33648
#
# Poissons Ratio (x) = 0.30038 0.16428
# Poissons Ratio (y) = 0.30880 0.11064
# Poissons Ratio (z) = 1.12154 0.73477
#
# Static dielectric constant tensor:
#      x y z
#    x 1.555200 0.000000 0.000000 
#    y 0.000000 1.529760 0.000000 
#    z 0.000000 0.000000 1.540610 
# 
# From -- ./inp_files/9539.got.cif
#   From: 2010.05.17/outbox.cif.g08.bks.cpg/sg47_5_cif.got.tgz:9539.got - 2010.06.03 20:15:42.
