data_PCOD9384689
_publ_section_title
;
Structure prediction by ZEFSAII (Michael W. Deem and Ramdas Pophale) SiO2 
 PCOD9384689
Probable space group: P M M M
;
_chemical_formula_sum "Si O2"
_cell_formula_units_Z 48
_cell_length_a 32.285552
_cell_length_b 9.794812
_cell_length_c 7.547239
_cell_angle_alpha 90.000000
_cell_angle_beta 90.000000
_cell_angle_gamma 90.000000
_cell_volume 2386.670273
_symmetry_space_group_name_H-M "P M M M"
_symmetry_group_IT_number 47
_symmetry_cell_setting 'orthorhombic'
loop_
_space_group_symop_operation_xyz
x,y,z
-x,-y,z
x,-y,-z
-x,y,-z
-x,-y,-z
x,y,-z
-x,y,z
x,-y,z
loop_
_atom_site_type_symbol
_atom_site_label
_atom_site_fract_x
_atom_site_fract_y
_atom_site_fract_z
Si Si1 0.452969 0.346077 0.213479
Si Si2 0.788976 0.342325 0.287309
Si Si3 0.698155 0.341042 0.283358
Si Si4 0.623328 0.153996 0.710542
Si Si5 0.046394 0.157459 0.216409
Si Si6 0.879176 0.344672 0.789293
O O1 0.500000 0.317061 0.273748
O O2 0.441650 0.500000 0.274040
O O3 0.419392 0.235055 0.265520
O O4 0.453811 0.349241 0.000000
O O5 0.788064 0.343674 0.500000
O O6 0.790217 0.500000 0.224527
O O7 0.744006 0.289479 0.228906
O O8 0.833331 0.281972 0.236797
O O9 0.697342 0.341759 0.500000
O O10 0.693205 0.500000 0.230006
O O11 0.661019 0.246236 0.218737
O O12 0.630169 0.143663 0.500000
O O13 0.621947 0.000000 0.782295
O O14 0.083375 0.253287 0.280536
O O15 0.000000 0.201097 0.269696
O O16 0.052280 0.000000 0.269959
O O17 0.047002 0.158714 0.000000
O O18 0.879632 0.500000 0.716951
O O19 0.885044 0.354753 0.000000
#
# Coordination Sequence:
#
# PCOD9384689 Si02
#       6
#     8   8   8   8   8   8
#     4   9  19  36  55  73  94 123 160 197 231 272
#     4   8  14  26  44  63  84 114 148 177 211 260
#     4   8  14  27  47  66  85 116 156 189 217 257
#     4  10  20  32  48  73 102 127 153 190 234 276
#     4   8  14  25  40  57  79 109 141 169 203 253
#     4   9  16  25  40  64  88 105 130 176 223 254
#
# _framework density 20.111702999999999
#
# number of rings (size 3 to 8) (size 9 to 14) (size 15 to 20)
#    0.000    3.333    0.000    2.500    0.000    2.333 
#    0.000    5.833    0.000    5.000    0.000    3.500 
#    0.000    0.000    0.000    0.000    0.000    0.000 
#
# Total GULP energy -267452.303497 kJ/mol
# GULP energy per Si atom -5571.922990 kJ/mol
# Density = 2.006593 g / cm^3
# Si number density = 20.111703 Si / 1000 Ang^3
#
#
#
# Elastic Constant Matrix: (Units=GPa)
#
#
# Indices 1 2 3 4 5 6 
#
# 1 202.9107 116.4093 1.7080 0.0000 0.0000 0.0000
# 2 116.4093 111.3478 5.1260 0.0000 0.0000 0.0000
# 3 1.7080 5.1260 45.6831 0.0000 0.0000 0.0000
# 4 0.0000 0.0000 0.0000 3.4884 0.0000 0.0000
# 5 0.0000 0.0000 0.0000 0.0000 18.6754 0.0000
# 6 0.0000 0.0000 0.0000 0.0000 0.0000 -11.5978
#
#
#
# Elastic Compliance Matrix: (Units=1/GPa)
#
#
# Indices 1 2 3 4 5 6 
#
# 1 0.012358 -0.012966 0.000993 0.000000 0.000000 0.000000
# 2 -0.012966 0.022631 -0.002055 0.000000 0.000000 0.000000
# 3 0.000993 -0.002055 0.022083 0.000000 0.000000 0.000000
# 4 0.000000 0.000000 0.000000 0.286667 0.000000 0.000000
# 5 0.000000 0.000000 0.000000 0.000000 0.053546 0.000000
# 6 0.000000 0.000000 0.000000 0.000000 0.000000 -0.086224
#
#
# Mechanical properties :
#
#
# Convention : Reuss Voigt Hill
#
# Bulk Modulus (GPa) = 34.46232 67.38093 50.92162
# Shear Modulus (GPa) = 14.33528 17.89308 16.11418
#
# Velocity S-wave (km/s) = 2.67270 2.98599 2.83368
# Velocity P-wave (km/s) = 5.16692 6.74272 6.00672
#
# Compressibility (1/GPa) = 0.02901720
#
# Stress axis : x y z
#
# Youngs Moduli (GPa) = 80.91645 44.18764 45.28296
#
# Poissons Ratio (x) = 0.57293 -0.04496
# Poissons Ratio (y) = 1.04916 0.09304
# Poissons Ratio (z) = -0.08033 0.09079
#
# Static dielectric constant tensor:
#      x y z
#    x 1.728040 0.000000 0.000000 
#    y 0.000000 1.688730 0.000000 
#    z 0.000000 0.000000 1.774480 
# 
# From -- ./inp_files/4462.got.cif
#   From: 2010.05.17/outbox.cif.g08.bks.cpg/sg47_3_cif.got.tgz:4462.got - 2010.06.03 20:15:42.
