data_PCOD9384129
_publ_section_title
;
Structure prediction by ZEFSAII (Michael W. Deem and Ramdas Pophale) SiO2 
 PCOD9384129
Probable space group: P M M M
;
_chemical_formula_sum "Si O2"
_cell_formula_units_Z 64
_cell_length_a 20.517607
_cell_length_b 20.248546
_cell_length_c 8.540534
_cell_angle_alpha 90.000000
_cell_angle_beta 90.000000
_cell_angle_gamma 90.000000
_cell_volume 3548.179447
_symmetry_space_group_name_H-M "P M M M"
_symmetry_group_IT_number 47
_symmetry_cell_setting 'orthorhombic'
loop_
_space_group_symop_operation_xyz
x,y,z
-x,-y,z
x,-y,-z
-x,y,-z
-x,-y,-z
x,y,-z
-x,y,z
x,-y,z
loop_
_atom_site_type_symbol
_atom_site_label
_atom_site_fract_x
_atom_site_fract_y
_atom_site_fract_z
Si Si1 0.282272 0.189834 0.809733
Si Si2 0.686135 0.425740 0.674733
Si Si3 0.925485 0.173948 0.189519
Si Si4 0.571205 0.806967 0.817848
Si Si5 0.817428 0.925473 0.190343
Si Si6 0.428305 0.648373 0.179893
Si Si7 0.826994 0.283556 0.685482
Si Si8 0.176956 0.426028 0.182246
O O1 0.356528 0.179026 0.751870
O O2 0.238628 0.126519 0.764359
O O3 0.241930 0.254332 0.752013
O O4 0.284512 0.194767 0.000000
O O5 0.713506 0.414410 0.500000
O O6 0.659233 0.500000 0.679643
O O7 0.628959 0.376478 0.712631
O O8 0.744949 0.422710 0.795845
O O9 0.885876 0.108083 0.235941
O O10 0.882791 0.234958 0.250195
O O11 0.000000 0.175003 0.243298
O O12 0.925164 0.176726 0.000000
O O13 0.500000 0.828326 0.750642
O O14 0.569986 0.727422 0.819612
O O15 0.571640 0.829383 0.000000
O O16 0.809130 0.000000 0.248016
O O17 0.816117 0.927571 0.000000
O O18 0.500000 0.624352 0.227739
O O19 0.416467 0.627272 0.000000
O O20 0.823505 0.279176 0.500000
O O21 0.843999 0.358442 0.734926
O O22 0.157780 0.500000 0.241948
O O23 0.159439 0.422866 0.000000
#
# Coordination Sequence:
#
# PCOD9384129 Si02
#       8
#     8   8   8   8   8   8   8   8
#     4   9  16  28  48  70  94 129 171 210 249 299
#     4  10  20  31  42  59  84 112 144 187 242 299
#     4   9  18  33  53  76 102 135 173 205 235 281
#     4   8  14  25  42  63  84 110 151 203 252 293
#     4   8  14  25  44  74 107 135 167 206 244 282
#     4   9  17  28  41  56  75 105 149 198 246 299
#     4  11  21  32  50  75 103 131 160 201 251 298
#     4  10  20  34  52  71  92 121 158 199 241 288
#
# _framework density 18.037420000000001
#
# number of rings (size 3 to 8) (size 9 to 14) (size 15 to 20)
#    0.000    2.750    0.000    4.125    0.000    3.500 
#    0.000    2.500    0.000    7.875    0.000    8.750 
#    0.000    0.000    0.000    4.500    0.000    5.000 
#
# Total GULP energy -356272.081150 kJ/mol
# GULP energy per Si atom -5566.751268 kJ/mol
# Density = 1.799637 g / cm^3
# Si number density = 18.037420 Si / 1000 Ang^3
#
#
#
# Elastic Constant Matrix: (Units=GPa)
#
#
# Indices 1 2 3 4 5 6 
#
# 1 108.3921 30.4196 10.7762 0.0000 0.0000 0.0000
# 2 30.4196 91.3786 10.9448 0.0000 0.0000 0.0000
# 3 10.7762 10.9448 21.5103 0.0000 0.0000 0.0000
# 4 0.0000 0.0000 0.0000 -12.9223 0.0000 0.0000
# 5 0.0000 0.0000 0.0000 0.0000 -4.0698 0.0000
# 6 0.0000 0.0000 0.0000 0.0000 0.0000 8.5833
#
#
#
# Elastic Compliance Matrix: (Units=1/GPa)
#
#
# Indices 1 2 3 4 5 6 
#
# 1 0.010444 -0.003035 -0.003688 0.000000 0.000000 0.000000
# 2 -0.003035 0.012536 -0.004858 0.000000 0.000000 0.000000
# 3 -0.003688 -0.004858 0.050809 0.000000 0.000000 0.000000
# 4 0.000000 0.000000 0.000000 -0.077386 0.000000 0.000000
# 5 0.000000 0.000000 0.000000 0.000000 -0.245714 0.000000
# 6 0.000000 0.000000 0.000000 0.000000 0.000000 0.116505
#
#
# Mechanical properties :
#
#
# Convention : Reuss Voigt Hill
#
# Bulk Modulus (GPa) = 19.75244 36.17359 27.96302
# Shear Modulus (GPa) = -53.89710 9.59429 -22.15141
#
# Velocity S-wave (km/s) = -5.47226 2.30882 -3.50820
# Velocity P-wave (km/s) = 5.38079 5.21592 0.93462
#
# Compressibility (1/GPa) = 0.05062665
#
# Stress axis : x y z
#
# Youngs Moduli (GPa) = 95.74683 79.77213 19.68168
#
# Poissons Ratio (x) = 0.24212 0.07259
# Poissons Ratio (y) = 0.29060 0.09561
# Poissons Ratio (z) = 0.35312 0.38752
#
# Static dielectric constant tensor:
#      x y z
#    x 1.634320 0.000000 0.000000 
#    y 0.000000 1.630210 0.000000 
#    z 0.000000 0.000000 1.628060 
# 
# From -- ./inp_files/11880.got.cif
#   From: 2010.05.17/outbox.cif.g08.bks.cpg/sg47_6_cif.got.tgz:11880.got - 2010.06.03 20:15:42.
