data_PCOD9384299
_publ_section_title
;
Structure prediction by ZEFSAII (Michael W. Deem and Ramdas Pophale) SiO2 
 PCOD9384299
Probable space group: P M M M
;
_chemical_formula_sum "Si O2"
_cell_formula_units_Z 52
_cell_length_a 7.583987
_cell_length_b 24.511637
_cell_length_c 14.167577
_cell_angle_alpha 90.000000
_cell_angle_beta 90.000000
_cell_angle_gamma 90.000000
_cell_volume 2633.694992
_symmetry_space_group_name_H-M "P M M M"
_symmetry_group_IT_number 47
_symmetry_cell_setting 'orthorhombic'
loop_
_space_group_symop_operation_xyz
x,y,z
-x,-y,z
x,-y,-z
-x,y,-z
-x,-y,-z
x,y,-z
-x,y,z
x,-y,z
loop_
_atom_site_type_symbol
_atom_site_label
_atom_site_fract_x
_atom_site_fract_y
_atom_site_fract_z
Si Si1 0.793370 0.273554 0.603257
Si Si2 0.215039 0.561251 0.109103
Si Si3 0.787685 0.938011 0.206155
Si Si4 0.708739 0.830898 0.706882
Si Si5 0.796005 0.933530 0.000000
Si Si6 0.786475 0.329640 0.205526
Si Si7 0.290998 0.222153 0.897498
O O1 0.716046 0.284777 0.500000
O O2 0.780985 0.209141 0.627306
O O3 0.720289 0.306218 0.693895
O O4 0.000000 0.287372 0.599437
O O5 0.271333 0.500000 0.135818
O O6 0.274361 0.610361 0.175843
O O7 0.000000 0.561484 0.110323
O O8 0.266894 0.570960 0.000000
O O9 0.742157 0.895094 0.287168
O O10 0.000000 0.939795 0.198062
O O11 0.726959 0.000000 0.222920
O O12 0.717852 0.918856 0.102319
O O13 0.500000 0.822172 0.705460
O O14 0.784564 0.808480 0.806543
O O15 0.000000 0.915708 0.000000
O O16 0.796241 0.000000 0.000000
O O17 0.734241 0.285837 0.126012
O O18 0.000000 0.329910 0.208703
O O19 0.500000 0.211206 0.899856
O O20 0.217130 0.207761 0.000000
#
# Coordination Sequence:
#
# PCOD9384299 Si02
#       7
#     8   8   8   8   4   8   8
#     4   9  18  33  51  68  87 112 145 190 241 284
#     4   8  13  21  36  62  95 126 153 184 221 258
#     4   9  17  30  47  66  91 123 156 187 219 259
#     4  10  20  31  46  68  92 118 149 185 226 275
#     4   7  12  24  41  61  85 117 155 185 206 237
#     4   9  16  27  45  67  87 112 154 195 223 262
#     4   9  18  30  41  58  90 125 149 177 223 270
#
# _framework density 19.744123999999999
#
# number of rings (size 3 to 8) (size 9 to 14) (size 15 to 20)
#    0.000    3.154    0.000    2.308    1.077    2.154 
#    0.000    0.000    0.000    2.769    0.000    8.615 
#    0.000    0.000    0.000    7.692    0.000    8.308 
#
# Total GULP energy -289823.825507 kJ/mol
# GULP energy per Si atom -5573.535106 kJ/mol
# Density = 1.969919 g / cm^3
# Si number density = 19.744124 Si / 1000 Ang^3
#
#
#
# Elastic Constant Matrix: (Units=GPa)
#
#
# Indices 1 2 3 4 5 6 
#
# 1 49.1581 -6.3103 3.2965 0.0000 0.0000 0.0000
# 2 -6.3103 101.4100 26.3880 0.0000 0.0000 0.0000
# 3 3.2965 26.3880 76.1567 0.0000 0.0000 0.0000
# 4 0.0000 0.0000 0.0000 16.9902 0.0000 0.0000
# 5 0.0000 0.0000 0.0000 0.0000 3.3672 0.0000
# 6 0.0000 0.0000 0.0000 0.0000 0.0000 -266.6124
#
#
#
# Elastic Compliance Matrix: (Units=1/GPa)
#
#
# Indices 1 2 3 4 5 6 
#
# 1 0.020655 0.001668 -0.001472 0.000000 0.000000 0.000000
# 2 0.001668 0.010973 -0.003874 0.000000 0.000000 0.000000
# 3 -0.001472 -0.003874 0.014537 0.000000 0.000000 0.000000
# 4 0.000000 0.000000 0.000000 0.058858 0.000000 0.000000
# 5 0.000000 0.000000 0.000000 0.000000 0.296978 0.000000
# 6 0.000000 0.000000 0.000000 0.000000 0.000000 -0.003751
#
#
# Mechanical properties :
#
#
# Convention : Reuss Voigt Hill
#
# Bulk Modulus (GPa) = 25.76716 30.38593 28.07654
# Shear Modulus (GPa) = 11.94620 -35.69428 -11.87404
#
# Velocity S-wave (km/s) = 2.46245 -4.25649 -2.45500
# Velocity P-wave (km/s) = 4.60041 2.95527 2.49300
#
# Compressibility (1/GPa) = 0.03880909
#
# Stress axis : x y z
#
# Youngs Moduli (GPa) = 48.41348 91.13349 68.79012
#
# Poissons Ratio (x) = -0.15204 0.10127
# Poissons Ratio (y) = -0.08077 0.26651
# Poissons Ratio (z) = 0.07127 0.35308
#
# Static dielectric constant tensor:
#      x y z
#    x 1.730340 0.000000 0.000000 
#    y 0.000000 1.725330 0.000000 
#    z 0.000000 0.000000 1.710810 
# 
# From -- ./inp_files/21740.got.cif
#   From: 2010.05.17/outbox.cif.g08.bks.cpg/sg47_11_cif.got.tgz:21740.got - 2010.06.03 20:15:42.
