data_PCOD9384247
_publ_section_title
;
Structure prediction by ZEFSAII (Michael W. Deem and Ramdas Pophale) SiO2 
 PCOD9384247
Probable space group: P M M M
;
_chemical_formula_sum "Si O2"
_cell_formula_units_Z 64
_cell_length_a 14.976911
_cell_length_b 9.364197
_cell_length_c 22.014118
_cell_angle_alpha 90.000000
_cell_angle_beta 90.000000
_cell_angle_gamma 90.000000
_cell_volume 3087.408395
_symmetry_space_group_name_H-M "P M M M"
_symmetry_group_IT_number 47
_symmetry_cell_setting 'orthorhombic'
loop_
_space_group_symop_operation_xyz
x,y,z
-x,-y,z
x,-y,-z
-x,y,-z
-x,-y,-z
x,y,-z
-x,y,z
x,-y,z
loop_
_atom_site_type_symbol
_atom_site_label
_atom_site_fract_x
_atom_site_fract_y
_atom_site_fract_z
Si Si1 0.394296 0.326560 0.565078
Si Si2 0.107166 0.660269 0.683992
Si Si3 0.356495 0.162232 0.815572
Si Si4 0.655371 0.329401 0.932663
Si Si5 0.393474 0.661698 0.304575
Si Si6 0.108885 0.834605 0.567301
Si Si7 0.142157 0.839123 0.804124
Si Si8 0.846099 0.828578 0.934068
O O1 0.355694 0.278036 0.500000
O O2 0.500000 0.290409 0.563332
O O3 0.389164 0.500000 0.566468
O O4 0.357922 0.279962 0.630677
O O5 0.142987 0.500000 0.685068
O O6 0.140405 0.744222 0.624698
O O7 0.124928 0.739064 0.747248
O O8 0.000000 0.653412 0.678090
O O9 0.386719 0.250942 0.874680
O O10 0.379141 0.240029 0.753109
O O11 0.248607 0.157363 0.814836
O O12 0.389295 0.000000 0.817843
O O13 0.657181 0.500000 0.923363
O O14 0.755735 0.264733 0.935274
O O15 0.615912 0.301920 0.000000
O O16 0.500000 0.650641 0.312590
O O17 0.359881 0.500000 0.293451
O O18 0.134878 0.781442 0.500000
O O19 0.000000 0.833391 0.568383
O O20 0.135945 0.000000 0.573178
O O21 0.105565 0.795095 0.870528
O O22 0.111407 0.000000 0.789729
O O23 0.825160 0.000000 0.930724
O O24 0.890592 0.806550 0.000000
#
# Coordination Sequence:
#
# PCOD9384247 Si02
#       8
#     8   8   8   8   8   8   8   8
#     4   7  10  19  38  64  90 114 144 183 222 259
#     4  10  20  31  45  68  95 121 150 188 233 275
#     4  10  20  32  47  68  94 124 156 189 226 269
#     4   9  16  26  43  67  91 115 147 187 229 271
#     4   9  17  29  47  71  96 122 153 189 229 273
#     4   8  14  26  45  67  89 115 148 184 223 270
#     4   9  18  31  47  67  90 120 156 189 224 270
#     4   8  14  26  44  66  91 116 146 187 229 266
#
# _framework density 20.729358999999999
#
# number of rings (size 3 to 8) (size 9 to 14) (size 15 to 20)
#    0.000    3.250    0.000    3.375    0.000    4.500 
#    0.000    1.250    0.000    1.875    0.000   10.500 
#    0.000    0.000    0.000    0.000    0.000    0.000 
#
# Total GULP energy -356451.678141 kJ/mol
# GULP energy per Si atom -5569.557471 kJ/mol
# Density = 2.068218 g / cm^3
# Si number density = 20.729359 Si / 1000 Ang^3
#
#
#
# Elastic Constant Matrix: (Units=GPa)
#
#
# Indices 1 2 3 4 5 6 
#
# 1 46.2659 4.2499 6.8612 0.0000 0.0000 0.0000
# 2 4.2499 100.8266 115.5979 0.0000 0.0000 0.0000
# 3 6.8612 115.5979 276.0913 0.0000 0.0000 0.0000
# 4 0.0000 0.0000 0.0000 17.4287 0.0000 0.0000
# 5 0.0000 0.0000 0.0000 0.0000 18.4995 0.0000
# 6 0.0000 0.0000 0.0000 0.0000 0.0000 9.9947
#
#
#
# Elastic Compliance Matrix: (Units=1/GPa)
#
#
# Indices 1 2 3 4 5 6 
#
# 1 0.021711 -0.000570 -0.000301 0.000000 0.000000 0.000000
# 2 -0.000570 0.019089 -0.007978 0.000000 0.000000 0.000000
# 3 -0.000301 -0.007978 0.006970 0.000000 0.000000 0.000000
# 4 0.000000 0.000000 0.000000 0.057377 0.000000 0.000000
# 5 0.000000 0.000000 0.000000 0.000000 0.054056 0.000000
# 6 0.000000 0.000000 0.000000 0.000000 0.000000 0.100053
#
#
# Mechanical properties :
#
#
# Convention : Reuss Voigt Hill
#
# Bulk Modulus (GPa) = 33.25407 75.17796 54.21601
# Shear Modulus (GPa) = 17.42289 28.94956 23.18622
#
# Velocity S-wave (km/s) = 2.90227 3.74110 3.34806
# Velocity P-wave (km/s) = 5.22568 7.41662 6.41537
#
# Compressibility (1/GPa) = 0.03007151
#
# Stress axis : x y z
#
# Youngs Moduli (GPa) = 46.05923 52.38531 143.47232
#
# Poissons Ratio (x) = 0.02988 0.04315
# Poissons Ratio (y) = 0.02627 1.14468
# Poissons Ratio (z) = 0.01385 0.41795
#
# Static dielectric constant tensor:
#      x y z
#    x 1.819210 0.000000 0.000000 
#    y 0.000000 1.703540 0.000000 
#    z 0.000000 0.000000 1.806970 
# 
# From -- ./inp_files/31543.got.cif
#   From: 2010.05.17/outbox.cif.g08.bks.cpg/sg47_16_cif.got.tgz:31543.got - 2010.06.03 20:15:42.
