data_PCOD9384413
_publ_section_title
;
Structure prediction by ZEFSAII (Michael W. Deem and Ramdas Pophale) SiO2 
 PCOD9384413
Probable space group: P M M M
;
_chemical_formula_sum "Si O2"
_cell_formula_units_Z 36
_cell_length_a 21.421416
_cell_length_b 8.731956
_cell_length_c 12.009387
_cell_angle_alpha 90.000000
_cell_angle_beta 90.000000
_cell_angle_gamma 90.000000
_cell_volume 2246.366190
_symmetry_space_group_name_H-M "P M M M"
_symmetry_group_IT_number 47
_symmetry_cell_setting 'orthorhombic'
loop_
_space_group_symop_operation_xyz
x,y,z
-x,-y,z
x,-y,-z
-x,y,-z
-x,-y,-z
x,y,-z
-x,y,z
x,-y,z
loop_
_atom_site_type_symbol
_atom_site_label
_atom_site_fract_x
_atom_site_fract_y
_atom_site_fract_z
Si Si1 0.879925 0.816164 0.269279
Si Si2 0.364613 0.822454 0.135321
Si Si3 0.073404 0.316268 0.500000
Si Si4 0.000000 0.186259 0.126498
Si Si5 0.233021 0.682235 0.129988
Si Si6 0.500000 0.812893 0.871011
O O1 0.892853 0.746846 0.390274
O O2 0.938195 0.766503 0.192023
O O3 0.817216 0.760668 0.209463
O O4 0.879992 0.000000 0.276702
O O5 0.303403 0.727402 0.164228
O O6 0.432636 0.767073 0.177296
O O7 0.355863 0.000000 0.168142
O O8 0.368661 0.820730 0.000000
O O9 0.074847 0.500000 0.500000
O O10 0.000000 0.267765 0.500000
O O11 0.000000 0.000000 0.123953
O O12 0.000000 0.241769 0.000000
O O13 0.225581 0.500000 0.134189
O O14 0.224292 0.731383 0.000000
O O15 0.500000 0.000000 0.871850
O O16 0.500000 0.762068 0.000000
#
# Coordination Sequence:
#
# PCOD9384413 Si02
#       6
#     8   8   4   4   8   4
#     4  11  21  35  55  74  95 123 163 205 240 284
#     4   8  13  23  40  61  87 123 164 201 237 280
#     4  11  23  39  57  75  99 124 151 192 249 301
#     4   9  18  31  49  74  98 119 150 195 238 275
#     4  10  20  32  45  67 101 135 164 198 245 296
#     4   7  10  18  35  59  85 116 159 204 237 271
#
# _framework density 16.025883
#
# number of rings (size 3 to 8) (size 9 to 14) (size 15 to 20)
#    0.000    2.556    1.111    3.667    0.000    2.667 
#    0.000    0.556    0.000    6.000    0.000    0.000 
#    0.000    0.889    0.000    9.556    0.000    6.889 
#
# Total GULP energy -200571.900047 kJ/mol
# GULP energy per Si atom -5571.441668 kJ/mol
# Density = 1.598941 g / cm^3
# Si number density = 16.025883 Si / 1000 Ang^3
#
#
#
# Elastic Constant Matrix: (Units=GPa)
#
#
# Indices 1 2 3 4 5 6 
#
# 1 150.1376 37.9324 62.1454 0.0000 0.0000 0.0000
# 2 37.9324 41.7108 29.5317 0.0000 0.0000 0.0000
# 3 62.1454 29.5317 94.7250 0.0000 0.0000 0.0000
# 4 0.0000 0.0000 0.0000 15.9709 0.0000 0.0000
# 5 0.0000 0.0000 0.0000 0.0000 -0.7714 0.0000
# 6 0.0000 0.0000 0.0000 0.0000 0.0000 14.4981
#
#
#
# Elastic Compliance Matrix: (Units=1/GPa)
#
#
# Indices 1 2 3 4 5 6 
#
# 1 0.010124 -0.005780 -0.004840 0.000000 0.000000 0.000000
# 2 -0.005780 0.034066 -0.006828 0.000000 0.000000 0.000000
# 3 -0.004840 -0.006828 0.015861 0.000000 0.000000 0.000000
# 4 0.000000 0.000000 0.000000 0.062614 0.000000 0.000000
# 5 0.000000 0.000000 0.000000 0.000000 -1.296307 0.000000
# 6 0.000000 0.000000 0.000000 0.000000 0.000000 0.068974
#
#
# Mechanical properties :
#
#
# Convention : Reuss Voigt Hill
#
# Bulk Modulus (GPa) = 39.75525 60.64360 50.19943
# Shear Modulus (GPa) = -4.71082 16.40379 5.84648
#
# Velocity S-wave (km/s) = -1.71636 3.20282 1.91209
# Velocity P-wave (km/s) = 4.57525 7.18335 6.02219
#
# Compressibility (1/GPa) = 0.02515391
#
# Stress axis : x y z
#
# Youngs Moduli (GPa) = 98.77104 29.35497 63.04757
#
# Poissons Ratio (x) = 0.16968 0.30516
# Poissons Ratio (y) = 0.57094 0.43050
# Poissons Ratio (z) = 0.47806 0.20044
#
# Static dielectric constant tensor:
#      x y z
#    x 1.562310 0.000000 0.000000 
#    y 0.000000 1.534650 0.000000 
#    z 0.000000 0.000000 1.507670 
# 
# From -- ./inp_files/18877.got.cif
#   From: 2010.05.17/outbox.cif.g08.bks.cpg/sg47_10_cif.got.tgz:18877.got - 2010.06.03 20:15:42.
