data_PCOD9384074
_publ_section_title
;
Structure prediction by ZEFSAII (Michael W. Deem and Ramdas Pophale) SiO2 
 PCOD9384074
Probable space group: P M M M
;
_chemical_formula_sum "Si O2"
_cell_formula_units_Z 37
_cell_length_a 7.625126
_cell_length_b 10.278202
_cell_length_c 23.401179
_cell_angle_alpha 90.000000
_cell_angle_beta 90.000000
_cell_angle_gamma 90.000000
_cell_volume 1834.010897
_symmetry_space_group_name_H-M "P M M M"
_symmetry_group_IT_number 47
_symmetry_cell_setting 'orthorhombic'
loop_
_space_group_symop_operation_xyz
x,y,z
-x,-y,z
x,-y,-z
-x,y,-z
-x,-y,-z
x,y,-z
-x,y,z
x,-y,z
loop_
_atom_site_type_symbol
_atom_site_label
_atom_site_fract_x
_atom_site_fract_y
_atom_site_fract_z
Si Si1 0.000000 0.500000 0.500000
Si Si2 0.707463 0.849648 0.098026
Si Si3 0.691372 0.500000 0.592763
Si Si4 0.786226 0.000000 0.566659
Si Si5 0.284935 0.347849 0.000000
Si Si6 0.213570 0.236227 0.650274
Si Si7 0.788539 0.148988 0.225153
O O1 0.847932 0.500000 0.548633
O O2 0.500000 0.860571 0.087402
O O3 0.733088 0.801851 0.163083
O O4 0.777975 0.000000 0.092421
O O5 0.773020 0.740396 0.054110
O O6 0.500000 0.500000 0.565821
O O7 0.713212 0.627882 0.630313
O O8 0.734036 0.125243 0.604341
O O9 0.727690 0.000000 0.500000
O O10 0.000000 0.000000 0.564610
O O11 0.228439 0.500000 0.000000
O O12 0.500000 0.351988 0.000000
O O13 0.270137 0.209804 0.715236
O O14 0.000000 0.238365 0.649407
O O15 0.000000 0.150632 0.225941
O O16 0.728181 0.000000 0.226714
#
# Coordination Sequence:
#
# PCOD9384074 Si02
#       7
#     1   8   4   4   4   8   8
#     4  12  26  52  68  84 128 172 202 260 320 362
#     4   9  17  30  51  77 104 140 188 237 288 348
#     4  12  27  43  67  96 121 162 213 254 307 379
#     4   9  18  30  59  91 115 152 202 241 301 364
#     4   9  17  31  50  73 104 142 184 239 302 352
#     4  10  19  38  61  88 124 162 199 249 305 362
#     4   9  17  32  56  85 117 155 196 236 292 358
#
# _framework density 20.174361000000001
#
# number of rings (size 3 to 8) (size 9 to 14) (size 15 to 20)
#    0.000    2.378    2.162    0.486    1.514    2.162 
#    1.946    1.081    0.000    3.892    0.000    0.000 
#    0.000    0.000    0.000    0.000    0.000    0.000 
#
# Total GULP energy -206071.063854 kJ/mol
# GULP energy per Si atom -5569.488212 kJ/mol
# Density = 2.012844 g / cm^3
# Si number density = 20.174361 Si / 1000 Ang^3
#
#
#
# Elastic Constant Matrix: (Units=GPa)
#
#
# Indices 1 2 3 4 5 6 
#
# 1 64.4588 15.9454 27.0495 0.0000 0.0000 0.0000
# 2 15.9454 155.8345 118.6692 0.0000 0.0000 0.0000
# 3 27.0495 118.6692 222.4427 0.0000 0.0000 0.0000
# 4 0.0000 0.0000 0.0000 -6.0423 0.0000 0.0000
# 5 0.0000 0.0000 0.0000 0.0000 24.1365 0.0000
# 6 0.0000 0.0000 0.0000 0.0000 0.0000 -21.4813
#
#
#
# Elastic Compliance Matrix: (Units=1/GPa)
#
#
# Indices 1 2 3 4 5 6 
#
# 1 0.016355 -0.000268 -0.001846 0.000000 0.000000 0.000000
# 2 -0.000268 0.010812 -0.005735 0.000000 0.000000 0.000000
# 3 -0.001846 -0.005735 0.007780 0.000000 0.000000 0.000000
# 4 0.000000 0.000000 0.000000 -0.165499 0.000000 0.000000
# 5 0.000000 0.000000 0.000000 0.000000 0.041431 0.000000
# 6 0.000000 0.000000 0.000000 0.000000 0.000000 -0.046552
#
#
# Mechanical properties :
#
#
# Convention : Reuss Voigt Hill
#
# Bulk Modulus (GPa) = 51.95300 85.11825 68.53562
# Shear Modulus (GPa) = -44.03003 18.06069 -12.98467
#
# Velocity S-wave (km/s) = -4.67676 2.99529 -2.53972
# Velocity P-wave (km/s) = 1.83165 7.36513 5.04432
#
# Compressibility (1/GPa) = 0.01924817
#
# Stress axis : x y z
#
# Youngs Moduli (GPa) = 61.14468 92.48904 128.53815
#
# Poissons Ratio (x) = 0.02477 0.23727
# Poissons Ratio (y) = 0.01637 0.73723
# Poissons Ratio (z) = 0.11287 0.53047
#
# Static dielectric constant tensor:
#      x y z
#    x 1.745070 0.000000 0.000000 
#    y 0.000000 1.689620 0.000000 
#    z 0.000000 0.000000 1.730930 
# 
# From -- ./inp_files/31731.got.cif
#   From: 2010.05.17/outbox.cif.g08.bks.cpg/sg47_16_cif.got.tgz:31731.got - 2010.06.03 20:15:42.
