data_PCOD9384872
_publ_section_title
;
Structure prediction by ZEFSAII (Michael W. Deem and Ramdas Pophale) SiO2 
 PCOD9384872
Probable space group: P M M M
;
_chemical_formula_sum "Si O2"
_cell_formula_units_Z 52
_cell_length_a 8.599111
_cell_length_b 14.097954
_cell_length_c 24.654664
_cell_angle_alpha 90.000000
_cell_angle_beta 90.000000
_cell_angle_gamma 90.000000
_cell_volume 2988.881744
_symmetry_space_group_name_H-M "P M M M"
_symmetry_group_IT_number 47
_symmetry_cell_setting 'orthorhombic'
loop_
_space_group_symop_operation_xyz
x,y,z
-x,-y,z
x,-y,-z
-x,y,-z
-x,-y,-z
x,y,-z
-x,y,z
x,-y,z
loop_
_atom_site_type_symbol
_atom_site_label
_atom_site_fract_x
_atom_site_fract_y
_atom_site_fract_z
Si Si1 0.689645 0.390791 0.561593
Si Si2 0.313561 0.209911 0.835394
Si Si3 0.688364 0.603975 0.771338
Si Si4 0.324438 0.500000 0.065664
Si Si5 0.813951 0.106986 0.266353
Si Si6 0.185677 0.295360 0.937232
Si Si7 0.312440 0.717182 0.333476
O O1 0.738162 0.368122 0.500000
O O2 0.500000 0.389904 0.562378
O O3 0.735337 0.500000 0.573585
O O4 0.742081 0.317678 0.607684
O O5 0.500000 0.205784 0.834727
O O6 0.259729 0.309818 0.808759
O O7 0.248862 0.132530 0.793717
O O8 0.253851 0.217149 0.896590
O O9 0.500000 0.601619 0.774966
O O10 0.748233 0.500000 0.785377
O O11 0.726232 0.634812 0.710039
O O12 0.500000 0.500000 0.087830
O O13 0.243547 0.599147 0.079629
O O14 0.330745 0.500000 0.000000
O O15 0.752378 0.185665 0.308458
O O16 0.000000 0.112202 0.265159
O O17 0.766505 0.000000 0.280974
O O18 0.000000 0.294021 0.934946
O O19 0.234165 0.281004 0.000000
O O20 0.500000 0.725676 0.334266
#
# Coordination Sequence:
#
# PCOD9384872 Si02
#       7
#     8   8   8   4   8   8   8
#     4   8  13  22  41  73 110 143 172 202 238 282
#     4  10  20  32  51  76  98 124 159 202 247 296
#     4   8  14  24  39  63  94 124 154 190 233 280
#     4   9  17  29  45  65  91 129 175 211 236 271
#     4  10  21  37  55  72  93 123 159 204 260 315
#     4  10  20  33  48  68  99 136 169 202 242 290
#     4   9  16  27  47  73  98 127 165 207 245 286
#
# _framework density 17.397811999999998
#
# number of rings (size 3 to 8) (size 9 to 14) (size 15 to 20)
#    0.000    2.846    0.000    3.462    1.077    4.923 
#    0.000    0.000    0.000    9.692    0.000    7.538 
#    0.000    0.000    0.000    0.000    0.000    0.000 
#
# Total GULP energy -289767.385726 kJ/mol
# GULP energy per Si atom -5572.449726 kJ/mol
# Density = 1.735821 g / cm^3
# Si number density = 17.397812 Si / 1000 Ang^3
#
#
#
# Elastic Constant Matrix: (Units=GPa)
#
#
# Indices 1 2 3 4 5 6 
#
# 1 25.8034 14.7557 21.3002 0.0000 0.0000 0.0000
# 2 14.7557 71.8239 35.9664 0.0000 0.0000 0.0000
# 3 21.3002 35.9664 108.6187 0.0000 0.0000 0.0000
# 4 0.0000 0.0000 0.0000 18.5954 0.0000 0.0000
# 5 0.0000 0.0000 0.0000 0.0000 12.7577 0.0000
# 6 0.0000 0.0000 0.0000 0.0000 0.0000 16.2323
#
#
#
# Elastic Compliance Matrix: (Units=1/GPa)
#
#
# Indices 1 2 3 4 5 6 
#
# 1 0.048459 -0.006230 -0.007440 0.000000 0.000000 0.000000
# 2 -0.006230 0.017491 -0.004570 0.000000 0.000000 0.000000
# 3 -0.007440 -0.004570 0.012179 0.000000 0.000000 0.000000
# 4 0.000000 0.000000 0.000000 0.053777 0.000000 0.000000
# 5 0.000000 0.000000 0.000000 0.000000 0.078384 0.000000
# 6 0.000000 0.000000 0.000000 0.000000 0.000000 0.061606
#
#
# Mechanical properties :
#
#
# Convention : Reuss Voigt Hill
#
# Bulk Modulus (GPa) = 24.01023 38.92117 31.46570
# Shear Modulus (GPa) = 15.51554 18.46534 16.99044
#
# Velocity S-wave (km/s) = 2.98956 3.26139 3.12843
# Velocity P-wave (km/s) = 5.07418 6.04996 5.58343
#
# Compressibility (1/GPa) = 0.04164891
#
# Stress axis : x y z
#
# Youngs Moduli (GPa) = 20.63616 57.17105 82.11007
#
# Poissons Ratio (x) = 0.35617 0.61089
# Poissons Ratio (y) = 0.12856 0.37525
# Poissons Ratio (z) = 0.15353 0.26128
#
# Static dielectric constant tensor:
#      x y z
#    x 1.592210 0.000000 0.000000 
#    y 0.000000 1.583730 0.000000 
#    z 0.000000 0.000000 1.626710 
# 
# From -- ./inp_files/31958.got.cif
#   From: 2010.05.17/outbox.cif.g08.bks.cpg/sg47_16_cif.got.tgz:31958.got - 2010.06.03 20:15:42.
