data_PCOD9384970
_publ_section_title
;
Structure prediction by ZEFSAII (Michael W. Deem and Ramdas Pophale) SiO2 
 PCOD9384970
Probable space group: P M M M
;
_chemical_formula_sum "Si O2"
_cell_formula_units_Z 64
_cell_length_a 7.388235
_cell_length_b 20.954395
_cell_length_c 20.878884
_cell_angle_alpha 90.000000
_cell_angle_beta 90.000000
_cell_angle_gamma 90.000000
_cell_volume 3232.385191
_symmetry_space_group_name_H-M "P M M M"
_symmetry_group_IT_number 47
_symmetry_cell_setting 'orthorhombic'
loop_
_space_group_symop_operation_xyz
x,y,z
-x,-y,z
x,-y,-z
-x,y,-z
-x,-y,-z
x,y,-z
-x,y,z
x,-y,z
loop_
_atom_site_type_symbol
_atom_site_label
_atom_site_fract_x
_atom_site_fract_y
_atom_site_fract_z
Si Si1 0.282067 0.742520 0.793347
Si Si2 0.719099 0.751325 0.931494
Si Si3 0.721847 0.688640 0.660159
Si Si4 0.720337 0.573023 0.572662
Si Si5 0.218274 0.930788 0.651708
Si Si6 0.713360 0.195426 0.428170
Si Si7 0.211793 0.097056 0.930511
Si Si8 0.785530 0.105611 0.791350
O O1 0.500000 0.738927 0.793080
O O2 0.218581 0.722370 0.864215
O O3 0.217404 0.702532 0.732562
O O4 0.237021 0.817672 0.786468
O O5 0.500000 0.750771 0.931076
O O6 0.775858 0.825684 0.930805
O O7 0.779086 0.723999 0.000000
O O8 0.500000 0.688434 0.661212
O O9 0.779527 0.623701 0.625538
O O10 0.783942 0.748030 0.616625
O O11 0.774517 0.591302 0.500000
O O12 0.500000 0.573307 0.572890
O O13 0.777114 0.500000 0.584243
O O14 0.268632 0.871808 0.607442
O O15 0.285301 0.921833 0.724689
O O16 0.000000 0.930295 0.654712
O O17 0.276556 0.000000 0.627121
O O18 0.788828 0.194332 0.500000
O O19 0.500000 0.208303 0.433688
O O20 0.287685 0.080952 0.860008
O O21 0.000000 0.079109 0.930797
O O22 0.287636 0.076211 0.000000
O O23 0.000000 0.092168 0.793402
#
# Coordination Sequence:
#
# PCOD9384970 Si02
#       8
#     8   8   8   8   8   8   8   8
#     4   9  15  23  38  58  80 105 131 163 203 239
#     4   8  13  20  30  48  75 103 129 157 191 233
#     4   9  15  24  39  60  85 109 133 164 201 241
#     4   8  13  21  34  54  82 114 140 160 191 239
#     4  10  21  35  48  61  80 108 139 171 208 250
#     4  10  20  33  49  67  84 103 130 168 213 254
#     4   8  13  21  35  55  76  98 125 158 196 235
#     4   9  16  27  42  58  78 104 134 166 200 242
#
# _framework density 19.799621999999999
#
# number of rings (size 3 to 8) (size 9 to 14) (size 15 to 20)
#    0.000    3.125    1.250    0.750    0.000    2.250 
#    0.000    1.250    0.000    0.375    0.000    2.625 
#    0.000    2.500    0.000   35.250    0.000   17.000 
#
# Total GULP energy -356743.789945 kJ/mol
# GULP energy per Si atom -5574.121718 kJ/mol
# Density = 1.975456 g / cm^3
# Si number density = 19.799622 Si / 1000 Ang^3
#
#
#
# Elastic Constant Matrix: (Units=GPa)
#
#
# Indices 1 2 3 4 5 6 
#
# 1 70.8651 -4.2924 6.2764 0.0000 0.0000 0.0000
# 2 -4.2924 82.1732 72.4529 0.0000 0.0000 0.0000
# 3 6.2764 72.4529 199.7998 0.0000 0.0000 0.0000
# 4 0.0000 0.0000 0.0000 71.0544 0.0000 0.0000
# 5 0.0000 0.0000 0.0000 0.0000 3.3444 0.0000
# 6 0.0000 0.0000 0.0000 0.0000 0.0000 17.1663
#
#
#
# Elastic Compliance Matrix: (Units=1/GPa)
#
#
# Indices 1 2 3 4 5 6 
#
# 1 0.014307 0.001681 -0.001059 0.000000 0.000000 0.000000
# 2 0.001681 0.018087 -0.006612 0.000000 0.000000 0.000000
# 3 -0.001059 -0.006612 0.007436 0.000000 0.000000 0.000000
# 4 0.000000 0.000000 0.000000 0.014074 0.000000 0.000000
# 5 0.000000 0.000000 0.000000 0.000000 0.299006 0.000000
# 6 0.000000 0.000000 0.000000 0.000000 0.000000 0.058254
#
#
# Mechanical properties :
#
#
# Convention : Reuss Voigt Hill
#
# Bulk Modulus (GPa) = 35.90602 55.74578 45.82590
# Shear Modulus (GPa) = 11.56270 36.87312 24.21791
#
# Velocity S-wave (km/s) = 2.41920 4.32014 3.50115
# Velocity P-wave (km/s) = 5.09681 7.28703 6.28802
#
# Compressibility (1/GPa) = 0.02785049
#
# Stress axis : x y z
#
# Youngs Moduli (GPa) = 69.89616 55.28926 134.48440
#
# Poissons Ratio (x) = -0.09295 0.14243
# Poissons Ratio (y) = -0.11750 0.88915
# Poissons Ratio (z) = 0.07402 0.36555
#
# Static dielectric constant tensor:
#      x y z
#    x 2.587830 0.000000 0.000000 
#    y 0.000000 1.649150 0.000000 
#    z 0.000000 0.000000 1.755050 
# 
# From -- ./inp_files/11797.got.cif
#   From: 2010.05.17/outbox.cif.g08.bks.cpg/sg47_6_cif.got.tgz:11797.got - 2010.06.03 20:15:42.
