data_PCOD9384570
_publ_section_title
;
Structure prediction by ZEFSAII (Michael W. Deem and Ramdas Pophale) SiO2 
 PCOD9384570
Probable space group: P M M M
;
_chemical_formula_sum "Si O2"
_cell_formula_units_Z 52
_cell_length_a 12.173415
_cell_length_b 8.843152
_cell_length_c 28.882990
_cell_angle_alpha 90.000000
_cell_angle_beta 90.000000
_cell_angle_gamma 90.000000
_cell_volume 3109.293131
_symmetry_space_group_name_H-M "P M M M"
_symmetry_group_IT_number 47
_symmetry_cell_setting 'orthorhombic'
loop_
_space_group_symop_operation_xyz
x,y,z
-x,-y,z
x,-y,-z
-x,y,-z
-x,-y,-z
x,y,-z
-x,y,z
x,-y,z
loop_
_atom_site_type_symbol
_atom_site_label
_atom_site_fract_x
_atom_site_fract_y
_atom_site_fract_z
Si Si1 0.133178 0.825609 0.235800
Si Si2 0.500000 0.318381 0.555444
Si Si3 0.500000 0.171007 0.055904
Si Si4 0.732714 0.181112 0.415172
Si Si5 0.870233 0.679858 0.667350
Si Si6 0.128142 0.817840 0.865985
Si Si7 0.729316 0.319449 0.946597
Si Si8 0.130556 0.318496 0.500000
O O1 0.159846 0.725146 0.280112
O O2 0.171780 0.772357 0.185074
O O3 0.000000 0.828272 0.232792
O O4 0.168154 0.000000 0.243248
O O5 0.500000 0.500000 0.561168
O O6 0.500000 0.286623 0.500000
O O7 0.389141 0.248911 0.577179
O O8 0.390072 0.259070 0.067969
O O9 0.500000 0.000000 0.074108
O O10 0.500000 0.163036 0.000000
O O11 0.790918 0.234265 0.367927
O O12 0.810033 0.247610 0.455650
O O13 0.728109 0.000000 0.417891
O O14 0.860935 0.500000 0.660486
O O15 0.000000 0.720474 0.660054
O O16 0.187197 0.745914 0.909522
O O17 0.000000 0.778012 0.868138
O O18 0.137134 0.000000 0.867913
O O19 0.730678 0.500000 0.946164
O O20 0.750797 0.270104 0.000000
O O21 0.146114 0.500000 0.500000
O O22 0.000000 0.288454 0.500000
#
# Coordination Sequence:
#
# PCOD9384570 Si02
#       8
#     8   4   4   8   8   8   8   4
#     4   8  15  30  51  74 101 133 171 215 260 307
#     4  11  23  41  63  80 104 143 184 222 261 307
#     4   9  17  31  51  70  89 120 165 211 253 301
#     4  12  24  37  57  82 109 140 178 219 258 305
#     4  10  20  34  54  81 111 141 174 213 261 314
#     4   9  18  32  50  73 102 137 175 213 255 307
#     4  10  20  32  47  70 101 134 169 213 262 311
#     4  11  23  38  55  78 111 145 175 211 258 307
#
# _framework density 16.724056999999998
#
# number of rings (size 3 to 8) (size 9 to 14) (size 15 to 20)
#    0.000    2.077    0.769    4.385    0.000    6.769 
#    0.000    3.077    0.000    0.923    0.000    1.077 
#    0.000    0.000    0.000    0.000    0.000    0.000 
#
# Total GULP energy -290037.080843 kJ/mol
# GULP energy per Si atom -5577.636170 kJ/mol
# Density = 1.668599 g / cm^3
# Si number density = 16.724057 Si / 1000 Ang^3
#
#
#
# Elastic Constant Matrix: (Units=GPa)
#
#
# Indices 1 2 3 4 5 6 
#
# 1 105.4955 60.6322 72.0652 0.0000 0.0000 0.0000
# 2 60.6322 71.1075 52.7195 0.0000 0.0000 0.0000
# 3 72.0652 52.7195 127.6055 0.0000 0.0000 0.0000
# 4 0.0000 0.0000 0.0000 26.2824 0.0000 0.0000
# 5 0.0000 0.0000 0.0000 0.0000 -11.7214 0.0000
# 6 0.0000 0.0000 0.0000 0.0000 0.0000 50.5772
#
#
#
# Elastic Compliance Matrix: (Units=1/GPa)
#
#
# Indices 1 2 3 4 5 6 
#
# 1 0.021982 -0.013752 -0.006733 0.000000 0.000000 0.000000
# 2 -0.013752 0.028876 -0.004164 0.000000 0.000000 0.000000
# 3 -0.006733 -0.004164 0.013359 0.000000 0.000000 0.000000
# 4 0.000000 0.000000 0.000000 0.038048 0.000000 0.000000
# 5 0.000000 0.000000 0.000000 0.000000 -0.085314 0.000000
# 6 0.000000 0.000000 0.000000 0.000000 0.000000 0.019772
#
#
# Mechanical properties :
#
#
# Convention : Reuss Voigt Hill
#
# Bulk Modulus (GPa) = 67.02125 75.00469 71.01297
# Shear Modulus (GPa) = 54.94832 20.94707 37.94769
#
# Velocity S-wave (km/s) = 5.73822 3.54292 4.76862
# Velocity P-wave (km/s) = 9.16868 7.85380 8.53659
#
# Compressibility (1/GPa) = 0.01492064
#
# Stress axis : x y z
#
# Youngs Moduli (GPa) = 45.49138 34.63049 74.85483
#
# Poissons Ratio (x) = 0.47624 0.50399
# Poissons Ratio (y) = 0.62560 0.31167
# Poissons Ratio (z) = 0.30629 0.14419
#
# Static dielectric constant tensor:
#      x y z
#    x 1.548400 0.000000 0.000000 
#    y 0.000000 1.561750 0.000000 
#    z 0.000000 0.000000 1.570160 
# 
# From -- ./inp_files/33694.got.cif
#   From: 2010.05.17/outbox.cif.g08.bks.cpg/sg47_17_cif.got.tgz:33694.got - 2010.06.03 20:15:42.
