data_PCOD9384268
_publ_section_title
;
Structure prediction by ZEFSAII (Michael W. Deem and Ramdas Pophale) SiO2 
 PCOD9384268
Probable space group: P M M M
;
_chemical_formula_sum "Si O2"
_cell_formula_units_Z 36
_cell_length_a 9.901975
_cell_length_b 7.400029
_cell_length_c 23.456377
_cell_angle_alpha 90.000000
_cell_angle_beta 90.000000
_cell_angle_gamma 90.000000
_cell_volume 1718.763730
_symmetry_space_group_name_H-M "P M M M"
_symmetry_group_IT_number 47
_symmetry_cell_setting 'orthorhombic'
loop_
_space_group_symop_operation_xyz
x,y,z
-x,-y,z
x,-y,-z
-x,y,-z
-x,-y,-z
x,y,-z
-x,y,z
x,-y,z
loop_
_atom_site_type_symbol
_atom_site_label
_atom_site_fract_x
_atom_site_fract_y
_atom_site_fract_z
Si Si1 0.153864 0.220413 0.565004
Si Si2 0.153820 0.720133 0.102297
Si Si3 0.655195 0.278986 0.000000
Si Si4 0.651852 0.786226 0.335794
Si Si5 0.151872 0.717270 0.768059
O O1 0.185152 0.274266 0.500000
O O2 0.259344 0.286545 0.611779
O O3 0.000000 0.275963 0.578460
O O4 0.154141 0.000000 0.565828
O O5 0.155242 0.500000 0.102057
O O6 0.181615 0.778020 0.167285
O O7 0.000000 0.773581 0.087580
O O8 0.262031 0.779373 0.055860
O O9 0.655028 0.500000 0.000000
O O10 0.500000 0.220876 0.000000
O O11 0.500000 0.712700 0.331842
O O12 0.736846 0.766328 0.278007
O O13 0.640234 0.000000 0.346079
O O14 0.147179 0.500000 0.769695
O O15 0.000000 0.780231 0.752378
#
# Coordination Sequence:
#
# PCOD9384268 Si02
#       5
#     8   8   4   8   8
#     4   8  14  26  45  67  89 115 149 188 227 265
#     4   8  14  25  40  58  82 112 145 182 223 264
#     4   9  15  21  33  57  86 113 142 177 218 264
#     4  10  20  31  45  69  98 125 152 183 224 274
#     4   9  18  32  49  68  90 120 158 194 228 268
#
# _framework density 20.945288000000001
#
# number of rings (size 3 to 8) (size 9 to 14) (size 15 to 20)
#    0.000    3.222    0.000    3.000    0.000    4.444 
#    0.000    4.444    0.000    0.667    0.000    5.444 
#    0.000    6.222    0.000    0.000    0.000    0.000 
#
# Total GULP energy -200922.091605 kJ/mol
# GULP energy per Si atom -5581.169211 kJ/mol
# Density = 2.089762 g / cm^3
# Si number density = 20.945288 Si / 1000 Ang^3
#
#
#
# Elastic Constant Matrix: (Units=GPa)
#
#
# Indices 1 2 3 4 5 6 
#
# 1 226.2688 6.7941 166.1761 0.0000 0.0000 0.0000
# 2 6.7941 69.4643 1.7853 0.0000 0.0000 0.0000
# 3 166.1761 1.7853 171.7630 0.0000 0.0000 0.0000
# 4 0.0000 0.0000 0.0000 11.4136 0.0000 0.0000
# 5 0.0000 0.0000 0.0000 0.0000 -10.4018 0.0000
# 6 0.0000 0.0000 0.0000 0.0000 0.0000 5.3882
#
#
#
# Elastic Compliance Matrix: (Units=1/GPa)
#
#
# Indices 1 2 3 4 5 6 
#
# 1 0.015354 -0.001120 -0.014843 0.000000 0.000000 0.000000
# 2 -0.001120 0.014481 0.000933 0.000000 0.000000 0.000000
# 3 -0.014843 0.000933 0.020173 0.000000 0.000000 0.000000
# 4 0.000000 0.000000 0.000000 0.087615 0.000000 0.000000
# 5 0.000000 0.000000 0.000000 0.000000 -0.096137 0.000000
# 6 0.000000 0.000000 0.000000 0.000000 0.000000 0.185590
#
#
# Mechanical properties :
#
#
# Convention : Reuss Voigt Hill
#
# Bulk Modulus (GPa) = 50.13012 90.77859 70.45436
# Shear Modulus (GPa) = 18.95471 20.79602 19.87536
#
# Velocity S-wave (km/s) = 3.01152 3.15441 3.08379
# Velocity P-wave (km/s) = 6.00651 7.53007 6.81103
#
# Compressibility (1/GPa) = 0.01994809
#
# Stress axis : x y z
#
# Youngs Moduli (GPa) = 65.12807 69.05379 49.57177
#
# Poissons Ratio (x) = 0.07736 0.73581
# Poissons Ratio (y) = 0.07296 -0.04627
# Poissons Ratio (z) = 0.96672 -0.06445
#
# Static dielectric constant tensor:
#      x y z
#    x 1.724620 0.000000 0.000000 
#    y 0.000000 1.850430 0.000000 
#    z 0.000000 0.000000 1.720090 
# 
# From -- ./inp_files/1459.got.cif
#   From: 2010.05.17/outbox.cif.g08.bks.cpg/sg47_1_cif.got.tgz:1459.got - 2010.06.03 20:15:42.
