data_PCOD9384997
_publ_section_title
;
Structure prediction by ZEFSAII (Michael W. Deem and Ramdas Pophale) SiO2 
 PCOD9384997
Probable space group: P M M M
;
_chemical_formula_sum "Si O2"
_cell_formula_units_Z 60
_cell_length_a 23.596153
_cell_length_b 10.909139
_cell_length_c 13.810185
_cell_angle_alpha 90.000000
_cell_angle_beta 90.000000
_cell_angle_gamma 90.000000
_cell_volume 3554.930997
_symmetry_space_group_name_H-M "P M M M"
_symmetry_group_IT_number 47
_symmetry_cell_setting 'orthorhombic'
loop_
_space_group_symop_operation_xyz
x,y,z
-x,-y,z
x,-y,-z
-x,y,-z
-x,-y,-z
x,y,-z
-x,y,z
x,-y,z
loop_
_atom_site_type_symbol
_atom_site_label
_atom_site_fract_x
_atom_site_fract_y
_atom_site_fract_z
Si Si1 0.709895 0.267828 0.389990
Si Si2 0.563814 0.740655 0.200275
Si Si3 0.319980 0.632695 0.185377
Si Si4 0.180729 0.144308 0.696235
Si Si5 0.592802 0.140676 0.610570
Si Si6 0.937322 0.148612 0.613577
Si Si7 0.431232 0.000000 0.108543
Si Si8 0.248439 0.860504 0.111977
O O1 0.707888 0.317049 0.500000
O O2 0.694617 0.355354 0.300024
O O3 0.771137 0.211944 0.366036
O O4 0.660554 0.164114 0.383924
O O5 0.500000 0.713053 0.167681
O O6 0.612494 0.646133 0.174188
O O7 0.565003 0.765852 0.315115
O O8 0.583455 0.872837 0.158896
O O9 0.300526 0.500000 0.149394
O O10 0.291417 0.750346 0.135315
O O11 0.117687 0.190143 0.672519
O O12 0.198864 0.154812 0.808571
O O13 0.183108 0.000000 0.671176
O O14 0.575563 0.161366 0.500000
O O15 0.579155 0.000000 0.635664
O O16 0.930073 0.179152 0.500000
O O17 0.000000 0.191878 0.644818
O O18 0.938436 0.000000 0.619445
O O19 0.500000 0.000000 0.105970
O O20 0.408543 0.000000 0.000000
O O21 0.271791 0.000000 0.127432
O O22 0.230744 0.853176 0.000000
#
# Coordination Sequence:
#
# PCOD9384997 Si02
#       8
#     8   8   8   8   8   8   4   8
#     4   9  17  28  44  65  91 124 161 198 238 282
#     4  10  20  33  49  68  93 121 153 190 230 282
#     4  10  22  36  51  72  97 124 156 193 236 292
#     4   9  15  24  42  67  96 129 168 208 242 284
#     4   9  16  26  42  66  95 122 150 191 240 282
#     4   8  13  20  32  57  97 141 176 202 233 276
#     4   9  18  32  49  69  89 111 142 182 226 271
#     4   9  19  35  54  74  95 121 155 201 254 299
#
# _framework density 16.877963999999999
#
# number of rings (size 3 to 8) (size 9 to 14) (size 15 to 20)
#    0.000    2.867    0.667    1.200    0.933    4.533 
#    0.000    0.667    0.000    0.400    0.000    9.333 
#    0.000    8.533    0.000   34.133    0.000   14.133 
#
# Total GULP energy -334092.179696 kJ/mol
# GULP energy per Si atom -5568.202995 kJ/mol
# Density = 1.683955 g / cm^3
# Si number density = 16.877964 Si / 1000 Ang^3
#
#
#
# Elastic Constant Matrix: (Units=GPa)
#
#
# Indices 1 2 3 4 5 6 
#
# 1 112.6864 25.4720 19.4416 0.0000 0.0000 0.0000
# 2 25.4720 57.3257 15.4546 0.0000 0.0000 0.0000
# 3 19.4416 15.4546 59.2377 0.0000 0.0000 0.0000
# 4 0.0000 0.0000 0.0000 4.1171 0.0000 0.0000
# 5 0.0000 0.0000 0.0000 0.0000 11.8123 0.0000
# 6 0.0000 0.0000 0.0000 0.0000 0.0000 4.5309
#
#
#
# Elastic Compliance Matrix: (Units=1/GPa)
#
#
# Indices 1 2 3 4 5 6 
#
# 1 0.010153 -0.003886 -0.002318 0.000000 0.000000 0.000000
# 2 -0.003886 0.020252 -0.004008 0.000000 0.000000 0.000000
# 3 -0.002318 -0.004008 0.018688 0.000000 0.000000 0.000000
# 4 0.000000 0.000000 0.000000 0.242892 0.000000 0.000000
# 5 0.000000 0.000000 0.000000 0.000000 0.084657 0.000000
# 6 0.000000 0.000000 0.000000 0.000000 0.000000 0.220709
#
#
# Mechanical properties :
#
#
# Convention : Reuss Voigt Hill
#
# Bulk Modulus (GPa) = 34.88338 38.88734 36.88536
# Shear Modulus (GPa) = 7.97028 15.35081 11.66055
#
# Velocity S-wave (km/s) = 2.17544 3.01909 2.63130
# Velocity P-wave (km/s) = 5.19836 5.93663 5.57972
#
# Compressibility (1/GPa) = 0.02866694
#
# Stress axis : x y z
#
# Youngs Moduli (GPa) = 98.49709 49.37899 53.51136
#
# Poissons Ratio (x) = 0.19190 0.12405
# Poissons Ratio (y) = 0.38278 0.21447
# Poissons Ratio (z) = 0.22833 0.19791
#
# Static dielectric constant tensor:
#      x y z
#    x 1.581420 0.000000 0.000000 
#    y 0.000000 1.570320 0.000000 
#    z 0.000000 0.000000 1.602250 
# 
# From -- ./inp_files/25641.got.cif
#   From: 2010.05.17/outbox.cif.g08.bks.cpg/sg47_13_cif.got.tgz:25641.got - 2010.06.03 20:15:42.
