data_PCOD9384980
_publ_section_title
;
Structure prediction by ZEFSAII (Michael W. Deem and Ramdas Pophale) SiO2 
 PCOD9384980
Probable space group: P M M M
;
_chemical_formula_sum "Si O2"
_cell_formula_units_Z 52
_cell_length_a 7.325056
_cell_length_b 35.165803
_cell_length_c 9.304427
_cell_angle_alpha 90.000000
_cell_angle_beta 90.000000
_cell_angle_gamma 90.000000
_cell_volume 2396.741087
_symmetry_space_group_name_H-M "P M M M"
_symmetry_group_IT_number 47
_symmetry_cell_setting 'orthorhombic'
loop_
_space_group_symop_operation_xyz
x,y,z
-x,-y,z
x,-y,-z
-x,y,-z
-x,-y,-z
x,y,-z
-x,y,z
x,-y,z
loop_
_atom_site_type_symbol
_atom_site_label
_atom_site_fract_x
_atom_site_fract_y
_atom_site_fract_z
Si Si1 0.777017 0.924329 0.165745
Si Si2 0.782307 0.149860 0.662953
Si Si3 0.719814 0.459106 0.172032
Si Si4 0.723069 0.301045 0.334692
Si Si5 0.722673 0.376165 0.167433
Si Si6 0.777458 0.000000 0.665709
Si Si7 0.718067 0.226934 0.162742
O O1 0.714819 0.886390 0.247512
O O2 0.000000 0.924162 0.165149
O O3 0.720410 0.962078 0.250705
O O4 0.719273 0.924818 0.000000
O O5 0.711181 0.151344 0.500000
O O6 0.751313 0.188928 0.747046
O O7 0.000000 0.145026 0.653116
O O8 0.500000 0.459476 0.189550
O O9 0.787308 0.500000 0.228508
O O10 0.783291 0.417741 0.223510
O O11 0.754053 0.458904 0.000000
O O12 0.779847 0.298702 0.500000
O O13 0.500000 0.300970 0.333464
O O14 0.781362 0.340221 0.259965
O O15 0.785038 0.264363 0.245215
O O16 0.500000 0.376531 0.168480
O O17 0.775914 0.371918 0.000000
O O18 0.719060 0.000000 0.500000
O O19 0.000000 0.000000 0.665063
O O20 0.500000 0.231166 0.153266
O O21 0.788433 0.223851 0.000000
#
# Coordination Sequence:
#
# PCOD9384980 Si02
#       7
#     8   8   8   8   8   4   8
#     4   9  16  26  41  62  89 120 152 185 221 261
#     4  10  20  33  49  70  96 124 152 183 223 270
#     4   7   9  13  22  37  56  79 111 152 195 238
#     4   9  16  25  37  53  74 100 131 170 215 259
#     4   8  12  18  29  44  62  86 119 160 203 246
#     4   9  15  23  37  59  88 119 150 185 224 263
#     4  10  20  33  49  68  89 115 150 190 228 266
#
# _framework density 21.696126
#
# number of rings (size 3 to 8) (size 9 to 14) (size 15 to 20)
#    0.000    3.154    0.000    3.462    0.000    6.462 
#    0.000    0.000    0.000    0.462    0.000    3.769 
#    0.000    4.308    0.000    0.000    0.000    0.769 
#
# Total GULP energy -290277.178995 kJ/mol
# GULP energy per Si atom -5582.253442 kJ/mol
# Density = 2.164674 g / cm^3
# Si number density = 21.696126 Si / 1000 Ang^3
#
#
#
# Elastic Constant Matrix: (Units=GPa)
#
#
# Indices 1 2 3 4 5 6 
#
# 1 84.4402 4.5235 7.3029 0.0000 0.0000 0.0000
# 2 4.5235 278.8309 145.1888 0.0000 0.0000 0.0000
# 3 7.3029 145.1888 195.8260 0.0000 0.0000 0.0000
# 4 0.0000 0.0000 0.0000 28.3975 0.0000 0.0000
# 5 0.0000 0.0000 0.0000 0.0000 -11.2445 0.0000
# 6 0.0000 0.0000 0.0000 0.0000 0.0000 4.2508
#
#
#
# Elastic Compliance Matrix: (Units=1/GPa)
#
#
# Indices 1 2 3 4 5 6 
#
# 1 0.011882 0.000062 -0.000489 0.000000 0.000000 0.000000
# 2 0.000062 0.005842 -0.004334 0.000000 0.000000 0.000000
# 3 -0.000489 -0.004334 0.008338 0.000000 0.000000 0.000000
# 4 0.000000 0.000000 0.000000 0.035214 0.000000 0.000000
# 5 0.000000 0.000000 0.000000 0.000000 -0.088933 0.000000
# 6 0.000000 0.000000 0.000000 0.000000 0.000000 0.235248
#
#
# Mechanical properties :
#
#
# Convention : Reuss Voigt Hill
#
# Bulk Modulus (GPa) = 60.45957 97.01418 78.73688
# Shear Modulus (GPa) = 22.45917 31.08622 26.77269
#
# Velocity S-wave (km/s) = 3.22090 3.78934 3.51662
# Velocity P-wave (km/s) = 6.46214 7.99735 7.27038
#
# Compressibility (1/GPa) = 0.01653998
#
# Stress axis : x y z
#
# Youngs Moduli (GPa) = 84.16323 171.17596 119.93523
#
# Poissons Ratio (x) = -0.01059 0.05864
# Poissons Ratio (y) = -0.00520 0.51975
# Poissons Ratio (z) = 0.04115 0.74181
#
# Static dielectric constant tensor:
#      x y z
#    x 2.024240 0.000000 0.000000 
#    y 0.000000 1.766840 0.000000 
#    z 0.000000 0.000000 1.719180 
# 
# From -- ./inp_files/4820.got.cif
#   From: 2010.05.17/outbox.cif.g08.bks.cpg/sg47_3_cif.got.tgz:4820.got - 2010.06.03 20:15:42.
