data_PCOD9384760
_publ_section_title
;
Structure prediction by ZEFSAII (Michael W. Deem and Ramdas Pophale) SiO2 
 PCOD9384760
Probable space group: P M M M
;
_chemical_formula_sum "Si O2"
_cell_formula_units_Z 64
_cell_length_a 15.133910
_cell_length_b 7.448979
_cell_length_c 24.387340
_cell_angle_alpha 90.000000
_cell_angle_beta 90.000000
_cell_angle_gamma 90.000000
_cell_volume 2749.237948
_symmetry_space_group_name_H-M "P M M M"
_symmetry_group_IT_number 47
_symmetry_cell_setting 'orthorhombic'
loop_
_space_group_symop_operation_xyz
x,y,z
-x,-y,z
x,-y,-z
-x,y,-z
-x,-y,-z
x,y,-z
-x,y,z
x,-y,z
loop_
_atom_site_type_symbol
_atom_site_label
_atom_site_fract_x
_atom_site_fract_y
_atom_site_fract_z
Si Si1 0.900864 0.792394 0.162826
Si Si2 0.755801 0.202006 0.756567
Si Si3 0.355145 0.209764 0.560497
Si Si4 0.209348 0.289589 0.062300
Si Si5 0.146914 0.717095 0.441538
Si Si6 0.595382 0.784192 0.935958
Si Si7 0.094681 0.282360 0.323794
Si Si8 0.599806 0.781167 0.682704
O O1 0.819847 0.710071 0.197962
O O2 0.865133 0.790454 0.100999
O O3 0.000000 0.715836 0.167513
O O4 0.906033 0.000000 0.180963
O O5 0.823421 0.195933 0.705857
O O6 0.669038 0.284221 0.728506
O O7 0.732162 0.000000 0.776044
O O8 0.382571 0.283637 0.500000
O O9 0.248954 0.224958 0.561891
O O10 0.385616 0.282840 0.619677
O O11 0.380955 0.000000 0.559937
O O12 0.191650 0.500000 0.059437
O O13 0.308887 0.268512 0.086451
O O14 0.209895 0.216728 0.000000
O O15 0.111034 0.778550 0.500000
O O16 0.145864 0.500000 0.441636
O O17 0.097966 0.772359 0.387014
O O18 0.500000 0.723574 0.912557
O O19 0.594205 0.000000 0.935183
O O20 0.596190 0.726015 0.000000
O O21 0.103109 0.500000 0.320623
O O22 0.000000 0.233459 0.299052
O O23 0.500000 0.740370 0.698560
O O24 0.610622 0.000000 0.680841
#
# Coordination Sequence:
#
# PCOD9384760 Si02
#       8
#     8   8   8   8   8   8   8   8
#     4  10  22  39  58  80 106 140 182 225 272 330
#     4  10  20  37  58  78 103 135 173 221 268 314
#     4   9  16  27  46  72 101 134 173 216 263 316
#     4  10  21  36  56  85 119 151 182 223 276 328
#     4   9  17  29  45  66  96 133 170 210 258 313
#     4   8  14  27  50  80 114 153 193 226 256 298
#     4  10  20  32  49  74 100 130 171 217 266 318
#     4   9  17  30  51  79 107 136 172 216 268 320
#
# _framework density 23.279177000000001
#
# number of rings (size 3 to 8) (size 9 to 14) (size 15 to 20)
#    0.000    2.625    1.250    1.125    0.000    3.250 
#    0.000    5.625    0.000    3.750    0.000    4.375 
#    0.000    0.000    0.000    0.000    0.000    0.000 
#
# Total GULP energy -356884.746208 kJ/mol
# GULP energy per Si atom -5576.324159 kJ/mol
# Density = 2.322619 g / cm^3
# Si number density = 23.279177 Si / 1000 Ang^3
#
#
#
# Elastic Constant Matrix: (Units=GPa)
#
#
# Indices 1 2 3 4 5 6 
#
# 1 160.2656 0.5617 65.1546 0.0000 0.0000 0.0000
# 2 0.5617 73.7959 2.6315 0.0000 0.0000 0.0000
# 3 65.1546 2.6315 94.5950 0.0000 0.0000 0.0000
# 4 0.0000 0.0000 0.0000 19.5279 0.0000 0.0000
# 5 0.0000 0.0000 0.0000 0.0000 -33.7265 0.0000
# 6 0.0000 0.0000 0.0000 0.0000 0.0000 -251.0890
#
#
#
# Elastic Compliance Matrix: (Units=1/GPa)
#
#
# Indices 1 2 3 4 5 6 
#
# 1 0.008668 0.000147 -0.005974 0.000000 0.000000 0.000000
# 2 0.000147 0.013567 -0.000479 0.000000 0.000000 0.000000
# 3 -0.005974 -0.000479 0.014700 0.000000 0.000000 0.000000
# 4 0.000000 0.000000 0.000000 0.051209 0.000000 0.000000
# 5 0.000000 0.000000 0.000000 0.000000 -0.029650 0.000000
# 6 0.000000 0.000000 0.000000 0.000000 0.000000 -0.003983
#
#
# Mechanical properties :
#
#
# Convention : Reuss Voigt Hill
#
# Bulk Modulus (GPa) = 41.11423 51.70579 46.41001
# Shear Modulus (GPa) = 66.46311 -35.70359 15.37976
#
# Velocity S-wave (km/s) = 5.34906 -3.92051 2.57313
# Velocity P-wave (km/s) = 7.47326 1.32872 5.36727
#
# Compressibility (1/GPa) = 0.02432248
#
# Stress axis : x y z
#
# Youngs Moduli (GPa) = 115.36762 73.70911 68.02877
#
# Poissons Ratio (x) = -0.01084 0.40643
# Poissons Ratio (y) = -0.01697 0.03257
# Poissons Ratio (z) = 0.68925 0.03529
#
# Static dielectric constant tensor:
#      x y z
#    x 1.856420 0.000000 0.000000 
#    y 0.000000 1.899030 0.000000 
#    z 0.000000 0.000000 1.913060 
# 
# From -- ./inp_files/32754.got.cif
#   From: 2010.05.17/outbox.cif.g08.bks.cpg/sg47_17_cif.got.tgz:32754.got - 2010.06.03 20:15:42.
