data_PCOD9384093
_publ_section_title
;
Structure prediction by ZEFSAII (Michael W. Deem and Ramdas Pophale) SiO2 
 PCOD9384093
Probable space group: P M M M
;
_chemical_formula_sum "Si O2"
_cell_formula_units_Z 64
_cell_length_a 18.534814
_cell_length_b 20.378016
_cell_length_c 8.604316
_cell_angle_alpha 90.000000
_cell_angle_beta 90.000000
_cell_angle_gamma 90.000000
_cell_volume 3249.873697
_symmetry_space_group_name_H-M "P M M M"
_symmetry_group_IT_number 47
_symmetry_cell_setting 'orthorhombic'
loop_
_space_group_symop_operation_xyz
x,y,z
-x,-y,z
x,-y,-z
-x,y,-z
-x,-y,-z
x,y,-z
-x,y,z
x,-y,z
loop_
_atom_site_type_symbol
_atom_site_label
_atom_site_fract_x
_atom_site_fract_y
_atom_site_fract_z
Si Si1 0.578736 0.212650 0.314885
Si Si2 0.618740 0.924117 0.182837
Si Si3 0.770435 0.077741 0.323582
Si Si4 0.123263 0.750423 0.182291
Si Si5 0.080340 0.599885 0.183113
Si Si6 0.764263 0.571854 0.314843
Si Si7 0.923482 0.879640 0.683888
Si Si8 0.716943 0.289646 0.185742
O O1 0.583505 0.217320 0.500000
O O2 0.500000 0.238869 0.264069
O O3 0.580767 0.135835 0.268328
O O4 0.646667 0.251862 0.245868
O O5 0.702794 0.907985 0.215459
O O6 0.604735 0.000000 0.235004
O O7 0.603006 0.921617 0.000000
O O8 0.761457 0.106158 0.500000
O O9 0.847589 0.095394 0.252765
O O10 0.770458 0.000000 0.341369
O O11 0.088800 0.678614 0.193140
O O12 0.081805 0.802389 0.285860
O O13 0.207278 0.745094 0.232610
O O14 0.120248 0.769939 0.000000
O O15 0.150881 0.574191 0.269913
O O16 0.000000 0.580711 0.237152
O O17 0.086097 0.582610 0.000000
O O18 0.757902 0.576883 0.500000
O O19 0.736414 0.500000 0.264674
O O20 0.725397 0.635063 0.241565
O O21 0.922099 0.894722 0.500000
O O22 0.000000 0.904663 0.746685
O O23 0.716217 0.289462 0.000000
#
# Coordination Sequence:
#
# PCOD9384093 Si02
#       8
#     8   8   8   8   8   8   8   8
#     4  11  24  40  60  88 120 150 179 216 266 325
#     4  10  21  37  58  84 114 148 186 227 268 316
#     4   9  18  33  51  68  91 129 174 219 269 324
#     4   9  18  32  49  70  96 129 171 215 262 317
#     4   9  18  32  49  71 103 144 188 233 281 332
#     4  10  21  36  55  81 113 149 189 234 285 339
#     4  10  20  30  42  65  94 125 167 220 274 323
#     4  10  21  38  61  85 110 144 185 229 274 325
#
# _framework density 19.693072999999998
#
# number of rings (size 3 to 8) (size 9 to 14) (size 15 to 20)
#    0.000    2.250    0.000    3.375    0.000    9.500 
#    0.000    3.750    0.000    0.375    0.000    5.250 
#    0.000    0.000    0.000    0.000    0.000    0.000 
#
# Total GULP energy -357002.345630 kJ/mol
# GULP energy per Si atom -5578.161650 kJ/mol
# Density = 1.964825 g / cm^3
# Si number density = 19.693073 Si / 1000 Ang^3
#
#
#
# Elastic Constant Matrix: (Units=GPa)
#
#
# Indices 1 2 3 4 5 6 
#
# 1 125.1457 47.4819 19.1829 0.0000 0.0000 0.0000
# 2 47.4819 47.3183 12.0642 0.0000 0.0000 0.0000
# 3 19.1829 12.0642 22.4031 0.0000 0.0000 0.0000
# 4 0.0000 0.0000 0.0000 44.4325 0.0000 0.0000
# 5 0.0000 0.0000 0.0000 0.0000 -318.6291 0.0000
# 6 0.0000 0.0000 0.0000 0.0000 0.0000 -9.7495
#
#
#
# Elastic Compliance Matrix: (Units=1/GPa)
#
#
# Indices 1 2 3 4 5 6 
#
# 1 0.013350 -0.012150 -0.004888 0.000000 0.000000 0.000000
# 2 -0.012150 0.035554 -0.008743 0.000000 0.000000 0.000000
# 3 -0.004888 -0.008743 0.053530 0.000000 0.000000 0.000000
# 4 0.000000 0.000000 0.000000 0.022506 0.000000 0.000000
# 5 0.000000 0.000000 0.000000 0.000000 -0.003138 0.000000
# 6 0.000000 0.000000 0.000000 0.000000 0.000000 -0.102569
#
#
# Mechanical properties :
#
#
# Convention : Reuss Voigt Hill
#
# Bulk Modulus (GPa) = 19.65686 39.14723 29.40205
# Shear Modulus (GPa) = 56.97908 -49.04670 3.96619
#
# Velocity S-wave (km/s) = 5.38483 -4.99596 1.42070
# Velocity P-wave (km/s) = 6.97604 3.65481 4.20163
#
# Compressibility (1/GPa) = 0.05087282
#
# Stress axis : x y z
#
# Youngs Moduli (GPa) = 74.90825 28.12618 18.68102
#
# Poissons Ratio (x) = 0.34172 0.09132
# Poissons Ratio (y) = 0.91010 0.16333
# Poissons Ratio (z) = 0.36617 0.24590
#
# Static dielectric constant tensor:
#      x y z
#    x 1.743410 0.000000 0.000000 
#    y 0.000000 1.715370 0.000000 
#    z 0.000000 0.000000 1.684060 
# 
# From -- ./inp_files/10024.got.cif
#   From: 2010.05.17/outbox.cif.g08.bks.cpg/sg47_6_cif.got.tgz:10024.got - 2010.06.03 20:15:42.
