data_PCOD9384336
_publ_section_title
;
Structure prediction by ZEFSAII (Michael W. Deem and Ramdas Pophale) SiO2 
 PCOD9384336
Probable space group: P M M M
;
_chemical_formula_sum "Si O2"
_cell_formula_units_Z 64
_cell_length_a 14.833492
_cell_length_b 26.321923
_cell_length_c 7.400969
_cell_angle_alpha 90.000000
_cell_angle_beta 90.000000
_cell_angle_gamma 90.000000
_cell_volume 2889.678996
_symmetry_space_group_name_H-M "P M M M"
_symmetry_group_IT_number 47
_symmetry_cell_setting 'orthorhombic'
loop_
_space_group_symop_operation_xyz
x,y,z
-x,-y,z
x,-y,-z
-x,y,-z
-x,-y,-z
x,y,-z
-x,y,z
x,-y,z
loop_
_atom_site_type_symbol
_atom_site_label
_atom_site_fract_x
_atom_site_fract_y
_atom_site_fract_z
Si Si1 0.099121 0.798128 0.281889
Si Si2 0.752737 0.362962 0.207095
Si Si3 0.284339 0.746596 0.205678
Si Si4 0.901069 0.082631 0.717799
Si Si5 0.395765 0.556657 0.718361
Si Si6 0.394915 0.157122 0.220861
Si Si7 0.895375 0.556909 0.220255
Si Si8 0.299727 0.054646 0.210243
O O1 0.104278 0.795228 0.500000
O O2 0.183534 0.768920 0.204278
O O3 0.104373 0.857679 0.234027
O O4 0.000000 0.779170 0.227102
O O5 0.724597 0.309154 0.290652
O O6 0.667638 0.400107 0.207302
O O7 0.832853 0.397370 0.286801
O O8 0.780112 0.351341 0.000000
O O9 0.346519 0.791217 0.285251
O O10 0.317834 0.739176 0.000000
O O11 0.900549 0.078775 0.500000
O O12 0.808795 0.058119 0.782075
O O13 0.000000 0.063819 0.778498
O O14 0.391295 0.558357 0.500000
O O15 0.500000 0.563336 0.769463
O O16 0.367026 0.500000 0.775330
O O17 0.500000 0.155431 0.268553
O O18 0.342808 0.106435 0.285094
O O19 0.388507 0.157623 0.000000
O O20 0.866666 0.500000 0.278433
O O21 0.000000 0.563532 0.269167
O O22 0.890571 0.556850 0.000000
O O23 0.327212 0.000000 0.289592
O O24 0.326266 0.053799 0.000000
#
# Coordination Sequence:
#
# PCOD9384336 Si02
#       8
#     8   8   8   8   8   8   8   8
#     4   9  18  33  53  75 100 134 174 211 247 294
#     4  10  20  31  49  79 107 131 168 214 257 306
#     4  10  20  33  51  77 105 135 169 208 259 311
#     4   9  18  33  53  76 103 137 171 202 246 304
#     4   9  19  36  55  74 100 136 174 211 257 312
#     4   9  18  34  53  71  97 132 168 209 258 311
#     4   8  14  26  44  66  96 133 167 201 243 288
#     4  10  20  33  52  78 103 129 168 216 260 305
#
# _framework density 22.147791000000002
#
# number of rings (size 3 to 8) (size 9 to 14) (size 15 to 20)
#    0.000    2.750    1.250    1.875    0.000    3.750 
#    0.000    6.875    0.000    1.875    0.000    2.625 
#    0.000    0.000    0.000    0.000    0.000    0.000 
#
# Total GULP energy -357228.702296 kJ/mol
# GULP energy per Si atom -5581.698473 kJ/mol
# Density = 2.209738 g / cm^3
# Si number density = 22.147791 Si / 1000 Ang^3
#
#
#
# Elastic Constant Matrix: (Units=GPa)
#
#
# Indices 1 2 3 4 5 6 
#
# 1 123.5356 95.9219 -3.5349 0.0000 0.0000 0.0000
# 2 95.9219 206.5985 9.7626 0.0000 0.0000 0.0000
# 3 -3.5349 9.7626 72.8890 0.0000 0.0000 0.0000
# 4 0.0000 0.0000 0.0000 -4.9632 0.0000 0.0000
# 5 0.0000 0.0000 0.0000 0.0000 27.7096 0.0000
# 6 0.0000 0.0000 0.0000 0.0000 0.0000 -47.4937
#
#
#
# Elastic Compliance Matrix: (Units=1/GPa)
#
#
# Indices 1 2 3 4 5 6 
#
# 1 0.012804 -0.006012 0.001426 0.000000 0.000000 0.000000
# 2 -0.006012 0.007694 -0.001322 0.000000 0.000000 0.000000
# 3 0.001426 -0.001322 0.013966 0.000000 0.000000 0.000000
# 4 0.000000 0.000000 0.000000 -0.201482 0.000000 0.000000
# 5 0.000000 0.000000 0.000000 0.000000 0.036089 0.000000
# 6 0.000000 0.000000 0.000000 0.000000 0.000000 -0.021055
#
#
# Mechanical properties :
#
#
# Convention : Reuss Voigt Hill
#
# Bulk Modulus (GPa) = 44.15457 67.48027 55.81742
# Shear Modulus (GPa) = -37.70178 15.10877 -11.29651
#
# Velocity S-wave (km/s) = -4.13035 2.61469 -2.26088
# Velocity P-wave (km/s) = 1.66336 6.29681 4.29436
#
# Compressibility (1/GPa) = 0.02264771
#
# Stress axis : x y z
#
# Youngs Moduli (GPa) = 78.10123 129.96861 71.60380
#
# Poissons Ratio (x) = 0.78139 -0.10212
# Poissons Ratio (y) = 0.46956 0.09467
# Poissons Ratio (z) = -0.11139 0.17183
#
# Static dielectric constant tensor:
#      x y z
#    x 1.769440 0.000000 0.000000 
#    y 0.000000 1.815610 0.000000 
#    z 0.000000 0.000000 1.872030 
# 
# From -- ./inp_files/16802.got.cif
#   From: 2010.05.17/outbox.cif.g08.bks.cpg/sg47_9_cif.got.tgz:16802.got - 2010.06.03 20:15:42.
