data_PCOD9384630
_publ_section_title
;
Structure prediction by ZEFSAII (Michael W. Deem and Ramdas Pophale) SiO2 
 PCOD9384630
Probable space group: P M M M
;
_chemical_formula_sum "Si O2"
_cell_formula_units_Z 52
_cell_length_a 7.530159
_cell_length_b 15.005344
_cell_length_c 21.345698
_cell_angle_alpha 90.000000
_cell_angle_beta 90.000000
_cell_angle_gamma 90.000000
_cell_volume 2411.906474
_symmetry_space_group_name_H-M "P M M M"
_symmetry_group_IT_number 47
_symmetry_cell_setting 'orthorhombic'
loop_
_space_group_symop_operation_xyz
x,y,z
-x,-y,z
x,-y,-z
-x,y,-z
-x,-y,-z
x,y,-z
-x,y,z
x,-y,z
loop_
_atom_site_type_symbol
_atom_site_label
_atom_site_fract_x
_atom_site_fract_y
_atom_site_fract_z
Si Si1 0.782873 0.707578 0.432012
Si Si2 0.712615 0.097844 0.253370
Si Si3 0.703322 0.000000 0.923596
Si Si4 0.217674 0.603153 0.307771
Si Si5 0.200636 0.716712 0.192370
Si Si6 0.788408 0.096375 0.401634
Si Si7 0.289588 0.193831 0.930115
O O1 0.731876 0.670034 0.500000
O O2 0.723904 0.654082 0.370742
O O3 0.721592 0.810335 0.428054
O O4 0.000000 0.708498 0.429907
O O5 0.500000 0.103639 0.245981
O O6 0.793102 0.184464 0.222031
O O7 0.757970 0.100394 0.326954
O O8 0.769611 0.000000 0.229531
O O9 0.783933 0.096756 0.908592
O O10 0.500000 0.000000 0.898758
O O11 0.696385 0.000000 0.000000
O O12 0.267768 0.500000 0.308897
O O13 0.283236 0.652731 0.244958
O O14 0.000000 0.607754 0.307658
O O15 0.269318 0.731400 0.122368
O O16 0.000000 0.685960 0.185069
O O17 0.000000 0.095226 0.413487
O O18 0.717507 0.000000 0.423147
O O19 0.500000 0.178738 0.935563
O O20 0.222092 0.215103 0.000000
#
# Coordination Sequence:
#
# PCOD9384630 Si02
#       7
#     8   8   4   8   8   8   8
#     4   9  16  27  46  74 105 135 169 209 257 311
#     4  10  20  32  48  71 100 137 178 213 250 303
#     4   7  12  26  47  69  97 135 172 199 228 276
#     4   9  18  33  51  73 102 133 168 216 272 319
#     4  11  21  33  52  77 105 135 170 216 265 308
#     4   9  16  28  46  70 103 136 168 210 257 303
#     4   9  18  33  52  75 106 142 177 209 244 295
#
# _framework density 21.559709000000002
#
# number of rings (size 3 to 8) (size 9 to 14) (size 15 to 20)
#    0.000    2.692    1.538    1.846    1.077    1.846 
#    0.000    3.077    0.000    4.154    0.000    5.385 
#    0.000    1.231    0.000    0.000    0.000    0.000 
#
# Total GULP energy -290084.411801 kJ/mol
# GULP energy per Si atom -5578.546381 kJ/mol
# Density = 2.151064 g / cm^3
# Si number density = 21.559709 Si / 1000 Ang^3
#
#
#
# Elastic Constant Matrix: (Units=GPa)
#
#
# Indices 1 2 3 4 5 6 
#
# 1 53.1156 4.2454 3.1859 0.0000 0.0000 0.0000
# 2 4.2454 129.8904 86.3639 0.0000 0.0000 0.0000
# 3 3.1859 86.3639 169.0407 0.0000 0.0000 0.0000
# 4 0.0000 0.0000 0.0000 4.1643 0.0000 0.0000
# 5 0.0000 0.0000 0.0000 0.0000 13.7827 0.0000
# 6 0.0000 0.0000 0.0000 0.0000 0.0000 37.6384
#
#
#
# Elastic Compliance Matrix: (Units=1/GPa)
#
#
# Indices 1 2 3 4 5 6 
#
# 1 0.018877 -0.000576 -0.000061 0.000000 0.000000 0.000000
# 2 -0.000576 0.011677 -0.005955 0.000000 0.000000 0.000000
# 3 -0.000061 -0.005955 0.008959 0.000000 0.000000 0.000000
# 4 0.000000 0.000000 0.000000 0.240134 0.000000 0.000000
# 5 0.000000 0.000000 0.000000 0.000000 0.072555 0.000000
# 6 0.000000 0.000000 0.000000 0.000000 0.000000 0.026569
#
#
# Mechanical properties :
#
#
# Convention : Reuss Voigt Hill
#
# Bulk Modulus (GPa) = 37.98256 59.95967 48.97111
# Shear Modulus (GPa) = 12.47717 28.33385 20.40551
#
# Velocity S-wave (km/s) = 2.40828 3.62913 3.07980
# Velocity P-wave (km/s) = 5.03872 6.74033 5.95067
#
# Compressibility (1/GPa) = 0.02632787
#
# Stress axis : x y z
#
# Youngs Moduli (GPa) = 52.97568 85.63743 111.61501
#
# Poissons Ratio (x) = 0.04934 0.00685
# Poissons Ratio (y) = 0.03052 0.66467
# Poissons Ratio (z) = 0.00325 0.50998
#
# Static dielectric constant tensor:
#      x y z
#    x 1.825630 0.000000 0.000000 
#    y 0.000000 1.767340 0.000000 
#    z 0.000000 0.000000 1.817990 
# 
# From -- ./inp_files/29548.got.cif
#   From: 2010.05.17/outbox.cif.g08.bks.cpg/sg47_15_cif.got.tgz:29548.got - 2010.06.03 20:15:42.
