data_PCOD9384550
_publ_section_title
;
Structure prediction by ZEFSAII (Michael W. Deem and Ramdas Pophale) SiO2 
 PCOD9384550
Probable space group: P M M M
;
_chemical_formula_sum "Si O2"
_cell_formula_units_Z 44
_cell_length_a 30.684333
_cell_length_b 7.481212
_cell_length_c 8.453578
_cell_angle_alpha 90.000000
_cell_angle_beta 90.000000
_cell_angle_gamma 90.000000
_cell_volume 1940.569553
_symmetry_space_group_name_H-M "P M M M"
_symmetry_group_IT_number 47
_symmetry_cell_setting 'orthorhombic'
loop_
_space_group_symop_operation_xyz
x,y,z
-x,-y,z
x,-y,-z
-x,y,-z
-x,-y,-z
x,y,-z
-x,y,z
x,-y,z
loop_
_atom_site_type_symbol
_atom_site_label
_atom_site_fract_x
_atom_site_fract_y
_atom_site_fract_z
Si Si1 0.676465 0.210162 0.825146
Si Si2 0.858805 0.281913 0.814774
Si Si3 0.232622 0.284403 0.322910
Si Si4 0.046874 0.284681 0.190366
Si Si5 0.408611 0.293829 0.327479
Si Si6 0.551110 0.716929 0.000000
O O1 0.727104 0.234702 0.786850
O O2 0.643495 0.291873 0.699133
O O3 0.667622 0.000000 0.825242
O O4 0.666998 0.283826 0.000000
O O5 0.859277 0.500000 0.807077
O O6 0.814919 0.220100 0.730958
O O7 0.905997 0.220663 0.750398
O O8 0.856069 0.234771 0.000000
O O9 0.242084 0.222143 0.500000
O O10 0.230634 0.500000 0.323276
O O11 0.046418 0.500000 0.211949
O O12 0.000000 0.216930 0.250783
O O13 0.047311 0.254555 0.000000
O O14 0.419063 0.214394 0.500000
O O15 0.423356 0.500000 0.332474
O O16 0.428133 0.215966 0.164823
O O17 0.557004 0.500000 0.000000
O O18 0.500000 0.755107 0.000000
#
# Coordination Sequence:
#
# PCOD9384550 Si02
#       6
#     8   8   8   8   8   4
#     4  11  23  37  54  76 102 134 173 217 265 314
#     4   8  13  22  37  57  82 115 154 195 240 289
#     4  10  20  32  47  69  97 130 167 206 251 305
#     4   7   9  14  27  49  76 106 143 187 233 282
#     4  10  20  35  58  86 114 147 184 219 261 312
#     4   9  18  34  57  87 121 151 181 223 266 301
#
# _framework density 22.673756999999998
#
# number of rings (size 3 to 8) (size 9 to 14) (size 15 to 20)
#    0.000    2.818    0.909    3.273    0.000    5.091 
#    0.000    1.818    0.000    1.636    0.000    5.091 
#    0.000    0.727    0.000    8.364    0.000    9.636 
#
# Total GULP energy -245434.870574 kJ/mol
# GULP energy per Si atom -5578.065240 kJ/mol
# Density = 2.262215 g / cm^3
# Si number density = 22.673757 Si / 1000 Ang^3
#
#
#
# Elastic Constant Matrix: (Units=GPa)
#
#
# Indices 1 2 3 4 5 6 
#
# 1 129.2991 0.0477 52.9426 0.0000 0.0000 0.0000
# 2 0.0477 66.2987 8.7916 0.0000 0.0000 0.0000
# 3 52.9426 8.7916 128.6815 0.0000 0.0000 0.0000
# 4 0.0000 0.0000 0.0000 -14.3506 0.0000 0.0000
# 5 0.0000 0.0000 0.0000 0.0000 -1.2911 0.0000
# 6 0.0000 0.0000 0.0000 0.0000 0.0000 -66.1454
#
#
#
# Elastic Compliance Matrix: (Units=1/GPa)
#
#
# Indices 1 2 3 4 5 6 
#
# 1 0.009318 0.000506 -0.003868 0.000000 0.000000 0.000000
# 2 0.000506 0.015249 -0.001250 0.000000 0.000000 0.000000
# 3 -0.003868 -0.001250 0.009448 0.000000 0.000000 0.000000
# 4 0.000000 0.000000 0.000000 -0.069684 0.000000 0.000000
# 5 0.000000 0.000000 0.000000 0.000000 -0.774505 0.000000
# 6 0.000000 0.000000 0.000000 0.000000 0.000000 -0.015118
#
#
# Mechanical properties :
#
#
# Convention : Reuss Voigt Hill
#
# Bulk Modulus (GPa) = 40.33821 49.76033 45.04927
# Shear Modulus (GPa) = -6.18961 1.14240 -2.52361
#
# Velocity S-wave (km/s) = -1.65402 0.71059 -1.05614
# Velocity P-wave (km/s) = 3.76585 4.76100 4.29236
#
# Compressibility (1/GPa) = 0.02479039
#
# Stress axis : x y z
#
# Youngs Moduli (GPa) = 107.32333 65.57959 105.84307
#
# Poissons Ratio (x) = -0.03320 0.40941
# Poissons Ratio (y) = -0.05433 0.13231
# Poissons Ratio (z) = 0.41514 0.08198
#
# Static dielectric constant tensor:
#      x y z
#    x 1.846090 0.000000 0.000000 
#    y 0.000000 1.870160 0.000000 
#    z 0.000000 0.000000 1.832270 
# 
# From -- ./inp_files/13668.got.cif
#   From: 2010.05.17/outbox.cif.g08.bks.cpg/sg47_7_cif.got.tgz:13668.got - 2010.06.03 20:15:42.
