data_PCOD9384771
_publ_section_title
;
Structure prediction by ZEFSAII (Michael W. Deem and Ramdas Pophale) SiO2 
 PCOD9384771
Probable space group: P M M M
;
_chemical_formula_sum "Si O2"
_cell_formula_units_Z 64
_cell_length_a 14.940043
_cell_length_b 29.797362
_cell_length_c 8.334891
_cell_angle_alpha 90.000000
_cell_angle_beta 90.000000
_cell_angle_gamma 90.000000
_cell_volume 3710.475679
_symmetry_space_group_name_H-M "P M M M"
_symmetry_group_IT_number 47
_symmetry_cell_setting 'orthorhombic'
loop_
_space_group_symop_operation_xyz
x,y,z
-x,-y,z
x,-y,-z
-x,y,-z
-x,-y,-z
x,y,-z
-x,y,z
x,-y,z
loop_
_atom_site_type_symbol
_atom_site_label
_atom_site_fract_x
_atom_site_fract_y
_atom_site_fract_z
Si Si1 0.219597 0.048995 0.808563
Si Si2 0.398378 0.086620 0.311011
Si Si3 0.391723 0.548230 0.809671
Si Si4 0.896902 0.766273 0.194026
Si Si5 0.103602 0.868095 0.804834
Si Si6 0.604174 0.185322 0.188379
Si Si7 0.395850 0.353438 0.805381
Si Si8 0.282654 0.269132 0.310314
O O1 0.323585 0.057726 0.775528
O O2 0.165277 0.091772 0.743332
O O3 0.192709 0.000000 0.744889
O O4 0.205027 0.048428 0.000000
O O5 0.395320 0.077296 0.500000
O O6 0.500000 0.079054 0.252919
O O7 0.377896 0.139256 0.281549
O O8 0.500000 0.548541 0.798631
O O9 0.360808 0.500000 0.741373
O O10 0.364427 0.597132 0.746738
O O11 0.370558 0.547711 0.000000
O O12 0.874122 0.817432 0.247504
O O13 0.820985 0.733740 0.259705
O O14 0.000000 0.757024 0.241069
O O15 0.893875 0.765535 0.000000
O O16 0.000000 0.876597 0.764999
O O17 0.110062 0.867347 0.000000
O O18 0.500000 0.197837 0.216444
O O19 0.667158 0.226249 0.234490
O O20 0.615390 0.175318 0.000000
O O21 0.500000 0.346300 0.756523
O O22 0.332886 0.313705 0.747776
O O23 0.395630 0.354149 0.000000
O O24 0.290109 0.265860 0.500000
#
# Coordination Sequence:
#
# PCOD9384771 Si02
#       8
#     8   8   8   8   8   8   8   8
#     4  10  20  32  49  74  99 123 151 181 215 261
#     4  10  21  36  52  69  90 118 153 192 234 276
#     4   7  10  19  38  63  88 117 159 209 251 281
#     4   9  18  34  55  73  89 117 159 201 238 281
#     4   8  15  30  52  75  95 114 140 178 223 269
#     4  10  20  34  52  71  92 121 157 195 233 276
#     4   9  17  29  45  66  95 132 171 207 242 281
#     4  12  23  31  44  68 100 133 160 192 235 282
#
# _framework density 17.248462
#
# number of rings (size 3 to 8) (size 9 to 14) (size 15 to 20)
#    0.000    2.625    0.000    4.875    0.000    5.250 
#    0.000    2.500    0.000    1.500    0.000    2.625 
#    0.000    0.500    0.000    5.750    0.000    1.875 
#
# Total GULP energy -356802.964946 kJ/mol
# GULP energy per Si atom -5575.046327 kJ/mol
# Density = 1.720920 g / cm^3
# Si number density = 17.248462 Si / 1000 Ang^3
#
#
#
# Elastic Constant Matrix: (Units=GPa)
#
#
# Indices 1 2 3 4 5 6 
#
# 1 65.9074 52.8558 5.0123 0.0000 0.0000 0.0000
# 2 52.8558 75.4092 -0.2630 0.0000 0.0000 0.0000
# 3 5.0123 -0.2630 8.7750 0.0000 0.0000 0.0000
# 4 0.0000 0.0000 0.0000 0.7704 0.0000 0.0000
# 5 0.0000 0.0000 0.0000 0.0000 -1.7161 0.0000
# 6 0.0000 0.0000 0.0000 0.0000 0.0000 12.3955
#
#
#
# Elastic Compliance Matrix: (Units=1/GPa)
#
#
# Indices 1 2 3 4 5 6 
#
# 1 0.038787 -0.027266 -0.022972 0.000000 0.000000 0.000000
# 2 -0.027266 0.032430 0.016546 0.000000 0.000000 0.000000
# 3 -0.022972 0.016546 0.127577 0.000000 0.000000 0.000000
# 4 0.000000 0.000000 0.000000 1.298061 0.000000 0.000000
# 5 0.000000 0.000000 0.000000 0.000000 -0.582712 0.000000
# 6 0.000000 0.000000 0.000000 0.000000 0.000000 0.080674
#
#
# Mechanical properties :
#
#
# Convention : Reuss Voigt Hill
#
# Bulk Modulus (GPa) = 7.60977 29.47798 18.54388
# Shear Modulus (GPa) = 4.52078 8.45573 6.48825
#
# Velocity S-wave (km/s) = 1.62070 2.21652 1.94160
# Velocity P-wave (km/s) = 2.81490 4.86600 3.97502
#
# Compressibility (1/GPa) = 0.13140993
#
# Stress axis : x y z
#
# Youngs Moduli (GPa) = 25.78204 30.83541 7.83840
#
# Poissons Ratio (x) = 0.84077 0.18006
# Poissons Ratio (y) = 0.70298 -0.12970
# Poissons Ratio (z) = 0.59227 -0.51022
#
# Static dielectric constant tensor:
#      x y z
#    x 1.579130 0.000000 0.000000 
#    y 0.000000 1.613840 0.000000 
#    z 0.000000 0.000000 1.592250 
# 
# From -- ./inp_files/8346.got.cif
#   From: 2010.05.17/outbox.cif.g08.bks.cpg/sg47_5_cif.got.tgz:8346.got - 2010.06.03 20:15:42.
