data_PCOD9384744
_publ_section_title
;
Structure prediction by ZEFSAII (Michael W. Deem and Ramdas Pophale) SiO2 
 PCOD9384744
Probable space group: P M M M
;
_chemical_formula_sum "Si O2"
_cell_formula_units_Z 44
_cell_length_a 33.513674
_cell_length_b 7.297739
_cell_length_c 8.001889
_cell_angle_alpha 90.000000
_cell_angle_beta 90.000000
_cell_angle_gamma 90.000000
_cell_volume 1957.054367
_symmetry_space_group_name_H-M "P M M M"
_symmetry_group_IT_number 47
_symmetry_cell_setting 'orthorhombic'
loop_
_space_group_symop_operation_xyz
x,y,z
-x,-y,z
x,-y,-z
-x,y,-z
-x,-y,-z
x,y,-z
-x,y,z
x,-y,z
loop_
_atom_site_type_symbol
_atom_site_label
_atom_site_fract_x
_atom_site_fract_y
_atom_site_fract_z
Si Si1 0.128027 0.708617 0.200309
Si Si2 0.731111 0.717986 0.500000
Si Si3 0.784386 0.724318 0.806978
Si Si4 0.413337 0.776380 0.815375
Si Si5 0.500000 0.222770 0.693946
Si Si6 0.362875 0.218208 0.500000
Si Si7 0.042992 0.715819 0.299317
O O1 0.126890 0.500000 0.268827
O O2 0.171136 0.785544 0.248580
O O3 0.085459 0.794225 0.244271
O O4 0.129725 0.699823 0.000000
O O5 0.737286 0.500000 0.500000
O O6 0.752400 0.784587 0.669717
O O7 0.684095 0.750293 0.500000
O O8 0.785400 0.500000 0.809835
O O9 0.776804 0.780125 0.000000
O O10 0.458901 0.719613 0.779413
O O11 0.384820 0.713067 0.666490
O O12 0.413207 0.000000 0.813755
O O13 0.400699 0.718575 0.000000
O O14 0.500000 0.277596 0.500000
O O15 0.500000 0.000000 0.696894
O O16 0.369120 0.000000 0.500000
O O17 0.042517 0.725099 0.500000
O O18 0.043280 0.500000 0.250233
O O19 0.000000 0.789536 0.239623
#
# Coordination Sequence:
#
# PCOD9384744 Si02
#       7
#     8   4   8   8   4   4   8
#     4   8  13  20  30  44  62  86 118 159 204 243
#     4  10  20  32  49  67  82 112 150 182 226 269
#     4   8  15  27  41  59  79  98 132 182 223 256
#     4   9  16  26  42  65  94 126 153 179 217 259
#     4   9  13  21  39  64  95 124 150 184 218 248
#     4  10  20  33  46  66  96 121 147 183 218 261
#     4   8  13  18  23  35  57  85 117 152 189 234
#
# _framework density 22.482766999999999
#
# number of rings (size 3 to 8) (size 9 to 14) (size 15 to 20)
#    0.000    3.364    0.909    1.909    1.273    2.182 
#    0.000    1.818    0.000    0.000    0.000    1.273 
#    0.000    1.455    0.000    0.000    0.000    1.818 
#
# Total GULP energy -245427.913684 kJ/mol
# GULP energy per Si atom -5577.907129 kJ/mol
# Density = 2.243160 g / cm^3
# Si number density = 22.482767 Si / 1000 Ang^3
#
#
#
# Elastic Constant Matrix: (Units=GPa)
#
#
# Indices 1 2 3 4 5 6 
#
# 1 232.4359 4.5299 115.3442 0.0000 0.0000 0.0000
# 2 4.5299 90.8838 8.1766 0.0000 0.0000 0.0000
# 3 115.3442 8.1766 144.7672 0.0000 0.0000 0.0000
# 4 0.0000 0.0000 0.0000 -20.5738 0.0000 0.0000
# 5 0.0000 0.0000 0.0000 0.0000 10.7456 0.0000
# 6 0.0000 0.0000 0.0000 0.0000 0.0000 -7.4003
#
#
#
# Elastic Compliance Matrix: (Units=1/GPa)
#
#
# Indices 1 2 3 4 5 6 
#
# 1 0.007118 0.000156 -0.005680 0.000000 0.000000 0.000000
# 2 0.000156 0.011063 -0.000749 0.000000 0.000000 0.000000
# 3 -0.005680 -0.000749 0.011476 0.000000 0.000000 0.000000
# 4 0.000000 0.000000 0.000000 -0.048606 0.000000 0.000000
# 5 0.000000 0.000000 0.000000 0.000000 0.093061 0.000000
# 6 0.000000 0.000000 0.000000 0.000000 0.000000 -0.135130
#
#
# Mechanical properties :
#
#
# Convention : Reuss Voigt Hill
#
# Bulk Modulus (GPa) = 58.44567 80.46537 69.45552
# Shear Modulus (GPa) = -116.90858 19.22340 -48.84259
#
# Velocity S-wave (km/s) = -7.21887 2.92726 -4.66601
# Velocity P-wave (km/s) = 6.59019 6.87696 1.38961
#
# Compressibility (1/GPa) = 0.01710991
#
# Stress axis : x y z
#
# Youngs Moduli (GPa) = 140.49108 90.39397 87.14154
#
# Poissons Ratio (x) = -0.01412 0.49497
# Poissons Ratio (y) = -0.02195 0.06530
# Poissons Ratio (z) = 0.79800 0.06773
#
# Static dielectric constant tensor:
#      x y z
#    x 1.822020 0.000000 0.000000 
#    y 0.000000 2.051040 0.000000 
#    z 0.000000 0.000000 1.792400 
# 
# From -- ./inp_files/13755.got.cif
#   From: 2010.05.17/outbox.cif.g08.bks.cpg/sg47_7_cif.got.tgz:13755.got - 2010.06.03 20:15:42.
