data_PCOD9384146
_publ_section_title
;
Structure prediction by ZEFSAII (Michael W. Deem and Ramdas Pophale) SiO2 
 PCOD9384146
Probable space group: P M M M
;
_chemical_formula_sum "Si O2"
_cell_formula_units_Z 64
_cell_length_a 24.673659
_cell_length_b 19.817371
_cell_length_c 7.395263
_cell_angle_alpha 90.000000
_cell_angle_beta 90.000000
_cell_angle_gamma 90.000000
_cell_volume 3616.039965
_symmetry_space_group_name_H-M "P M M M"
_symmetry_group_IT_number 47
_symmetry_cell_setting 'orthorhombic'
loop_
_space_group_symop_operation_xyz
x,y,z
-x,-y,z
x,-y,-z
-x,y,-z
-x,-y,-z
x,y,-z
-x,y,z
x,-y,z
loop_
_atom_site_type_symbol
_atom_site_label
_atom_site_fract_x
_atom_site_fract_y
_atom_site_fract_z
Si Si1 0.164154 0.299140 0.216591
Si Si2 0.764544 0.925908 0.219998
Si Si3 0.438623 0.422634 0.220834
Si Si4 0.234893 0.576391 0.286504
Si Si5 0.660303 0.664118 0.208497
Si Si6 0.729963 0.783651 0.778450
Si Si7 0.891157 0.925090 0.219913
Si Si8 0.939196 0.217313 0.778847
O O1 0.183217 0.375017 0.258085
O O2 0.213354 0.250893 0.277936
O O3 0.107115 0.269643 0.281693
O O4 0.163020 0.294010 0.000000
O O5 0.730971 0.861036 0.279532
O O6 0.827844 0.917730 0.270616
O O7 0.746309 0.000000 0.279850
O O8 0.763963 0.925823 0.000000
O O9 0.500000 0.404621 0.273853
O O10 0.428008 0.500000 0.276165
O O11 0.391664 0.373289 0.287644
O O12 0.437269 0.422759 0.000000
O O13 0.244169 0.573180 0.500000
O O14 0.228562 0.500000 0.218098
O O15 0.287854 0.613946 0.209646
O O16 0.682423 0.734388 0.286196
O O17 0.646568 0.678005 0.000000
O O18 0.729393 0.782270 0.000000
O O19 0.923351 0.858838 0.278358
O O20 0.909767 0.000000 0.278193
O O21 0.892880 0.925255 0.000000
O O22 0.000000 0.234167 0.721722
O O23 0.938589 0.217158 0.000000
#
# Coordination Sequence:
#
# PCOD9384146 Si02
#       8
#     8   8   8   8   8   8   8   8
#     4   9  16  27  42  58  77 100 126 155 191 235
#     4   8  11  15  25  41  67 102 129 149 181 224
#     4   8  13  21  34  54  80 107 133 160 188 220
#     4  10  20  31  43  60  80  99 121 156 198 235
#     4   9  16  25  41  62  82 104 131 161 191 226
#     4   8  12  19  31  49  72  96 125 159 189 217
#     4   8  12  17  26  43  72 108 134 150 179 226
#     4   9  15  22  34  53  77 102 128 160 194 228
#
# _framework density 17.698917999999999
#
# number of rings (size 3 to 8) (size 9 to 14) (size 15 to 20)
#    0.000    3.375    1.250    2.625    0.000    1.750 
#    0.000    1.250    0.000    1.125    0.000    4.375 
#    0.000   13.000    0.000    8.125    0.000    1.250 
#
# Total GULP energy -356623.278153 kJ/mol
# GULP energy per Si atom -5572.238721 kJ/mol
# Density = 1.765863 g / cm^3
# Si number density = 17.698918 Si / 1000 Ang^3
#
#
#
# Elastic Constant Matrix: (Units=GPa)
#
#
# Indices 1 2 3 4 5 6 
#
# 1 110.8867 73.5279 1.8557 0.0000 0.0000 0.0000
# 2 73.5279 141.7128 -2.2717 0.0000 0.0000 0.0000
# 3 1.8557 -2.2717 59.0622 0.0000 0.0000 0.0000
# 4 0.0000 0.0000 0.0000 59.2365 0.0000 0.0000
# 5 0.0000 0.0000 0.0000 0.0000 -23.3064 0.0000
# 6 0.0000 0.0000 0.0000 0.0000 0.0000 31.3026
#
#
#
# Elastic Compliance Matrix: (Units=1/GPa)
#
#
# Indices 1 2 3 4 5 6 
#
# 1 0.013778 -0.007160 -0.000708 0.000000 0.000000 0.000000
# 2 -0.007160 0.010782 0.000640 0.000000 0.000000 0.000000
# 3 -0.000708 0.000640 0.016978 0.000000 0.000000 0.000000
# 4 0.000000 0.000000 0.000000 0.016881 0.000000 0.000000
# 5 0.000000 0.000000 0.000000 0.000000 -0.042907 0.000000
# 6 0.000000 0.000000 0.000000 0.000000 0.000000 0.031946
#
#
# Mechanical properties :
#
#
# Convention : Reuss Voigt Hill
#
# Bulk Modulus (GPa) = 36.92697 50.87618 43.90157
# Shear Modulus (GPa) = 70.47937 29.34985 49.91461
#
# Velocity S-wave (km/s) = 6.31726 4.07662 5.31632
# Velocity P-wave (km/s) = 8.60927 7.13906 7.90841
#
# Compressibility (1/GPa) = 0.02708048
#
# Stress axis : x y z
#
# Youngs Moduli (GPa) = 72.58062 92.74935 58.89920
#
# Poissons Ratio (x) = 0.66408 0.04172
# Poissons Ratio (y) = 0.51968 -0.03768
# Poissons Ratio (z) = 0.05141 -0.05933
#
# Static dielectric constant tensor:
#      x y z
#    x 1.581180 0.000000 0.000000 
#    y 0.000000 1.622830 0.000000 
#    z 0.000000 0.000000 1.666050 
# 
# From -- ./inp_files/12952.got.cif
#   From: 2010.05.17/outbox.cif.g08.bks.cpg/sg47_7_cif.got.tgz:12952.got - 2010.06.03 20:15:42.
