data_PCOD9384119
_publ_section_title
;
Structure prediction by ZEFSAII (Michael W. Deem and Ramdas Pophale) SiO2 
 PCOD9384119
Probable space group: P M M M
;
_chemical_formula_sum "Si O2"
_cell_formula_units_Z 56
_cell_length_a 7.671978
_cell_length_b 30.495189
_cell_length_c 14.273457
_cell_angle_alpha 90.000000
_cell_angle_beta 90.000000
_cell_angle_gamma 90.000000
_cell_volume 3339.395435
_symmetry_space_group_name_H-M "P M M M"
_symmetry_group_IT_number 47
_symmetry_cell_setting 'orthorhombic'
loop_
_space_group_symop_operation_xyz
x,y,z
-x,-y,z
x,-y,-z
-x,y,-z
-x,-y,-z
x,y,-z
-x,y,z
x,-y,z
loop_
_atom_site_type_symbol
_atom_site_label
_atom_site_fract_x
_atom_site_fract_y
_atom_site_fract_z
Si Si1 0.786840 0.549316 0.108046
Si Si2 0.706846 0.281523 0.105820
Si Si3 0.795398 0.632233 0.220152
Si Si4 0.210119 0.772103 0.283973
Si Si5 0.709747 0.047175 0.609145
Si Si6 0.786395 0.314831 0.393758
Si Si7 0.792327 0.143291 0.392400
O O1 0.734452 0.500000 0.135700
O O2 0.721504 0.588582 0.173102
O O3 0.000000 0.550188 0.108587
O O4 0.734532 0.556587 0.000000
O O5 0.500000 0.287708 0.102086
O O6 0.781736 0.326174 0.150464
O O7 0.741297 0.242352 0.179074
O O8 0.771448 0.274093 0.000000
O O9 0.723849 0.648979 0.319442
O O10 0.000000 0.623745 0.235177
O O11 0.266366 0.732340 0.352047
O O12 0.275389 0.817982 0.325957
O O13 0.000000 0.772927 0.285911
O O14 0.767000 0.047676 0.500000
O O15 0.500000 0.046678 0.609750
O O16 0.763711 0.094376 0.647232
O O17 0.769141 0.000000 0.649258
O O18 0.729228 0.320962 0.500000
O O19 0.000000 0.315211 0.393233
O O20 0.722791 0.145770 0.500000
O O21 0.000000 0.149346 0.399560
#
# Coordination Sequence:
#
# PCOD9384119 Si02
#       7
#     8   8   8   8   8   8   8
#     4   8  13  21  35  57  81 100 123 161 202 235
#     4  10  20  31  42  58  81 105 127 158 200 238
#     4   9  16  26  43  62  77 101 135 163 189 230
#     4   9  17  28  42  59  78 104 136 164 192 233
#     4   8  14  24  36  51  75 109 145 174 200 234
#     4   8  13  22  37  56  77 101 129 160 192 225
#     4   9  16  25  39  60  84 108 135 169 205 236
#
# _framework density 16.769501999999999
#
# number of rings (size 3 to 8) (size 9 to 14) (size 15 to 20)
#    0.000    3.286    0.000    3.000    0.000    4.286 
#    0.000    1.429    0.000   11.143    0.000    5.000 
#    0.000    0.571    0.000   11.429    0.000   11.143 
#
# Total GULP energy -311768.393320 kJ/mol
# GULP energy per Si atom -5567.292738 kJ/mol
# Density = 1.673133 g / cm^3
# Si number density = 16.769502 Si / 1000 Ang^3
#
#
#
# Elastic Constant Matrix: (Units=GPa)
#
#
# Indices 1 2 3 4 5 6 
#
# 1 25.7618 -2.7368 -0.0011 0.0000 0.0000 0.0000
# 2 -2.7368 145.7646 78.3957 0.0000 0.0000 0.0000
# 3 -0.0011 78.3957 123.5030 0.0000 0.0000 0.0000
# 4 0.0000 0.0000 0.0000 22.5661 0.0000 0.0000
# 5 0.0000 0.0000 0.0000 0.0000 -9.0025 0.0000
# 6 0.0000 0.0000 0.0000 0.0000 0.0000 -668.8738
#
#
#
# Elastic Compliance Matrix: (Units=1/GPa)
#
#
# Indices 1 2 3 4 5 6 
#
# 1 0.038935 0.001110 -0.000704 0.000000 0.000000 0.000000
# 2 0.001110 0.010448 -0.006632 0.000000 0.000000 0.000000
# 3 -0.000704 -0.006632 0.012307 0.000000 0.000000 0.000000
# 4 0.000000 0.000000 0.000000 0.044314 0.000000 0.000000
# 5 0.000000 0.000000 0.000000 0.000000 -0.111080 0.000000
# 6 0.000000 0.000000 0.000000 0.000000 0.000000 -0.001495
#
#
# Mechanical properties :
#
#
# Convention : Reuss Voigt Hill
#
# Bulk Modulus (GPa) = 20.30993 49.59390 34.95192
# Shear Modulus (GPa) = 224.27280 -116.43729 53.91776
#
# Velocity S-wave (km/s) = 11.57708 -8.34174 5.67645
# Velocity P-wave (km/s) = 13.81458 7.94616 7.99065
#
# Compressibility (1/GPa) = 0.04923700
#
# Stress axis : x y z
#
# Youngs Moduli (GPa) = 25.68380 95.71094 81.25574
#
# Poissons Ratio (x) = -0.10621 0.05721
# Poissons Ratio (y) = -0.02850 0.53890
# Poissons Ratio (z) = 0.01808 0.63477
#
# Static dielectric constant tensor:
#      x y z
#    x 1.623800 0.000000 0.000000 
#    y 0.000000 1.590590 0.000000 
#    z 0.000000 0.000000 1.556280 
# 
# From -- ./inp_files/8130.got.cif
#   From: 2010.05.17/outbox.cif.g08.bks.cpg/sg47_5_cif.got.tgz:8130.got - 2010.06.03 20:15:42.
