data_PCOD9384350
_publ_section_title
;
Structure prediction by ZEFSAII (Michael W. Deem and Ramdas Pophale) SiO2 
 PCOD9384350
Probable space group: P M M M
;
_chemical_formula_sum "Si O2"
_cell_formula_units_Z 44
_cell_length_a 9.009796
_cell_length_b 14.680440
_cell_length_c 24.042881
_cell_angle_alpha 90.000000
_cell_angle_beta 90.000000
_cell_angle_gamma 90.000000
_cell_volume 3180.098244
_symmetry_space_group_name_H-M "P M M M"
_symmetry_group_IT_number 47
_symmetry_cell_setting 'orthorhombic'
loop_
_space_group_symop_operation_xyz
x,y,z
-x,-y,z
x,-y,-z
-x,y,-z
-x,-y,-z
x,y,-z
-x,y,z
x,-y,z
loop_
_atom_site_type_symbol
_atom_site_label
_atom_site_fract_x
_atom_site_fract_y
_atom_site_fract_z
Si Si1 0.676463 0.108956 0.500000
Si Si2 0.821082 0.794746 0.606731
Si Si3 0.829971 0.889213 0.173865
Si Si4 0.323967 0.891337 0.288574
Si Si5 0.326111 0.110631 0.061490
Si Si6 0.819808 0.399103 0.564669
O O1 0.500000 0.128163 0.500000
O O2 0.752168 0.151544 0.445520
O O3 0.695615 0.000000 0.500000
O O4 0.760687 0.838145 0.663174
O O5 0.775220 0.688831 0.599656
O O6 0.000000 0.800537 0.604497
O O7 0.733915 0.863612 0.227571
O O8 0.763709 0.857027 0.115096
O O9 0.000000 0.860503 0.180735
O O10 0.827860 0.000000 0.172070
O O11 0.500000 0.877229 0.293026
O O12 0.295828 0.000000 0.294971
O O13 0.500000 0.133779 0.067197
O O14 0.318277 0.000000 0.061518
O O15 0.274237 0.140565 0.000000
O O16 0.775619 0.386047 0.500000
O O17 0.769337 0.500000 0.582664
O O18 0.000000 0.400433 0.564998
#
# Coordination Sequence:
#
# PCOD9384350 Si02
#       6
#     4   8   8   8   8   8
#     4  11  23  35  44  57  82 112 135 159 198 243
#     4  11  20  31  48  67  81  99 131 168 201 234
#     4   9  16  25  37  53  72  96 131 173 207 234
#     4  10  20  32  43  55  77 110 140 166 202 246
#     4   8  13  21  33  49  70  97 128 162 202 245
#     4   8  14  27  47  68  86 101 120 151 196 247
#
# _framework density 13.83605
#
# number of rings (size 3 to 8) (size 9 to 14) (size 15 to 20)
#    0.000    2.636    0.909    3.545    0.000    6.545 
#    0.000    1.818    0.000    2.727    0.000    0.000 
#    0.000    0.000    0.000    0.000    0.000    0.909 
#
# Total GULP energy -245060.269933 kJ/mol
# GULP energy per Si atom -5569.551589 kJ/mol
# Density = 1.380456 g / cm^3
# Si number density = 13.836050 Si / 1000 Ang^3
#
#
#
# Elastic Constant Matrix: (Units=GPa)
#
#
# Indices 1 2 3 4 5 6 
#
# 1 58.2370 36.5895 48.9945 0.0000 0.0000 0.0000
# 2 36.5895 58.5403 43.8958 0.0000 0.0000 0.0000
# 3 48.9945 43.8958 115.5115 0.0000 0.0000 0.0000
# 4 0.0000 0.0000 0.0000 0.7353 0.0000 0.0000
# 5 0.0000 0.0000 0.0000 0.0000 25.1169 0.0000
# 6 0.0000 0.0000 0.0000 0.0000 0.0000 3.9198
#
#
#
# Elastic Compliance Matrix: (Units=1/GPa)
#
#
# Indices 1 2 3 4 5 6 
#
# 1 0.033624 -0.014435 -0.008776 0.000000 0.000000 0.000000
# 2 -0.014435 0.030087 -0.005311 0.000000 0.000000 0.000000
# 3 -0.008776 -0.005311 0.014398 0.000000 0.000000 0.000000
# 4 0.000000 0.000000 0.000000 1.359937 0.000000 0.000000
# 5 0.000000 0.000000 0.000000 0.000000 0.039814 0.000000
# 6 0.000000 0.000000 0.000000 0.000000 0.000000 0.255113
#
#
# Mechanical properties :
#
#
# Convention : Reuss Voigt Hill
#
# Bulk Modulus (GPa) = 47.47342 54.58317 51.02829
# Shear Modulus (GPa) = 2.78236 12.80834 7.79535
#
# Velocity S-wave (km/s) = 1.41962 3.04587 2.37620
# Velocity P-wave (km/s) = 6.08876 7.20454 6.67002
#
# Compressibility (1/GPa) = 0.02106442
#
# Stress axis : x y z
#
# Youngs Moduli (GPa) = 29.74061 33.23707 69.45577
#
# Poissons Ratio (x) = 0.47979 0.60955
# Poissons Ratio (y) = 0.42932 0.36885
# Poissons Ratio (z) = 0.26101 0.17651
#
# Static dielectric constant tensor:
#      x y z
#    x 1.464390 0.000000 0.000000 
#    y 0.000000 1.439550 0.000000 
#    z 0.000000 0.000000 1.453090 
# 
# From -- ./inp_files/29462.got.cif
#   From: 2010.05.17/outbox.cif.g08.bks.cpg/sg47_15_cif.got.tgz:29462.got - 2010.06.03 20:15:42.
