data_PCOD9384043
_publ_section_title
;
Structure prediction by ZEFSAII (Michael W. Deem and Ramdas Pophale) SiO2 
 PCOD9384043
Probable space group: P M M M
;
_chemical_formula_sum "Si O2"
_cell_formula_units_Z 48
_cell_length_a 8.085827
_cell_length_b 15.643289
_cell_length_c 19.625829
_cell_angle_alpha 90.000000
_cell_angle_beta 90.000000
_cell_angle_gamma 90.000000
_cell_volume 2482.450082
_symmetry_space_group_name_H-M "P M M M"
_symmetry_group_IT_number 47
_symmetry_cell_setting 'orthorhombic'
loop_
_space_group_symop_operation_xyz
x,y,z
-x,-y,z
x,-y,-z
-x,y,-z
-x,-y,-z
x,y,-z
-x,y,z
x,-y,z
loop_
_atom_site_type_symbol
_atom_site_label
_atom_site_fract_x
_atom_site_fract_y
_atom_site_fract_z
Si Si1 0.802720 0.749897 0.077195
Si Si2 0.300417 0.347414 0.325002
Si Si3 0.300365 0.596277 0.825730
Si Si4 0.702408 0.000000 0.421851
Si Si5 0.297829 0.845958 0.674843
Si Si6 0.699587 0.903440 0.826084
Si Si7 0.802691 0.500000 0.422753
O O1 0.748919 0.666749 0.119470
O O2 0.749997 0.834087 0.118386
O O3 0.000000 0.749468 0.074118
O O4 0.736411 0.749352 0.000000
O O5 0.500000 0.345874 0.322491
O O6 0.242303 0.376284 0.249818
O O7 0.243461 0.250829 0.339381
O O8 0.250986 0.416548 0.380825
O O9 0.500000 0.594792 0.823369
O O10 0.242560 0.500000 0.841173
O O11 0.755291 0.915985 0.380201
O O12 0.500000 0.000000 0.421935
O O13 0.757020 0.000000 0.500000
O O14 0.500000 0.846349 0.674875
O O15 0.245309 0.873872 0.750731
O O16 0.500000 0.905090 0.824210
O O17 0.757901 0.000000 0.840002
O O18 0.736658 0.500000 0.500000
O O19 0.000000 0.500000 0.425735
#
# Coordination Sequence:
#
# PCOD9384043 Si02
#       7
#     8   8   8   4   8   8   4
#     4  11  25  41  56  81 119 155 187 232 287 343
#     4  10  19  35  60  86 112 144 188 239 284 333
#     4  10  20  37  62  89 113 142 186 239 290 341
#     4   9  16  26  44  78 120 149 172 214 275 331
#     4   9  16  29  52  82 113 144 180 226 276 328
#     4  10  19  35  61  86 111 148 193 241 287 334
#     4  11  25  41  55  79 118 157 192 235 285 338
#
# _framework density 19.335735
#
# number of rings (size 3 to 8) (size 9 to 14) (size 15 to 20)
#    0.000    2.000    3.333    0.750    0.000    4.667 
#    0.000    5.000    0.000    0.000    0.000    0.000 
#    0.000    2.667    0.000    0.000    0.000    0.000 
#
# Total GULP energy -268029.516787 kJ/mol
# GULP energy per Si atom -5583.948266 kJ/mol
# Density = 1.929173 g / cm^3
# Si number density = 19.335735 Si / 1000 Ang^3
#
#
#
# Elastic Constant Matrix: (Units=GPa)
#
#
# Indices 1 2 3 4 5 6 
#
# 1 11.5401 16.9016 11.5931 0.0000 0.0000 0.0000
# 2 16.9016 244.0692 132.6023 0.0000 0.0000 0.0000
# 3 11.5931 132.6023 204.6180 0.0000 0.0000 0.0000
# 4 0.0000 0.0000 0.0000 27.6767 0.0000 0.0000
# 5 0.0000 0.0000 0.0000 0.0000 26.1568 0.0000
# 6 0.0000 0.0000 0.0000 0.0000 0.0000 -12.1078
#
#
#
# Elastic Compliance Matrix: (Units=1/GPa)
#
#
# Indices 1 2 3 4 5 6 
#
# 1 0.096844 -0.005750 -0.001761 0.000000 0.000000 0.000000
# 2 -0.005750 0.006665 -0.003993 0.000000 0.000000 0.000000
# 3 -0.001761 -0.003993 0.007575 0.000000 0.000000 0.000000
# 4 0.000000 0.000000 0.000000 0.036132 0.000000 0.000000
# 5 0.000000 0.000000 0.000000 0.000000 0.038231 0.000000
# 6 0.000000 0.000000 0.000000 0.000000 0.000000 -0.082591
#
#
# Mechanical properties :
#
#
# Convention : Reuss Voigt Hill
#
# Bulk Modulus (GPa) = 11.35383 86.93571 49.14477
# Shear Modulus (GPa) = 32.21188 28.28715 30.24951
#
# Velocity S-wave (km/s) = 4.08600 3.82900 3.95959
# Velocity P-wave (km/s) = 5.30521 8.03785 6.81000
#
# Compressibility (1/GPa) = 0.08807601
#
# Stress axis : x y z
#
# Youngs Moduli (GPa) = 10.32586 150.03714 132.01511
#
# Poissons Ratio (x) = 0.86267 0.23246
# Poissons Ratio (y) = 0.05937 0.52720
# Poissons Ratio (z) = 0.01818 0.59917
#
# Static dielectric constant tensor:
#      x y z
#    x 1.685850 0.000000 0.000000 
#    y 0.000000 1.666350 0.000000 
#    z 0.000000 0.000000 1.652630 
# 
# From -- ./inp_files/6470.got.cif
#   From: 2010.05.17/outbox.cif.g08.bks.cpg/sg47_4_cif.got.tgz:6470.got - 2010.06.03 20:15:42.
