data_PCOD9384478
_publ_section_title
;
Structure prediction by ZEFSAII (Michael W. Deem and Ramdas Pophale) SiO2 
 PCOD9384478
Probable space group: P M M M
;
_chemical_formula_sum "Si O2"
_cell_formula_units_Z 48
_cell_length_a 9.634813
_cell_length_b 34.087514
_cell_length_c 7.685195
_cell_angle_alpha 90.000000
_cell_angle_beta 90.000000
_cell_angle_gamma 90.000000
_cell_volume 2524.024178
_symmetry_space_group_name_H-M "P M M M"
_symmetry_group_IT_number 47
_symmetry_cell_setting 'orthorhombic'
loop_
_space_group_symop_operation_xyz
x,y,z
-x,-y,z
x,-y,-z
-x,y,-z
-x,-y,-z
x,y,-z
-x,y,z
x,-y,z
loop_
_atom_site_type_symbol
_atom_site_label
_atom_site_fract_x
_atom_site_fract_y
_atom_site_fract_z
Si Si1 0.339233 0.585684 0.786167
Si Si2 0.658292 0.819409 0.790811
Si Si3 0.668827 0.500000 0.201784
Si Si4 0.844211 0.342016 0.206378
Si Si5 0.342397 0.731418 0.705915
Si Si6 0.166076 0.894629 0.205024
Si Si7 0.831386 0.955345 0.500000
O O1 0.500000 0.591844 0.735832
O O2 0.291343 0.542447 0.724750
O O3 0.244086 0.621246 0.724429
O O4 0.338393 0.584767 0.000000
O O5 0.500000 0.824092 0.725494
O O6 0.706052 0.775792 0.741732
O O7 0.755712 0.855146 0.736240
O O8 0.654362 0.820659 0.000000
O O9 0.500000 0.500000 0.202403
O O10 0.713987 0.500000 0.000000
O O11 0.759496 0.301932 0.227899
O O12 0.000000 0.339466 0.278315
O O13 0.855327 0.348773 0.000000
O O14 0.350678 0.726509 0.500000
O O15 0.500000 0.727518 0.778292
O O16 0.208157 0.930537 0.329021
O O17 0.000000 0.889189 0.220944
O O18 0.195936 0.901797 0.000000
O O19 0.000000 0.956943 0.500000
O O20 0.780118 0.000000 0.500000
#
# Coordination Sequence:
#
# PCOD9384478 Si02
#       7
#     8   8   4   8   8   8   4
#     4   8  13  23  41  63  88 120 156 195 239 286
#     4   9  18  33  53  76 101 129 160 199 249 300
#     4   7  10  18  35  61  88 113 148 193 238 284
#     4  10  20  32  46  67  96 129 163 197 238 291
#     4  10  21  35  51  72  95 123 163 205 245 294
#     4   9  18  32  51  76 104 135 173 214 256 305
#     4   9  18  32  51  77 107 139 177 219 261 302
#
# _framework density 19.017251000000002
#
# number of rings (size 3 to 8) (size 9 to 14) (size 15 to 20)
#    0.000    3.000    0.000    2.000    1.167    3.000 
#    0.000    3.750    0.000    3.500    0.000    2.917 
#    0.000    4.667    0.000    0.000    0.000    0.000 
#
# Total GULP energy -267531.061040 kJ/mol
# GULP energy per Si atom -5573.563772 kJ/mol
# Density = 1.897397 g / cm^3
# Si number density = 19.017251 Si / 1000 Ang^3
#
#
#
# Elastic Constant Matrix: (Units=GPa)
#
#
# Indices 1 2 3 4 5 6 
#
# 1 71.0664 91.3880 22.1746 0.0000 0.0000 0.0000
# 2 91.3880 204.4552 33.9155 0.0000 0.0000 0.0000
# 3 22.1746 33.9155 45.9411 0.0000 0.0000 0.0000
# 4 0.0000 0.0000 0.0000 123.7672 0.0000 0.0000
# 5 0.0000 0.0000 0.0000 0.0000 6.6690 0.0000
# 6 0.0000 0.0000 0.0000 0.0000 0.0000 21.2639
#
#
#
# Elastic Compliance Matrix: (Units=1/GPa)
#
#
# Indices 1 2 3 4 5 6 
#
# 1 0.034486 -0.014419 -0.006001 0.000000 0.000000 0.000000
# 2 -0.014419 0.011603 -0.001606 0.000000 0.000000 0.000000
# 3 -0.006001 -0.001606 0.025849 0.000000 0.000000 0.000000
# 4 0.000000 0.000000 0.000000 0.008080 0.000000 0.000000
# 5 0.000000 0.000000 0.000000 0.000000 0.149947 0.000000
# 6 0.000000 0.000000 0.000000 0.000000 0.000000 0.047028
#
#
# Mechanical properties :
#
#
# Convention : Reuss Voigt Hill
#
# Bulk Modulus (GPa) = 35.86004 68.49099 52.17552
# Shear Modulus (GPa) = 15.13593 41.93901 28.53747
#
# Velocity S-wave (km/s) = 2.82424 4.70117 3.87797
# Velocity P-wave (km/s) = 5.43439 8.09700 6.89543
#
# Compressibility (1/GPa) = 0.02788619
#
# Stress axis : x y z
#
# Youngs Moduli (GPa) = 28.99686 86.18726 38.68663
#
# Poissons Ratio (x) = 1.24277 0.23215
# Poissons Ratio (y) = 0.41812 0.06212
# Poissons Ratio (z) = 0.17400 0.13838
#
# Static dielectric constant tensor:
#      x y z
#    x 1.673300 0.000000 0.000000 
#    y 0.000000 1.655110 0.000000 
#    z 0.000000 0.000000 1.710420 
# 
# From -- ./inp_files/2705.got.cif
#   From: 2010.05.17/outbox.cif.g08.bks.cpg/sg47_2_cif.got.tgz:2705.got - 2010.06.03 20:15:42.
