data_PCOD9384610
_publ_section_title
;
Structure prediction by ZEFSAII (Michael W. Deem and Ramdas Pophale) SiO2 
 PCOD9384610
Probable space group: P M M M
;
_chemical_formula_sum "Si O2"
_cell_formula_units_Z 48
_cell_length_a 8.926554
_cell_length_b 19.009238
_cell_length_c 16.354898
_cell_angle_alpha 90.000000
_cell_angle_beta 90.000000
_cell_angle_gamma 90.000000
_cell_volume 2775.213405
_symmetry_space_group_name_H-M "P M M M"
_symmetry_group_IT_number 47
_symmetry_cell_setting 'orthorhombic'
loop_
_space_group_symop_operation_xyz
x,y,z
-x,-y,z
x,-y,-z
-x,y,-z
-x,-y,-z
x,y,-z
-x,y,z
x,-y,z
loop_
_atom_site_type_symbol
_atom_site_label
_atom_site_fract_x
_atom_site_fract_y
_atom_site_fract_z
Si Si1 0.319824 0.653459 0.339832
Si Si2 0.180073 0.583281 0.500000
Si Si3 0.821958 0.582073 0.180764
Si Si4 0.320704 0.296772 0.910188
Si Si5 0.821565 0.917976 0.827329
Si Si6 0.330513 0.914693 0.000000
Si Si7 0.679182 0.207710 0.250469
O O1 0.500000 0.648648 0.343883
O O2 0.246362 0.621542 0.420428
O O3 0.260857 0.609244 0.262294
O O4 0.281279 0.735338 0.320211
O O5 0.219764 0.500000 0.500000
O O6 0.000000 0.587970 0.500000
O O7 0.792588 0.500000 0.168172
O O8 0.760676 0.629902 0.107643
O O9 0.000000 0.592244 0.190652
O O10 0.500000 0.307122 0.906369
O O11 0.281146 0.246759 0.834802
O O12 0.282413 0.268956 0.000000
O O13 0.750970 0.897051 0.915265
O O14 0.759467 0.866858 0.757101
O O15 0.000000 0.912214 0.832914
O O16 0.782784 0.000000 0.812992
O O17 0.500000 0.885961 0.000000
O O18 0.337980 0.000000 0.000000
O O19 0.500000 0.197519 0.252475
#
# Coordination Sequence:
#
# PCOD9384610 Si02
#       7
#     8   4   8   8   8   4   8
#     4  10  21  37  56  79 105 135 171 208 249 303
#     4  11  23  37  57  87 118 143 168 203 249 306
#     4  10  20  33  49  70  98 130 165 209 257 304
#     4   9  19  34  49  67  92 126 171 218 258 302
#     4  10  20  32  47  72 103 133 171 217 263 313
#     4   9  17  29  45  65  93 131 172 215 262 307
#     4   9  19  34  52  73  99 134 173 213 257 305
#
# _framework density 17.295967999999998
#
# number of rings (size 3 to 8) (size 9 to 14) (size 15 to 20)
#    0.000    2.333    0.000    3.500    1.167   10.000 
#    0.000    1.667    0.000    0.000    0.000    0.583 
#    0.000    4.667    0.000    0.000    0.000    0.000 
#
# Total GULP energy -267791.570653 kJ/mol
# GULP energy per Si atom -5578.991055 kJ/mol
# Density = 1.725660 g / cm^3
# Si number density = 17.295968 Si / 1000 Ang^3
#
#
#
# Elastic Constant Matrix: (Units=GPa)
#
#
# Indices 1 2 3 4 5 6 
#
# 1 41.1476 47.7628 24.5101 0.0000 0.0000 0.0000
# 2 47.7628 114.2419 40.1143 0.0000 0.0000 0.0000
# 3 24.5101 40.1143 76.3282 0.0000 0.0000 0.0000
# 4 0.0000 0.0000 0.0000 26.1217 0.0000 0.0000
# 5 0.0000 0.0000 0.0000 0.0000 23.9634 0.0000
# 6 0.0000 0.0000 0.0000 0.0000 0.0000 23.5882
#
#
#
# Elastic Compliance Matrix: (Units=1/GPa)
#
#
# Indices 1 2 3 4 5 6 
#
# 1 0.049464 -0.018521 -0.006150 0.000000 0.000000 0.000000
# 2 -0.018521 0.017669 -0.003339 0.000000 0.000000 0.000000
# 3 -0.006150 -0.003339 0.016831 0.000000 0.000000 0.000000
# 4 0.000000 0.000000 0.000000 0.038282 0.000000 0.000000
# 5 0.000000 0.000000 0.000000 0.000000 0.041730 0.000000
# 6 0.000000 0.000000 0.000000 0.000000 0.000000 0.042394
#
#
# Mechanical properties :
#
#
# Convention : Reuss Voigt Hill
#
# Bulk Modulus (GPa) = 35.78442 50.72135 43.25288
# Shear Modulus (GPa) = 18.40231 22.69005 20.54618
#
# Velocity S-wave (km/s) = 3.26539 3.62590 3.45036
# Velocity P-wave (km/s) = 5.91197 6.84973 6.39805
#
# Compressibility (1/GPa) = 0.02794512
#
# Stress axis : x y z
#
# Youngs Moduli (GPa) = 20.21652 56.59649 59.41480
#
# Poissons Ratio (x) = 1.04821 0.36541
# Poissons Ratio (y) = 0.37443 0.19836
# Poissons Ratio (z) = 0.12433 0.18895
#
# Static dielectric constant tensor:
#      x y z
#    x 1.578340 0.000000 0.000000 
#    y 0.000000 1.616900 0.000000 
#    z 0.000000 0.000000 1.571690 
# 
# From -- ./inp_files/21074.got.cif
#   From: 2010.05.17/outbox.cif.g08.bks.cpg/sg47_11_cif.got.tgz:21074.got - 2010.06.03 20:15:42.
