data_PCOD9384165
_publ_section_title
;
Structure prediction by ZEFSAII (Michael W. Deem and Ramdas Pophale) SiO2 
 PCOD9384165
Probable space group: P M M M
;
_chemical_formula_sum "Si O2"
_cell_formula_units_Z 56
_cell_length_a 7.451583
_cell_length_b 19.839434
_cell_length_c 19.016743
_cell_angle_alpha 90.000000
_cell_angle_beta 90.000000
_cell_angle_gamma 90.000000
_cell_volume 2811.343798
_symmetry_space_group_name_H-M "P M M M"
_symmetry_group_IT_number 47
_symmetry_cell_setting 'orthorhombic'
loop_
_space_group_symop_operation_xyz
x,y,z
-x,-y,z
x,-y,-z
-x,y,-z
-x,-y,-z
x,y,-z
-x,y,z
x,-y,z
loop_
_atom_site_type_symbol
_atom_site_label
_atom_site_fract_x
_atom_site_fract_y
_atom_site_fract_z
Si Si1 0.789039 0.574370 0.222017
Si Si2 0.780824 0.713294 0.284023
Si Si3 0.717443 0.646049 0.077902
Si Si4 0.280583 0.075427 0.185240
Si Si5 0.789815 0.212975 0.422167
Si Si6 0.716530 0.074960 0.348486
Si Si7 0.292548 0.214853 0.861083
O O1 0.711496 0.500000 0.232954
O O2 0.718844 0.637427 0.266996
O O3 0.772556 0.597133 0.140821
O O4 0.000000 0.570701 0.238149
O O5 0.716795 0.742320 0.358147
O O6 0.715846 0.759652 0.219708
O O7 0.000000 0.715212 0.281680
O O8 0.500000 0.647922 0.079490
O O9 0.783704 0.721998 0.095630
O O10 0.774259 0.625551 0.000000
O O11 0.500000 0.076952 0.184732
O O12 0.226507 0.084516 0.267097
O O13 0.216389 0.139348 0.140286
O O14 0.226658 0.000000 0.163152
O O15 0.712005 0.221771 0.500000
O O16 0.777305 0.135645 0.397167
O O17 0.000000 0.230087 0.426313
O O18 0.500000 0.075907 0.348443
O O19 0.774129 0.000000 0.370797
O O20 0.500000 0.208989 0.883167
#
# Coordination Sequence:
#
# PCOD9384165 Si02
#       7
#     8   8   8   8   8   8   8
#     4   9  18  32  50  70  89 112 143 177 212 250
#     4   9  17  30  46  63  85 110 140 179 216 253
#     4   9  18  30  44  67  97 123 144 169 206 253
#     4   8  13  22  39  62  83 105 139 183 222 249
#     4  10  20  31  43  61  87 118 146 176 220 268
#     4   9  17  29  44  62  85 113 147 186 223 258
#     4   9  15  26  46  64  82 113 149 181 212 250
#
# _framework density 19.919298999999999
#
# number of rings (size 3 to 8) (size 9 to 14) (size 15 to 20)
#    0.000    3.000    1.429    0.857    0.000    1.714 
#    0.000    2.857    0.000    1.286    0.000    6.000 
#    0.000    0.000    0.000   15.571    0.000   16.286 
#
# Total GULP energy -312189.913399 kJ/mol
# GULP energy per Si atom -5574.819882 kJ/mol
# Density = 1.987396 g / cm^3
# Si number density = 19.919299 Si / 1000 Ang^3
#
#
#
# Elastic Constant Matrix: (Units=GPa)
#
#
# Indices 1 2 3 4 5 6 
#
# 1 58.9380 -8.2777 -6.9409 0.0000 0.0000 0.0000
# 2 -8.2777 132.0091 24.2262 0.0000 0.0000 0.0000
# 3 -6.9409 24.2262 47.5888 0.0000 0.0000 0.0000
# 4 0.0000 0.0000 0.0000 12.0976 0.0000 0.0000
# 5 0.0000 0.0000 0.0000 0.0000 12.8786 0.0000
# 6 0.0000 0.0000 0.0000 0.0000 0.0000 12.9390
#
#
#
# Elastic Compliance Matrix: (Units=1/GPa)
#
#
# Indices 1 2 3 4 5 6 
#
# 1 0.017320 0.000687 0.002177 0.000000 0.000000 0.000000
# 2 0.000687 0.008383 -0.004167 0.000000 0.000000 0.000000
# 3 0.002177 -0.004167 0.023452 0.000000 0.000000 0.000000
# 4 0.000000 0.000000 0.000000 0.082661 0.000000 0.000000
# 5 0.000000 0.000000 0.000000 0.000000 0.077648 0.000000
# 6 0.000000 0.000000 0.000000 0.000000 0.000000 0.077286
#
#
# Mechanical properties :
#
#
# Convention : Reuss Voigt Hill
#
# Bulk Modulus (GPa) = 21.48385 28.50568 24.99477
# Shear Modulus (GPa) = 16.40022 22.88495 19.64258
#
# Velocity S-wave (km/s) = 2.87249 3.39319 3.14364
# Velocity P-wave (km/s) = 4.67017 5.44916 5.07463
#
# Compressibility (1/GPa) = 0.04654659
#
# Stress axis : x y z
#
# Youngs Moduli (GPa) = 57.73763 119.28766 42.63968
#
# Poissons Ratio (x) = -0.08190 -0.09281
# Poissons Ratio (y) = -0.03964 0.17770
# Poissons Ratio (z) = -0.12567 0.49713
#
# Static dielectric constant tensor:
#      x y z
#    x 1.777630 0.000000 0.000000 
#    y 0.000000 1.725950 0.000000 
#    z 0.000000 0.000000 1.678010 
# 
# From -- ./inp_files/9839.got.cif
#   From: 2010.05.17/outbox.cif.g08.bks.cpg/sg47_5_cif.got.tgz:9839.got - 2010.06.03 20:15:42.
