data_PCOD9384116
_publ_section_title
;
Structure prediction by ZEFSAII (Michael W. Deem and Ramdas Pophale) SiO2 
 PCOD9384116
Probable space group: P M M M
;
_chemical_formula_sum "Si O2"
_cell_formula_units_Z 64
_cell_length_a 24.646718
_cell_length_b 7.441209
_cell_length_c 19.818250
_cell_angle_alpha 90.000000
_cell_angle_beta 90.000000
_cell_angle_gamma 90.000000
_cell_volume 3634.694395
_symmetry_space_group_name_H-M "P M M M"
_symmetry_group_IT_number 47
_symmetry_cell_setting 'orthorhombic'
loop_
_space_group_symop_operation_xyz
x,y,z
-x,-y,z
x,-y,-z
-x,y,-z
-x,-y,-z
x,y,-z
-x,y,z
x,-y,z
loop_
_atom_site_type_symbol
_atom_site_label
_atom_site_fract_x
_atom_site_fract_y
_atom_site_fract_z
Si Si1 0.276061 0.785344 0.075654
Si Si2 0.390297 0.283178 0.424879
Si Si3 0.061029 0.719159 0.922135
Si Si4 0.166096 0.716050 0.155744
Si Si5 0.667006 0.218668 0.208979
Si Si6 0.735575 0.719580 0.575245
Si Si7 0.222770 0.290596 0.287339
Si Si8 0.440293 0.789036 0.717636
O O1 0.215828 0.752066 0.104784
O O2 0.317753 0.721215 0.133283
O O3 0.282746 0.000000 0.072239
O O4 0.282350 0.713252 0.000000
O O5 0.407859 0.224410 0.500000
O O6 0.390756 0.500000 0.424888
O O7 0.327465 0.226369 0.415355
O O8 0.425331 0.224529 0.361387
O O9 0.061619 0.500000 0.921315
O O10 0.109612 0.782356 0.874665
O O11 0.000000 0.774890 0.903015
O O12 0.070641 0.772254 0.000000
O O13 0.162355 0.500000 0.161107
O O14 0.183872 0.786878 0.229338
O O15 0.716817 0.279545 0.255849
O O16 0.610228 0.284045 0.239331
O O17 0.667493 0.000000 0.210313
O O18 0.752484 0.773821 0.500000
O O19 0.735554 0.500000 0.576890
O O20 0.771670 0.785127 0.637484
O O21 0.208132 0.500000 0.294480
O O22 0.500000 0.711462 0.729950
O O23 0.442754 0.000000 0.734182
#
# Coordination Sequence:
#
# PCOD9384116 Si02
#       8
#     8   8   8   8   8   8   8   8
#     4   9  17  28  42  59  78 100 123 150 189 233
#     4   9  17  29  44  59  75  98 127 155 182 218
#     4   8  13  21  33  50  76 109 136 155 180 216
#     4   9  16  24  38  61  82  99 126 163 192 216
#     4   9  17  29  42  55  74  98 122 148 184 231
#     4   8  13  22  37  55  75  98 120 145 181 223
#     4   9  15  24  40  59  77  95 120 157 193 221
#     4  10  20  31  42  56  75  99 125 155 189 224
#
# _framework density 17.608084000000002
#
# number of rings (size 3 to 8) (size 9 to 14) (size 15 to 20)
#    0.000    3.125    1.250    1.500    0.000    1.500 
#    0.000    1.250    0.000    1.125    0.000    4.375 
#    0.000    0.500    0.000   14.375    0.000    7.750 
#
# Total GULP energy -356685.381653 kJ/mol
# GULP energy per Si atom -5573.209088 kJ/mol
# Density = 1.756801 g / cm^3
# Si number density = 17.608084 Si / 1000 Ang^3
#
#
#
# Elastic Constant Matrix: (Units=GPa)
#
#
# Indices 1 2 3 4 5 6 
#
# 1 120.5374 -1.4726 74.3762 0.0000 0.0000 0.0000
# 2 -1.4726 53.9217 -2.8674 0.0000 0.0000 0.0000
# 3 74.3762 -2.8674 138.3970 0.0000 0.0000 0.0000
# 4 0.0000 0.0000 0.0000 13.8194 0.0000 0.0000
# 5 0.0000 0.0000 0.0000 0.0000 24.1125 0.0000
# 6 0.0000 0.0000 0.0000 0.0000 0.0000 6.8970
#
#
#
# Elastic Compliance Matrix: (Units=1/GPa)
#
#
# Indices 1 2 3 4 5 6 
#
# 1 0.012412 -0.000016 -0.006671 0.000000 0.000000 0.000000
# 2 -0.000016 0.018566 0.000393 0.000000 0.000000 0.000000
# 3 -0.006671 0.000393 0.010819 0.000000 0.000000 0.000000
# 4 0.000000 0.000000 0.000000 0.072362 0.000000 0.000000
# 5 0.000000 0.000000 0.000000 0.000000 0.041472 0.000000
# 6 0.000000 0.000000 0.000000 0.000000 0.000000 0.144991
#
#
# Mechanical properties :
#
#
# Convention : Reuss Voigt Hill
#
# Bulk Modulus (GPa) = 34.23492 50.32538 42.28015
# Shear Modulus (GPa) = 15.48252 25.15377 20.31815
#
# Velocity S-wave (km/s) = 2.96849 3.78370 3.40061
# Velocity P-wave (km/s) = 5.58876 6.90879 6.28353
#
# Compressibility (1/GPa) = 0.02920994
#
# Stress axis : x y z
#
# Youngs Moduli (GPa) = 80.56665 53.86220 92.43282
#
# Poissons Ratio (x) = 0.00085 0.61659
# Poissons Ratio (y) = 0.00127 -0.03634
# Poissons Ratio (z) = 0.53744 -0.02118
#
# Static dielectric constant tensor:
#      x y z
#    x 1.582530 0.000000 0.000000 
#    y 0.000000 1.689930 0.000000 
#    z 0.000000 0.000000 1.626750 
# 
# From -- ./inp_files/11953.got.cif
#   From: 2010.05.17/outbox.cif.g08.bks.cpg/sg47_6_cif.got.tgz:11953.got - 2010.06.03 20:15:42.
