data_PCOD9384389
_publ_section_title
;
Structure prediction by ZEFSAII (Michael W. Deem and Ramdas Pophale) SiO2 
 PCOD9384389
Probable space group: P M M M
;
_chemical_formula_sum "Si O2"
_cell_formula_units_Z 44
_cell_length_a 7.364659
_cell_length_b 29.803473
_cell_length_c 9.324459
_cell_angle_alpha 90.000000
_cell_angle_beta 90.000000
_cell_angle_gamma 90.000000
_cell_volume 2046.648031
_symmetry_space_group_name_H-M "P M M M"
_symmetry_group_IT_number 47
_symmetry_cell_setting 'orthorhombic'
loop_
_space_group_symop_operation_xyz
x,y,z
-x,-y,z
x,-y,-z
-x,y,-z
-x,-y,-z
x,y,-z
-x,y,z
x,-y,z
loop_
_atom_site_type_symbol
_atom_site_label
_atom_site_fract_x
_atom_site_fract_y
_atom_site_fract_z
Si Si1 0.221947 0.822078 0.164910
Si Si2 0.221508 0.911031 0.665277
Si Si3 0.778374 0.000000 0.165436
Si Si4 0.718277 0.354356 0.835657
Si Si5 0.716977 0.548284 0.173043
Si Si6 0.784534 0.735589 0.338454
O O1 0.278049 0.865847 0.253701
O O2 0.284724 0.776592 0.242040
O O3 0.000000 0.821940 0.163730
O O4 0.280103 0.824089 0.000000
O O5 0.279639 0.911769 0.500000
O O6 0.278949 0.955298 0.751053
O O7 0.000000 0.911149 0.664731
O O8 0.000000 0.000000 0.165067
O O9 0.720669 0.000000 0.000000
O O10 0.500000 0.357675 0.842776
O O11 0.784904 0.402913 0.778839
O O12 0.760227 0.312023 0.738228
O O13 0.782500 0.347511 0.000000
O O14 0.500000 0.547455 0.199209
O O15 0.788830 0.500000 0.225406
O O16 0.740909 0.548838 0.000000
O O17 0.710956 0.735702 0.500000
O O18 0.000000 0.742915 0.349057
#
# Coordination Sequence:
#
# PCOD9384389 Si02
#       6
#     8   8   4   8   8   8
#     4   9  16  26  40  56  74 100 137 179 219 259
#     4   9  15  22  32  47  69  97 130 169 213 260
#     4   9  15  21  29  43  65  95 132 171 210 253
#     4   9  17  29  47  71  94 115 143 181 224 267
#     4   7  10  19  38  64  90 112 136 171 215 260
#     4  10  20  32  45  62  86 118 154 187 220 262
#
# _framework density 21.498567999999999
#
# number of rings (size 3 to 8) (size 9 to 14) (size 15 to 20)
#    0.000    3.182    0.000    3.545    0.000    6.909 
#    0.000    0.000    0.000    1.091    0.000    6.364 
#    0.000    0.000    0.000    0.818    0.000   16.000 
#
# Total GULP energy -245518.050228 kJ/mol
# GULP energy per Si atom -5579.955687 kJ/mol
# Density = 2.144964 g / cm^3
# Si number density = 21.498568 Si / 1000 Ang^3
#
#
#
# Elastic Constant Matrix: (Units=GPa)
#
#
# Indices 1 2 3 4 5 6 
#
# 1 75.8795 3.0083 5.9601 0.0000 0.0000 0.0000
# 2 3.0083 265.0691 137.5471 0.0000 0.0000 0.0000
# 3 5.9601 137.5471 181.5422 0.0000 0.0000 0.0000
# 4 0.0000 0.0000 0.0000 -24.8944 0.0000 0.0000
# 5 0.0000 0.0000 0.0000 0.0000 -0.4481 0.0000
# 6 0.0000 0.0000 0.0000 0.0000 0.0000 11.0649
#
#
#
# Elastic Compliance Matrix: (Units=1/GPa)
#
#
# Indices 1 2 3 4 5 6 
#
# 1 0.013215 0.000124 -0.000528 0.000000 0.000000 0.000000
# 2 0.000124 0.006218 -0.004715 0.000000 0.000000 0.000000
# 3 -0.000528 -0.004715 0.009098 0.000000 0.000000 0.000000
# 4 0.000000 0.000000 0.000000 -0.040170 0.000000 0.000000
# 5 0.000000 0.000000 0.000000 0.000000 -2.231419 0.000000
# 6 0.000000 0.000000 0.000000 0.000000 0.000000 0.090376
#
#
# Mechanical properties :
#
#
# Convention : Reuss Voigt Hill
#
# Bulk Modulus (GPa) = 54.66441 90.61353 72.63897
# Shear Modulus (GPa) = -2.34045 22.20950 9.93453
#
# Velocity S-wave (km/s) = -1.04452 3.21763 2.15199
# Velocity P-wave (km/s) = 4.90179 7.48627 6.32739
#
# Compressibility (1/GPa) = 0.01829344
#
# Stress axis : x y z
#
# Youngs Moduli (GPa) = 75.66966 160.82523 109.91241
#
# Poissons Ratio (x) = -0.01992 0.05800
# Poissons Ratio (y) = -0.00937 0.51825
# Poissons Ratio (z) = 0.03993 0.75831
#
# Static dielectric constant tensor:
#      x y z
#    x 1.903900 0.000000 0.000000 
#    y 0.000000 1.773570 0.000000 
#    z 0.000000 0.000000 1.723040 
# 
# From -- ./inp_files/1982.got.cif
#   From: 2010.05.17/outbox.cif.g08.bks.cpg/sg47_1_cif.got.tgz:1982.got - 2010.06.03 20:15:42.
