data_PCOD9384803
_publ_section_title
;
Structure prediction by ZEFSAII (Michael W. Deem and Ramdas Pophale) SiO2 
 PCOD9384803
Probable space group: P M M M
;
_chemical_formula_sum "Si O2"
_cell_formula_units_Z 48
_cell_length_a 9.912825
_cell_length_b 7.602240
_cell_length_c 32.123040
_cell_angle_alpha 90.000000
_cell_angle_beta 90.000000
_cell_angle_gamma 90.000000
_cell_volume 2420.781846
_symmetry_space_group_name_H-M "P M M M"
_symmetry_group_IT_number 47
_symmetry_cell_setting 'orthorhombic'
loop_
_space_group_symop_operation_xyz
x,y,z
-x,-y,z
x,-y,-z
-x,y,-z
-x,-y,-z
x,y,-z
-x,y,z
x,-y,z
loop_
_atom_site_type_symbol
_atom_site_label
_atom_site_fract_x
_atom_site_fract_y
_atom_site_fract_z
Si Si1 0.651636 0.787965 0.952547
Si Si2 0.153150 0.789157 0.634713
Si Si3 0.344815 0.285017 0.195643
Si Si4 0.152259 0.709331 0.122459
Si Si5 0.163430 0.209117 0.455194
Si Si6 0.652101 0.288861 0.710713
O O1 0.500000 0.727918 0.940487
O O2 0.764122 0.734844 0.919790
O O3 0.648831 0.000000 0.953197
O O4 0.677677 0.728637 0.000000
O O5 0.207735 0.721266 0.589944
O O6 0.246404 0.754835 0.673997
O O7 0.000000 0.723293 0.641219
O O8 0.144484 0.000000 0.630241
O O9 0.500000 0.232418 0.187178
O O10 0.343667 0.500000 0.194879
O O11 0.241837 0.220565 0.160734
O O12 0.308983 0.229008 0.242712
O O13 0.141912 0.500000 0.128920
O O14 0.000000 0.780304 0.120512
O O15 0.209550 0.282810 0.500000
O O16 0.000000 0.224899 0.454396
O O17 0.193629 0.000000 0.456223
O O18 0.500000 0.224377 0.702065
O O19 0.646124 0.500000 0.712867
#
# Coordination Sequence:
#
# PCOD9384803 Si02
#       6
#     8   8   8   8   8   8
#     4   9  19  36  55  73  95 127 166 200 228 266
#     4   9  17  28  44  69  96 118 146 188 234 277
#     4   8  15  30  50  68  88 119 159 197 229 266
#     4  10  20  32  49  76 104 125 150 190 238 282
#     4   7  10  19  37  60  85 113 145 182 224 268
#     4   9  18  32  49  68  90 120 158 193 226 272
#
# _framework density 19.828305
#
# number of rings (size 3 to 8) (size 9 to 14) (size 15 to 20)
#    0.000    3.333    0.000    3.500    0.000    3.333 
#    0.000    5.000    0.000    2.000    0.000    5.833 
#    0.000    0.000    0.000    0.000    0.000    0.000 
#
# Total GULP energy -267412.627198 kJ/mol
# GULP energy per Si atom -5571.096400 kJ/mol
# Density = 1.978317 g / cm^3
# Si number density = 19.828305 Si / 1000 Ang^3
#
#
#
# Elastic Constant Matrix: (Units=GPa)
#
#
# Indices 1 2 3 4 5 6 
#
# 1 128.1790 5.4819 129.7984 0.0000 0.0000 0.0000
# 2 5.4819 39.3596 4.3433 0.0000 0.0000 0.0000
# 3 129.7984 4.3433 198.4500 0.0000 0.0000 0.0000
# 4 0.0000 0.0000 0.0000 19.4148 0.0000 0.0000
# 5 0.0000 0.0000 0.0000 0.0000 31.7108 0.0000
# 6 0.0000 0.0000 0.0000 0.0000 0.0000 14.9286
#
#
#
# Elastic Compliance Matrix: (Units=1/GPa)
#
#
# Indices 1 2 3 4 5 6 
#
# 1 0.023199 -0.001560 -0.015139 0.000000 0.000000 0.000000
# 2 -0.001560 0.025573 0.000461 0.000000 0.000000 0.000000
# 3 -0.015139 0.000461 0.014931 0.000000 0.000000 0.000000
# 4 0.000000 0.000000 0.000000 0.051507 0.000000 0.000000
# 5 0.000000 0.000000 0.000000 0.000000 0.031535 0.000000
# 6 0.000000 0.000000 0.000000 0.000000 0.000000 0.066985
#
#
# Mechanical properties :
#
#
# Convention : Reuss Voigt Hill
#
# Bulk Modulus (GPa) = 32.02517 71.69286 51.85902
# Shear Modulus (GPa) = 19.48430 28.30187 23.89308
#
# Velocity S-wave (km/s) = 3.13813 3.78212 3.47508
# Velocity P-wave (km/s) = 5.41450 7.43693 6.50479
#
# Compressibility (1/GPa) = 0.03122544
#
# Stress axis : x y z
#
# Youngs Moduli (GPa) = 43.10536 39.10337 66.97458
#
# Poissons Ratio (x) = 0.06102 1.01395
# Poissons Ratio (y) = 0.06726 -0.03087
# Poissons Ratio (z) = 0.65259 -0.01802
#
# Static dielectric constant tensor:
#      x y z
#    x 1.679170 0.000000 0.000000 
#    y 0.000000 1.771450 0.000000 
#    z 0.000000 0.000000 1.724900 
# 
# From -- ./inp_files/2478.got.cif
#   From: 2010.05.17/outbox.cif.g08.bks.cpg/sg47_2_cif.got.tgz:2478.got - 2010.06.03 20:15:42.
