data_PCOD9384756
_publ_section_title
;
Structure prediction by ZEFSAII (Michael W. Deem and Ramdas Pophale) SiO2 
 PCOD9384756
Probable space group: P M M M
;
_chemical_formula_sum "Si O2"
_cell_formula_units_Z 60
_cell_length_a 9.446507
_cell_length_b 19.058930
_cell_length_c 18.544388
_cell_angle_alpha 90.000000
_cell_angle_beta 90.000000
_cell_angle_gamma 90.000000
_cell_volume 3338.737469
_symmetry_space_group_name_H-M "P M M M"
_symmetry_group_IT_number 47
_symmetry_cell_setting 'orthorhombic'
loop_
_space_group_symop_operation_xyz
x,y,z
-x,-y,z
x,-y,-z
-x,y,-z
-x,-y,-z
x,y,-z
-x,y,z
x,-y,z
loop_
_atom_site_type_symbol
_atom_site_label
_atom_site_fract_x
_atom_site_fract_y
_atom_site_fract_z
Si Si1 0.664138 0.839173 0.197769
Si Si2 0.836506 0.000000 0.413993
Si Si3 0.837766 0.084020 0.920269
Si Si4 0.668193 0.140745 0.370067
Si Si5 0.841017 0.705378 0.787403
Si Si6 0.835970 0.717946 0.612412
Si Si7 0.664510 0.420412 0.606101
Si Si8 0.657872 0.420335 0.781162
O O1 0.500000 0.837781 0.180667
O O2 0.743757 0.892182 0.145871
O O3 0.678398 0.855463 0.282899
O O4 0.736119 0.764444 0.185412
O O5 0.750802 0.929787 0.392318
O O6 0.844891 0.000000 0.500000
O O7 0.000000 0.000000 0.385764
O O8 0.000000 0.107948 0.910263
O O9 0.839554 0.000000 0.921821
O O10 0.789115 0.108174 0.000000
O O11 0.500000 0.139336 0.388915
O O12 0.745145 0.211051 0.400945
O O13 0.839826 0.710514 0.699818
O O14 0.779665 0.630187 0.807671
O O15 0.000000 0.717063 0.812044
O O16 0.760039 0.646461 0.585003
O O17 0.000000 0.723992 0.588536
O O18 0.500000 0.410510 0.584491
O O19 0.708554 0.500000 0.584099
O O20 0.664613 0.420988 0.693642
O O21 0.500000 0.394314 0.799573
O O22 0.672635 0.500000 0.805638
#
# Coordination Sequence:
#
# PCOD9384756 Si02
#       8
#     8   4   8   8   8   8   8   8
#     4  10  20  32  49  73 100 129 165 205 243 289
#     4  11  25  43  61  81 104 129 162 207 255 302
#     4   9  19  35  52  71  97 129 162 197 242 293
#     4  10  21  36  54  76 102 133 168 207 253 304
#     4   9  16  25  38  58  86 120 158 199 243 287
#     4   9  16  26  41  63  92 125 163 205 248 293
#     4   8  13  21  34  54  84 124 164 199 240 292
#     4   8  13  21  33  50  77 115 155 194 239 289
#
# _framework density 17.970865
#
# number of rings (size 3 to 8) (size 9 to 14) (size 15 to 20)
#    0.000    2.867    0.000    3.000    0.933    6.400 
#    0.000    3.333    0.000    0.000    0.000    0.000 
#    0.000    1.067    0.000   11.200    0.000   15.467 
#
# Total GULP energy -334325.175492 kJ/mol
# GULP energy per Si atom -5572.086258 kJ/mol
# Density = 1.792996 g / cm^3
# Si number density = 17.970865 Si / 1000 Ang^3
#
#
#
# Elastic Constant Matrix: (Units=GPa)
#
#
# Indices 1 2 3 4 5 6 
#
# 1 132.7533 85.4891 32.1698 0.0000 0.0000 0.0000
# 2 85.4891 130.5757 16.9719 0.0000 0.0000 0.0000
# 3 32.1698 16.9719 28.7538 0.0000 0.0000 0.0000
# 4 0.0000 0.0000 0.0000 187.5853 0.0000 0.0000
# 5 0.0000 0.0000 0.0000 0.0000 -109.7119 0.0000
# 6 0.0000 0.0000 0.0000 0.0000 0.0000 37.1181
#
#
#
# Elastic Compliance Matrix: (Units=1/GPa)
#
#
# Indices 1 2 3 4 5 6 
#
# 1 0.016645 -0.009181 -0.013203 0.000000 0.000000 0.000000
# 2 -0.009181 0.013359 0.002387 0.000000 0.000000 0.000000
# 3 -0.013203 0.002387 0.048140 0.000000 0.000000 0.000000
# 4 0.000000 0.000000 0.000000 0.005331 0.000000 0.000000
# 5 0.000000 0.000000 0.000000 0.000000 -0.009115 0.000000
# 6 0.000000 0.000000 0.000000 0.000000 0.000000 0.026941
#
#
# Mechanical properties :
#
#
# Convention : Reuss Voigt Hill
#
# Bulk Modulus (GPa) = 26.21250 62.37157 44.29204
# Shear Modulus (GPa) = 32.46484 33.49511 32.97997
#
# Velocity S-wave (km/s) = 4.25494 4.32192 4.28856
# Velocity P-wave (km/s) = 6.22552 7.72579 7.01587
#
# Compressibility (1/GPa) = 0.03814974
#
# Stress axis : x y z
#
# Youngs Moduli (GPa) = 60.07929 74.85435 20.77256
#
# Poissons Ratio (x) = 0.68726 0.27426
# Poissons Ratio (y) = 0.55161 -0.04958
# Poissons Ratio (z) = 0.79321 -0.17866
#
# Static dielectric constant tensor:
#      x y z
#    x 1.613350 0.000000 0.000000 
#    y 0.000000 1.618970 0.000000 
#    z 0.000000 0.000000 1.609820 
# 
# From -- ./inp_files/29979.got.cif
#   From: 2010.05.17/outbox.cif.g08.bks.cpg/sg47_15_cif.got.tgz:29979.got - 2010.06.03 20:15:42.
