data_PCOD9384326
_publ_section_title
;
Structure prediction by ZEFSAII (Michael W. Deem and Ramdas Pophale) SiO2 
 PCOD9384326
Probable space group: P M M M
;
_chemical_formula_sum "Si O2"
_cell_formula_units_Z 36
_cell_length_a 26.276174
_cell_length_b 7.991379
_cell_length_c 9.104468
_cell_angle_alpha 90.000000
_cell_angle_beta 90.000000
_cell_angle_gamma 90.000000
_cell_volume 1911.782276
_symmetry_space_group_name_H-M "P M M M"
_symmetry_group_IT_number 47
_symmetry_cell_setting 'orthorhombic'
loop_
_space_group_symop_operation_xyz
x,y,z
-x,-y,z
x,-y,-z
-x,y,-z
-x,-y,-z
x,y,-z
-x,y,z
x,-y,z
loop_
_atom_site_type_symbol
_atom_site_label
_atom_site_fract_x
_atom_site_fract_y
_atom_site_fract_z
Si Si1 0.054839 0.701254 0.172096
Si Si2 0.630513 0.304699 0.822963
Si Si3 0.265405 0.700623 0.334555
Si Si4 0.836032 0.198557 0.832959
Si Si5 0.558344 0.000000 0.178955
O O1 0.054540 0.500000 0.174537
O O2 0.108919 0.756779 0.234737
O O3 0.000000 0.758536 0.234102
O O4 0.055461 0.754473 0.000000
O O5 0.620149 0.500000 0.780870
O O6 0.684770 0.249445 0.756937
O O7 0.588347 0.168807 0.776922
O O8 0.633851 0.301720 0.000000
O O9 0.267224 0.768413 0.500000
O O10 0.267656 0.500000 0.341660
O O11 0.212599 0.744319 0.257268
O O12 0.833934 0.000000 0.843134
O O13 0.833648 0.269433 0.000000
O O14 0.500000 0.000000 0.229295
O O15 0.557844 0.000000 0.000000
#
# Coordination Sequence:
#
# PCOD9384326 Si02
#       5
#     8   8   8   8   4
#     4   8  14  26  45  68  94 126 164 205 249 299
#     4   9  18  33  54  79 107 140 176 216 261 308
#     4  10  21  36  53  73  99 133 173 217 262 306
#     4  10  20  31  47  74 104 133 165 205 255 310
#     4   9  18  32  53  83 113 139 172 215 258 305
#
# _framework density 18.830597000000001
#
# number of rings (size 3 to 8) (size 9 to 14) (size 15 to 20)
#    0.000    2.778    0.000    2.000    1.556    3.556 
#    0.000    4.444    0.000    2.000    0.000    7.778 
#    0.000    0.000    0.000    0.000    0.000    0.000 
#
# Total GULP energy -200544.055001 kJ/mol
# GULP energy per Si atom -5570.668194 kJ/mol
# Density = 1.878774 g / cm^3
# Si number density = 18.830597 Si / 1000 Ang^3
#
#
#
# Elastic Constant Matrix: (Units=GPa)
#
#
# Indices 1 2 3 4 5 6 
#
# 1 215.0896 63.9852 42.5073 0.0000 0.0000 0.0000
# 2 63.9852 55.1967 21.3994 0.0000 0.0000 0.0000
# 3 42.5073 21.3994 26.5306 0.0000 0.0000 0.0000
# 4 0.0000 0.0000 0.0000 9.1540 0.0000 0.0000
# 5 0.0000 0.0000 0.0000 0.0000 -9.4847 0.0000
# 6 0.0000 0.0000 0.0000 0.0000 0.0000 46.8702
#
#
#
# Elastic Compliance Matrix: (Units=1/GPa)
#
#
# Indices 1 2 3 4 5 6 
#
# 1 0.008082 -0.006327 -0.007845 0.000000 0.000000 0.000000
# 2 -0.006327 0.031313 -0.015120 0.000000 0.000000 0.000000
# 3 -0.007845 -0.015120 0.062458 0.000000 0.000000 0.000000
# 4 0.000000 0.000000 0.000000 0.109242 0.000000 0.000000
# 5 0.000000 0.000000 0.000000 0.000000 -0.105433 0.000000
# 6 0.000000 0.000000 0.000000 0.000000 0.000000 0.021336
#
#
# Mechanical properties :
#
#
# Convention : Reuss Voigt Hill
#
# Bulk Modulus (GPa) = 23.11163 61.40008 42.25585
# Shear Modulus (GPa) = 24.99941 20.56957 22.78449
#
# Velocity S-wave (km/s) = 3.64757 3.30865 3.48224
# Velocity P-wave (km/s) = 5.48086 6.87558 6.21745
#
# Compressibility (1/GPa) = 0.04326826
#
# Stress axis : x y z
#
# Youngs Moduli (GPa) = 123.73394 31.93524 16.01082
#
# Poissons Ratio (x) = 0.20206 0.12561
# Poissons Ratio (y) = 0.78287 0.24208
# Poissons Ratio (z) = 0.97074 0.48286
#
# Static dielectric constant tensor:
#      x y z
#    x 1.665710 0.000000 0.000000 
#    y 0.000000 1.662170 0.000000 
#    z 0.000000 0.000000 1.651540 
# 
# From -- ./inp_files/12056.got.cif
#   From: 2010.05.17/outbox.cif.g08.bks.cpg/sg47_7_cif.got.tgz:12056.got - 2010.06.03 20:15:42.
