data_PCOD9384742
_publ_section_title
;
Structure prediction by ZEFSAII (Michael W. Deem and Ramdas Pophale) SiO2 
 PCOD9384742
Probable space group: P M M M
;
_chemical_formula_sum "Si O2"
_cell_formula_units_Z 56
_cell_length_a 23.553996
_cell_length_b 14.757229
_cell_length_c 8.417865
_cell_angle_alpha 90.000000
_cell_angle_beta 90.000000
_cell_angle_gamma 90.000000
_cell_volume 2925.980114
_symmetry_space_group_name_H-M "P M M M"
_symmetry_group_IT_number 47
_symmetry_cell_setting 'orthorhombic'
loop_
_space_group_symop_operation_xyz
x,y,z
-x,-y,z
x,-y,-z
-x,y,-z
-x,-y,-z
x,y,-z
-x,y,z
x,-y,z
loop_
_atom_site_type_symbol
_atom_site_label
_atom_site_fract_x
_atom_site_fract_y
_atom_site_fract_z
Si Si1 0.768639 0.898126 0.812516
Si Si2 0.641319 0.100192 0.311674
Si Si3 0.068896 0.000000 0.819558
Si Si4 0.391072 0.287334 0.188765
Si Si5 0.500000 0.395231 0.690764
Si Si6 0.719182 0.395119 0.692906
Si Si7 0.824530 0.719302 0.312392
Si Si8 0.064626 0.803105 0.308338
O O1 0.701347 0.894533 0.779095
O O2 0.796513 0.817576 0.714929
O O3 0.787854 0.000000 0.768630
O O4 0.779031 0.884594 0.000000
O O5 0.652929 0.106518 0.500000
O O6 0.605474 0.186297 0.259255
O O7 0.616627 0.000000 0.280387
O O8 0.083560 0.095126 0.738652
O O9 0.000000 0.000000 0.821575
O O10 0.090022 0.000000 0.000000
O O11 0.443952 0.346263 0.246358
O O12 0.332815 0.334484 0.246574
O O13 0.390315 0.282136 0.000000
O O14 0.500000 0.500000 0.740744
O O15 0.500000 0.391875 0.500000
O O16 0.718444 0.391047 0.500000
O O17 0.712664 0.500000 0.739786
O O18 0.779128 0.353181 0.750703
O O19 0.829552 0.701262 0.500000
O O20 0.888453 0.731760 0.248366
O O21 0.063510 0.799450 0.500000
O O22 0.000000 0.788637 0.250844
#
# Coordination Sequence:
#
# PCOD9384742 Si02
#       8
#     8   8   4   8   4   8   8   8
#     4  10  20  32  48  76 112 146 181 228 280 329
#     4  10  20  36  59  85 117 158 198 232 271 330
#     4   9  17  29  45  67  97 135 177 220 271 328
#     4  12  24  39  62  92 124 154 188 235 287 336
#     4  11  25  45  68  91 118 157 201 242 286 339
#     4  10  21  38  59  82 110 145 187 234 285 342
#     4  10  20  33  52  76 103 142 187 230 279 338
#     4   9  18  32  48  68  98 138 183 227 272 328
#
# _framework density 19.138885999999999
#
# number of rings (size 3 to 8) (size 9 to 14) (size 15 to 20)
#    0.000    1.857    1.429    3.000    1.000    5.714 
#    0.000    0.357    0.000    2.571    0.000    3.000 
#    0.000    0.000    0.000    6.143    0.000    6.571 
#
# Total GULP energy -312630.738459 kJ/mol
# GULP energy per Si atom -5582.691758 kJ/mol
# Density = 1.909532 g / cm^3
# Si number density = 19.138886 Si / 1000 Ang^3
#
#
#
# Elastic Constant Matrix: (Units=GPa)
#
#
# Indices 1 2 3 4 5 6 
#
# 1 101.3293 58.8134 15.0563 0.0000 0.0000 0.0000
# 2 58.8134 118.6936 17.5096 0.0000 0.0000 0.0000
# 3 15.0563 17.5096 27.2647 0.0000 0.0000 0.0000
# 4 0.0000 0.0000 0.0000 2.3056 0.0000 0.0000
# 5 0.0000 0.0000 0.0000 0.0000 -3.0142 0.0000
# 6 0.0000 0.0000 0.0000 0.0000 0.0000 24.0323
#
#
#
# Elastic Compliance Matrix: (Units=1/GPa)
#
#
# Indices 1 2 3 4 5 6 
#
# 1 0.014177 -0.006484 -0.003665 0.000000 0.000000 0.000000
# 2 -0.006484 0.012272 -0.004301 0.000000 0.000000 0.000000
# 3 -0.003665 -0.004301 0.041463 0.000000 0.000000 0.000000
# 4 0.000000 0.000000 0.000000 0.433721 0.000000 0.000000
# 5 0.000000 0.000000 0.000000 0.000000 -0.331762 0.000000
# 6 0.000000 0.000000 0.000000 0.000000 0.000000 0.041611
#
#
# Mechanical properties :
#
#
# Convention : Reuss Voigt Hill
#
# Bulk Modulus (GPa) = 25.63225 47.78291 36.70758
# Shear Modulus (GPa) = 19.73276 15.05862 17.39569
#
# Velocity S-wave (km/s) = 3.21445 2.80805 3.01810
# Velocity P-wave (km/s) = 5.21524 5.96105 5.60058
#
# Compressibility (1/GPa) = 0.03901335
#
# Stress axis : x y z
#
# Youngs Moduli (GPa) = 70.53758 81.48362 24.11780
#
# Poissons Ratio (x) = 0.52835 0.08838
# Poissons Ratio (y) = 0.45737 0.10372
# Poissons Ratio (z) = 0.25850 0.35044
#
# Static dielectric constant tensor:
#      x y z
#    x 1.706920 0.000000 0.000000 
#    y 0.000000 1.658150 0.000000 
#    z 0.000000 0.000000 1.650970 
# 
# From -- ./inp_files/7463.got.cif
#   From: 2010.05.17/outbox.cif.g08.bks.cpg/sg47_4_cif.got.tgz:7463.got - 2010.06.03 20:15:42.
