data_PCOD9384598
_publ_section_title
;
Structure prediction by ZEFSAII (Michael W. Deem and Ramdas Pophale) SiO2 
 PCOD9384598
Probable space group: P M M M
;
_chemical_formula_sum "Si O2"
_cell_formula_units_Z 44
_cell_length_a 8.439045
_cell_length_b 9.673548
_cell_length_c 29.466783
_cell_angle_alpha 90.000000
_cell_angle_beta 90.000000
_cell_angle_gamma 90.000000
_cell_volume 2405.535766
_symmetry_space_group_name_H-M "P M M M"
_symmetry_group_IT_number 47
_symmetry_cell_setting 'orthorhombic'
loop_
_space_group_symop_operation_xyz
x,y,z
-x,-y,z
x,-y,-z
-x,y,-z
-x,-y,-z
x,y,-z
-x,y,z
x,-y,z
loop_
_atom_site_type_symbol
_atom_site_label
_atom_site_fract_x
_atom_site_fract_y
_atom_site_fract_z
Si Si1 0.182749 0.831925 0.000000
Si Si2 0.689190 0.840382 0.732303
Si Si3 0.191367 0.658541 0.815343
Si Si4 0.810984 0.159172 0.633908
Si Si5 0.194169 0.839758 0.900804
Si Si6 0.691112 0.661247 0.550722
O O1 0.251746 0.794011 0.049072
O O2 0.000000 0.783271 0.000000
O O3 0.178908 0.000000 0.000000
O O4 0.500000 0.840551 0.735327
O O5 0.757303 0.742549 0.771030
O O6 0.739027 0.794029 0.681907
O O7 0.745724 0.000000 0.738134
O O8 0.247264 0.500000 0.814663
O O9 0.245778 0.741384 0.860111
O O10 0.000000 0.656602 0.816626
O O11 0.759350 0.249660 0.591363
O O12 0.000000 0.161847 0.637999
O O13 0.759190 0.000000 0.626972
O O14 0.000000 0.838614 0.902323
O O15 0.239993 0.000000 0.892845
O O16 0.741393 0.706639 0.500000
O O17 0.500000 0.668802 0.552210
O O18 0.735052 0.500000 0.555775
#
# Coordination Sequence:
#
# PCOD9384598 Si02
#       6
#     4   8   8   8   8   8
#     4   7  10  18  35  61  90 121 160 201 240 284
#     4  10  21  37  56  75  95 125 167 210 252 300
#     4  10  20  32  47  71 102 133 165 201 245 298
#     4  10  21  36  55  80 107 133 164 206 255 303
#     4   8  13  23  41  64  92 127 164 202 243 287
#     4   9  19  36  56  78 106 141 178 211 244 287
#
# _framework density 18.291143000000002
#
# number of rings (size 3 to 8) (size 9 to 14) (size 15 to 20)
#    0.000    2.818    0.000    3.273    0.000    5.091 
#    0.000    3.182    0.000    2.727    0.000    0.636 
#    0.000    5.091    0.000    0.000    0.000    0.000 
#
# Total GULP energy -245306.217521 kJ/mol
# GULP energy per Si atom -5575.141307 kJ/mol
# Density = 1.824951 g / cm^3
# Si number density = 18.291143 Si / 1000 Ang^3
#
#
#
# Elastic Constant Matrix: (Units=GPa)
#
#
# Indices 1 2 3 4 5 6 
#
# 1 9.1051 16.7832 21.1235 0.0000 0.0000 0.0000
# 2 16.7832 91.1729 103.4707 0.0000 0.0000 0.0000
# 3 21.1235 103.4707 201.3312 0.0000 0.0000 0.0000
# 4 0.0000 0.0000 0.0000 -35.6924 0.0000 0.0000
# 5 0.0000 0.0000 0.0000 0.0000 207.9272 0.0000
# 6 0.0000 0.0000 0.0000 0.0000 0.0000 19.8067
#
#
#
# Elastic Compliance Matrix: (Units=1/GPa)
#
#
# Indices 1 2 3 4 5 6 
#
# 1 0.167667 -0.026155 -0.004150 0.000000 0.000000 0.000000
# 2 -0.026155 0.030399 -0.012879 0.000000 0.000000 0.000000
# 3 -0.004150 -0.012879 0.012021 0.000000 0.000000 0.000000
# 4 0.000000 0.000000 0.000000 -0.028017 0.000000 0.000000
# 5 0.000000 0.000000 0.000000 0.000000 0.004809 0.000000
# 6 0.000000 0.000000 0.000000 0.000000 0.000000 0.050488
#
#
# Mechanical properties :
#
#
# Convention : Reuss Voigt Hill
#
# Bulk Modulus (GPa) = 8.08277 64.92932 36.50604
# Shear Modulus (GPa) = 13.69964 49.09043 31.39503
#
# Velocity S-wave (km/s) = 2.73971 5.18620 4.14745
# Velocity P-wave (km/s) = 3.79955 8.45204 6.55261
#
# Compressibility (1/GPa) = 0.12371994
#
# Stress axis : x y z
#
# Youngs Moduli (GPa) = 5.96421 32.89619 83.18715
#
# Poissons Ratio (x) = 0.86040 0.34519
# Poissons Ratio (y) = 0.15599 1.07134
# Poissons Ratio (z) = 0.02475 0.42366
#
# Static dielectric constant tensor:
#      x y z
#    x 1.635700 0.000000 0.000000 
#    y 0.000000 1.615400 0.000000 
#    z 0.000000 0.000000 1.627100 
# 
# From -- ./inp_files/13595.got.cif
#   From: 2010.05.17/outbox.cif.g08.bks.cpg/sg47_7_cif.got.tgz:13595.got - 2010.06.03 20:15:42.
