data_PCOD9384890
_publ_section_title
;
Structure prediction by ZEFSAII (Michael W. Deem and Ramdas Pophale) SiO2 
 PCOD9384890
Probable space group: P M M M
;
_chemical_formula_sum "Si O2"
_cell_formula_units_Z 52
_cell_length_a 16.457802
_cell_length_b 9.883240
_cell_length_c 24.278585
_cell_angle_alpha 90.000000
_cell_angle_beta 90.000000
_cell_angle_gamma 90.000000
_cell_volume 3949.067404
_symmetry_space_group_name_H-M "P M M M"
_symmetry_group_IT_number 47
_symmetry_cell_setting 'orthorhombic'
loop_
_space_group_symop_operation_xyz
x,y,z
-x,-y,z
x,-y,-z
-x,y,-z
-x,-y,-z
x,y,-z
-x,y,z
x,-y,z
loop_
_atom_site_type_symbol
_atom_site_label
_atom_site_fract_x
_atom_site_fract_y
_atom_site_fract_z
Si Si1 0.098838 0.845164 0.936867
Si Si2 0.176466 0.250591 0.380635
Si Si3 0.901582 0.344297 0.838029
Si Si4 0.500000 0.843326 0.433560
Si Si5 0.656784 0.338248 0.565951
Si Si6 0.096771 0.161805 0.731345
Si Si7 0.095743 0.500000 0.562279
Si Si8 0.907802 0.000000 0.565005
O O1 0.126962 0.734865 0.892722
O O2 0.000000 0.843627 0.936077
O O3 0.122592 0.000000 0.922596
O O4 0.123464 0.817475 0.000000
O O5 0.268034 0.288537 0.397032
O O6 0.153173 0.214079 0.318241
O O7 0.123774 0.373735 0.402866
O O8 0.143561 0.126172 0.415644
O O9 0.872873 0.500000 0.833644
O O10 0.883982 0.250102 0.785384
O O11 0.000000 0.350312 0.841136
O O12 0.500000 0.851590 0.500000
O O13 0.579260 0.754331 0.419466
O O14 0.500000 0.000000 0.413262
O O15 0.674027 0.319726 0.500000
O O16 0.642926 0.500000 0.573674
O O17 0.000000 0.181821 0.718441
O O18 0.107688 0.000000 0.739649
O O19 0.131508 0.500000 0.500000
O O20 0.000000 0.500000 0.556917
O O21 0.915159 0.000000 0.500000
O O22 0.000000 0.000000 0.588743
#
# Coordination Sequence:
#
# PCOD9384890 Si02
#       8
#     8   8   8   4   8   8   4   4
#     4   8  13  22  36  53  73  97 124 157 202 252
#     4  12  22  33  48  65  83 109 142 175 213 257
#     4   9  17  26  38  55  73  97 130 170 211 247
#     4   9  19  33  53  75  89 103 123 155 200 253
#     4  10  20  35  51  68  89 109 129 158 206 264
#     4  10  20  33  44  55  76 108 144 178 212 249
#     4  11  22  34  46  61  83 109 138 173 213 257
#     4  11  22  34  46  61  83 109 140 179 219 253
#
# _framework density 13.167666000000001
#
# number of rings (size 3 to 8) (size 9 to 14) (size 15 to 20)
#    0.000    2.077    1.538    3.923    2.154    4.308 
#    0.000    1.538    0.000    0.000    0.000    0.000 
#    0.000    0.000    0.000    0.000    0.000    0.000 
#
# Total GULP energy -289644.923336 kJ/mol
# GULP energy per Si atom -5570.094680 kJ/mol
# Density = 1.313770 g / cm^3
# Si number density = 13.167666 Si / 1000 Ang^3
#
#
#
# Elastic Constant Matrix: (Units=GPa)
#
#
# Indices 1 2 3 4 5 6 
#
# 1 64.1875 42.3740 25.8835 0.0000 0.0000 0.0000
# 2 42.3740 138.1861 62.4825 0.0000 0.0000 0.0000
# 3 25.8835 62.4825 88.2312 0.0000 0.0000 0.0000
# 4 0.0000 0.0000 0.0000 -9.8095 0.0000 0.0000
# 5 0.0000 0.0000 0.0000 0.0000 4.8542 0.0000
# 6 0.0000 0.0000 0.0000 0.0000 0.0000 27.6092
#
#
#
# Elastic Compliance Matrix: (Units=1/GPa)
#
#
# Indices 1 2 3 4 5 6 
#
# 1 0.019826 -0.005074 -0.002222 0.000000 0.000000 0.000000
# 2 -0.005074 0.011944 -0.006970 0.000000 0.000000 0.000000
# 3 -0.002222 -0.006970 0.016922 0.000000 0.000000 0.000000
# 4 0.000000 0.000000 0.000000 -0.101942 0.000000 0.000000
# 5 0.000000 0.000000 0.000000 0.000000 0.206005 0.000000
# 6 0.000000 0.000000 0.000000 0.000000 0.000000 0.036220
#
#
# Mechanical properties :
#
#
# Convention : Reuss Voigt Hill
#
# Bulk Modulus (GPa) = 49.60848 61.34275 55.47562
# Shear Modulus (GPa) = 22.29877 15.18844 18.74360
#
# Velocity S-wave (km/s) = 4.11962 3.39995 3.77697
# Velocity P-wave (km/s) = 7.77075 7.88035 7.82574
#
# Compressibility (1/GPa) = 0.02015785
#
# Stress axis : x y z
#
# Youngs Moduli (GPa) = 50.44002 83.72285 59.09597
#
# Poissons Ratio (x) = 0.42485 0.13134
# Poissons Ratio (y) = 0.25596 0.41189
# Poissons Ratio (z) = 0.11210 0.58353
#
# Static dielectric constant tensor:
#      x y z
#    x 1.414270 0.000000 0.000000 
#    y 0.000000 1.436540 0.000000 
#    z 0.000000 0.000000 1.435520 
# 
# From -- ./inp_files/32680.got.cif
#   From: 2010.05.17/outbox.cif.g08.bks.cpg/sg47_17_cif.got.tgz:32680.got - 2010.06.03 20:15:42.
