data_PCOD9384113
_publ_section_title
;
Structure prediction by ZEFSAII (Michael W. Deem and Ramdas Pophale) SiO2 
 PCOD9384113
Probable space group: P M M M
;
_chemical_formula_sum "Si O2"
_cell_formula_units_Z 56
_cell_length_a 8.183912
_cell_length_b 19.544596
_cell_length_c 22.164535
_cell_angle_alpha 90.000000
_cell_angle_beta 90.000000
_cell_angle_gamma 90.000000
_cell_volume 3545.245162
_symmetry_space_group_name_H-M "P M M M"
_symmetry_group_IT_number 47
_symmetry_cell_setting 'orthorhombic'
loop_
_space_group_symop_operation_xyz
x,y,z
-x,-y,z
x,-y,-z
-x,y,-z
-x,-y,-z
x,y,-z
-x,y,z
x,-y,z
loop_
_atom_site_type_symbol
_atom_site_label
_atom_site_fract_x
_atom_site_fract_y
_atom_site_fract_z
Si Si1 0.801964 0.211666 0.432742
Si Si2 0.307506 0.710012 0.685916
Si Si3 0.186011 0.583117 0.500000
Si Si4 0.196762 0.923334 0.368248
Si Si5 0.304240 0.156876 0.750386
Si Si6 0.196342 0.422622 0.632108
Si Si7 0.197833 0.921107 0.131559
Si Si8 0.188792 0.083116 0.000000
O O1 0.751658 0.231699 0.500000
O O2 0.729219 0.256087 0.379073
O O3 0.754702 0.133233 0.417576
O O4 0.000000 0.216824 0.429320
O O5 0.500000 0.703743 0.694656
O O6 0.243458 0.766580 0.733421
O O7 0.236237 0.634165 0.681417
O O8 0.175001 0.500000 0.500000
O O9 0.261056 0.599188 0.434724
O O10 0.000000 0.611604 0.500000
O O11 0.245817 0.893134 0.303241
O O12 0.000000 0.926292 0.369692
O O13 0.260594 0.000000 0.377270
O O14 0.500000 0.158206 0.748630
O O15 0.248638 0.127338 0.814087
O O16 0.253162 0.500000 0.645195
O O17 0.000000 0.425270 0.625672
O O18 0.260444 0.898296 0.065257
O O19 0.000000 0.922467 0.128544
O O20 0.250901 0.000000 0.142706
O O21 0.000000 0.106771 0.000000
O O22 0.185468 0.000000 0.000000
#
# Coordination Sequence:
#
# PCOD9384113 Si02
#       8
#     8   8   4   8   8   8   8   4
#     4   9  18  31  45  59  75  99 130 166 213 261
#     4  10  21  33  43  58  83 111 137 168 204 245
#     4   7  12  24  41  61  81  97 116 147 192 245
#     4   9  17  29  44  60  76  96 130 175 216 255
#     4  10  20  31  41  57  83 114 144 172 205 242
#     4   9  17  30  48  67  84 103 129 163 205 253
#     4   9  16  27  45  66  87 113 145 179 212 246
#     4   7  12  24  41  63  89 113 138 171 212 251
#
# _framework density 15.795806000000001
#
# number of rings (size 3 to 8) (size 9 to 14) (size 15 to 20)
#    0.000    3.000    0.000    3.000    1.000    4.857 
#    0.000    1.786    0.000    2.571    0.000    4.000 
#    0.000    0.000    0.000    0.643    0.000   12.571 
#
# Total GULP energy -311879.173050 kJ/mol
# GULP energy per Si atom -5569.270947 kJ/mol
# Density = 1.575985 g / cm^3
# Si number density = 15.795806 Si / 1000 Ang^3
#
#
#
# Elastic Constant Matrix: (Units=GPa)
#
#
# Indices 1 2 3 4 5 6 
#
# 1 3.1930 7.1696 -2.7041 0.0000 0.0000 0.0000
# 2 7.1696 95.1141 29.3869 0.0000 0.0000 0.0000
# 3 -2.7041 29.3869 75.2944 0.0000 0.0000 0.0000
# 4 0.0000 0.0000 0.0000 15.6307 0.0000 0.0000
# 5 0.0000 0.0000 0.0000 0.0000 -12.9695 0.0000
# 6 0.0000 0.0000 0.0000 0.0000 0.0000 82.8062
#
#
#
# Elastic Compliance Matrix: (Units=1/GPa)
#
#
# Indices 1 2 3 4 5 6 
#
# 1 0.437236 -0.042995 0.032483 0.000000 0.000000 0.000000
# 2 -0.042995 0.016183 -0.007860 0.000000 0.000000 0.000000
# 3 0.032483 -0.007860 0.017516 0.000000 0.000000 0.000000
# 4 0.000000 0.000000 0.000000 0.063977 0.000000 0.000000
# 5 0.000000 0.000000 0.000000 0.000000 -0.077104 0.000000
# 6 0.000000 0.000000 0.000000 0.000000 0.000000 0.012076
#
#
# Mechanical properties :
#
#
# Convention : Reuss Voigt Hill
#
# Bulk Modulus (GPa) = 2.30313 26.81181 14.55747
# Shear Modulus (GPa) = 7.67628 26.41008 17.04318
#
# Velocity S-wave (km/s) = 2.20686 4.09341 3.28833
# Velocity P-wave (km/s) = 2.82044 6.27313 4.86349
#
# Compressibility (1/GPa) = 0.43419164
#
# Stress axis : x y z
#
# Youngs Moduli (GPa) = 2.28709 61.79283 57.09199
#
# Poissons Ratio (x) = 2.65675 -1.85453
# Poissons Ratio (y) = 0.09833 0.44876
# Poissons Ratio (z) = -0.07429 0.48571
#
# Static dielectric constant tensor:
#      x y z
#    x 1.564240 0.000000 0.000000 
#    y 0.000000 1.563190 0.000000 
#    z 0.000000 0.000000 1.531650 
# 
# From -- ./inp_files/30084.got.cif
#   From: 2010.05.17/outbox.cif.g08.bks.cpg/sg47_16_cif.got.tgz:30084.got - 2010.06.03 20:15:42.
