data_PCOD9384974
_publ_section_title
;
Structure prediction by ZEFSAII (Michael W. Deem and Ramdas Pophale) SiO2 
 PCOD9384974
Probable space group: P M M M
;
_chemical_formula_sum "Si O2"
_cell_formula_units_Z 44
_cell_length_a 9.375806
_cell_length_b 19.026040
_cell_length_c 14.939455
_cell_angle_alpha 90.000000
_cell_angle_beta 90.000000
_cell_angle_gamma 90.000000
_cell_volume 2664.966613
_symmetry_space_group_name_H-M "P M M M"
_symmetry_group_IT_number 47
_symmetry_cell_setting 'orthorhombic'
loop_
_space_group_symop_operation_xyz
x,y,z
-x,-y,z
x,-y,-z
-x,y,-z
-x,-y,-z
x,y,-z
-x,y,z
x,-y,z
loop_
_atom_site_type_symbol
_atom_site_label
_atom_site_fract_x
_atom_site_fract_y
_atom_site_fract_z
Si Si1 0.672161 0.355385 0.107115
Si Si2 0.165158 0.249307 0.239545
Si Si3 0.836748 0.500000 0.892747
Si Si4 0.666895 0.000000 0.351964
Si Si5 0.845264 0.129036 0.095067
Si Si6 0.830862 0.145969 0.395529
Si Si7 0.659731 0.000000 0.862621
O O1 0.500000 0.358079 0.114408
O O2 0.738014 0.303226 0.182462
O O3 0.746629 0.430160 0.127848
O O4 0.703032 0.338829 0.000000
O O5 0.162458 0.182326 0.174779
O O6 0.213045 0.212386 0.332878
O O7 0.000000 0.275241 0.248835
O O8 0.000000 0.500000 0.856581
O O9 0.849756 0.500000 0.000000
O O10 0.746002 0.927460 0.380203
O O11 0.500000 0.000000 0.381081
O O12 0.669382 0.000000 0.244554
O O13 0.731563 0.069484 0.102450
O O14 0.000000 0.093886 0.098482
O O15 0.833361 0.167346 0.000000
O O16 0.816831 0.164072 0.500000
O O17 0.000000 0.133296 0.376160
O O18 0.500000 0.000000 0.891391
#
# Coordination Sequence:
#
# PCOD9384974 Si02
#       7
#     8   8   4   4   8   8   4
#     4  10  20  33  51  78 112 145 174 206 244 288
#     4  10  20  34  52  73 100 131 167 209 253 304
#     4   9  17  31  53  79 108 143 180 211 239 280
#     4  11  22  35  52  73  97 126 163 212 267 322
#     4  10  20  33  49  67  89 124 168 207 246 297
#     4  10  21  37  57  77  96 125 168 217 266 314
#     4  11  22  33  46  65  91 124 163 204 251 303
#
# _framework density 16.510525000000001
#
# number of rings (size 3 to 8) (size 9 to 14) (size 15 to 20)
#    0.000    1.909    1.818    2.455    0.000    8.000 
#    0.000    0.000    0.000    0.000    0.000    0.636 
#    0.000    5.091    0.000    0.000    0.000    0.000 
#
# Total GULP energy -244953.143614 kJ/mol
# GULP energy per Si atom -5567.116900 kJ/mol
# Density = 1.647295 g / cm^3
# Si number density = 16.510525 Si / 1000 Ang^3
#
#
#
# Elastic Constant Matrix: (Units=GPa)
#
#
# Indices 1 2 3 4 5 6 
#
# 1 108.8249 66.2904 41.4018 0.0000 0.0000 0.0000
# 2 66.2904 98.8303 45.8542 0.0000 0.0000 0.0000
# 3 41.4018 45.8542 103.2818 0.0000 0.0000 0.0000
# 4 0.0000 0.0000 0.0000 13.2852 0.0000 0.0000
# 5 0.0000 0.0000 0.0000 0.0000 18.4556 0.0000
# 6 0.0000 0.0000 0.0000 0.0000 0.0000 33.0759
#
#
#
# Elastic Compliance Matrix: (Units=1/GPa)
#
#
# Indices 1 2 3 4 5 6 
#
# 1 0.015878 -0.009694 -0.002061 0.000000 0.000000 0.000000
# 2 -0.009694 0.018662 -0.004399 0.000000 0.000000 0.000000
# 3 -0.002061 -0.004399 0.012462 0.000000 0.000000 0.000000
# 4 0.000000 0.000000 0.000000 0.075272 0.000000 0.000000
# 5 0.000000 0.000000 0.000000 0.000000 0.054184 0.000000
# 6 0.000000 0.000000 0.000000 0.000000 0.000000 0.030234
#
#
# Mechanical properties :
#
#
# Convention : Reuss Voigt Hill
#
# Bulk Modulus (GPa) = 68.06091 68.66999 68.36545
# Shear Modulus (GPa) = 20.50038 23.45604 21.97821
#
# Velocity S-wave (km/s) = 3.52754 3.77327 3.65247
# Velocity P-wave (km/s) = 7.60944 7.78880 7.69964
#
# Compressibility (1/GPa) = 0.01469272
#
# Stress axis : x y z
#
# Youngs Moduli (GPa) = 62.97882 53.58535 80.24622
#
# Poissons Ratio (x) = 0.51946 0.16540
# Poissons Ratio (y) = 0.61052 0.35303
# Poissons Ratio (z) = 0.12981 0.23574
#
# Static dielectric constant tensor:
#      x y z
#    x 1.583590 0.000000 0.000000 
#    y 0.000000 1.534140 0.000000 
#    z 0.000000 0.000000 1.582780 
# 
# From -- ./inp_files/20960.got.cif
#   From: 2010.05.17/outbox.cif.g08.bks.cpg/sg47_11_cif.got.tgz:20960.got - 2010.06.03 20:15:42.
