data_PCOD9384180
_publ_section_title
;
Structure prediction by ZEFSAII (Michael W. Deem and Ramdas Pophale) SiO2 
 PCOD9384180
Probable space group: P M M M
;
_chemical_formula_sum "Si O2"
_cell_formula_units_Z 52
_cell_length_a 21.017463
_cell_length_b 8.113095
_cell_length_c 14.634491
_cell_angle_alpha 90.000000
_cell_angle_beta 90.000000
_cell_angle_gamma 90.000000
_cell_volume 2495.424731
_symmetry_space_group_name_H-M "P M M M"
_symmetry_group_IT_number 47
_symmetry_cell_setting 'orthorhombic'
loop_
_space_group_symop_operation_xyz
x,y,z
-x,-y,z
x,-y,-z
-x,y,-z
-x,-y,-z
x,y,-z
-x,y,z
x,-y,z
loop_
_atom_site_type_symbol
_atom_site_label
_atom_site_fract_x
_atom_site_fract_y
_atom_site_fract_z
Si Si1 0.263341 0.186184 0.642659
Si Si2 0.000000 0.701558 0.394783
Si Si3 0.569378 0.802604 0.199349
Si Si4 0.701918 0.810983 0.142584
Si Si5 0.836869 0.306046 0.097532
Si Si6 0.129943 0.300579 0.700728
Si Si7 0.396788 0.308412 0.401387
O O1 0.280894 0.182500 0.750036
O O2 0.191244 0.248694 0.641306
O O3 0.319954 0.291999 0.600507
O O4 0.267537 0.000000 0.607615
O O5 0.935910 0.754759 0.343657
O O6 0.000000 0.500000 0.393978
O O7 0.000000 0.754165 0.500000
O O8 0.500000 0.738520 0.172494
O O9 0.630606 0.739264 0.143333
O O10 0.578845 0.772778 0.308036
O O11 0.570468 0.000000 0.186587
O O12 0.760419 0.714099 0.100164
O O13 0.702192 0.000000 0.108478
O O14 0.852200 0.500000 0.097468
O O15 0.862065 0.238356 0.194428
O O16 0.859501 0.235052 0.000000
O O17 0.130630 0.500000 0.704016
O O18 0.418665 0.240899 0.500000
O O19 0.414375 0.500000 0.396978
#
# Coordination Sequence:
#
# PCOD9384180 Si02
#       7
#     8   4   8   8   8   8   8
#     4   9  17  30  48  68  90 118 154 198 246 291
#     4   9  18  32  50  72  98 131 169 203 238 284
#     4   9  18  32  48  65  88 121 159 198 243 294
#     4   8  15  28  46  68  91 116 150 190 232 283
#     4   9  17  29  47  72  99 125 155 194 241 290
#     4   9  17  31  50  71  98 130 162 198 240 287
#     4  10  20  31  43  63  91 121 157 203 250 296
#
# _framework density 20.838137
#
# number of rings (size 3 to 8) (size 9 to 14) (size 15 to 20)
#    0.000    3.000    0.000    1.846    0.000    6.462 
#    0.000    3.846    0.000    3.231    0.000    3.231 
#    0.000    4.923    0.000    0.000    0.000    0.000 
#
# Total GULP energy -289705.155467 kJ/mol
# GULP energy per Si atom -5571.252990 kJ/mol
# Density = 2.079071 g / cm^3
# Si number density = 20.838137 Si / 1000 Ang^3
#
#
#
# Elastic Constant Matrix: (Units=GPa)
#
#
# Indices 1 2 3 4 5 6 
#
# 1 139.2465 -1.1922 25.3225 0.0000 0.0000 0.0000
# 2 -1.1922 16.0323 -2.3260 0.0000 0.0000 0.0000
# 3 25.3225 -2.3260 82.7322 0.0000 0.0000 0.0000
# 4 0.0000 0.0000 0.0000 53.1532 0.0000 0.0000
# 5 0.0000 0.0000 0.0000 0.0000 2.0748 0.0000
# 6 0.0000 0.0000 0.0000 0.0000 0.0000 18.2771
#
#
#
# Elastic Compliance Matrix: (Units=1/GPa)
#
#
# Indices 1 2 3 4 5 6 
#
# 1 0.007606 0.000229 -0.002321 0.000000 0.000000 0.000000
# 2 0.000229 0.062637 0.001691 0.000000 0.000000 0.000000
# 3 -0.002321 0.001691 0.012845 0.000000 0.000000 0.000000
# 4 0.000000 0.000000 0.000000 0.018814 0.000000 0.000000
# 5 0.000000 0.000000 0.000000 0.000000 0.481983 0.000000
# 6 0.000000 0.000000 0.000000 0.000000 0.000000 0.054713
#
#
# Mechanical properties :
#
#
# Convention : Reuss Voigt Hill
#
# Bulk Modulus (GPa) = 12.15301 31.29106 21.72203
# Shear Modulus (GPa) = 7.49818 29.11479 18.30648
#
# Velocity S-wave (km/s) = 1.89898 3.74195 2.96718
# Velocity P-wave (km/s) = 3.26388 5.80676 4.71017
#
# Compressibility (1/GPa) = 0.08228414
#
# Stress axis : x y z
#
# Youngs Moduli (GPa) = 131.48140 15.96510 77.84952
#
# Poissons Ratio (x) = -0.00365 0.18073
# Poissons Ratio (y) = -0.03008 -0.13165
# Poissons Ratio (z) = 0.30523 -0.02700
#
# Static dielectric constant tensor:
#      x y z
#    x 1.763570 0.000000 0.000000 
#    y 0.000000 1.744100 0.000000 
#    z 0.000000 0.000000 1.789840 
# 
# From -- ./inp_files/21426.got.cif
#   From: 2010.05.17/outbox.cif.g08.bks.cpg/sg47_11_cif.got.tgz:21426.got - 2010.06.03 20:15:42.
