data_PCOD9384593
_publ_section_title
;
Structure prediction by ZEFSAII (Michael W. Deem and Ramdas Pophale) SiO2 
 PCOD9384593
Probable space group: P M M M
;
_chemical_formula_sum "Si O2"
_cell_formula_units_Z 52
_cell_length_a 14.705357
_cell_length_b 9.730506
_cell_length_c 17.008210
_cell_angle_alpha 90.000000
_cell_angle_beta 90.000000
_cell_angle_gamma 90.000000
_cell_volume 2433.714370
_symmetry_space_group_name_H-M "P M M M"
_symmetry_group_IT_number 47
_symmetry_cell_setting 'orthorhombic'
loop_
_space_group_symop_operation_xyz
x,y,z
-x,-y,z
x,-y,-z
-x,y,-z
-x,-y,-z
x,y,-z
-x,y,z
x,-y,z
loop_
_atom_site_type_symbol
_atom_site_label
_atom_site_fract_x
_atom_site_fract_y
_atom_site_fract_z
Si Si1 0.134092 0.351464 0.589237
Si Si2 0.895165 0.848275 0.720859
Si Si3 0.111470 0.655536 0.145599
Si Si4 0.608974 0.842086 0.741430
Si Si5 0.110876 0.843903 0.000000
Si Si6 0.608360 0.166291 0.085954
Si Si7 0.352457 0.342932 0.411001
O O1 0.102409 0.348083 0.500000
O O2 0.105667 0.500000 0.624641
O O3 0.104737 0.217701 0.635547
O O4 0.243121 0.349786 0.587511
O O5 0.855034 0.730359 0.775874
O O6 0.000000 0.861605 0.746485
O O7 0.854418 0.000000 0.725861
O O8 0.144162 0.500000 0.136759
O O9 0.137589 0.757223 0.075729
O O10 0.000000 0.647709 0.145684
O O11 0.500000 0.847934 0.749884
O O12 0.643135 0.788518 0.827441
O O13 0.625893 0.752141 0.663608
O O14 0.640585 0.000000 0.729818
O O15 0.000000 0.850810 0.000000
O O16 0.145042 0.000000 0.000000
O O17 0.500000 0.197361 0.083836
O O18 0.616630 0.000000 0.087422
O O19 0.645849 0.212617 0.000000
O O20 0.381238 0.297674 0.500000
O O21 0.385836 0.500000 0.399830
#
# Coordination Sequence:
#
# PCOD9384593 Si02
#       7
#     8   8   8   8   4   8   8
#     4   9  19  36  54  69  87 117 159 200 236 282
#     4  10  20  32  47  71 100 123 146 185 240 294
#     4   9  16  26  41  62  89 121 155 186 220 270
#     4   9  17  28  45  73 103 128 160 202 244 284
#     4   9  15  23  37  59  89 121 151 187 230 271
#     4   7  10  19  37  62  93 126 157 190 229 274
#     4   9  19  35  51  67  91 126 166 203 241 288
#
# _framework density 21.366516000000001
#
# number of rings (size 3 to 8) (size 9 to 14) (size 15 to 20)
#    0.000    3.154    0.000    3.462    0.000    5.846 
#    0.000    4.615    0.000    0.462    2.000    2.154 
#    0.000    0.000    0.000    0.000    0.000    0.000 
#
# Total GULP energy -289692.798783 kJ/mol
# GULP energy per Si atom -5571.015361 kJ/mol
# Density = 2.131788 g / cm^3
# Si number density = 21.366516 Si / 1000 Ang^3
#
#
#
# Elastic Constant Matrix: (Units=GPa)
#
#
# Indices 1 2 3 4 5 6 
#
# 1 52.1164 1.1265 5.4765 0.0000 0.0000 0.0000
# 2 1.1265 153.0723 86.6537 0.0000 0.0000 0.0000
# 3 5.4765 86.6537 184.2931 0.0000 0.0000 0.0000
# 4 0.0000 0.0000 0.0000 38.8588 0.0000 0.0000
# 5 0.0000 0.0000 0.0000 0.0000 32.7596 0.0000
# 6 0.0000 0.0000 0.0000 0.0000 0.0000 11.0648
#
#
#
# Elastic Compliance Matrix: (Units=1/GPa)
#
#
# Indices 1 2 3 4 5 6 
#
# 1 0.019255 0.000248 -0.000689 0.000000 0.000000 0.000000
# 2 0.000248 0.008906 -0.004195 0.000000 0.000000 0.000000
# 3 -0.000689 -0.004195 0.007419 0.000000 0.000000 0.000000
# 4 0.000000 0.000000 0.000000 0.025734 0.000000 0.000000
# 5 0.000000 0.000000 0.000000 0.000000 0.030525 0.000000
# 6 0.000000 0.000000 0.000000 0.000000 0.000000 0.090377
#
#
# Mechanical properties :
#
#
# Convention : Reuss Voigt Hill
#
# Bulk Modulus (GPa) = 38.01029 63.99948 51.00488
# Shear Modulus (GPa) = 24.96804 36.28499 30.62652
#
# Velocity S-wave (km/s) = 3.42213 4.12541 3.79012
# Velocity P-wave (km/s) = 5.78298 7.26018 6.56327
#
# Compressibility (1/GPa) = 0.02630867
#
# Stress axis : x y z
#
# Youngs Moduli (GPa) = 51.93501 112.28775 134.78936
#
# Poissons Ratio (x) = -0.02788 0.09286
# Poissons Ratio (y) = -0.01290 0.56541
# Poissons Ratio (z) = 0.03578 0.47102
#
# Static dielectric constant tensor:
#      x y z
#    x 1.838490 0.000000 0.000000 
#    y 0.000000 1.744580 0.000000 
#    z 0.000000 0.000000 1.839100 
# 
# From -- ./inp_files/21381.got.cif
#   From: 2010.05.17/outbox.cif.g08.bks.cpg/sg47_11_cif.got.tgz:21381.got - 2010.06.03 20:15:42.
