data_PCOD9384757
_publ_section_title
;
Structure prediction by ZEFSAII (Michael W. Deem and Ramdas Pophale) SiO2 
 PCOD9384757
Probable space group: P M M M
;
_chemical_formula_sum "Si O2"
_cell_formula_units_Z 60
_cell_length_a 18.403800
_cell_length_b 13.238300
_cell_length_c 12.623750
_cell_angle_alpha 90.000000
_cell_angle_beta 90.000000
_cell_angle_gamma 90.000000
_cell_volume 3075.587654
_symmetry_space_group_name_H-M "P M M M"
_symmetry_group_IT_number 47
_symmetry_cell_setting 'orthorhombic'
loop_
_space_group_symop_operation_xyz
x,y,z
-x,-y,z
x,-y,-z
-x,y,-z
-x,-y,-z
x,y,-z
-x,y,z
x,-y,z
loop_
_atom_site_type_symbol
_atom_site_label
_atom_site_fract_x
_atom_site_fract_y
_atom_site_fract_z
Si Si1 0.307690 0.676355 0.378121
Si Si2 0.413400 0.177076 0.878072
Si Si3 0.808856 0.615023 0.206472
Si Si4 0.163341 0.821261 0.120742
Si Si5 0.917454 0.622207 0.387415
Si Si6 0.000000 0.884120 0.127692
Si Si7 0.710947 0.889157 0.277428
Si Si8 0.586369 0.611824 0.783223
O O1 0.296352 0.648482 0.500000
O O2 0.256407 0.622494 0.291185
O O3 0.294443 0.795370 0.358060
O O4 0.385913 0.644166 0.332932
O O5 0.500000 0.164263 0.855335
O O6 0.359764 0.120339 0.798668
O O7 0.393831 0.295827 0.860571
O O8 0.401375 0.148564 0.000000
O O9 0.815651 0.500000 0.168063
O O10 0.809802 0.704435 0.122608
O O11 0.875447 0.646034 0.282489
O O12 0.078453 0.834593 0.153904
O O13 0.218156 0.873940 0.202989
O O14 0.170360 0.860193 0.000000
O O15 0.884708 0.657122 0.500000
O O16 0.918082 0.500000 0.390976
O O17 0.000000 0.657366 0.382963
O O18 0.000000 0.000000 0.166462
O O19 0.000000 0.885492 0.000000
O O20 0.712900 0.000000 0.326545
O O21 0.500000 0.607446 0.784044
O O22 0.613857 0.500000 0.812682
#
# Coordination Sequence:
#
# PCOD9384757 Si02
#       8
#     8   8   8   8   8   4   8   8
#     4  10  21  36  53  75 102 131 169 216 262 309
#     4   9  18  32  51  78 110 141 174 212 254 303
#     4  10  20  32  49  73 104 138 169 204 248 300
#     4  10  21  35  52  77 105 135 174 214 254 305
#     4   8  14  25  42  64  89 120 159 198 235 278
#     4   9  18  34  55  75  96 127 171 221 265 301
#     4  10  21  37  56  77 101 131 169 215 266 316
#     4   9  18  32  50  74 105 141 179 214 249 294
#
# _framework density 19.508467
#
# number of rings (size 3 to 8) (size 9 to 14) (size 15 to 20)
#    0.000    2.600    0.000    2.000    0.933    4.533 
#    0.000    2.667    0.000    6.000    0.000    3.733 
#    0.000    5.600    0.000    0.000    0.000    0.000 
#
# Total GULP energy -334157.121292 kJ/mol
# GULP energy per Si atom -5569.285355 kJ/mol
# Density = 1.946406 g / cm^3
# Si number density = 19.508467 Si / 1000 Ang^3
#
#
#
# Elastic Constant Matrix: (Units=GPa)
#
#
# Indices 1 2 3 4 5 6 
#
# 1 41.6942 -3.4910 3.6102 0.0000 0.0000 0.0000
# 2 -3.4910 85.1357 -14.1122 0.0000 0.0000 0.0000
# 3 3.6102 -14.1122 34.0304 0.0000 0.0000 0.0000
# 4 0.0000 0.0000 0.0000 -1.3728 0.0000 0.0000
# 5 0.0000 0.0000 0.0000 0.0000 19.1807 0.0000
# 6 0.0000 0.0000 0.0000 0.0000 0.0000 19.4541
#
#
#
# Elastic Compliance Matrix: (Units=1/GPa)
#
#
# Indices 1 2 3 4 5 6 
#
# 1 0.024236 0.000610 -0.002318 0.000000 0.000000 0.000000
# 2 0.000610 0.012628 0.005172 0.000000 0.000000 0.000000
# 3 -0.002318 0.005172 0.031776 0.000000 0.000000 0.000000
# 4 0.000000 0.000000 0.000000 -0.728463 0.000000 0.000000
# 5 0.000000 0.000000 0.000000 0.000000 0.052136 0.000000
# 6 0.000000 0.000000 0.000000 0.000000 0.000000 0.051403
#
#
# Mechanical properties :
#
#
# Convention : Reuss Voigt Hill
#
# Bulk Modulus (GPa) = 13.23324 14.76381 13.99852
# Shear Modulus (GPa) = -9.29332 19.10930 4.90799
#
# Velocity S-wave (km/s) = -2.18497 3.13315 1.58786
# Velocity P-wave (km/s) = 0.65774 4.54678 3.24852
#
# Compressibility (1/GPa) = 0.07556729
#
# Stress axis : x y z
#
# Youngs Moduli (GPa) = 41.26108 79.18729 31.46996
#
# Poissons Ratio (x) = -0.04827 0.07296
# Poissons Ratio (y) = -0.02515 -0.16277
# Poissons Ratio (z) = 0.09566 -0.40957
#
# Static dielectric constant tensor:
#      x y z
#    x 1.764870 0.000000 0.000000 
#    y 0.000000 1.720460 0.000000 
#    z 0.000000 0.000000 3.924530 
# 
# From -- ./inp_files/19210.got.cif
#   From: 2010.05.17/outbox.cif.g08.bks.cpg/sg47_10_cif.got.tgz:19210.got - 2010.06.03 20:15:42.
