data_PCOD9384912
_publ_section_title
;
Structure prediction by ZEFSAII (Michael W. Deem and Ramdas Pophale) SiO2 
 PCOD9384912
Probable space group: P M M M
;
_chemical_formula_sum "Si O2"
_cell_formula_units_Z 64
_cell_length_a 18.812329
_cell_length_b 14.069768
_cell_length_c 13.809158
_cell_angle_alpha 90.000000
_cell_angle_beta 90.000000
_cell_angle_gamma 90.000000
_cell_volume 3655.078429
_symmetry_space_group_name_H-M "P M M M"
_symmetry_group_IT_number 47
_symmetry_cell_setting 'orthorhombic'
loop_
_space_group_symop_operation_xyz
x,y,z
-x,-y,z
x,-y,-z
-x,y,-z
-x,-y,-z
x,y,-z
-x,y,z
x,-y,z
loop_
_atom_site_type_symbol
_atom_site_label
_atom_site_fract_x
_atom_site_fract_y
_atom_site_fract_z
Si Si1 0.189092 0.276252 0.751804
Si Si2 0.376331 0.114500 0.605936
Si Si3 0.582315 0.614600 0.745756
Si Si4 0.676436 0.267274 0.109947
Si Si5 0.914812 0.388286 0.111729
Si Si6 0.206003 0.112300 0.611479
Si Si7 0.420478 0.113062 0.817933
Si Si8 0.709602 0.614200 0.609349
O O1 0.251075 0.259701 0.830399
O O2 0.125200 0.325156 0.809318
O O3 0.172147 0.181017 0.691283
O O4 0.226974 0.345441 0.674099
O O5 0.399804 0.150959 0.500000
O O6 0.291484 0.129888 0.615724
O O7 0.411809 0.146364 0.705827
O O8 0.387062 0.000000 0.603086
O O9 0.500000 0.643598 0.737402
O O10 0.583527 0.500000 0.753407
O O11 0.622490 0.660154 0.837171
O O12 0.633555 0.640982 0.655850
O O13 0.636902 0.166792 0.119030
O O14 0.689279 0.295031 0.000000
O O15 0.896656 0.500000 0.125361
O O16 0.000000 0.379563 0.120123
O O17 0.895676 0.363426 0.000000
O O18 0.184043 0.131644 0.500000
O O19 0.195074 0.000000 0.629965
O O20 0.500000 0.134428 0.851275
O O21 0.410233 0.000000 0.819520
O O22 0.715096 0.649425 0.500000
O O23 0.713094 0.500000 0.609444
#
# Coordination Sequence:
#
# PCOD9384912 Si02
#       8
#     8   8   8   8   8   8   8   8
#     4  11  19  32  56  81 105 136 175 211 257 314
#     4   8  14  27  46  67  92 123 162 210 262 310
#     4   9  19  35  51  66  87 121 168 217 262 310
#     4  11  23  35  48  68  95 125 166 218 268 314
#     4   9  19  37  61  89 118 143 169 207 257 314
#     4   9  17  30  51  78 107 141 179 219 262 307
#     4  10  20  33  47  65  94 132 171 214 267 322
#     4   9  18  31  48  74 105 133 163 205 259 315
#
# _framework density 17.509884
#
# number of rings (size 3 to 8) (size 9 to 14) (size 15 to 20)
#    0.000    2.500    1.250    2.625    0.000    2.500 
#    0.000    3.750    0.000    4.500    0.000    6.125 
#    0.000    0.000    0.000    0.000    0.000    0.000 
#
# Total GULP energy -357051.122392 kJ/mol
# GULP energy per Si atom -5578.923787 kJ/mol
# Density = 1.747003 g / cm^3
# Si number density = 17.509884 Si / 1000 Ang^3
#
#
#
# Elastic Constant Matrix: (Units=GPa)
#
#
# Indices 1 2 3 4 5 6 
#
# 1 51.3140 35.6545 43.2505 0.0000 0.0000 0.0000
# 2 35.6545 66.6816 40.9486 0.0000 0.0000 0.0000
# 3 43.2505 40.9486 129.8254 0.0000 0.0000 0.0000
# 4 0.0000 0.0000 0.0000 28.7009 0.0000 0.0000
# 5 0.0000 0.0000 0.0000 0.0000 -85.6996 0.0000
# 6 0.0000 0.0000 0.0000 0.0000 0.0000 21.3336
#
#
#
# Elastic Compliance Matrix: (Units=1/GPa)
#
#
# Indices 1 2 3 4 5 6 
#
# 1 0.035851 -0.014678 -0.007314 0.000000 0.000000 0.000000
# 2 -0.014678 0.024609 -0.002872 0.000000 0.000000 0.000000
# 3 -0.007314 -0.002872 0.011045 0.000000 0.000000 0.000000
# 4 0.000000 0.000000 0.000000 0.034842 0.000000 0.000000
# 5 0.000000 0.000000 0.000000 0.000000 -0.011669 0.000000
# 6 0.000000 0.000000 0.000000 0.000000 0.000000 0.046874
#
#
# Mechanical properties :
#
#
# Convention : Reuss Voigt Hill
#
# Bulk Modulus (GPa) = 45.92014 54.16981 50.04497
# Shear Modulus (GPa) = 25.18382 1.39813 13.29098
#
# Velocity S-wave (km/s) = 3.79656 0.89455 2.75809
# Velocity P-wave (km/s) = 6.74542 5.66311 6.22782
#
# Compressibility (1/GPa) = 0.02177694
#
# Stress axis : x y z
#
# Youngs Moduli (GPa) = 27.89293 40.63608 90.53779
#
# Poissons Ratio (x) = 0.59646 0.66219
# Poissons Ratio (y) = 0.40942 0.26002
# Poissons Ratio (z) = 0.20401 0.11670
#
# Static dielectric constant tensor:
#      x y z
#    x 1.560960 0.000000 0.000000 
#    y 0.000000 1.638750 0.000000 
#    z 0.000000 0.000000 1.606420 
# 
# From -- ./inp_files/22961.got.cif
#   From: 2010.05.17/outbox.cif.g08.bks.cpg/sg47_12_cif.got.tgz:22961.got - 2010.06.03 20:15:42.
