data_PCOD9384497
_publ_section_title
;
Structure prediction by ZEFSAII (Michael W. Deem and Ramdas Pophale) SiO2 
 PCOD9384497
Probable space group: P M M M
;
_chemical_formula_sum "Si O2"
_cell_formula_units_Z 52
_cell_length_a 8.651700
_cell_length_b 12.175889
_cell_length_c 29.409834
_cell_angle_alpha 90.000000
_cell_angle_beta 90.000000
_cell_angle_gamma 90.000000
_cell_volume 3098.094817
_symmetry_space_group_name_H-M "P M M M"
_symmetry_group_IT_number 47
_symmetry_cell_setting 'orthorhombic'
loop_
_space_group_symop_operation_xyz
x,y,z
-x,-y,z
x,-y,-z
-x,y,-z
-x,-y,-z
x,y,-z
-x,y,z
x,-y,z
loop_
_atom_site_type_symbol
_atom_site_label
_atom_site_fract_x
_atom_site_fract_y
_atom_site_fract_z
Si Si1 0.686954 0.727126 0.948502
Si Si2 0.320289 0.866486 0.401412
Si Si3 0.183723 0.127944 0.694708
Si Si4 0.815076 0.500000 0.196157
Si Si5 0.311111 0.127482 0.500000
Si Si6 0.185423 0.500000 0.910139
Si Si7 0.311549 0.125629 0.864183
Si Si8 0.685000 0.267964 0.223070
O O1 0.500000 0.722418 0.947320
O O2 0.750499 0.608712 0.934055
O O3 0.737104 0.815354 0.910765
O O4 0.734007 0.754287 0.000000
O O5 0.500000 0.835401 0.395550
O O6 0.227237 0.836287 0.356478
O O7 0.264080 0.825184 0.450941
O O8 0.316274 0.000000 0.404074
O O9 0.262818 0.203635 0.732132
O O10 0.000000 0.131763 0.700472
O O11 0.234084 0.000000 0.700123
O O12 0.766087 0.500000 0.142943
O O13 0.752802 0.389636 0.219142
O O14 0.000000 0.500000 0.197432
O O15 0.500000 0.127221 0.500000
O O16 0.261079 0.000000 0.500000
O O17 0.000000 0.500000 0.912099
O O18 0.500000 0.124142 0.863837
O O19 0.262089 0.197951 0.821041
O O20 0.258662 0.000000 0.860884
O O21 0.500000 0.274355 0.221774
#
# Coordination Sequence:
#
# PCOD9384497 Si02
#       8
#     8   8   8   4   4   4   8   8
#     4  10  20  34  54  78 103 130 162 202 244 287
#     4   8  13  23  40  62  90 128 173 214 251 293
#     4  10  20  32  46  69 104 140 171 207 252 300
#     4  11  23  38  56  77 100 125 157 200 255 308
#     4   7  10  18  35  59  87 122 167 216 255 287
#     4  11  22  36  55  76 102 130 159 197 243 296
#     4   9  18  32  51  76 102 127 159 199 241 287
#     4  11  21  35  56  76  97 127 166 209 250 296
#
# _framework density 16.784510000000001
#
# number of rings (size 3 to 8) (size 9 to 14) (size 15 to 20)
#    0.000    2.385    1.538    3.000    0.000    3.692 
#    0.000    1.923    0.000    3.692    0.000    1.077 
#    0.000    0.615    0.000    6.615    0.000    4.769 
#
# Total GULP energy -289929.740301 kJ/mol
# GULP energy per Si atom -5575.571929 kJ/mol
# Density = 1.674631 g / cm^3
# Si number density = 16.784510 Si / 1000 Ang^3
#
#
#
# Elastic Constant Matrix: (Units=GPa)
#
#
# Indices 1 2 3 4 5 6 
#
# 1 24.8104 22.1515 31.2179 0.0000 0.0000 0.0000
# 2 22.1515 110.0406 67.0862 0.0000 0.0000 0.0000
# 3 31.2179 67.0862 152.2379 0.0000 0.0000 0.0000
# 4 0.0000 0.0000 0.0000 0.0726 0.0000 0.0000
# 5 0.0000 0.0000 0.0000 0.0000 15.1043 0.0000
# 6 0.0000 0.0000 0.0000 0.0000 0.0000 12.9117
#
#
#
# Elastic Compliance Matrix: (Units=1/GPa)
#
#
# Indices 1 2 3 4 5 6 
#
# 1 0.057035 -0.005949 -0.009074 0.000000 0.000000 0.000000
# 2 -0.005949 0.013046 -0.004529 0.000000 0.000000 0.000000
# 3 -0.009074 -0.004529 0.010425 0.000000 0.000000 0.000000
# 4 0.000000 0.000000 0.000000 13.767571 0.000000 0.000000
# 5 0.000000 0.000000 0.000000 0.000000 0.066206 0.000000
# 6 0.000000 0.000000 0.000000 0.000000 0.000000 0.077449
#
#
# Mechanical properties :
#
#
# Convention : Reuss Voigt Hill
#
# Bulk Modulus (GPa) = 24.15370 58.66666 41.41018
# Shear Modulus (GPa) = 0.35601 16.72661 8.54131
#
# Velocity S-wave (km/s) = 0.46105 3.16024 2.25829
# Velocity P-wave (km/s) = 3.83473 6.95305 5.61472
#
# Compressibility (1/GPa) = 0.04140153
#
# Stress axis : x y z
#
# Youngs Moduli (GPa) = 17.53319 76.64968 95.92170
#
# Poissons Ratio (x) = 0.45602 0.87037
# Poissons Ratio (y) = 0.10431 0.43444
# Poissons Ratio (z) = 0.15909 0.34716
#
# Static dielectric constant tensor:
#      x y z
#    x 1.562580 0.000000 0.000000 
#    y 0.000000 1.532520 0.000000 
#    z 0.000000 0.000000 1.588840 
# 
# From -- ./inp_files/34351.got.cif
#   From: 2010.05.17/outbox.cif.g08.bks.cpg/sg47_18_cif.got.tgz:34351.got - 2010.06.03 20:15:42.
