data_PCOD9384242
_publ_section_title
;
Structure prediction by ZEFSAII (Michael W. Deem and Ramdas Pophale) SiO2 
 PCOD9384242
Probable space group: P M M M
;
_chemical_formula_sum "Si O2"
_cell_formula_units_Z 44
_cell_length_a 31.879339
_cell_length_b 9.345886
_cell_length_c 7.461566
_cell_angle_alpha 90.000000
_cell_angle_beta 90.000000
_cell_angle_gamma 90.000000
_cell_volume 2223.103959
_symmetry_space_group_name_H-M "P M M M"
_symmetry_group_IT_number 47
_symmetry_cell_setting 'orthorhombic'
loop_
_space_group_symop_operation_xyz
x,y,z
-x,-y,z
x,-y,-z
-x,y,-z
-x,-y,-z
x,y,-z
-x,y,z
x,-y,z
loop_
_atom_site_type_symbol
_atom_site_label
_atom_site_fract_x
_atom_site_fract_y
_atom_site_fract_z
Si Si1 0.698462 0.662048 0.785180
Si Si2 0.547594 0.826274 0.500000
Si Si3 0.863413 0.333359 0.719291
Si Si4 0.954910 0.671660 0.715638
Si Si5 0.384367 0.829684 0.212358
Si Si6 0.217503 0.161297 0.285747
O O1 0.700590 0.500000 0.715896
O O2 0.656921 0.745571 0.724587
O O3 0.740672 0.748324 0.746189
O O4 0.695114 0.655144 0.000000
O O5 0.500000 0.772099 0.500000
O O6 0.575143 0.786154 0.673088
O O7 0.545398 0.000000 0.500000
O O8 0.863731 0.332020 0.500000
O O9 0.858783 0.500000 0.771282
O O10 0.909296 0.277562 0.778923
O O11 0.823959 0.241899 0.782069
O O12 0.955384 0.691252 0.500000
O O13 0.954610 0.500000 0.746430
O O14 0.000000 0.726837 0.783825
O O15 0.377441 0.000000 0.238270
O O16 0.390636 0.805921 0.000000
O O17 0.212572 0.152393 0.500000
O O18 0.221520 0.000000 0.215680
#
# Coordination Sequence:
#
# PCOD9384242 Si02
#       6
#     8   4   8   8   8   8
#     4  10  21  36  53  73  97 126 163 207 252 298
#     4   9  18  32  53  83 113 141 179 221 256 301
#     4   8  13  22  36  55  82 115 152 194 238 285
#     4   7   9  14  27  48  73 104 144 188 232 278
#     4   9  18  33  53  77 107 141 175 216 263 306
#     4  10  20  31  45  67  95 127 160 196 241 294
#
# _framework density 19.792145999999999
#
# number of rings (size 3 to 8) (size 9 to 14) (size 15 to 20)
#    0.000    3.182    0.000    2.727    1.273    2.545 
#    0.000    1.818    0.000    1.636    0.000    6.364 
#    0.000    0.727    0.000    8.364    0.000    9.636 
#
# Total GULP energy -245262.160159 kJ/mol
# GULP energy per Si atom -5574.140004 kJ/mol
# Density = 1.974710 g / cm^3
# Si number density = 19.792146 Si / 1000 Ang^3
#
#
#
# Elastic Constant Matrix: (Units=GPa)
#
#
# Indices 1 2 3 4 5 6 
#
# 1 252.4421 92.3269 36.7174 0.0000 0.0000 0.0000
# 2 92.3269 88.0797 23.5443 0.0000 0.0000 0.0000
# 3 36.7174 23.5443 62.1955 0.0000 0.0000 0.0000
# 4 0.0000 0.0000 0.0000 5.1007 0.0000 0.0000
# 5 0.0000 0.0000 0.0000 0.0000 174.3542 0.0000
# 6 0.0000 0.0000 0.0000 0.0000 0.0000 27.4913
#
#
#
# Elastic Compliance Matrix: (Units=1/GPa)
#
#
# Indices 1 2 3 4 5 6 
#
# 1 0.006533 -0.006472 -0.001407 0.000000 0.000000 0.000000
# 2 -0.006472 0.019043 -0.003388 0.000000 0.000000 0.000000
# 3 -0.001407 -0.003388 0.018191 0.000000 0.000000 0.000000
# 4 0.000000 0.000000 0.000000 0.196051 0.000000 0.000000
# 5 0.000000 0.000000 0.000000 0.000000 0.005735 0.000000
# 6 0.000000 0.000000 0.000000 0.000000 0.000000 0.036375
#
#
# Mechanical properties :
#
#
# Convention : Reuss Voigt Hill
#
# Bulk Modulus (GPa) = 47.09469 78.65495 62.87482
# Shear Modulus (GPa) = 16.04928 58.06449 37.05689
#
# Velocity S-wave (km/s) = 2.85070 5.42225 4.33171
# Velocity P-wave (km/s) = 5.88911 8.88976 7.54021
#
# Compressibility (1/GPa) = 0.02123382
#
# Stress axis : x y z
#
# Youngs Moduli (GPa) = 153.07104 52.51286 54.97105
#
# Poissons Ratio (x) = 0.33986 0.07733
# Poissons Ratio (y) = 0.99066 0.18624
# Poissons Ratio (z) = 0.21534 0.17792
#
# Static dielectric constant tensor:
#      x y z
#    x 1.699140 0.000000 0.000000 
#    y 0.000000 1.682350 0.000000 
#    z 0.000000 0.000000 1.827620 
# 
# From -- ./inp_files/13551.got.cif
#   From: 2010.05.17/outbox.cif.g08.bks.cpg/sg47_7_cif.got.tgz:13551.got - 2010.06.03 20:15:42.
