data_PCOD9384271
_publ_section_title
;
Structure prediction by ZEFSAII (Michael W. Deem and Ramdas Pophale) SiO2 
 PCOD9384271
Probable space group: P M M M
;
_chemical_formula_sum "Si O2"
_cell_formula_units_Z 64
_cell_length_a 19.499064
_cell_length_b 9.086795
_cell_length_c 24.206322
_cell_angle_alpha 90.000000
_cell_angle_beta 90.000000
_cell_angle_gamma 90.000000
_cell_volume 4288.972891
_symmetry_space_group_name_H-M "P M M M"
_symmetry_group_IT_number 47
_symmetry_cell_setting 'orthorhombic'
loop_
_space_group_symop_operation_xyz
x,y,z
-x,-y,z
x,-y,-z
-x,y,-z
-x,-y,-z
x,y,-z
-x,y,z
x,-y,z
loop_
_atom_site_type_symbol
_atom_site_label
_atom_site_fract_x
_atom_site_fract_y
_atom_site_fract_z
Si Si1 0.210266 0.822851 0.937259
Si Si2 0.076602 0.676612 0.756474
Si Si3 0.302102 0.823471 0.165315
Si Si4 0.787857 0.174927 0.273903
Si Si5 0.580186 0.324403 0.770389
Si Si6 0.419399 0.324172 0.564194
Si Si7 0.077504 0.323121 0.113171
Si Si8 0.651787 0.823465 0.665628
O O1 0.267143 0.778873 0.892104
O O2 0.137678 0.753625 0.920236
O O3 0.204391 0.000000 0.934007
O O4 0.228043 0.782398 0.000000
O O5 0.079329 0.500000 0.752843
O O6 0.139686 0.745231 0.723842
O O7 0.084201 0.714258 0.821665
O O8 0.000000 0.724171 0.739224
O O9 0.248348 0.791764 0.214904
O O10 0.371507 0.741102 0.181808
O O11 0.313688 0.000000 0.165483
O O12 0.730523 0.214976 0.319215
O O13 0.798664 0.000000 0.276127
O O14 0.500000 0.294189 0.779291
O O15 0.589687 0.500000 0.766136
O O16 0.605588 0.248933 0.713688
O O17 0.404790 0.290209 0.500000
O O18 0.500000 0.291390 0.574213
O O19 0.410789 0.500000 0.571783
O O20 0.373343 0.237104 0.607299
O O21 0.083411 0.500000 0.108413
O O22 0.000000 0.282208 0.095766
O O23 0.645422 0.000000 0.668781
#
# Coordination Sequence:
#
# PCOD9384271 Si02
#       8
#     8   8   8   8   8   8   8   8
#     4  10  20  33  48  65  86 112 145 185 224 268
#     4   9  17  28  43  64  88 115 148 183 220 266
#     4   9  18  32  47  65  88 112 142 180 224 272
#     4   9  17  29  44  64  89 117 149 185 225 266
#     4  10  20  32  48  70  92 115 145 182 225 272
#     4   9  18  32  48  67  95 131 168 201 228 258
#     4   9  18  31  45  63  88 116 147 183 220 262
#     4  10  20  31  45  69  99 126 156 192 226 264
#
# _framework density 14.921987
#
# number of rings (size 3 to 8) (size 9 to 14) (size 15 to 20)
#    0.000    2.625    1.250    3.000    0.000    7.000 
#    0.000    3.125    0.000    0.375    0.000    2.625 
#    0.000    0.500    0.000    5.500    0.000    4.000 
#
# Total GULP energy -356745.691789 kJ/mol
# GULP energy per Si atom -5574.151434 kJ/mol
# Density = 1.488802 g / cm^3
# Si number density = 14.921987 Si / 1000 Ang^3
#
#
#
# Elastic Constant Matrix: (Units=GPa)
#
#
# Indices 1 2 3 4 5 6 
#
# 1 130.6379 52.5977 68.0087 0.0000 0.0000 0.0000
# 2 52.5977 30.8326 37.4590 0.0000 0.0000 0.0000
# 3 68.0087 37.4590 91.1375 0.0000 0.0000 0.0000
# 4 0.0000 0.0000 0.0000 21.3158 0.0000 0.0000
# 5 0.0000 0.0000 0.0000 0.0000 24.8875 0.0000
# 6 0.0000 0.0000 0.0000 0.0000 0.0000 31.5058
#
#
#
# Elastic Compliance Matrix: (Units=1/GPa)
#
#
# Indices 1 2 3 4 5 6 
#
# 1 0.024666 -0.039381 -0.002220 0.000000 0.000000 0.000000
# 2 -0.039381 0.127656 -0.023082 0.000000 0.000000 0.000000
# 3 -0.002220 -0.023082 0.022116 0.000000 0.000000 0.000000
# 4 0.000000 0.000000 0.000000 0.046914 0.000000 0.000000
# 5 0.000000 0.000000 0.000000 0.000000 0.040181 0.000000
# 6 0.000000 0.000000 0.000000 0.000000 0.000000 0.031740
#
#
# Mechanical properties :
#
#
# Convention : Reuss Voigt Hill
#
# Bulk Modulus (GPa) = 22.18650 63.19322 42.68986
# Shear Modulus (GPa) = 11.42430 21.84465 16.63447
#
# Velocity S-wave (km/s) = 2.76995 3.83028 3.34243
# Velocity P-wave (km/s) = 5.01306 7.87416 6.60050
#
# Compressibility (1/GPa) = 0.04507246
#
# Stress axis : x y z
#
# Youngs Moduli (GPa) = 40.54128 7.83354 45.21563
#
# Poissons Ratio (x) = 0.30849 0.10039
# Poissons Ratio (y) = 1.59656 1.04366
# Poissons Ratio (z) = 0.09001 0.18081
#
# Static dielectric constant tensor:
#      x y z
#    x 1.488870 0.000000 0.000000 
#    y 0.000000 1.497260 0.000000 
#    z 0.000000 0.000000 1.483710 
# 
# From -- ./inp_files/10204.got.cif
#   From: 2010.05.17/outbox.cif.g08.bks.cpg/sg47_6_cif.got.tgz:10204.got - 2010.06.03 20:15:42.
