data_PCOD9384042
_publ_section_title
;
Structure prediction by ZEFSAII (Michael W. Deem and Ramdas Pophale) SiO2 
 PCOD9384042
Probable space group: P M M M
;
_chemical_formula_sum "Si O2"
_cell_formula_units_Z 64
_cell_length_a 25.875834
_cell_length_b 14.899521
_cell_length_c 8.896765
_cell_angle_alpha 90.000000
_cell_angle_beta 90.000000
_cell_angle_gamma 90.000000
_cell_volume 3430.036822
_symmetry_space_group_name_H-M "P M M M"
_symmetry_group_IT_number 47
_symmetry_cell_setting 'orthorhombic'
loop_
_space_group_symop_operation_xyz
x,y,z
-x,-y,z
x,-y,-z
-x,y,-z
-x,-y,-z
x,y,-z
-x,y,z
x,-y,z
loop_
_atom_site_type_symbol
_atom_site_label
_atom_site_fract_x
_atom_site_fract_y
_atom_site_fract_z
Si Si1 0.557636 0.220967 0.818750
Si Si2 0.148223 0.897093 0.320431
Si Si3 0.655105 0.896927 0.182940
Si Si4 0.285475 0.600309 0.180486
Si Si5 0.241814 0.212296 0.818887
Si Si6 0.937222 0.401027 0.675606
Si Si7 0.399555 0.601262 0.320109
Si Si8 0.061020 0.215916 0.821993
O O1 0.500000 0.189525 0.778950
O O2 0.603380 0.154737 0.767745
O O3 0.567758 0.319260 0.752102
O O4 0.560756 0.226784 0.000000
O O5 0.149376 0.894053 0.500000
O O6 0.193155 0.834953 0.254649
O O7 0.094211 0.858377 0.261808
O O8 0.155834 0.000000 0.271301
O O9 0.705944 0.840891 0.225537
O O10 0.657300 0.000000 0.234426
O O11 0.654253 0.898326 0.000000
O O12 0.265615 0.500000 0.214218
O O13 0.249396 0.683463 0.223050
O O14 0.340947 0.610572 0.259527
O O15 0.293953 0.606236 0.000000
O O16 0.237014 0.206989 0.000000
O O17 0.923468 0.389938 0.500000
O O18 0.919374 0.500000 0.726645
O O19 0.920627 0.314769 0.769197
O O20 0.000000 0.402581 0.682671
O O21 0.399982 0.608992 0.500000
O O22 0.417032 0.500000 0.280136
O O23 0.000000 0.208364 0.787344
O O24 0.067738 0.207592 0.000000
#
# Coordination Sequence:
#
# PCOD9384042 Si02
#       8
#     8   8   8   8   8   8   8   8
#     4  10  20  34  52  76 107 143 185 230 275 327
#     4  11  25  42  59  82 112 147 189 236 286 339
#     4   9  17  31  53  81 108 136 176 225 278 331
#     4   9  17  32  57  86 114 143 177 218 266 325
#     4  10  19  35  60  85 111 143 179 224 277 331
#     4   8  14  27  50  80 114 152 190 226 268 320
#     4  10  20  33  51  76 107 143 180 221 272 328
#     4  10  21  37  59  87 117 151 192 236 282 334
#
# _framework density 18.658691999999999
#
# number of rings (size 3 to 8) (size 9 to 14) (size 15 to 20)
#    0.000    2.375    1.250    1.875    0.000    4.750 
#    0.000    5.625    0.000    2.625    0.000    0.875 
#    0.000    0.000    0.000    0.000    0.000    0.000 
#
# Total GULP energy -357080.142034 kJ/mol
# GULP energy per Si atom -5579.377219 kJ/mol
# Density = 1.861622 g / cm^3
# Si number density = 18.658692 Si / 1000 Ang^3
#
#
#
# Elastic Constant Matrix: (Units=GPa)
#
#
# Indices 1 2 3 4 5 6 
#
# 1 63.9735 52.5512 29.1471 0.0000 0.0000 0.0000
# 2 52.5512 122.0038 31.3184 0.0000 0.0000 0.0000
# 3 29.1471 31.3184 16.8015 0.0000 0.0000 0.0000
# 4 0.0000 0.0000 0.0000 21.6392 0.0000 0.0000
# 5 0.0000 0.0000 0.0000 0.0000 8.2964 0.0000
# 6 0.0000 0.0000 0.0000 0.0000 0.0000 14.9629
#
#
#
# Elastic Compliance Matrix: (Units=1/GPa)
#
#
# Indices 1 2 3 4 5 6 
#
# 1 0.074853 0.002094 -0.133757 0.000000 0.000000 0.000000
# 2 0.002094 0.015776 -0.033038 0.000000 0.000000 0.000000
# 3 -0.133757 -0.033038 0.353145 0.000000 0.000000 0.000000
# 4 0.000000 0.000000 0.000000 0.046212 0.000000 0.000000
# 5 0.000000 0.000000 0.000000 0.000000 0.120535 0.000000
# 6 0.000000 0.000000 0.000000 0.000000 0.000000 0.066832
#
#
# Mechanical properties :
#
#
# Convention : Reuss Voigt Hill
#
# Bulk Modulus (GPa) = 8.74360 47.64578 28.19469
# Shear Modulus (GPa) = 4.78524 14.96383 9.87454
#
# Velocity S-wave (km/s) = 1.60318 2.83499 2.30297
# Velocity P-wave (km/s) = 2.85012 6.02554 4.71329
#
# Compressibility (1/GPa) = 0.11436932
#
# Stress axis : x y z
#
# Youngs Moduli (GPa) = 13.35952 63.38926 2.83170
#
# Poissons Ratio (x) = -0.13272 0.37876
# Poissons Ratio (y) = -0.02797 0.09355
# Poissons Ratio (z) = 1.78694 2.09428
#
# Static dielectric constant tensor:
#      x y z
#    x 1.635920 0.000000 0.000000 
#    y 0.000000 1.654570 0.000000 
#    z 0.000000 0.000000 1.622110 
# 
# From -- ./inp_files/12666.got.cif
#   From: 2010.05.17/outbox.cif.g08.bks.cpg/sg47_7_cif.got.tgz:12666.got - 2010.06.03 20:15:42.
