data_PCOD9384535
_publ_section_title
;
Structure prediction by ZEFSAII (Michael W. Deem and Ramdas Pophale) SiO2 
 PCOD9384535
Probable space group: P M M M
;
_chemical_formula_sum "Si O2"
_cell_formula_units_Z 44
_cell_length_a 29.455714
_cell_length_b 7.618719
_cell_length_c 9.792853
_cell_angle_alpha 90.000000
_cell_angle_beta 90.000000
_cell_angle_gamma 90.000000
_cell_volume 2197.661225
_symmetry_space_group_name_H-M "P M M M"
_symmetry_group_IT_number 47
_symmetry_cell_setting 'orthorhombic'
loop_
_space_group_symop_operation_xyz
x,y,z
-x,-y,z
x,-y,-z
-x,y,-z
-x,-y,-z
x,y,-z
-x,y,z
x,-y,z
loop_
_atom_site_type_symbol
_atom_site_label
_atom_site_fract_x
_atom_site_fract_y
_atom_site_fract_z
Si Si1 0.050455 0.785748 0.658062
Si Si2 0.599486 0.706567 0.843663
Si Si3 0.500000 0.209016 0.155424
Si Si4 0.764474 0.785378 0.842581
Si Si5 0.683343 0.207509 0.346147
Si Si6 0.866685 0.785895 0.157201
O O1 0.055643 0.734442 0.500000
O O2 0.092432 0.723718 0.748254
O O3 0.000000 0.731367 0.704981
O O4 0.050898 0.000000 0.661276
O O5 0.606431 0.500000 0.854157
O O6 0.548630 0.736748 0.786791
O O7 0.637964 0.774730 0.743299
O O8 0.602055 0.780195 0.000000
O O9 0.500000 0.000000 0.150154
O O10 0.500000 0.281568 0.000000
O O11 0.725662 0.720485 0.740990
O O12 0.815622 0.732037 0.802852
O O13 0.763720 0.000000 0.842787
O O14 0.756013 0.732104 0.000000
O O15 0.679136 0.279380 0.500000
O O16 0.691813 0.000000 0.358868
O O17 0.867001 0.000000 0.160833
O O18 0.873789 0.734392 0.000000
#
# Coordination Sequence:
#
# PCOD9384535 Si02
#       6
#     8   8   4   8   8   8
#     4   8  13  19  25  35  55  86 124 165 210 261
#     4  10  20  34  53  76 101 129 160 193 231 276
#     4   9  17  31  54  81 104 127 158 196 234 271
#     4   8  14  25  40  57  78 105 139 182 230 276
#     4  10  20  32  47  69  95 123 157 195 235 280
#     4   8  13  20  30  45  64  88 123 169 219 266
#
# _framework density 20.021284000000001
#
# number of rings (size 3 to 8) (size 9 to 14) (size 15 to 20)
#    0.000    3.182    0.000    3.000    0.000    4.364 
#    0.000    5.909    0.000    2.727    0.000    0.000 
#    0.000    0.000    0.000    0.000    0.000    0.909 
#
# Total GULP energy -245271.680741 kJ/mol
# GULP energy per Si atom -5574.356380 kJ/mol
# Density = 1.997571 g / cm^3
# Si number density = 20.021284 Si / 1000 Ang^3
#
#
#
# Elastic Constant Matrix: (Units=GPa)
#
#
# Indices 1 2 3 4 5 6 
#
# 1 215.1440 -3.0371 122.4317 0.0000 0.0000 0.0000
# 2 -3.0371 40.4454 4.5264 0.0000 0.0000 0.0000
# 3 122.4317 4.5264 112.7786 0.0000 0.0000 0.0000
# 4 0.0000 0.0000 0.0000 0.2856 0.0000 0.0000
# 5 0.0000 0.0000 0.0000 0.0000 -8.1613 0.0000
# 6 0.0000 0.0000 0.0000 0.0000 0.0000 -40.4633
#
#
#
# Elastic Compliance Matrix: (Units=1/GPa)
#
#
# Indices 1 2 3 4 5 6 
#
# 1 0.012397 0.002448 -0.013557 0.000000 0.000000 0.000000
# 2 0.002448 0.025320 -0.003674 0.000000 0.000000 0.000000
# 3 -0.013557 -0.003674 0.023731 0.000000 0.000000 0.000000
# 4 0.000000 0.000000 0.000000 3.501875 0.000000 0.000000
# 5 0.000000 0.000000 0.000000 0.000000 -0.122529 0.000000
# 6 0.000000 0.000000 0.000000 0.000000 0.000000 -0.024714
#
#
# Mechanical properties :
#
#
# Convention : Reuss Voigt Hill
#
# Bulk Modulus (GPa) = 31.36418 68.46779 49.91598
# Shear Modulus (GPa) = 1.44664 6.62865 4.03765
#
# Velocity S-wave (km/s) = 0.85095 1.82154 1.42164
# Velocity P-wave (km/s) = 4.08227 6.22059 5.26121
#
# Compressibility (1/GPa) = 0.03188351
#
# Stress axis : x y z
#
# Youngs Moduli (GPa) = 80.66275 39.49498 42.13818
#
# Poissons Ratio (x) = -0.09669 0.57125
# Poissons Ratio (y) = -0.19747 0.15481
# Poissons Ratio (z) = 1.09352 0.14510
#
# Static dielectric constant tensor:
#      x y z
#    x 1.707500 0.000000 0.000000 
#    y 0.000000 1.756950 0.000000 
#    z 0.000000 0.000000 1.693650 
# 
# From -- ./inp_files/13627.got.cif
#   From: 2010.05.17/outbox.cif.g08.bks.cpg/sg47_7_cif.got.tgz:13627.got - 2010.06.03 20:15:42.
