data_PCOD9384212
_publ_section_title
;
Structure prediction by ZEFSAII (Michael W. Deem and Ramdas Pophale) SiO2 
 PCOD9384212
Probable space group: P M M M
;
_chemical_formula_sum "Si O2"
_cell_formula_units_Z 52
_cell_length_a 13.597964
_cell_length_b 22.920167
_cell_length_c 7.679648
_cell_angle_alpha 90.000000
_cell_angle_beta 90.000000
_cell_angle_gamma 90.000000
_cell_volume 2393.497505
_symmetry_space_group_name_H-M "P M M M"
_symmetry_group_IT_number 47
_symmetry_cell_setting 'orthorhombic'
loop_
_space_group_symop_operation_xyz
x,y,z
-x,-y,z
x,-y,-z
-x,y,-z
-x,-y,-z
x,y,-z
-x,y,z
x,-y,z
loop_
_atom_site_type_symbol
_atom_site_label
_atom_site_fract_x
_atom_site_fract_y
_atom_site_fract_z
Si Si1 0.500000 0.935371 0.704140
Si Si2 0.381964 0.743433 0.704821
Si Si3 0.113363 0.814276 0.214699
Si Si4 0.189280 0.437320 0.203634
Si Si5 0.305059 0.865292 0.806426
Si Si6 0.882134 0.684575 0.798371
Si Si7 0.387300 0.612070 0.711251
O O1 0.500000 0.942271 0.500000
O O2 0.399485 0.900366 0.740773
O O3 0.500000 0.000000 0.786589
O O4 0.357694 0.749739 0.500000
O O5 0.500000 0.746541 0.717627
O O6 0.338414 0.797670 0.805638
O O7 0.356207 0.678071 0.763254
O O8 0.196317 0.859852 0.276490
O O9 0.141764 0.748502 0.275990
O O10 0.000000 0.825964 0.263847
O O11 0.115301 0.812922 0.000000
O O12 0.157890 0.500000 0.277881
O O13 0.151623 0.376513 0.283668
O O14 0.306977 0.431681 0.216918
O O15 0.159438 0.437206 0.000000
O O16 0.289106 0.887760 0.000000
O O17 0.000000 0.683180 0.801236
O O18 0.847690 0.684922 0.000000
O O19 0.385893 0.610409 0.500000
O O20 0.500000 0.601976 0.765527
#
# Coordination Sequence:
#
# PCOD9384212 Si02
#       7
#     4   8   8   8   8   8   8
#     4  11  25  43  59  77 111 159 196 221 258 299
#     4   9  17  30  48  71 102 135 165 206 266 326
#     4   8  15  28  48  78 113 142 168 209 271 331
#     4  10  20  31  44  66  93 121 162 217 269 312
#     4  11  20  31  55  87 114 142 180 223 262 309
#     4   8  14  27  47  70  99 132 162 198 251 316
#     4   9  19  34  49  65  88 125 168 206 251 313
#
# _framework density 21.725529000000002
#
# number of rings (size 3 to 8) (size 9 to 14) (size 15 to 20)
#    0.000    2.692    0.769    3.462    0.000    3.692 
#    0.000    4.615    0.000    2.769    0.000   10.769 
#    0.000    0.000    0.000    0.000    0.000    0.000 
#
# Total GULP energy -289894.646783 kJ/mol
# GULP energy per Si atom -5574.897054 kJ/mol
# Density = 2.167608 g / cm^3
# Si number density = 21.725529 Si / 1000 Ang^3
#
#
#
# Elastic Constant Matrix: (Units=GPa)
#
#
# Indices 1 2 3 4 5 6 
#
# 1 118.5934 75.8561 14.0683 0.0000 0.0000 0.0000
# 2 75.8561 89.8738 7.3440 0.0000 0.0000 0.0000
# 3 14.0683 7.3440 37.0933 0.0000 0.0000 0.0000
# 4 0.0000 0.0000 0.0000 7.9513 0.0000 0.0000
# 5 0.0000 0.0000 0.0000 0.0000 67.8672 0.0000
# 6 0.0000 0.0000 0.0000 0.0000 0.0000 45.0589
#
#
#
# Elastic Compliance Matrix: (Units=1/GPa)
#
#
# Indices 1 2 3 4 5 6 
#
# 1 0.018914 -0.015630 -0.004079 0.000000 0.000000 0.000000
# 2 -0.015630 0.024227 0.001132 0.000000 0.000000 0.000000
# 3 -0.004079 0.001132 0.028282 0.000000 0.000000 0.000000
# 4 0.000000 0.000000 0.000000 0.125766 0.000000 0.000000
# 5 0.000000 0.000000 0.000000 0.000000 0.014735 0.000000
# 6 0.000000 0.000000 0.000000 0.000000 0.000000 0.022193
#
#
# Mechanical properties :
#
#
# Convention : Reuss Voigt Hill
#
# Bulk Modulus (GPa) = 29.18244 48.89970 39.04107
# Shear Modulus (GPa) = 17.68694 34.06159 25.87427
#
# Velocity S-wave (km/s) = 2.85635 3.96386 3.45477
# Velocity P-wave (km/s) = 4.93354 6.59594 5.82435
#
# Compressibility (1/GPa) = 0.03426719
#
# Stress axis : x y z
#
# Youngs Moduli (GPa) = 52.87154 41.27657 35.35820
#
# Poissons Ratio (x) = 0.64517 0.14422
# Poissons Ratio (y) = 0.82641 -0.04001
# Poissons Ratio (z) = 0.21565 -0.04671
#
# Static dielectric constant tensor:
#      x y z
#    x 1.865190 0.000000 0.000000 
#    y 0.000000 1.811220 0.000000 
#    z 0.000000 0.000000 1.799450 
# 
# From -- ./inp_files/7088.got.cif
#   From: 2010.05.17/outbox.cif.g08.bks.cpg/sg47_4_cif.got.tgz:7088.got - 2010.06.03 20:15:42.
