data_PCOD9384269
_publ_section_title
;
Structure prediction by ZEFSAII (Michael W. Deem and Ramdas Pophale) SiO2 
 PCOD9384269
Probable space group: P M M M
;
_chemical_formula_sum "Si O2"
_cell_formula_units_Z 44
_cell_length_a 7.816624
_cell_length_b 9.520159
_cell_length_c 29.973652
_cell_angle_alpha 90.000000
_cell_angle_beta 90.000000
_cell_angle_gamma 90.000000
_cell_volume 2230.504400
_symmetry_space_group_name_H-M "P M M M"
_symmetry_group_IT_number 47
_symmetry_cell_setting 'orthorhombic'
loop_
_space_group_symop_operation_xyz
x,y,z
-x,-y,z
x,-y,-z
-x,y,-z
-x,-y,-z
x,y,-z
-x,y,z
x,-y,z
loop_
_atom_site_type_symbol
_atom_site_label
_atom_site_fract_x
_atom_site_fract_y
_atom_site_fract_z
Si Si1 0.794556 0.163483 0.047989
Si Si2 0.790523 0.838157 0.413324
Si Si3 0.297635 0.158201 0.143840
Si Si4 0.794771 0.341059 0.771207
Si Si5 0.209187 0.337917 0.500000
Si Si6 0.208732 0.663288 0.672069
O O1 0.746102 0.225670 0.095782
O O2 0.000000 0.162083 0.046838
O O3 0.735457 0.000000 0.049103
O O4 0.735224 0.223081 0.000000
O O5 0.737047 0.746249 0.455882
O O6 0.733206 0.763181 0.367743
O O7 0.000000 0.838422 0.413232
O O8 0.735888 0.000000 0.416427
O O9 0.500000 0.146084 0.144824
O O10 0.246212 0.244526 0.187092
O O11 0.221572 0.000000 0.145342
O O12 0.730694 0.500000 0.778416
O O13 0.735065 0.293691 0.721964
O O14 0.000000 0.347830 0.768376
O O15 0.265185 0.500000 0.500000
O O16 0.000000 0.339572 0.500000
O O17 0.257615 0.500000 0.664989
O O18 0.000000 0.666051 0.671370
#
# Coordination Sequence:
#
# PCOD9384269 Si02
#       6
#     8   8   8   8   4   8
#     4   8  14  26  45  68  93 122 156 192 229 270
#     4   9  15  21  30  47  71  98 132 175 220 265
#     4  10  20  31  45  69  98 125 153 187 230 279
#     4   9  18  32  49  67  87 116 155 195 234 278
#     4   9  15  21  29  41  63 101 142 175 212 261
#     4   8  14  25  39  54  73  99 135 178 221 267
#
# _framework density 19.726482000000001
#
# number of rings (size 3 to 8) (size 9 to 14) (size 15 to 20)
#    0.000    3.182    0.000    3.000    0.000    5.818 
#    0.000    3.636    0.000    0.545    0.000    3.818 
#    0.000    0.000    0.000    0.818    0.000   16.182 
#
# Total GULP energy -245132.128897 kJ/mol
# GULP energy per Si atom -5571.184748 kJ/mol
# Density = 1.968158 g / cm^3
# Si number density = 19.726482 Si / 1000 Ang^3
#
#
#
# Elastic Constant Matrix: (Units=GPa)
#
#
# Indices 1 2 3 4 5 6 
#
# 1 21.9172 5.2575 12.0011 0.0000 0.0000 0.0000
# 2 5.2575 103.7898 116.2355 0.0000 0.0000 0.0000
# 3 12.0011 116.2355 250.2815 0.0000 0.0000 0.0000
# 4 0.0000 0.0000 0.0000 44.7203 0.0000 0.0000
# 5 0.0000 0.0000 0.0000 0.0000 -31.4773 0.0000
# 6 0.0000 0.0000 0.0000 0.0000 0.0000 1.5258
#
#
#
# Elastic Compliance Matrix: (Units=1/GPa)
#
#
# Indices 1 2 3 4 5 6 
#
# 1 0.046861 0.000297 -0.002385 0.000000 0.000000 0.000000
# 2 0.000297 0.020079 -0.009339 0.000000 0.000000 0.000000
# 3 -0.002385 -0.009339 0.008447 0.000000 0.000000 0.000000
# 4 0.000000 0.000000 0.000000 0.022361 0.000000 0.000000
# 5 0.000000 0.000000 0.000000 0.000000 -0.031769 0.000000
# 6 0.000000 0.000000 0.000000 0.000000 0.000000 0.655399
#
#
# Mechanical properties :
#
#
# Convention : Reuss Voigt Hill
#
# Bulk Modulus (GPa) = 19.03563 71.44185 45.23874
# Shear Modulus (GPa) = 6.56389 19.12005 12.84197
#
# Velocity S-wave (km/s) = 1.82611 3.11667 2.55424
# Velocity P-wave (km/s) = 3.75725 7.01757 5.62865
#
# Compressibility (1/GPa) = 0.05253308
#
# Stress axis : x y z
#
# Youngs Moduli (GPa) = 21.33971 49.80319 118.38189
#
# Poissons Ratio (x) = -0.01481 0.28235
# Poissons Ratio (y) = -0.00635 1.10561
# Poissons Ratio (z) = 0.05090 0.46513
#
# Static dielectric constant tensor:
#      x y z
#    x 1.709440 0.000000 0.000000 
#    y 0.000000 1.709600 0.000000 
#    z 0.000000 0.000000 1.720820 
# 
# From -- ./inp_files/33935.got.cif
#   From: 2010.05.17/outbox.cif.g08.bks.cpg/sg47_17_cif.got.tgz:33935.got - 2010.06.03 20:15:42.
