data_PCOD9384010
_publ_section_title
;
Structure prediction by ZEFSAII (Michael W. Deem and Ramdas Pophale) SiO2 
 PCOD9384010
Probable space group: P M M M
;
_chemical_formula_sum "Si O2"
_cell_formula_units_Z 45
_cell_length_a 19.110768
_cell_length_b 15.213115
_cell_length_c 7.830252
_cell_angle_alpha 90.000000
_cell_angle_beta 90.000000
_cell_angle_gamma 90.000000
_cell_volume 2276.522923
_symmetry_space_group_name_H-M "P M M M"
_symmetry_group_IT_number 47
_symmetry_cell_setting 'orthorhombic'
loop_
_space_group_symop_operation_xyz
x,y,z
-x,-y,z
x,-y,-z
-x,y,-z
-x,-y,-z
x,y,-z
-x,y,z
x,-y,z
loop_
_atom_site_type_symbol
_atom_site_label
_atom_site_fract_x
_atom_site_fract_y
_atom_site_fract_z
Si Si1 0.384012 0.000000 0.189721
Si Si2 0.289057 0.843672 0.305349
Si Si3 0.500000 0.000000 0.500000
Si Si4 0.867226 0.788162 0.205543
Si Si5 0.318156 0.345927 0.798670
Si Si6 0.162978 0.596038 0.208027
Si Si7 0.000000 0.899124 0.209597
Si Si8 0.420496 0.500000 0.295106
O O1 0.333516 0.084973 0.204558
O O2 0.438645 0.000000 0.346803
O O3 0.416272 0.000000 0.000000
O O4 0.287691 0.873284 0.500000
O O5 0.209034 0.827151 0.247935
O O6 0.324602 0.747648 0.291311
O O7 0.872175 0.686814 0.267138
O O8 0.930591 0.848124 0.267110
O O9 0.871360 0.784903 0.000000
O O10 0.244842 0.391273 0.746877
O O11 0.379613 0.413907 0.765953
O O12 0.312268 0.327443 0.000000
O O13 0.138410 0.500000 0.268114
O O14 0.158672 0.594903 0.000000
O O15 0.000000 0.000000 0.264171
O O16 0.000000 0.898740 0.000000
O O17 0.500000 0.500000 0.234071
O O18 0.419910 0.500000 0.500000
#
# Coordination Sequence:
#
# PCOD9384010 Si02
#       8
#     4   8   1   8   8   8   4   4
#     4  12  25  47  73  95 130 168 208 260 324 386
#     4  11  22  40  63  94 124 158 209 270 314 375
#     4  12  26  52  68 106 128 164 210 264 320 386
#     4   9  18  32  54  83 116 158 210 255 311 379
#     4  10  19  35  58  82 111 151 202 251 307 374
#     4   8  13  25  48  76 104 138 186 248 302 354
#     4   9  18  32  50  80 120 161 204 258 318 382
#     4  11  23  37  51  79 119 160 193 244 311 377
#
# _framework density 19.766987
#
# number of rings (size 3 to 8) (size 9 to 14) (size 15 to 20)
#    0.000    2.133    1.778    3.600    1.244    0.711 
#    1.600    0.889    0.000    3.200    0.000    0.000 
#    0.000    3.200    0.000    0.000    0.000    0.000 
#
# Total GULP energy -250838.389228 kJ/mol
# GULP energy per Si atom -5574.186427 kJ/mol
# Density = 1.972200 g / cm^3
# Si number density = 19.766987 Si / 1000 Ang^3
#
#
#
# Elastic Constant Matrix: (Units=GPa)
#
#
# Indices 1 2 3 4 5 6 
#
# 1 114.9645 87.3644 13.6464 0.0000 0.0000 0.0000
# 2 87.3644 163.4363 17.9128 0.0000 0.0000 0.0000
# 3 13.6464 17.9128 68.2696 0.0000 0.0000 0.0000
# 4 0.0000 0.0000 0.0000 134.4706 0.0000 0.0000
# 5 0.0000 0.0000 0.0000 0.0000 -1.5406 0.0000
# 6 0.0000 0.0000 0.0000 0.0000 0.0000 10.0597
#
#
#
# Elastic Compliance Matrix: (Units=1/GPa)
#
#
# Indices 1 2 3 4 5 6 
#
# 1 0.014703 -0.007760 -0.000903 0.000000 0.000000 0.000000
# 2 -0.007760 0.010396 -0.001176 0.000000 0.000000 0.000000
# 3 -0.000903 -0.001176 0.015137 0.000000 0.000000 0.000000
# 4 0.000000 0.000000 0.000000 0.007437 0.000000 0.000000
# 5 0.000000 0.000000 0.000000 0.000000 -0.649116 0.000000
# 6 0.000000 0.000000 0.000000 0.000000 0.000000 0.099407
#
#
# Mechanical properties :
#
#
# Convention : Reuss Voigt Hill
#
# Bulk Modulus (GPa) = 48.64675 64.94641 56.79658
# Shear Modulus (GPa) = -10.51513 43.78107 16.63297
#
# Velocity S-wave (km/s) = -2.30891 4.71133 2.90393
# Velocity P-wave (km/s) = 4.18992 7.90714 6.32765
#
# Compressibility (1/GPa) = 0.02055636
#
# Stress axis : x y z
#
# Youngs Moduli (GPa) = 68.01411 96.19233 66.06356
#
# Poissons Ratio (x) = 0.74649 0.05964
# Poissons Ratio (y) = 0.52782 0.07772
# Poissons Ratio (z) = 0.06140 0.11317
#
# Static dielectric constant tensor:
#      x y z
#    x 1.667070 0.000000 0.000000 
#    y 0.000000 1.699430 0.000000 
#    z 0.000000 0.000000 1.721910 
# 
# From -- ./inp_files/9107.got.cif
#   From: 2010.05.17/outbox.cif.g08.bks.cpg/sg47_5_cif.got.tgz:9107.got - 2010.06.03 20:15:42.
