data_PCOD9384298
_publ_section_title
;
Structure prediction by ZEFSAII (Michael W. Deem and Ramdas Pophale) SiO2 
 PCOD9384298
Probable space group: P M M M
;
_chemical_formula_sum "Si O2"
_cell_formula_units_Z 52
_cell_length_a 7.440527
_cell_length_b 14.912938
_cell_length_c 21.424049
_cell_angle_alpha 90.000000
_cell_angle_beta 90.000000
_cell_angle_gamma 90.000000
_cell_volume 2377.215002
_symmetry_space_group_name_H-M "P M M M"
_symmetry_group_IT_number 47
_symmetry_cell_setting 'orthorhombic'
loop_
_space_group_symop_operation_xyz
x,y,z
-x,-y,z
x,-y,-z
-x,y,-z
-x,-y,-z
x,y,-z
-x,y,z
x,-y,z
loop_
_atom_site_type_symbol
_atom_site_label
_atom_site_fract_x
_atom_site_fract_y
_atom_site_fract_z
Si Si1 0.716968 0.396987 0.203789
Si Si2 0.298931 0.500000 0.575291
Si Si3 0.785294 0.891541 0.066233
Si Si4 0.220109 0.103870 0.799269
Si Si5 0.792015 0.300460 0.429934
Si Si6 0.213022 0.757321 0.699087
Si Si7 0.713768 0.391303 0.067389
O O1 0.500000 0.398686 0.200466
O O2 0.776614 0.500000 0.212918
O O3 0.767049 0.332940 0.260421
O O4 0.783433 0.362674 0.135518
O O5 0.500000 0.500000 0.601703
O O6 0.308147 0.500000 0.500000
O O7 0.210867 0.405408 0.589633
O O8 0.716749 0.860138 0.133135
O O9 0.000000 0.875885 0.065357
O O10 0.762379 0.000000 0.066944
O O11 0.711213 0.858179 0.000000
O O12 0.714917 0.163853 0.742617
O O13 0.000000 0.106349 0.800440
O O14 0.729229 0.000000 0.792984
O O15 0.713048 0.291910 0.500000
O O16 0.710211 0.250418 0.370579
O O17 0.000000 0.274125 0.435258
O O18 0.000000 0.772680 0.691935
O O19 0.500000 0.372799 0.066466
O O20 0.732758 0.500000 0.068046
O O21 0.787657 0.359824 0.000000
#
# Coordination Sequence:
#
# PCOD9384298 Si02
#       7
#     8   4   8   8   8   8   8
#     4   9  18  31  46  66  92 121 151 185 226 267
#     4   9  17  29  47  71  93 113 144 185 224 261
#     4   7   9  15  31  55  81 110 142 174 213 265
#     4   8  14  26  43  62  86 116 150 187 225 267
#     4   9  18  32  47  63  89 124 155 181 217 273
#     4  10  20  31  46  68  91 118 152 187 228 276
#     4   7  10  20  40  61  79 107 151 191 215 247
#
# _framework density 21.874336
#
# number of rings (size 3 to 8) (size 9 to 14) (size 15 to 20)
#    0.000    3.615    0.000    3.000    1.077    1.846 
#    0.000    0.769    0.000    2.308    0.000    5.385 
#    0.000    0.000    0.000   12.923    0.000    8.923 
#
# Total GULP energy -289775.190250 kJ/mol
# GULP energy per Si atom -5572.599813 kJ/mol
# Density = 2.182455 g / cm^3
# Si number density = 21.874336 Si / 1000 Ang^3
#
#
#
# Elastic Constant Matrix: (Units=GPa)
#
#
# Indices 1 2 3 4 5 6 
#
# 1 69.3532 -2.1813 11.6862 0.0000 0.0000 0.0000
# 2 -2.1813 70.9100 68.9893 0.0000 0.0000 0.0000
# 3 11.6862 68.9893 235.7964 0.0000 0.0000 0.0000
# 4 0.0000 0.0000 0.0000 18.7742 0.0000 0.0000
# 5 0.0000 0.0000 0.0000 0.0000 6.3000 0.0000
# 6 0.0000 0.0000 0.0000 0.0000 0.0000 8.6644
#
#
#
# Elastic Compliance Matrix: (Units=1/GPa)
#
#
# Indices 1 2 3 4 5 6 
#
# 1 0.014672 0.001620 -0.001201 0.000000 0.000000 0.000000
# 2 0.001620 0.019893 -0.005901 0.000000 0.000000 0.000000
# 3 -0.001201 -0.005901 0.006027 0.000000 0.000000 0.000000
# 4 0.000000 0.000000 0.000000 0.053264 0.000000 0.000000
# 5 0.000000 0.000000 0.000000 0.000000 0.158730 0.000000
# 6 0.000000 0.000000 0.000000 0.000000 0.000000 0.115414
#
#
# Mechanical properties :
#
#
# Convention : Reuss Voigt Hill
#
# Bulk Modulus (GPa) = 33.75116 59.22754 46.48935
# Shear Modulus (GPa) = 12.85873 26.58542 19.72207
#
# Velocity S-wave (km/s) = 2.42718 3.49000 3.00594
# Velocity P-wave (km/s) = 4.82887 6.58598 5.77465
#
# Compressibility (1/GPa) = 0.02962861
#
# Stress axis : x y z
#
# Youngs Moduli (GPa) = 68.15564 50.26904 165.92380
#
# Poissons Ratio (x) = -0.08143 0.19930
# Poissons Ratio (y) = -0.11041 0.97904
# Poissons Ratio (z) = 0.08186 0.29662
#
# Static dielectric constant tensor:
#      x y z
#    x 1.837400 0.000000 0.000000 
#    y 0.000000 1.793110 0.000000 
#    z 0.000000 0.000000 1.866790 
# 
# From -- ./inp_files/29553.got.cif
#   From: 2010.05.17/outbox.cif.g08.bks.cpg/sg47_15_cif.got.tgz:29553.got - 2010.06.03 20:15:42.
