data_PCOD9384824
_publ_section_title
;
Structure prediction by ZEFSAII (Michael W. Deem and Ramdas Pophale) SiO2 
 PCOD9384824
Probable space group: P M M M
;
_chemical_formula_sum "Si O2"
_cell_formula_units_Z 44
_cell_length_a 7.978008
_cell_length_b 9.605581
_cell_length_c 29.035912
_cell_angle_alpha 90.000000
_cell_angle_beta 90.000000
_cell_angle_gamma 90.000000
_cell_volume 2225.120719
_symmetry_space_group_name_H-M "P M M M"
_symmetry_group_IT_number 47
_symmetry_cell_setting 'orthorhombic'
loop_
_space_group_symop_operation_xyz
x,y,z
-x,-y,z
x,-y,-z
-x,y,-z
-x,-y,-z
x,y,-z
-x,y,z
x,-y,z
loop_
_atom_site_type_symbol
_atom_site_label
_atom_site_fract_x
_atom_site_fract_y
_atom_site_fract_z
Si Si1 0.295351 0.660481 0.551782
Si Si2 0.205558 0.660856 0.000000
Si Si3 0.200453 0.158238 0.913013
Si Si4 0.298501 0.157356 0.362739
Si Si5 0.200342 0.658316 0.276328
Si Si6 0.300281 0.341153 0.172912
O O1 0.243592 0.701557 0.500000
O O2 0.500000 0.662263 0.552197
O O3 0.245062 0.500000 0.559618
O O4 0.234896 0.758736 0.592672
O O5 0.262356 0.745044 0.954838
O O6 0.260056 0.500000 0.000000
O O7 0.000000 0.658969 0.000000
O O8 0.234213 0.235402 0.865080
O O9 0.000000 0.149270 0.918714
O O10 0.266860 0.000000 0.914242
O O11 0.500000 0.151028 0.367035
O O12 0.260182 0.240740 0.316347
O O13 0.233528 0.000000 0.361043
O O14 0.263605 0.500000 0.284240
O O15 0.255316 0.700201 0.225032
O O16 0.000000 0.655190 0.277168
O O17 0.500000 0.345205 0.168921
O O18 0.235375 0.500000 0.165585
#
# Coordination Sequence:
#
# PCOD9384824 Si02
#       6
#     8   4   8   8   8   8
#     4   8  14  26  46  72 101 134 172 212 253 299
#     4   9  17  31  54  81 108 141 180 220 258 299
#     4  10  20  34  54  81 112 144 177 214 258 308
#     4  10  20  32  49  76 108 140 172 209 257 310
#     4  10  21  37  57  78 100 132 175 219 262 310
#     4  10  21  37  57  80 105 135 173 217 264 312
#
# _framework density 19.774207000000001
#
# number of rings (size 3 to 8) (size 9 to 14) (size 15 to 20)
#    0.000    2.455    0.000    3.000    0.000    6.545 
#    0.000    2.273    0.000    3.273    0.000    3.818 
#    0.000    0.000    0.000    0.000    0.000    0.000 
#
# Total GULP energy -245634.342095 kJ/mol
# GULP energy per Si atom -5582.598684 kJ/mol
# Density = 1.972920 g / cm^3
# Si number density = 19.774207 Si / 1000 Ang^3
#
#
#
# Elastic Constant Matrix: (Units=GPa)
#
#
# Indices 1 2 3 4 5 6 
#
# 1 16.0230 9.4344 -0.4856 0.0000 0.0000 0.0000
# 2 9.4344 173.7069 145.7942 0.0000 0.0000 0.0000
# 3 -0.4856 145.7942 187.5225 0.0000 0.0000 0.0000
# 4 0.0000 0.0000 0.0000 6.2734 0.0000 0.0000
# 5 0.0000 0.0000 0.0000 0.0000 20.2161 0.0000
# 6 0.0000 0.0000 0.0000 0.0000 0.0000 15.5603
#
#
#
# Elastic Compliance Matrix: (Units=1/GPa)
#
#
# Indices 1 2 3 4 5 6 
#
# 1 0.069316 -0.011269 0.008941 0.000000 0.000000 0.000000
# 2 -0.011269 0.018400 -0.014335 0.000000 0.000000 0.000000
# 3 0.008941 -0.014335 0.016501 0.000000 0.000000 0.000000
# 4 0.000000 0.000000 0.000000 0.159404 0.000000 0.000000
# 5 0.000000 0.000000 0.000000 0.000000 0.049466 0.000000
# 6 0.000000 0.000000 0.000000 0.000000 0.000000 0.064266
#
#
# Mechanical properties :
#
#
# Convention : Reuss Voigt Hill
#
# Bulk Modulus (GPa) = 14.10610 76.30426 45.20518
# Shear Modulus (GPa) = 11.51250 23.24390 17.37820
#
# Velocity S-wave (km/s) = 2.41550 3.43223 2.96773
# Velocity P-wave (km/s) = 3.86375 7.37417 5.88672
#
# Compressibility (1/GPa) = 0.07089133
#
# Stress axis : x y z
#
# Youngs Moduli (GPa) = 14.42666 54.34636 60.60214
#
# Poissons Ratio (x) = 0.61241 -0.54182
# Poissons Ratio (y) = 0.16257 0.86874
# Poissons Ratio (z) = -0.12898 0.77906
#
# Static dielectric constant tensor:
#      x y z
#    x 1.721700 0.000000 0.000000 
#    y 0.000000 1.690790 0.000000 
#    z 0.000000 0.000000 1.664420 
# 
# From -- ./inp_files/2175.got.cif
#   From: 2010.05.17/outbox.cif.g08.bks.cpg/sg47_2_cif.got.tgz:2175.got - 2010.06.03 20:15:42.
