data_PCOD9384830
_publ_section_title
;
Structure prediction by ZEFSAII (Michael W. Deem and Ramdas Pophale) SiO2 
 PCOD9384830
Probable space group: P M M M
;
_chemical_formula_sum "Si O2"
_cell_formula_units_Z 36
_cell_length_a 7.882824
_cell_length_b 23.496453
_cell_length_c 9.864893
_cell_angle_alpha 90.000000
_cell_angle_beta 90.000000
_cell_angle_gamma 90.000000
_cell_volume 1827.159733
_symmetry_space_group_name_H-M "P M M M"
_symmetry_group_IT_number 47
_symmetry_cell_setting 'orthorhombic'
loop_
_space_group_symop_operation_xyz
x,y,z
-x,-y,z
x,-y,-z
-x,y,-z
-x,-y,-z
x,y,-z
-x,y,z
x,-y,z
loop_
_atom_site_type_symbol
_atom_site_label
_atom_site_fract_x
_atom_site_fract_y
_atom_site_fract_z
Si Si1 0.204776 0.935087 0.846717
Si Si2 0.201203 0.500000 0.347628
Si Si3 0.704130 0.397369 0.152968
Si Si4 0.296648 0.167465 0.346669
Si Si5 0.707266 0.268260 0.154925
O O1 0.262173 0.889657 0.737192
O O2 0.000000 0.935237 0.847811
O O3 0.260453 0.000000 0.818496
O O4 0.261761 0.919947 0.000000
O O5 0.274449 0.500000 0.500000
O O6 0.249369 0.555636 0.262012
O O7 0.000000 0.500000 0.358640
O O8 0.500000 0.395742 0.147239
O O9 0.761419 0.333014 0.185578
O O10 0.764283 0.411852 0.000000
O O11 0.229856 0.165295 0.500000
O O12 0.500000 0.173877 0.354606
O O13 0.231183 0.221213 0.260244
O O14 0.500000 0.267777 0.157030
O O15 0.757723 0.254735 0.000000
#
# Coordination Sequence:
#
# PCOD9384830 Si02
#       5
#     8   4   8   8   8
#     4   9  19  36  55  73  95 128 172 216 253 293
#     4  11  24  37  48  70 106 141 170 203 246 296
#     4   9  18  34  57  81 100 124 166 213 251 294
#     4  10  20  32  49  77 109 136 163 199 246 300
#     4   8  15  30  52  76 101 129 163 205 249 292
#
# _framework density 19.702711999999998
#
# number of rings (size 3 to 8) (size 9 to 14) (size 15 to 20)
#    0.000    2.778    0.000    3.333    0.000    6.222 
#    0.000    6.667    0.000    1.333    0.000    0.000 
#    0.000    0.000    0.000    0.000    0.000    0.000 
#
# Total GULP energy -200859.713639 kJ/mol
# GULP energy per Si atom -5579.436490 kJ/mol
# Density = 1.965787 g / cm^3
# Si number density = 19.702712 Si / 1000 Ang^3
#
#
#
# Elastic Constant Matrix: (Units=GPa)
#
#
# Indices 1 2 3 4 5 6 
#
# 1 18.8507 7.7093 11.2623 0.0000 0.0000 0.0000
# 2 7.7093 164.7867 152.7363 0.0000 0.0000 0.0000
# 3 11.2623 152.7363 205.5139 0.0000 0.0000 0.0000
# 4 0.0000 0.0000 0.0000 -13.0812 0.0000 0.0000
# 5 0.0000 0.0000 0.0000 0.0000 8.6988 0.0000
# 6 0.0000 0.0000 0.0000 0.0000 0.0000 80.0283
#
#
#
# Elastic Compliance Matrix: (Units=1/GPa)
#
#
# Indices 1 2 3 4 5 6 
#
# 1 0.054870 0.000707 -0.003532 0.000000 0.000000 0.000000
# 2 0.000707 0.019512 -0.014540 0.000000 0.000000 0.000000
# 3 -0.003532 -0.014540 0.015865 0.000000 0.000000 0.000000
# 4 0.000000 0.000000 0.000000 -0.076446 0.000000 0.000000
# 5 0.000000 0.000000 0.000000 0.000000 0.114959 0.000000
# 6 0.000000 0.000000 0.000000 0.000000 0.000000 0.012496
#
#
# Mechanical properties :
#
#
# Convention : Reuss Voigt Hill
#
# Bulk Modulus (GPa) = 18.01261 81.39635 49.70448
# Shear Modulus (GPa) = 25.70798 29.62540 27.66669
#
# Velocity S-wave (km/s) = 3.61611 3.88186 3.75134
# Velocity P-wave (km/s) = 5.15723 7.84179 6.63667
#
# Compressibility (1/GPa) = 0.05551666
#
# Stress axis : x y z
#
# Youngs Moduli (GPa) = 18.22498 51.25034 63.03021
#
# Poissons Ratio (x) = -0.03624 0.22265
# Poissons Ratio (y) = -0.01289 0.91646
# Poissons Ratio (z) = 0.06438 0.74518
#
# Static dielectric constant tensor:
#      x y z
#    x 1.721160 0.000000 0.000000 
#    y 0.000000 1.676990 0.000000 
#    z 0.000000 0.000000 1.689590 
# 
# From -- ./inp_files/1432.got.cif
#   From: 2010.05.17/outbox.cif.g08.bks.cpg/sg47_1_cif.got.tgz:1432.got - 2010.06.03 20:15:42.
