data_PCOD9384734
_publ_section_title
;
Structure prediction by ZEFSAII (Michael W. Deem and Ramdas Pophale) SiO2 
 PCOD9384734
Probable space group: P M M M
;
_chemical_formula_sum "Si O2"
_cell_formula_units_Z 37
_cell_length_a 8.085300
_cell_length_b 27.351384
_cell_length_c 8.968156
_cell_angle_alpha 90.000000
_cell_angle_beta 90.000000
_cell_angle_gamma 90.000000
_cell_volume 1983.255191
_symmetry_space_group_name_H-M "P M M M"
_symmetry_group_IT_number 47
_symmetry_cell_setting 'orthorhombic'
loop_
_space_group_symop_operation_xyz
x,y,z
-x,-y,z
x,-y,-z
-x,y,-z
-x,-y,-z
x,y,-z
-x,y,z
x,-y,z
loop_
_atom_site_type_symbol
_atom_site_label
_atom_site_fract_x
_atom_site_fract_y
_atom_site_fract_z
Si Si1 0.500000 0.601263 0.164412
Si Si2 0.500000 0.500000 0.000000
Si Si3 0.305593 0.744005 0.173058
Si Si4 0.814629 0.352042 0.678120
Si Si5 0.301172 0.052894 0.322972
Si Si6 0.196106 0.158276 0.326997
O O1 0.665881 0.617585 0.248407
O O2 0.500000 0.626137 0.000000
O O3 0.500000 0.543848 0.127362
O O4 0.500000 0.732491 0.186097
O O5 0.208303 0.703649 0.267226
O O6 0.276583 0.798158 0.235279
O O7 0.256925 0.741403 0.000000
O O8 0.800178 0.353949 0.500000
O O9 0.000000 0.368930 0.720479
O O10 0.259940 0.052409 0.500000
O O11 0.500000 0.054444 0.310969
O O12 0.232504 0.104039 0.264701
O O13 0.245042 0.000000 0.261556
O O14 0.255127 0.160093 0.500000
O O15 0.000000 0.165711 0.327470
#
# Coordination Sequence:
#
# PCOD9384734 Si02
#       6
#     4   1   8   8   8   8
#     4  10  21  43  67  97 129 172 215 256 302 354
#     4   8  24  44  72 100 136 174 226 256 300 360
#     4  11  23  37  55  82 114 154 200 246 302 369
#     4  11  23  39  64  97 131 168 211 261 315 369
#     4   8  14  26  45  68  94 130 178 230 287 352
#     4  10  20  32  48  74 108 143 182 233 295 361
#
# _framework density 18.656196000000001
#
# number of rings (size 3 to 8) (size 9 to 14) (size 15 to 20)
#    0.324    1.730    1.081    3.568    0.000    7.351 
#    0.000    4.324    0.000    1.946    0.000    4.541 
#    0.000    0.000    0.000    0.000    0.000    0.000 
#
# Total GULP energy -206112.318647 kJ/mol
# GULP energy per Si atom -5570.603207 kJ/mol
# Density = 1.861373 g / cm^3
# Si number density = 18.656196 Si / 1000 Ang^3
#
#
#
# Elastic Constant Matrix: (Units=GPa)
#
#
# Indices 1 2 3 4 5 6 
#
# 1 94.7577 49.7420 48.8587 0.0000 0.0000 0.0000
# 2 49.7420 131.0211 34.7785 0.0000 0.0000 0.0000
# 3 48.8587 34.7785 64.5646 0.0000 0.0000 0.0000
# 4 0.0000 0.0000 0.0000 37.4598 0.0000 0.0000
# 5 0.0000 0.0000 0.0000 0.0000 3.8540 0.0000
# 6 0.0000 0.0000 0.0000 0.0000 0.0000 2.4463
#
#
#
# Elastic Compliance Matrix: (Units=1/GPa)
#
#
# Indices 1 2 3 4 5 6 
#
# 1 0.018904 -0.003944 -0.012181 0.000000 0.000000 0.000000
# 2 -0.003944 0.009728 -0.002256 0.000000 0.000000 0.000000
# 3 -0.012181 -0.002256 0.025922 0.000000 0.000000 0.000000
# 4 0.000000 0.000000 0.000000 0.026695 0.000000 0.000000
# 5 0.000000 0.000000 0.000000 0.000000 0.259468 0.000000
# 6 0.000000 0.000000 0.000000 0.000000 0.000000 0.408776
#
#
# Mechanical properties :
#
#
# Convention : Reuss Voigt Hill
#
# Bulk Modulus (GPa) = 56.20371 61.90020 59.05196
# Shear Modulus (GPa) = 6.31165 19.21632 12.76399
#
# Velocity S-wave (km/s) = 1.84133 3.21288 2.61850
# Velocity P-wave (km/s) = 5.89170 6.85674 6.39246
#
# Compressibility (1/GPa) = 0.01779242
#
# Stress axis : x y z
#
# Youngs Moduli (GPa) = 52.89799 102.79217 38.57752
#
# Poissons Ratio (x) = 0.40536 0.46993
# Poissons Ratio (y) = 0.20860 0.08703
# Poissons Ratio (z) = 0.64437 0.23191
#
# Static dielectric constant tensor:
#      x y z
#    x 1.653860 0.000000 0.000000 
#    y 0.000000 1.646420 0.000000 
#    z 0.000000 0.000000 1.635660 
# 
# From -- ./inp_files/1538.got.cif
#   From: 2010.05.17/outbox.cif.g08.bks.cpg/sg47_1_cif.got.tgz:1538.got - 2010.06.03 20:15:42.
