data_PCOD9384994
_publ_section_title
;
Structure prediction by ZEFSAII (Michael W. Deem and Ramdas Pophale) SiO2 
 PCOD9384994
Probable space group: P M M M
;
_chemical_formula_sum "Si O2"
_cell_formula_units_Z 56
_cell_length_a 21.019764
_cell_length_b 15.895213
_cell_length_c 8.531503
_cell_angle_alpha 90.000000
_cell_angle_beta 90.000000
_cell_angle_gamma 90.000000
_cell_volume 2850.491402
_symmetry_space_group_name_H-M "P M M M"
_symmetry_group_IT_number 47
_symmetry_cell_setting 'orthorhombic'
loop_
_space_group_symop_operation_xyz
x,y,z
-x,-y,z
x,-y,-z
-x,y,-z
-x,-y,-z
x,y,-z
-x,y,z
x,-y,z
loop_
_atom_site_type_symbol
_atom_site_label
_atom_site_fract_x
_atom_site_fract_y
_atom_site_fract_z
Si Si1 0.190110 0.406407 0.188250
Si Si2 0.568841 0.291122 0.174557
Si Si3 0.816425 0.779307 0.311404
Si Si4 0.928061 0.903995 0.309168
Si Si5 0.711675 0.093262 0.187284
Si Si6 0.571108 0.882941 0.318276
Si Si7 0.331745 0.405000 0.677321
O O1 0.161671 0.500000 0.231146
O O2 0.168132 0.314711 0.249058
O O3 0.260731 0.407894 0.259329
O O4 0.191282 0.403474 0.000000
O O5 0.500000 0.334146 0.184743
O O6 0.570497 0.217339 0.299357
O O7 0.625779 0.352193 0.207006
O O8 0.573847 0.253275 0.000000
O O9 0.814022 0.775020 0.500000
O O10 0.873624 0.840442 0.258286
O O11 0.751616 0.827788 0.256616
O O12 0.927380 0.904001 0.500000
O O13 0.000000 0.880988 0.260896
O O14 0.915652 0.000000 0.258612
O O15 0.636938 0.093126 0.234432
O O16 0.736973 0.000000 0.237485
O O17 0.716202 0.098902 0.000000
O O18 0.575175 0.906582 0.500000
O O19 0.500000 0.908989 0.259269
O O20 0.332529 0.370664 0.500000
O O21 0.356276 0.500000 0.672094
#
# Coordination Sequence:
#
# PCOD9384994 Si02
#       7
#     8   8   8   8   8   8   8
#     4  10  21  37  56  77 105 143 184 225 271 326
#     4  10  20  33  49  68  92 124 163 208 260 324
#     4  11  21  34  58  88 117 148 184 232 283 328
#     4   8  15  30  54  86 122 156 189 225 269 324
#     4  11  24  39  55  78 111 149 186 226 274 333
#     4  10  21  37  56  75  97 130 175 227 278 327
#     4  10  20  33  49  69  94 124 162 213 271 327
#
# _framework density 19.645734999999998
#
# number of rings (size 3 to 8) (size 9 to 14) (size 15 to 20)
#    0.000    2.000    0.000    4.286    0.000    5.714 
#    0.000    2.857    0.000    2.143    0.000    8.000 
#    0.000    0.000    0.000    0.000    0.000    0.000 
#
# Total GULP energy -312017.654797 kJ/mol
# GULP energy per Si atom -5571.743836 kJ/mol
# Density = 1.960102 g / cm^3
# Si number density = 19.645735 Si / 1000 Ang^3
#
#
#
# Elastic Constant Matrix: (Units=GPa)
#
#
# Indices 1 2 3 4 5 6 
#
# 1 80.9727 54.6219 13.4256 0.0000 0.0000 0.0000
# 2 54.6219 119.8971 27.6517 0.0000 0.0000 0.0000
# 3 13.4256 27.6517 60.1252 0.0000 0.0000 0.0000
# 4 0.0000 0.0000 0.0000 92.3729 0.0000 0.0000
# 5 0.0000 0.0000 0.0000 0.0000 3.3079 0.0000
# 6 0.0000 0.0000 0.0000 0.0000 0.0000 40.3586
#
#
#
# Elastic Compliance Matrix: (Units=1/GPa)
#
#
# Indices 1 2 3 4 5 6 
#
# 1 0.017833 -0.008061 -0.000275 0.000000 0.000000 0.000000
# 2 -0.008061 0.012974 -0.004167 0.000000 0.000000 0.000000
# 3 -0.000275 -0.004167 0.018610 0.000000 0.000000 0.000000
# 4 0.000000 0.000000 0.000000 0.010826 0.000000 0.000000
# 5 0.000000 0.000000 0.000000 0.000000 0.302307 0.000000
# 6 0.000000 0.000000 0.000000 0.000000 0.000000 0.024778
#
#
# Mechanical properties :
#
#
# Convention : Reuss Voigt Hill
#
# Bulk Modulus (GPa) = 40.96410 50.26594 45.61502
# Shear Modulus (GPa) = 11.89149 38.22759 25.05954
#
# Velocity S-wave (km/s) = 2.46295 4.41596 3.57539
# Velocity P-wave (km/s) = 5.38375 7.18628 6.34931
#
# Compressibility (1/GPa) = 0.02441162
#
# Stress axis : x y z
#
# Youngs Moduli (GPa) = 56.07557 77.07848 53.73572
#
# Poissons Ratio (x) = 0.62132 0.01477
# Poissons Ratio (y) = 0.45202 0.22390
# Poissons Ratio (z) = 0.01541 0.32116
#
# Static dielectric constant tensor:
#      x y z
#    x 1.686880 0.000000 0.000000 
#    y 0.000000 1.731820 0.000000 
#    z 0.000000 0.000000 1.676370 
# 
# From -- ./inp_files/11272.got.cif
#   From: 2010.05.17/outbox.cif.g08.bks.cpg/sg47_6_cif.got.tgz:11272.got - 2010.06.03 20:15:42.
