data_PCOD9384839
_publ_section_title
;
Structure prediction by ZEFSAII (Michael W. Deem and Ramdas Pophale) SiO2 
 PCOD9384839
Probable space group: P M M M
;
_chemical_formula_sum "Si O2"
_cell_formula_units_Z 52
_cell_length_a 21.059833
_cell_length_b 7.520878
_cell_length_c 14.847368
_cell_angle_alpha 90.000000
_cell_angle_beta 90.000000
_cell_angle_gamma 90.000000
_cell_volume 2351.651377
_symmetry_space_group_name_H-M "P M M M"
_symmetry_group_IT_number 47
_symmetry_cell_setting 'orthorhombic'
loop_
_space_group_symop_operation_xyz
x,y,z
-x,-y,z
x,-y,-z
-x,y,-z
-x,-y,-z
x,y,-z
-x,y,z
x,-y,z
loop_
_atom_site_type_symbol
_atom_site_label
_atom_site_fract_x
_atom_site_fract_y
_atom_site_fract_z
Si Si1 0.571582 0.283131 0.604756
Si Si2 0.429103 0.214856 0.104188
Si Si3 0.671047 0.295700 0.749239
Si Si4 0.070949 0.283718 0.106235
Si Si5 0.140063 0.796421 0.397475
Si Si6 0.193208 0.299666 0.214433
Si Si7 0.000000 0.300524 0.391371
O O1 0.580238 0.235464 0.500000
O O2 0.500000 0.225922 0.632422
O O3 0.571588 0.500000 0.609862
O O4 0.629036 0.218064 0.667475
O O5 0.500000 0.269564 0.132038
O O6 0.376684 0.294691 0.167625
O O7 0.425947 0.000000 0.110122
O O8 0.420449 0.262966 0.000000
O O9 0.686384 0.500000 0.723309
O O10 0.737261 0.212833 0.782756
O O11 0.070227 0.500000 0.113710
O O12 0.132477 0.219940 0.161896
O O13 0.000000 0.224103 0.136196
O O14 0.077372 0.240836 0.000000
O O15 0.146141 0.727707 0.500000
O O16 0.175135 0.694018 0.319554
O O17 0.065877 0.791350 0.370595
O O18 0.161791 0.000000 0.397084
O O19 0.200322 0.500000 0.176875
O O20 0.000000 0.500000 0.352992
O O21 0.000000 0.312577 0.500000
#
# Coordination Sequence:
#
# PCOD9384839 Si02
#       7
#     8   8   8   8   8   8   4
#     4   8  14  26  45  68  95 130 169 206 250 306
#     4   9  19  36  56  77 103 139 180 216 257 318
#     4  10  20  32  49  78 110 135 167 218 273 318
#     4   8  15  30  51  72  95 126 167 215 262 309
#     4  10  21  36  52  73 105 143 180 217 261 315
#     4  10  21  33  50  79 107 136 176 218 265 322
#     4   9  17  31  53  77  98 125 166 217 269 316
#
# _framework density 22.112120000000001
#
# number of rings (size 3 to 8) (size 9 to 14) (size 15 to 20)
#    0.000    2.846    0.000    2.538    1.077    4.923 
#    0.000    3.846    0.000    0.923    0.000    3.231 
#    0.000    0.000    0.000    0.000    0.000    0.000 
#
# Total GULP energy -290028.033486 kJ/mol
# GULP energy per Si atom -5577.462182 kJ/mol
# Density = 2.206179 g / cm^3
# Si number density = 22.112120 Si / 1000 Ang^3
#
#
#
# Elastic Constant Matrix: (Units=GPa)
#
#
# Indices 1 2 3 4 5 6 
#
# 1 203.4279 6.9654 91.0253 0.0000 0.0000 0.0000
# 2 6.9654 58.6638 2.1477 0.0000 0.0000 0.0000
# 3 91.0253 2.1477 87.6841 0.0000 0.0000 0.0000
# 4 0.0000 0.0000 0.0000 29.6310 0.0000 0.0000
# 5 0.0000 0.0000 0.0000 0.0000 456.1347 0.0000
# 6 0.0000 0.0000 0.0000 0.0000 0.0000 0.5287
#
#
#
# Elastic Compliance Matrix: (Units=1/GPa)
#
#
# Indices 1 2 3 4 5 6 
#
# 1 0.009212 -0.000744 -0.009545 0.000000 0.000000 0.000000
# 2 -0.000744 0.017122 0.000353 0.000000 0.000000 0.000000
# 3 -0.009545 0.000353 0.021305 0.000000 0.000000 0.000000
# 4 0.000000 0.000000 0.000000 0.033748 0.000000 0.000000
# 5 0.000000 0.000000 0.000000 0.000000 0.002192 0.000000
# 6 0.000000 0.000000 0.000000 0.000000 0.000000 1.891261
#
#
# Mechanical properties :
#
#
# Convention : Reuss Voigt Hill
#
# Bulk Modulus (GPa) = 36.01459 61.11695 48.56577
# Shear Modulus (GPa) = 2.49505 113.90139 58.19822
#
# Velocity S-wave (km/s) = 1.06340 7.18489 5.13583
# Velocity P-wave (km/s) = 4.22260 9.82496 7.56175
#
# Compressibility (1/GPa) = 0.02776653
#
# Stress axis : x y z
#
# Youngs Moduli (GPa) = 108.55145 58.40532 46.93809
#
# Poissons Ratio (x) = 0.04347 0.44803
# Poissons Ratio (y) = 0.08080 -0.01658
# Poissons Ratio (z) = 1.03613 -0.02064
#
# Static dielectric constant tensor:
#      x y z
#    x 1.828540 0.000000 0.000000 
#    y 0.000000 1.847870 0.000000 
#    z 0.000000 0.000000 1.784240 
# 
# From -- ./inp_files/7032.got.cif
#   From: 2010.05.17/outbox.cif.g08.bks.cpg/sg47_4_cif.got.tgz:7032.got - 2010.06.03 20:15:42.
