data_PCOD9384164
_publ_section_title
;
Structure prediction by ZEFSAII (Michael W. Deem and Ramdas Pophale) SiO2 
 PCOD9384164
Probable space group: P M M M
;
_chemical_formula_sum "Si O2"
_cell_formula_units_Z 64
_cell_length_a 8.292662
_cell_length_b 18.725873
_cell_length_c 20.852224
_cell_angle_alpha 90.000000
_cell_angle_beta 90.000000
_cell_angle_gamma 90.000000
_cell_volume 3238.086303
_symmetry_space_group_name_H-M "P M M M"
_symmetry_group_IT_number 47
_symmetry_cell_setting 'orthorhombic'
loop_
_space_group_symop_operation_xyz
x,y,z
-x,-y,z
x,-y,-z
-x,y,-z
-x,-y,-z
x,y,-z
-x,y,z
x,-y,z
loop_
_atom_site_type_symbol
_atom_site_label
_atom_site_fract_x
_atom_site_fract_y
_atom_site_fract_z
Si Si1 0.677571 0.720621 0.576047
Si Si2 0.304891 0.262285 0.070111
Si Si3 0.691342 0.421954 0.098404
Si Si4 0.697936 0.876299 0.573512
Si Si5 0.195592 0.624168 0.234384
Si Si6 0.808002 0.785506 0.792736
Si Si7 0.694387 0.077432 0.712343
Si Si8 0.807262 0.424512 0.373408
O O1 0.660615 0.724225 0.500000
O O2 0.500000 0.719713 0.606609
O O3 0.757422 0.796234 0.590896
O O4 0.760779 0.647324 0.591662
O O5 0.500000 0.263850 0.073929
O O6 0.246958 0.345428 0.072886
O O7 0.244326 0.220421 0.132612
O O8 0.259275 0.233111 0.000000
O O9 0.500000 0.422907 0.084951
O O10 0.755922 0.500000 0.077645
O O11 0.723443 0.413186 0.173973
O O12 0.747476 0.895843 0.500000
O O13 0.500000 0.874757 0.571176
O O14 0.744049 0.919126 0.637041
O O15 0.242671 0.708149 0.236345
O O16 0.242065 0.586090 0.299830
O O17 0.000000 0.620557 0.227135
O O18 0.746714 0.853858 0.753446
O O19 0.000000 0.787401 0.790347
O O20 0.500000 0.078545 0.712384
O O21 0.748275 0.000000 0.738484
O O22 0.743434 0.500000 0.399237
O O23 0.000000 0.427585 0.374476
#
# Coordination Sequence:
#
# PCOD9384164 Si02
#       8
#     8   8   8   8   8   8   8   8
#     4   9  18  32  48  64  84 115 155 197 241 289
#     4   9  18  33  53  76 103 137 175 215 259 304
#     4   9  17  28  44  70 102 133 166 204 247 296
#     4   8  15  30  52  77 104 133 166 204 244 288
#     4   9  18  32  48  66  90 124 166 206 246 293
#     4  10  20  34  54  77 102 135 172 211 253 299
#     4  10  20  33  53  82 111 137 165 199 243 298
#     4  10  20  31  43  61  86 117 155 202 252 295
#
# _framework density 19.764759999999999
#
# number of rings (size 3 to 8) (size 9 to 14) (size 15 to 20)
#    0.000    2.750    0.000    2.250    0.000    3.500 
#    0.000    3.750    0.000    1.500    0.000    7.000 
#    0.000    0.000    0.000    0.000    0.000    0.000 
#
# Total GULP energy -356468.486471 kJ/mol
# GULP energy per Si atom -5569.820101 kJ/mol
# Density = 1.971977 g / cm^3
# Si number density = 19.764760 Si / 1000 Ang^3
#
#
#
# Elastic Constant Matrix: (Units=GPa)
#
#
# Indices 1 2 3 4 5 6 
#
# 1 7.1393 19.0312 8.9499 0.0000 0.0000 0.0000
# 2 19.0312 128.8464 65.7055 0.0000 0.0000 0.0000
# 3 8.9499 65.7055 52.4079 0.0000 0.0000 0.0000
# 4 0.0000 0.0000 0.0000 -17.3961 0.0000 0.0000
# 5 0.0000 0.0000 0.0000 0.0000 -38.6473 0.0000
# 6 0.0000 0.0000 0.0000 0.0000 0.0000 13.4719
#
#
#
# Elastic Compliance Matrix: (Units=1/GPa)
#
#
# Indices 1 2 3 4 5 6 
#
# 1 0.232656 -0.039104 0.009295 0.000000 0.000000 0.000000
# 2 -0.039104 0.028092 -0.028542 0.000000 0.000000 0.000000
# 3 0.009295 -0.028542 0.053278 0.000000 0.000000 0.000000
# 4 0.000000 0.000000 0.000000 -0.057484 0.000000 0.000000
# 5 0.000000 0.000000 0.000000 0.000000 -0.025875 0.000000
# 6 0.000000 0.000000 0.000000 0.000000 0.000000 0.074229
#
#
# Mechanical properties :
#
#
# Convention : Reuss Voigt Hill
#
# Bulk Modulus (GPa) = 5.06783 41.75187 23.40985
# Shear Modulus (GPa) = 10.25907 -2.20049 4.02929
#
# Velocity S-wave (km/s) = 2.28076 -1.05630 1.42935
# Velocity P-wave (km/s) = 3.08309 4.43651 3.82021
#
# Compressibility (1/GPa) = 0.19732315
#
# Stress axis : x y z
#
# Youngs Moduli (GPa) = 4.29818 35.59718 18.76955
#
# Poissons Ratio (x) = 1.39200 -0.17446
# Poissons Ratio (y) = 0.16808 0.53572
# Poissons Ratio (z) = -0.03995 1.01601
#
# Static dielectric constant tensor:
#      x y z
#    x 1.703830 0.000000 0.000000 
#    y 0.000000 1.783330 0.000000 
#    z 0.000000 0.000000 1.703490 
# 
# From -- ./inp_files/11563.got.cif
#   From: 2010.05.17/outbox.cif.g08.bks.cpg/sg47_6_cif.got.tgz:11563.got - 2010.06.03 20:15:42.
