data_PCOD9384826
_publ_section_title
;
Structure prediction by ZEFSAII (Michael W. Deem and Ramdas Pophale) SiO2 
 PCOD9384826
Probable space group: P M M M
;
_chemical_formula_sum "Si O2"
_cell_formula_units_Z 48
_cell_length_a 9.667740
_cell_length_b 31.409989
_cell_length_c 8.677823
_cell_angle_alpha 90.000000
_cell_angle_beta 90.000000
_cell_angle_gamma 90.000000
_cell_volume 2635.139034
_symmetry_space_group_name_H-M "P M M M"
_symmetry_group_IT_number 47
_symmetry_cell_setting 'orthorhombic'
loop_
_space_group_symop_operation_xyz
x,y,z
-x,-y,z
x,-y,-z
-x,y,-z
-x,-y,-z
x,y,-z
-x,y,z
x,-y,z
loop_
_atom_site_type_symbol
_atom_site_label
_atom_site_fract_x
_atom_site_fract_y
_atom_site_fract_z
Si Si1 0.839439 0.702028 0.315456
Si Si2 0.660002 0.128028 0.686652
Si Si3 0.840890 0.951922 0.687644
Si Si4 0.659940 0.374911 0.184446
Si Si5 0.839497 0.205051 0.184548
Si Si6 0.160029 0.450832 0.685731
O O1 0.831666 0.703298 0.500000
O O2 0.741367 0.665327 0.252393
O O3 0.802953 0.748325 0.248648
O O4 0.000000 0.693232 0.272268
O O5 0.664237 0.128913 0.500000
O O6 0.500000 0.128161 0.734303
O O7 0.738593 0.085150 0.739016
O O8 0.741575 0.168742 0.748790
O O9 0.839125 0.951990 0.500000
O O10 0.000000 0.943349 0.733930
O O11 0.803965 0.000000 0.736855
O O12 0.500000 0.374954 0.234619
O O13 0.737335 0.417442 0.239248
O O14 0.663964 0.372608 0.000000
O O15 0.000000 0.196615 0.229067
O O16 0.831395 0.205572 0.000000
O O17 0.169015 0.447462 0.500000
O O18 0.189231 0.500000 0.727159
O O19 0.000000 0.441598 0.727968
#
# Coordination Sequence:
#
# PCOD9384826 Si02
#       6
#     8   8   8   8   8   8
#     4  10  21  38  61  85 106 133 174 222 268 315
#     4  10  20  32  49  76 108 141 175 212 259 314
#     4   8  14  26  46  72 101 134 173 217 262 306
#     4  11  24  38  53  79 115 150 181 216 262 316
#     4  10  21  37  57  79 103 135 175 217 263 314
#     4   9  19  37  60  84 109 140 182 229 272 315
#
# _framework density 18.215357999999998
#
# number of rings (size 3 to 8) (size 9 to 14) (size 15 to 20)
#    0.000    2.333    0.000    3.500    0.000    8.333 
#    0.000    4.167    0.000    0.500    0.000    3.500 
#    0.000    0.000    0.000    0.000    0.000    0.000 
#
# Total GULP energy -267986.989549 kJ/mol
# GULP energy per Si atom -5583.062282 kJ/mol
# Density = 1.817390 g / cm^3
# Si number density = 18.215358 Si / 1000 Ang^3
#
#
#
# Elastic Constant Matrix: (Units=GPa)
#
#
# Indices 1 2 3 4 5 6 
#
# 1 150.2143 137.9198 41.8716 0.0000 0.0000 0.0000
# 2 137.9198 175.5319 41.5096 0.0000 0.0000 0.0000
# 3 41.8716 41.5096 23.9652 0.0000 0.0000 0.0000
# 4 0.0000 0.0000 0.0000 -96.4280 0.0000 0.0000
# 5 0.0000 0.0000 0.0000 0.0000 24.8909 0.0000
# 6 0.0000 0.0000 0.0000 0.0000 0.0000 -14.4609
#
#
#
# Elastic Compliance Matrix: (Units=1/GPa)
#
#
# Indices 1 2 3 4 5 6 
#
# 1 0.027940 -0.017630 -0.018278 0.000000 0.000000 0.000000
# 2 -0.017630 0.020774 -0.005179 0.000000 0.000000 0.000000
# 3 -0.018278 -0.005179 0.082634 0.000000 0.000000 0.000000
# 4 0.000000 0.000000 0.000000 -0.010370 0.000000 0.000000
# 5 0.000000 0.000000 0.000000 0.000000 0.040175 0.000000
# 6 0.000000 0.000000 0.000000 0.000000 0.000000 -0.069152
#
#
# Mechanical properties :
#
#
# Convention : Reuss Voigt Hill
#
# Bulk Modulus (GPa) = 20.33685 88.03482 54.18583
# Shear Modulus (GPa) = 26.23732 -8.63891 8.79921
#
# Velocity S-wave (km/s) = 3.79937 -2.18013 2.20026
# Velocity P-wave (km/s) = 5.51687 6.48827 6.02219
#
# Compressibility (1/GPa) = 0.04917183
#
# Stress axis : x y z
#
# Youngs Moduli (GPa) = 35.79159 48.13619 12.10150
#
# Poissons Ratio (x) = 0.84866 0.22120
# Poissons Ratio (y) = 0.63102 0.06268
# Poissons Ratio (z) = 0.65421 0.24932
#
# Static dielectric constant tensor:
#      x y z
#    x 1.610380 0.000000 0.000000 
#    y 0.000000 1.598840 0.000000 
#    z 0.000000 0.000000 1.614920 
# 
# From -- ./inp_files/2435.got.cif
#   From: 2010.05.17/outbox.cif.g08.bks.cpg/sg47_2_cif.got.tgz:2435.got - 2010.06.03 20:15:42.
