data_PCOD9384529
_publ_section_title
;
Structure prediction by ZEFSAII (Michael W. Deem and Ramdas Pophale) SiO2 
 PCOD9384529
Probable space group: P M M M
;
_chemical_formula_sum "Si O2"
_cell_formula_units_Z 64
_cell_length_a 19.682492
_cell_length_b 8.798057
_cell_length_c 24.282810
_cell_angle_alpha 90.000000
_cell_angle_beta 90.000000
_cell_angle_gamma 90.000000
_cell_volume 4204.998030
_symmetry_space_group_name_H-M "P M M M"
_symmetry_group_IT_number 47
_symmetry_cell_setting 'orthorhombic'
loop_
_space_group_symop_operation_xyz
x,y,z
-x,-y,z
x,-y,-z
-x,y,-z
-x,-y,-z
x,y,-z
-x,y,z
x,-y,z
loop_
_atom_site_type_symbol
_atom_site_label
_atom_site_fract_x
_atom_site_fract_y
_atom_site_fract_z
Si Si1 0.795772 0.181139 0.837696
Si Si2 0.921594 0.183099 0.562374
Si Si3 0.576980 0.818067 0.888093
Si Si4 0.078636 0.316787 0.778998
Si Si5 0.846358 0.317653 0.334582
Si Si6 0.575113 0.682773 0.234401
Si Si7 0.719242 0.316720 0.267536
Si Si8 0.287648 0.318629 0.936585
O O1 0.870786 0.241259 0.822717
O O2 0.748554 0.244593 0.788310
O O3 0.764963 0.244072 0.894193
O O4 0.794279 0.000000 0.837562
O O5 0.903478 0.230985 0.500000
O O6 0.873811 0.245993 0.609807
O O7 0.000000 0.230404 0.572594
O O8 0.920186 0.000000 0.563641
O O9 0.500000 0.779896 0.906753
O O10 0.582876 0.760809 0.825098
O O11 0.637141 0.742093 0.922182
O O12 0.584469 0.000000 0.889577
O O13 0.084328 0.500000 0.783723
O O14 0.106285 0.276159 0.717922
O O15 0.000000 0.274188 0.785111
O O16 0.848673 0.500000 0.339847
O O17 0.770128 0.271977 0.316478
O O18 0.500000 0.721919 0.256070
O O19 0.577065 0.500000 0.226025
O O20 0.640003 0.723305 0.271377
O O21 0.724852 0.500000 0.262087
O O22 0.286757 0.500000 0.928875
O O23 0.271650 0.283654 0.000000
#
# Coordination Sequence:
#
# PCOD9384529 Si02
#       8
#     8   8   8   8   8   8   8   8
#     4  11  21  32  49  71  94 118 146 184 231 278
#     4   9  18  31  44  60  88 126 162 195 231 268
#     4  10  20  32  47  69  95 119 146 186 231 271
#     4   9  18  33  52  72  96 124 150 182 225 272
#     4   9  17  28  44  68  95 123 155 190 225 262
#     4   9  16  27  46  67  88 121 158 185 217 270
#     4   9  17  30  46  65  94 124 151 187 228 272
#     4  11  23  37  52  67  86 117 156 192 225 272
#
# _framework density 15.219982999999999
#
# number of rings (size 3 to 8) (size 9 to 14) (size 15 to 20)
#    0.000    2.375    1.250    3.375    0.000    5.250 
#    0.000    1.875    0.000    0.375    0.000    2.625 
#    0.000    0.500    0.000    6.250    0.000    1.000 
#
# Total GULP energy -356814.445515 kJ/mol
# GULP energy per Si atom -5575.225711 kJ/mol
# Density = 1.518534 g / cm^3
# Si number density = 15.219983 Si / 1000 Ang^3
#
#
#
# Elastic Constant Matrix: (Units=GPa)
#
#
# Indices 1 2 3 4 5 6 
#
# 1 137.4316 39.2689 74.1893 0.0000 0.0000 0.0000
# 2 39.2689 26.7972 36.5240 0.0000 0.0000 0.0000
# 3 74.1893 36.5240 103.3768 0.0000 0.0000 0.0000
# 4 0.0000 0.0000 0.0000 53.3271 0.0000 0.0000
# 5 0.0000 0.0000 0.0000 0.0000 26.1140 0.0000
# 6 0.0000 0.0000 0.0000 0.0000 0.0000 18.5900
#
#
#
# Elastic Compliance Matrix: (Units=1/GPa)
#
#
# Indices 1 2 3 4 5 6 
#
# 1 0.013905 -0.013068 -0.005362 0.000000 0.000000 0.000000
# 2 -0.013068 0.084262 -0.020392 0.000000 0.000000 0.000000
# 3 -0.005362 -0.020392 0.020726 0.000000 0.000000 0.000000
# 4 0.000000 0.000000 0.000000 0.018752 0.000000 0.000000
# 5 0.000000 0.000000 0.000000 0.000000 0.038294 0.000000
# 6 0.000000 0.000000 0.000000 0.000000 0.000000 0.053792
#
#
# Mechanical properties :
#
#
# Convention : Reuss Voigt Hill
#
# Bulk Modulus (GPa) = 24.24333 63.06335 43.65334
# Shear Modulus (GPa) = 15.57031 27.44777 21.50904
#
# Velocity S-wave (km/s) = 3.20193 4.25126 3.76335
# Velocity P-wave (km/s) = 5.44362 8.10075 6.90127
#
# Compressibility (1/GPa) = 0.04124847
#
# Stress axis : x y z
#
# Youngs Moduli (GPa) = 71.91742 11.86780 48.24883
#
# Poissons Ratio (x) = 0.15509 0.25870
# Poissons Ratio (y) = 0.93984 0.98388
# Poissons Ratio (z) = 0.38560 0.24201
#
# Static dielectric constant tensor:
#      x y z
#    x 1.529780 0.000000 0.000000 
#    y 0.000000 1.509880 0.000000 
#    z 0.000000 0.000000 1.474510 
# 
# From -- ./inp_files/11855.got.cif
#   From: 2010.05.17/outbox.cif.g08.bks.cpg/sg47_6_cif.got.tgz:11855.got - 2010.06.03 20:15:42.
