data_PCOD9384224
_publ_section_title
;
Structure prediction by ZEFSAII (Michael W. Deem and Ramdas Pophale) SiO2 
 PCOD9384224
Probable space group: P M M M
;
_chemical_formula_sum "Si O2"
_cell_formula_units_Z 56
_cell_length_a 7.672426
_cell_length_b 19.161135
_cell_length_c 19.793096
_cell_angle_alpha 90.000000
_cell_angle_beta 90.000000
_cell_angle_gamma 90.000000
_cell_volume 2909.830356
_symmetry_space_group_name_H-M "P M M M"
_symmetry_group_IT_number 47
_symmetry_cell_setting 'orthorhombic'
loop_
_space_group_symop_operation_xyz
x,y,z
-x,-y,z
x,-y,-z
-x,y,-z
-x,-y,-z
x,y,-z
-x,y,z
x,-y,z
loop_
_atom_site_type_symbol
_atom_site_label
_atom_site_fract_x
_atom_site_fract_y
_atom_site_fract_z
Si Si1 0.291819 0.791266 0.209643
Si Si2 0.209113 0.160191 0.424486
Si Si3 0.292905 0.922002 0.709256
Si Si4 0.789639 0.717598 0.924009
Si Si5 0.705946 0.677283 0.574553
Si Si6 0.288541 0.351083 0.280688
Si Si7 0.792693 0.423742 0.854209
O O1 0.500000 0.791867 0.219507
O O2 0.221296 0.863345 0.239609
O O3 0.257486 0.775256 0.131489
O O4 0.226137 0.723889 0.251473
O O5 0.264005 0.138126 0.500000
O O6 0.269535 0.109461 0.365524
O O7 0.275345 0.239291 0.414357
O O8 0.000000 0.162974 0.422828
O O9 0.500000 0.926804 0.721616
O O10 0.219603 0.000000 0.715002
O O11 0.723410 0.642897 0.895508
O O12 0.000000 0.714106 0.925413
O O13 0.727836 0.730418 0.000000
O O14 0.780924 0.661577 0.500000
O O15 0.500000 0.661910 0.571482
O O16 0.774983 0.641086 0.642448
O O17 0.500000 0.349935 0.281913
O O18 0.234670 0.407115 0.224896
O O19 0.720943 0.500000 0.871647
O O20 0.000000 0.425491 0.866540
#
# Coordination Sequence:
#
# PCOD9384224 Si02
#       7
#     8   8   8   8   8   8   8
#     4   9  17  31  49  71  95 119 154 197 239 279
#     4  10  20  31  44  66  97 129 160 199 246 291
#     4  10  20  34  51  69  92 126 166 204 242 285
#     4   9  18  32  51  75  99 125 155 186 226 277
#     4   9  16  28  47  68  91 121 160 204 245 283
#     4   9  16  28  47  69  92 120 156 198 240 277
#     4   9  18  31  47  70  99 129 157 186 225 275
#
# _framework density 19.245108999999999
#
# number of rings (size 3 to 8) (size 9 to 14) (size 15 to 20)
#    0.000    2.714    1.429    0.429    0.000    3.429 
#    0.000    2.857    0.000    0.857    0.000   10.000 
#    0.000    0.000    0.000    0.000    0.000    0.000 
#
# Total GULP energy -312197.723760 kJ/mol
# GULP energy per Si atom -5574.959353 kJ/mol
# Density = 1.920131 g / cm^3
# Si number density = 19.245109 Si / 1000 Ang^3
#
#
#
# Elastic Constant Matrix: (Units=GPa)
#
#
# Indices 1 2 3 4 5 6 
#
# 1 32.8414 -3.9307 -9.1841 0.0000 0.0000 0.0000
# 2 -3.9307 50.9317 37.4216 0.0000 0.0000 0.0000
# 3 -9.1841 37.4216 119.7363 0.0000 0.0000 0.0000
# 4 0.0000 0.0000 0.0000 14.3909 0.0000 0.0000
# 5 0.0000 0.0000 0.0000 0.0000 21.9841 0.0000
# 6 0.0000 0.0000 0.0000 0.0000 0.0000 14.7190
#
#
#
# Elastic Compliance Matrix: (Units=1/GPa)
#
#
# Indices 1 2 3 4 5 6 
#
# 1 0.031145 0.000842 0.002126 0.000000 0.000000 0.000000
# 2 0.000842 0.025509 -0.007908 0.000000 0.000000 0.000000
# 3 0.002126 -0.007908 0.010986 0.000000 0.000000 0.000000
# 4 0.000000 0.000000 0.000000 0.069488 0.000000 0.000000
# 5 0.000000 0.000000 0.000000 0.000000 0.045487 0.000000
# 6 0.000000 0.000000 0.000000 0.000000 0.000000 0.067939
#
#
# Mechanical properties :
#
#
# Convention : Reuss Voigt Hill
#
# Bulk Modulus (GPa) = 17.31320 28.01365 22.66342
# Shear Modulus (GPa) = 17.87698 22.16565 20.02131
#
# Velocity S-wave (km/s) = 3.05111 3.39743 3.22892
# Velocity P-wave (km/s) = 4.62904 5.47521 5.06981
#
# Compressibility (1/GPa) = 0.05775940
#
# Stress axis : x y z
#
# Youngs Moduli (GPa) = 32.10826 39.20121 91.02283
#
# Poissons Ratio (x) = -0.03300 -0.19350
# Poissons Ratio (y) = -0.02703 0.71981
# Poissons Ratio (z) = -0.06826 0.31000
#
# Static dielectric constant tensor:
#      x y z
#    x 1.759320 0.000000 0.000000 
#    y 0.000000 1.665500 0.000000 
#    z 0.000000 0.000000 1.698150 
# 
# From -- ./inp_files/11472.got.cif
#   From: 2010.05.17/outbox.cif.g08.bks.cpg/sg47_6_cif.got.tgz:11472.got - 2010.06.03 20:15:42.
