data_PCOD9384779
_publ_section_title
;
Structure prediction by ZEFSAII (Michael W. Deem and Ramdas Pophale) SiO2 
 PCOD9384779
Probable space group: P M M M
;
_chemical_formula_sum "Si O2"
_cell_formula_units_Z 44
_cell_length_a 9.910710
_cell_length_b 7.582748
_cell_length_c 29.195948
_cell_angle_alpha 90.000000
_cell_angle_beta 90.000000
_cell_angle_gamma 90.000000
_cell_volume 2194.087650
_symmetry_space_group_name_H-M "P M M M"
_symmetry_group_IT_number 47
_symmetry_cell_setting 'orthorhombic'
loop_
_space_group_symop_operation_xyz
x,y,z
-x,-y,z
x,-y,-z
-x,y,-z
-x,-y,-z
x,y,-z
-x,y,z
x,-y,z
loop_
_atom_site_type_symbol
_atom_site_label
_atom_site_fract_x
_atom_site_fract_y
_atom_site_fract_z
Si Si1 0.835872 0.205378 0.000000
Si Si2 0.346868 0.291131 0.714330
Si Si3 0.156120 0.216485 0.900070
Si Si4 0.346908 0.212004 0.181537
Si Si5 0.346565 0.784571 0.552382
Si Si6 0.848182 0.208517 0.631647
O O1 0.795620 0.278559 0.049564
O O2 0.000000 0.209084 0.000000
O O3 0.205472 0.000000 0.000000
O O4 0.500000 0.218698 0.707780
O O5 0.354712 0.500000 0.708808
O O6 0.304788 0.253514 0.766580
O O7 0.239908 0.226465 0.677464
O O8 0.248047 0.276287 0.858148
O O9 0.000000 0.267759 0.893805
O O10 0.157779 0.000000 0.901178
O O11 0.500000 0.278488 0.175728
O O12 0.350569 0.000000 0.177809
O O13 0.317773 0.731901 0.500000
O O14 0.500000 0.730542 0.564023
O O15 0.239273 0.719099 0.589284
O O16 0.346108 0.000000 0.553086
O O17 0.000000 0.280864 0.635655
O O18 0.860663 0.000000 0.623072
#
# Coordination Sequence:
#
# PCOD9384779 Si02
#       6
#     4   8   8   8   8   8
#     4   7  10  18  33  55  84 115 144 174 212 261
#     4  10  21  36  52  68  89 123 164 201 239 284
#     4   8  13  22  38  60  86 116 147 178 216 267
#     4   9  17  29  45  66  91 116 145 187 236 279
#     4   8  14  26  46  72 100 129 160 192 226 268
#     4  10  20  32  49  75 103 129 157 192 236 282
#
# _framework density 20.053895000000001
#
# number of rings (size 3 to 8) (size 9 to 14) (size 15 to 20)
#    0.000    3.182    0.000    2.727    0.000    3.273 
#    0.000    4.091    0.000    3.273    0.000    4.455 
#    0.000    5.091    0.000    0.000    0.000    0.000 
#
# Total GULP energy -245300.230819 kJ/mol
# GULP energy per Si atom -5575.005246 kJ/mol
# Density = 2.000825 g / cm^3
# Si number density = 20.053895 Si / 1000 Ang^3
#
#
#
# Elastic Constant Matrix: (Units=GPa)
#
#
# Indices 1 2 3 4 5 6 
#
# 1 133.0887 6.0380 137.1219 0.0000 0.0000 0.0000
# 2 6.0380 44.1908 -0.9162 0.0000 0.0000 0.0000
# 3 137.1219 -0.9162 192.7611 0.0000 0.0000 0.0000
# 4 0.0000 0.0000 0.0000 -52.7163 0.0000 0.0000
# 5 0.0000 0.0000 0.0000 0.0000 31.5721 0.0000
# 6 0.0000 0.0000 0.0000 0.0000 0.0000 0.4246
#
#
#
# Elastic Compliance Matrix: (Units=1/GPa)
#
#
# Indices 1 2 3 4 5 6 
#
# 1 0.028958 -0.004384 -0.020620 0.000000 0.000000 0.000000
# 2 -0.004384 0.023295 0.003229 0.000000 0.000000 0.000000
# 3 -0.020620 0.003229 0.019871 0.000000 0.000000 0.000000
# 4 0.000000 0.000000 0.000000 -0.018969 0.000000 0.000000
# 5 0.000000 0.000000 0.000000 0.000000 0.031674 0.000000
# 6 0.000000 0.000000 0.000000 0.000000 0.000000 2.355060
#
#
# Mechanical properties :
#
#
# Convention : Reuss Voigt Hill
#
# Bulk Modulus (GPa) = 34.99616 72.72532 53.86074
# Shear Modulus (GPa) = 2.00565 11.04255 6.52410
#
# Velocity S-wave (km/s) = 1.00115 2.34913 1.80564
# Velocity P-wave (km/s) = 4.33882 6.61071 5.59137
#
# Compressibility (1/GPa) = 0.02857456
#
# Stress axis : x y z
#
# Youngs Moduli (GPa) = 34.53334 42.92741 50.32391
#
# Poissons Ratio (x) = 0.18820 1.03768
# Poissons Ratio (y) = 0.15140 -0.16252
# Poissons Ratio (z) = 0.71208 -0.13863
#
# Static dielectric constant tensor:
#      x y z
#    x 1.672220 0.000000 0.000000 
#    y 0.000000 1.743430 0.000000 
#    z 0.000000 0.000000 1.701700 
# 
# From -- ./inp_files/33895.got.cif
#   From: 2010.05.17/outbox.cif.g08.bks.cpg/sg47_17_cif.got.tgz:33895.got - 2010.06.03 20:15:42.
