data_PCOD9384680
_publ_section_title
;
Structure prediction by ZEFSAII (Michael W. Deem and Ramdas Pophale) SiO2 
 PCOD9384680
Probable space group: P M M M
;
_chemical_formula_sum "Si O2"
_cell_formula_units_Z 40
_cell_length_a 9.511511
_cell_length_b 7.359539
_cell_length_c 26.507110
_cell_angle_alpha 90.000000
_cell_angle_beta 90.000000
_cell_angle_gamma 90.000000
_cell_volume 1855.506610
_symmetry_space_group_name_H-M "P M M M"
_symmetry_group_IT_number 47
_symmetry_cell_setting 'orthorhombic'
loop_
_space_group_symop_operation_xyz
x,y,z
-x,-y,z
x,-y,-z
-x,y,-z
-x,-y,-z
x,y,-z
-x,y,z
x,-y,z
loop_
_atom_site_type_symbol
_atom_site_label
_atom_site_fract_x
_atom_site_fract_y
_atom_site_fract_z
Si Si1 0.338169 0.721145 0.443166
Si Si2 0.158955 0.217533 0.848544
Si Si3 0.661837 0.221398 0.943071
Si Si4 0.659347 0.716661 0.748886
Si Si5 0.161585 0.722222 0.653038
O O1 0.299874 0.778429 0.500000
O O2 0.500000 0.775109 0.433335
O O3 0.336902 0.500000 0.443088
O O4 0.235253 0.780362 0.398896
O O5 0.235569 0.285218 0.899095
O O6 0.254592 0.252655 0.799963
O O7 0.000000 0.286612 0.842338
O O8 0.150251 0.000000 0.853502
O O9 0.500000 0.275425 0.933353
O O10 0.663260 0.000000 0.942705
O O11 0.700172 0.277357 0.000000
O O12 0.500000 0.787776 0.751616
O O13 0.649120 0.500000 0.742400
O O14 0.746944 0.784114 0.700796
O O15 0.161662 0.500000 0.653281
O O16 0.000000 0.779653 0.656752
#
# Coordination Sequence:
#
# PCOD9384680 Si02
#       5
#     8   8   8   8   8
#     4   8  13  21  33  50  75 108 144 181 221 266
#     4  10  20  32  48  72  99 124 151 187 231 275
#     4   8  14  26  45  68  93 121 152 185 222 266
#     4  10  20  33  49  67  89 122 161 195 229 273
#     4   9  16  25  38  57  82 112 146 185 228 273
#
# _framework density 21.557454
#
# number of rings (size 3 to 8) (size 9 to 14) (size 15 to 20)
#    0.000    3.000    0.000    3.000    0.000    5.600 
#    0.000    4.000    0.000    0.600    0.000    4.200 
#    0.000    0.800    0.000    8.400    0.000   11.600 
#
# Total GULP energy -223410.531962 kJ/mol
# GULP energy per Si atom -5585.263299 kJ/mol
# Density = 2.150839 g / cm^3
# Si number density = 21.557454 Si / 1000 Ang^3
#
#
#
# Elastic Constant Matrix: (Units=GPa)
#
#
# Indices 1 2 3 4 5 6 
#
# 1 226.8242 8.0647 167.0306 0.0000 0.0000 0.0000
# 2 8.0647 79.8851 2.8758 0.0000 0.0000 0.0000
# 3 167.0306 2.8758 217.5240 0.0000 0.0000 0.0000
# 4 0.0000 0.0000 0.0000 12.6167 0.0000 0.0000
# 5 0.0000 0.0000 0.0000 0.0000 39.7866 0.0000
# 6 0.0000 0.0000 0.0000 0.0000 0.0000 0.4255
#
#
#
# Elastic Compliance Matrix: (Units=1/GPa)
#
#
# Indices 1 2 3 4 5 6 
#
# 1 0.010190 -0.000747 -0.007815 0.000000 0.000000 0.000000
# 2 -0.000747 0.012579 0.000408 0.000000 0.000000 0.000000
# 3 -0.007815 0.000408 0.010592 0.000000 0.000000 0.000000
# 4 0.000000 0.000000 0.000000 0.079260 0.000000 0.000000
# 5 0.000000 0.000000 0.000000 0.000000 0.025134 0.000000
# 6 0.000000 0.000000 0.000000 0.000000 0.000000 2.349921
#
#
# Mechanical properties :
#
#
# Convention : Reuss Voigt Hill
#
# Bulk Modulus (GPa) = 58.64340 97.79730 78.22035
# Shear Modulus (GPa) = 1.99229 33.64990 17.82109
#
# Velocity S-wave (km/s) = 0.96239 3.95516 2.87832
# Velocity P-wave (km/s) = 5.33828 8.14384 6.88547
#
# Compressibility (1/GPa) = 0.01705222
#
# Stress axis : x y z
#
# Youngs Moduli (GPa) = 98.13650 79.49914 94.40682
#
# Poissons Ratio (x) = 0.05942 0.73776
# Poissons Ratio (y) = 0.07335 -0.03848
# Poissons Ratio (z) = 0.76690 -0.03240
#
# Static dielectric constant tensor:
#      x y z
#    x 1.691650 0.000000 0.000000 
#    y 0.000000 1.899410 0.000000 
#    z 0.000000 0.000000 1.734750 
# 
# From -- ./inp_files/1665.got.cif
#   From: 2010.05.17/outbox.cif.g08.bks.cpg/sg47_1_cif.got.tgz:1665.got - 2010.06.03 20:15:42.
