data_PCOD9384227
_publ_section_title
;
Structure prediction by ZEFSAII (Michael W. Deem and Ramdas Pophale) SiO2 
 PCOD9384227
Probable space group: P M M M
;
_chemical_formula_sum "Si O2"
_cell_formula_units_Z 52
_cell_length_a 22.940497
_cell_length_b 15.610384
_cell_length_c 9.118080
_cell_angle_alpha 90.000000
_cell_angle_beta 90.000000
_cell_angle_gamma 90.000000
_cell_volume 3265.275331
_symmetry_space_group_name_H-M "P M M M"
_symmetry_group_IT_number 47
_symmetry_cell_setting 'orthorhombic'
loop_
_space_group_symop_operation_xyz
x,y,z
-x,-y,z
x,-y,-z
-x,y,-z
-x,-y,-z
x,y,-z
-x,y,z
x,-y,z
loop_
_atom_site_type_symbol
_atom_site_label
_atom_site_fract_x
_atom_site_fract_y
_atom_site_fract_z
Si Si1 0.224815 0.905514 0.324818
Si Si2 0.091473 0.280771 0.826191
Si Si3 0.683247 0.398142 0.326027
Si Si4 0.000000 0.400678 0.324690
Si Si5 0.230268 0.268473 0.174625
Si Si6 0.435202 0.396096 0.829481
Si Si7 0.098705 0.092645 0.174882
O O1 0.225725 0.894665 0.500000
O O2 0.249799 0.821795 0.245904
O O3 0.158338 0.908660 0.266357
O O4 0.250305 0.000000 0.290027
O O5 0.160971 0.281591 0.796602
O O6 0.069866 0.183758 0.791492
O O7 0.055925 0.350654 0.737554
O O8 0.082819 0.295059 0.000000
O O9 0.687294 0.385430 0.500000
O O10 0.689350 0.500000 0.296229
O O11 0.732474 0.344532 0.243718
O O12 0.619651 0.369823 0.267474
O O13 0.000000 0.500000 0.278873
O O14 0.000000 0.397154 0.500000
O O15 0.237565 0.264965 0.000000
O O16 0.500000 0.367061 0.782724
O O17 0.436284 0.500000 0.825349
O O18 0.426553 0.371841 0.000000
O O19 0.069284 0.000000 0.198861
O O20 0.112885 0.096999 0.000000
#
# Coordination Sequence:
#
# PCOD9384227 Si02
#       7
#     8   8   8   4   8   8   8
#     4   9  16  26  43  68  96 124 152 184 226 275
#     4   9  19  35  54  73  90 114 149 187 228 273
#     4  10  20  31  44  66  97 130 161 196 238 281
#     4  11  25  41  54  67  84 112 151 195 240 281
#     4  10  20  33  50  71  95 124 157 193 233 279
#     4   8  14  26  44  64  88 122 162 199 233 272
#     4   8  14  27  48  73  98 120 142 170 211 269
#
# _framework density 15.92515
#
# number of rings (size 3 to 8) (size 9 to 14) (size 15 to 20)
#    0.000    2.846    0.000    3.000    0.000    6.462 
#    0.000    5.000    0.000    2.308    0.000    0.000 
#    0.000    0.615    0.000    6.462    0.000    3.231 
#
# Total GULP energy -289519.738554 kJ/mol
# GULP energy per Si atom -5567.687280 kJ/mol
# Density = 1.588890 g / cm^3
# Si number density = 15.925150 Si / 1000 Ang^3
#
#
#
# Elastic Constant Matrix: (Units=GPa)
#
#
# Indices 1 2 3 4 5 6 
#
# 1 76.2380 51.5665 44.3696 0.0000 0.0000 0.0000
# 2 51.5665 120.4225 61.3870 0.0000 0.0000 0.0000
# 3 44.3696 61.3870 58.9262 0.0000 0.0000 0.0000
# 4 0.0000 0.0000 0.0000 26.6397 0.0000 0.0000
# 5 0.0000 0.0000 0.0000 0.0000 9.6611 0.0000
# 6 0.0000 0.0000 0.0000 0.0000 0.0000 -11.0086
#
#
#
# Elastic Compliance Matrix: (Units=1/GPa)
#
#
# Indices 1 2 3 4 5 6 
#
# 1 0.023628 -0.002236 -0.015462 0.000000 0.000000 0.000000
# 2 -0.002236 0.017919 -0.016984 0.000000 0.000000 0.000000
# 3 -0.015462 -0.016984 0.046306 0.000000 0.000000 0.000000
# 4 0.000000 0.000000 0.000000 0.037538 0.000000 0.000000
# 5 0.000000 0.000000 0.000000 0.000000 0.103508 0.000000
# 6 0.000000 0.000000 0.000000 0.000000 0.000000 -0.090838
#
#
# Mechanical properties :
#
#
# Convention : Reuss Voigt Hill
#
# Bulk Modulus (GPa) = 54.08442 63.35921 58.72181
# Shear Modulus (GPa) = 23.40964 11.60935 17.50949
#
# Velocity S-wave (km/s) = 3.83819 2.70292 3.31945
# Velocity P-wave (km/s) = 7.32650 7.04365 7.18647
#
# Compressibility (1/GPa) = 0.01848961
#
# Stress axis : x y z
#
# Youngs Moduli (GPa) = 42.32331 55.80526 21.59548
#
# Poissons Ratio (x) = 0.12477 0.33390
# Poissons Ratio (y) = 0.09463 0.36678
# Poissons Ratio (z) = 0.65439 0.94781
#
# Static dielectric constant tensor:
#      x y z
#    x 1.536310 0.000000 0.000000 
#    y 0.000000 1.561030 0.000000 
#    z 0.000000 0.000000 1.523170 
# 
# From -- ./inp_files/11041.got.cif
#   From: 2010.05.17/outbox.cif.g08.bks.cpg/sg47_6_cif.got.tgz:11041.got - 2010.06.03 20:15:42.
