data_PCOD9384217
_publ_section_title
;
Structure prediction by ZEFSAII (Michael W. Deem and Ramdas Pophale) SiO2 
 PCOD9384217
Probable space group: P M M M
;
_chemical_formula_sum "Si O2"
_cell_formula_units_Z 44
_cell_length_a 29.740082
_cell_length_b 9.671687
_cell_length_c 7.383891
_cell_angle_alpha 90.000000
_cell_angle_beta 90.000000
_cell_angle_gamma 90.000000
_cell_volume 2123.878516
_symmetry_space_group_name_H-M "P M M M"
_symmetry_group_IT_number 47
_symmetry_cell_setting 'orthorhombic'
loop_
_space_group_symop_operation_xyz
x,y,z
-x,-y,z
x,-y,-z
-x,y,-z
-x,-y,-z
x,y,-z
-x,y,z
x,-y,z
loop_
_atom_site_type_symbol
_atom_site_label
_atom_site_fract_x
_atom_site_fract_y
_atom_site_fract_z
Si Si1 0.316687 0.331766 0.790751
Si Si2 0.050740 0.658876 0.279200
Si Si3 0.415046 0.660099 0.778360
Si Si4 0.780907 0.342481 0.217717
Si Si5 0.500000 0.840966 0.778868
Si Si6 0.132762 0.155645 0.284350
O O1 0.316459 0.500000 0.790519
O O2 0.365421 0.293383 0.714428
O O3 0.268056 0.292971 0.712836
O O4 0.317021 0.285116 0.000000
O O5 0.051202 0.659691 0.500000
O O6 0.059178 0.500000 0.224478
O O7 0.089868 0.759366 0.213976
O O8 0.000000 0.697467 0.224269
O O9 0.422579 0.500000 0.725495
O O10 0.455537 0.758111 0.721592
O O11 0.413835 0.660273 0.000000
O O12 0.789624 0.500000 0.281723
O O13 0.821873 0.242164 0.257319
O O14 0.776762 0.350068 0.000000
O O15 0.500000 0.000000 0.721058
O O16 0.500000 0.840242 0.000000
O O17 0.126352 0.145875 0.500000
O O18 0.135947 0.000000 0.212518
#
# Coordination Sequence:
#
# PCOD9384217 Si02
#       6
#     8   8   8   8   4   8
#     4   7  11  21  37  55  72  93 128 172 210 246
#     4   8  14  26  45  67  88 111 142 179 216 254
#     4   8  12  19  31  44  60  87 123 159 196 241
#     4   9  17  30  48  67  86 112 148 187 224 260
#     4   9  15  19  23  37  63  91 120 157 198 237
#     4  10  20  31  44  66  95 123 148 175 211 256
#
# _framework density 20.716813999999999
#
# number of rings (size 3 to 8) (size 9 to 14) (size 15 to 20)
#    0.000    3.545    0.000    3.545    0.000    2.909 
#    0.000    2.727    0.000    3.818    0.000    3.818 
#    0.000    0.000    0.000    0.818    0.000   18.000 
#
# Total GULP energy -245274.408062 kJ/mol
# GULP energy per Si atom -5574.418365 kJ/mol
# Density = 2.066966 g / cm^3
# Si number density = 20.716814 Si / 1000 Ang^3
#
#
#
# Elastic Constant Matrix: (Units=GPa)
#
#
# Indices 1 2 3 4 5 6 
#
# 1 255.4413 139.8388 6.5203 0.0000 0.0000 0.0000
# 2 139.8388 131.5366 5.4741 0.0000 0.0000 0.0000
# 3 6.5203 5.4741 72.0817 0.0000 0.0000 0.0000
# 4 0.0000 0.0000 0.0000 0.8973 0.0000 0.0000
# 5 0.0000 0.0000 0.0000 0.0000 11.1411 0.0000
# 6 0.0000 0.0000 0.0000 0.0000 0.0000 -6.9967
#
#
#
# Elastic Compliance Matrix: (Units=1/GPa)
#
#
# Indices 1 2 3 4 5 6 
#
# 1 0.009366 -0.009953 -0.000091 0.000000 0.000000 0.000000
# 2 -0.009953 0.018204 -0.000482 0.000000 0.000000 0.000000
# 3 -0.000091 -0.000482 0.013918 0.000000 0.000000 0.000000
# 4 0.000000 0.000000 0.000000 1.114410 0.000000 0.000000
# 5 0.000000 0.000000 0.000000 0.000000 0.089758 0.000000
# 6 0.000000 0.000000 0.000000 0.000000 0.000000 -0.142924
#
#
# Mechanical properties :
#
#
# Convention : Reuss Voigt Hill
#
# Bulk Modulus (GPa) = 48.93687 84.74734 66.84211
# Shear Modulus (GPa) = 4.42244 21.49010 12.95627
#
# Velocity S-wave (km/s) = 1.46265 3.22425 2.50351
# Velocity P-wave (km/s) = 5.15030 7.40658 6.37899
#
# Compressibility (1/GPa) = 0.02043449
#
# Stress axis : x y z
#
# Youngs Moduli (GPa) = 106.76935 54.93276 71.84928
#
# Poissons Ratio (x) = 0.54676 0.00656
# Poissons Ratio (y) = 1.06271 0.03464
# Poissons Ratio (z) = 0.00975 0.02648
#
# Static dielectric constant tensor:
#      x y z
#    x 1.754550 0.000000 0.000000 
#    y 0.000000 1.689620 0.000000 
#    z 0.000000 0.000000 1.883130 
# 
# From -- ./inp_files/13691.got.cif
#   From: 2010.05.17/outbox.cif.g08.bks.cpg/sg47_7_cif.got.tgz:13691.got - 2010.06.03 20:15:42.
