data_PCOD9384858
_publ_section_title
;
Structure prediction by ZEFSAII (Michael W. Deem and Ramdas Pophale) SiO2 
 PCOD9384858
Probable space group: P M M M
;
_chemical_formula_sum "Si O2"
_cell_formula_units_Z 20
_cell_length_a 7.813486
_cell_length_b 17.408057
_cell_length_c 7.514382
_cell_angle_alpha 90.000000
_cell_angle_beta 90.000000
_cell_angle_gamma 90.000000
_cell_volume 1022.088278
_symmetry_space_group_name_H-M "P M M M"
_symmetry_group_IT_number 47
_symmetry_cell_setting 'orthorhombic'
loop_
_space_group_symop_operation_xyz
x,y,z
-x,-y,z
x,-y,-z
-x,y,-z
-x,-y,-z
x,y,-z
-x,y,z
x,-y,z
loop_
_atom_site_type_symbol
_atom_site_label
_atom_site_fract_x
_atom_site_fract_y
_atom_site_fract_z
Si Si1 0.703256 0.378343 0.500000
Si Si2 0.289816 0.795687 0.500000
Si Si3 0.203030 0.500000 0.202117
Si Si4 0.291268 0.085716 0.795687
O O1 0.500000 0.373233 0.500000
O O2 0.772315 0.291720 0.500000
O O3 0.750439 0.426768 0.324173
O O4 0.500000 0.794101 0.500000
O O5 0.234865 0.845587 0.330066
O O6 0.000000 0.500000 0.187093
O O7 0.274803 0.500000 0.000000
O O8 0.500000 0.085749 0.792859
O O9 0.238618 0.000000 0.735832
O O10 0.238260 0.095689 0.000000
#
# Coordination Sequence:
#
# PCOD9384858 Si02
#       4
#     4   4   4   8
#     4  10  20  32  50  78 105 126 153 196 248 296
#     4   9  16  24  36  59  91 122 150 185 231 277
#     4  10  21  38  57  71  90 126 165 199 238 289
#     4   8  13  21  33  50  78 121 164 190 213 258
#
# _framework density 19.567781
#
# number of rings (size 3 to 8) (size 9 to 14) (size 15 to 20)
#    0.000    3.000    0.000    4.200    0.000    5.600 
#    0.000    4.000    0.000    0.000    0.000    0.000 
#    0.000   12.800    0.000   35.200    0.000   28.800 
#
# Total GULP energy -111501.513274 kJ/mol
# GULP energy per Si atom -5575.075664 kJ/mol
# Density = 1.952324 g / cm^3
# Si number density = 19.567781 Si / 1000 Ang^3
#
#
#
# Elastic Constant Matrix: (Units=GPa)
#
#
# Indices 1 2 3 4 5 6 
#
# 1 30.8987 10.5432 9.4113 0.0000 0.0000 0.0000
# 2 10.5432 229.6875 124.7402 0.0000 0.0000 0.0000
# 3 9.4113 124.7402 167.6948 0.0000 0.0000 0.0000
# 4 0.0000 0.0000 0.0000 -129.2290 0.0000 0.0000
# 5 0.0000 0.0000 0.0000 0.0000 4.0511 0.0000
# 6 0.0000 0.0000 0.0000 0.0000 0.0000 -36.8843
#
#
#
# Elastic Compliance Matrix: (Units=1/GPa)
#
#
# Indices 1 2 3 4 5 6 
#
# 1 0.033026 -0.000855 -0.001218 0.000000 0.000000 0.000000
# 2 -0.000855 0.007327 -0.005402 0.000000 0.000000 0.000000
# 3 -0.001218 -0.005402 0.010050 0.000000 0.000000 0.000000
# 4 0.000000 0.000000 0.000000 -0.007738 0.000000 0.000000
# 5 0.000000 0.000000 0.000000 0.000000 0.246845 0.000000
# 6 0.000000 0.000000 0.000000 0.000000 0.000000 -0.027112
#
#
# Mechanical properties :
#
#
# Convention : Reuss Voigt Hill
#
# Bulk Modulus (GPa) = 28.20546 79.74112 53.97329
# Shear Modulus (GPa) = 17.29116 -13.50668 1.89224
#
# Velocity S-wave (km/s) = 2.97586 -2.63011 0.98444
# Velocity P-wave (km/s) = 5.12378 5.62284 5.37911
#
# Compressibility (1/GPa) = 0.03545412
#
# Stress axis : x y z
#
# Youngs Moduli (GPa) = 30.27881 136.48599 99.50354
#
# Poissons Ratio (x) = 0.11665 0.12117
# Poissons Ratio (y) = 0.02588 0.53752
# Poissons Ratio (z) = 0.03687 0.73731
#
# Static dielectric constant tensor:
#      x y z
#    x 1.708040 0.000000 0.000000 
#    y 0.000000 1.687100 0.000000 
#    z 0.000000 0.000000 1.698900 
# 
# From -- ./inp_files/326.got.cif
#   From: 2010.05.17/outbox.cif.g08.bks.cpg/sg47_1_cif.got.tgz:326.got - 2010.06.03 20:15:42.
