data_PCOD9384903
_publ_section_title
;
Structure prediction by ZEFSAII (Michael W. Deem and Ramdas Pophale) SiO2 
 PCOD9384903
Probable space group: P M M M
;
_chemical_formula_sum "Si O2"
_cell_formula_units_Z 52
_cell_length_a 8.897010
_cell_length_b 14.504816
_cell_length_c 27.012071
_cell_angle_alpha 90.000000
_cell_angle_beta 90.000000
_cell_angle_gamma 90.000000
_cell_volume 3485.894067
_symmetry_space_group_name_H-M "P M M M"
_symmetry_group_IT_number 47
_symmetry_cell_setting 'orthorhombic'
loop_
_space_group_symop_operation_xyz
x,y,z
-x,-y,z
x,-y,-z
-x,y,-z
-x,-y,-z
x,y,-z
-x,y,z
x,-y,z
loop_
_atom_site_type_symbol
_atom_site_label
_atom_site_fract_x
_atom_site_fract_y
_atom_site_fract_z
Si Si1 0.178775 0.108834 0.758372
Si Si2 0.823427 0.888105 0.554511
Si Si3 0.672131 0.887921 0.344459
Si Si4 0.182205 0.607334 0.891429
Si Si5 0.680435 0.780007 0.848390
Si Si6 0.827961 0.612089 0.000000
Si Si7 0.317370 0.892224 0.945274
O O1 0.231541 0.137929 0.703528
O O2 0.260584 0.166710 0.800550
O O3 0.000000 0.118517 0.762801
O O4 0.216392 0.000000 0.764246
O O5 0.769378 0.857304 0.500000
O O6 0.736550 0.854880 0.602960
O O7 0.000000 0.865771 0.558842
O O8 0.813567 0.000000 0.554467
O O9 0.500000 0.859470 0.337921
O O10 0.675594 0.000000 0.346283
O O11 0.219652 0.500000 0.883015
O O12 0.252577 0.677868 0.853072
O O13 0.240018 0.635312 0.946751
O O14 0.000000 0.613786 0.891835
O O15 0.500000 0.777631 0.848177
O O16 0.733131 0.834791 0.897878
O O17 0.835745 0.500000 0.000000
O O18 0.000000 0.646255 0.000000
O O19 0.500000 0.889212 0.945484
O O20 0.275282 0.000000 0.940180
O O21 0.266573 0.859708 0.000000
#
# Coordination Sequence:
#
# PCOD9384903 Si02
#       7
#     8   8   8   8   8   4   8
#     4  10  20  33  47  61  81 111 147 183 217 257
#     4   8  13  21  33  50  74 105 140 175 211 252
#     4   9  16  25  38  56  78 104 137 179 222 256
#     4   9  18  33  50  66  86 112 139 166 202 252
#     4  11  21  30  46  68  88 109 137 174 216 259
#     4   7  12  26  47  65  80 103 132 159 191 236
#     4   8  15  28  43  59  82 110 135 161 201 253
#
# _framework density 14.917263999999999
#
# number of rings (size 3 to 8) (size 9 to 14) (size 15 to 20)
#    0.000    3.000    0.000    3.692    1.077    4.000 
#    0.000    1.538    0.000    1.385    0.000    3.231 
#    0.000    0.000    0.000    0.000    0.000    0.769 
#
# Total GULP energy -289560.662228 kJ/mol
# GULP energy per Si atom -5568.474274 kJ/mol
# Density = 1.488331 g / cm^3
# Si number density = 14.917264 Si / 1000 Ang^3
#
#
#
# Elastic Constant Matrix: (Units=GPa)
#
#
# Indices 1 2 3 4 5 6 
#
# 1 35.1863 24.8108 37.2240 0.0000 0.0000 0.0000
# 2 24.8108 45.7856 44.5766 0.0000 0.0000 0.0000
# 3 37.2240 44.5766 112.9665 0.0000 0.0000 0.0000
# 4 0.0000 0.0000 0.0000 4.9022 0.0000 0.0000
# 5 0.0000 0.0000 0.0000 0.0000 22.3804 0.0000
# 6 0.0000 0.0000 0.0000 0.0000 0.0000 12.7519
#
#
#
# Elastic Compliance Matrix: (Units=1/GPa)
#
#
# Indices 1 2 3 4 5 6 
#
# 1 0.051849 -0.018614 -0.009740 0.000000 0.000000 0.000000
# 2 -0.018614 0.042149 -0.010498 0.000000 0.000000 0.000000
# 3 -0.009740 -0.010498 0.016204 0.000000 0.000000 0.000000
# 4 0.000000 0.000000 0.000000 0.203990 0.000000 0.000000
# 5 0.000000 0.000000 0.000000 0.000000 0.044682 0.000000
# 6 0.000000 0.000000 0.000000 0.000000 0.000000 0.078420
#
#
# Mechanical properties :
#
#
# Convention : Reuss Voigt Hill
#
# Bulk Modulus (GPa) = 30.77117 45.24013 38.00565
# Shear Modulus (GPa) = 9.50875 13.82871 11.66873
#
# Velocity S-wave (km/s) = 2.52748 3.04801 2.79987
# Velocity P-wave (km/s) = 5.40280 6.54067 5.99878
#
# Compressibility (1/GPa) = 0.03249796
#
# Stress axis : x y z
#
# Youngs Moduli (GPa) = 19.28661 23.72548 61.71174
#
# Poissons Ratio (x) = 0.44162 0.60108
# Poissons Ratio (y) = 0.35900 0.64788
# Poissons Ratio (z) = 0.18785 0.24908
#
# Static dielectric constant tensor:
#      x y z
#    x 1.499080 0.000000 0.000000 
#    y 0.000000 1.480150 0.000000 
#    z 0.000000 0.000000 1.511910 
# 
# From -- ./inp_files/32007.got.cif
#   From: 2010.05.17/outbox.cif.g08.bks.cpg/sg47_17_cif.got.tgz:32007.got - 2010.06.03 20:15:42.
