data_PCOD9384571
_publ_section_title
;
Structure prediction by ZEFSAII (Michael W. Deem and Ramdas Pophale) SiO2 
 PCOD9384571
Probable space group: P M M M
;
_chemical_formula_sum "Si O2"
_cell_formula_units_Z 44
_cell_length_a 7.594847
_cell_length_b 30.742871
_cell_length_c 8.594403
_cell_angle_alpha 90.000000
_cell_angle_beta 90.000000
_cell_angle_gamma 90.000000
_cell_volume 2006.684825
_symmetry_space_group_name_H-M "P M M M"
_symmetry_group_IT_number 47
_symmetry_cell_setting 'orthorhombic'
loop_
_space_group_symop_operation_xyz
x,y,z
-x,-y,z
x,-y,-z
-x,y,-z
-x,-y,-z
x,y,-z
-x,y,z
x,-y,z
loop_
_atom_site_type_symbol
_atom_site_label
_atom_site_fract_x
_atom_site_fract_y
_atom_site_fract_z
Si Si1 0.709144 0.951020 0.000000
Si Si2 0.711760 0.272405 0.327353
Si Si3 0.714230 0.452660 0.317330
Si Si4 0.211193 0.097198 0.327716
Si Si5 0.715141 0.638264 0.178395
Si Si6 0.789437 0.817412 0.827490
O O1 0.754419 0.928205 0.165346
O O2 0.500000 0.953304 0.000000
O O3 0.783274 0.000000 0.000000
O O4 0.777676 0.262540 0.500000
O O5 0.500000 0.275370 0.331874
O O6 0.776091 0.319619 0.272818
O O7 0.754260 0.232104 0.217764
O O8 0.757655 0.450574 0.500000
O O9 0.500000 0.452612 0.306478
O O10 0.773376 0.500000 0.256411
O O11 0.777267 0.408691 0.237216
O O12 0.276205 0.082133 0.500000
O O13 0.275575 0.146521 0.293858
O O14 0.000000 0.097509 0.339617
O O15 0.500000 0.637476 0.187997
O O16 0.763330 0.644353 0.000000
O O17 0.000000 0.822444 0.832848
O O18 0.719137 0.826793 0.000000
#
# Coordination Sequence:
#
# PCOD9384571 Si02
#       6
#     4   8   8   8   8   8
#     4  11  25  43  63  91 129 167 199 241 296 349
#     4  10  20  32  47  70 101 137 175 214 261 321
#     4   8  13  21  33  49  72 107 151 197 247 304
#     4  10  21  40  66  92 119 156 203 250 294 344
#     4   9  16  25  37  55  83 119 158 203 254 308
#     4  10  20  36  58  82 110 143 180 226 277 326
#
# _framework density 21.926711000000001
#
# number of rings (size 3 to 8) (size 9 to 14) (size 15 to 20)
#    0.000    2.455    0.909    2.455    0.000    6.909 
#    0.000    3.636    0.000    0.000    0.000    0.000 
#    0.000    0.727    0.000    7.636    0.000   10.545 
#
# Total GULP energy -245435.861132 kJ/mol
# GULP energy per Si atom -5578.087753 kJ/mol
# Density = 2.187680 g / cm^3
# Si number density = 21.926711 Si / 1000 Ang^3
#
#
#
# Elastic Constant Matrix: (Units=GPa)
#
#
# Indices 1 2 3 4 5 6 
#
# 1 49.4912 2.2757 12.2535 0.0000 0.0000 0.0000
# 2 2.2757 130.8274 60.9911 0.0000 0.0000 0.0000
# 3 12.2535 60.9911 141.5086 0.0000 0.0000 0.0000
# 4 0.0000 0.0000 0.0000 29.2724 0.0000 0.0000
# 5 0.0000 0.0000 0.0000 0.0000 6.3147 0.0000
# 6 0.0000 0.0000 0.0000 0.0000 0.0000 7.4859
#
#
#
# Elastic Compliance Matrix: (Units=1/GPa)
#
#
# Indices 1 2 3 4 5 6 
#
# 1 0.020685 0.000595 -0.002047 0.000000 0.000000 0.000000
# 2 0.000595 0.009583 -0.004182 0.000000 0.000000 0.000000
# 3 -0.002047 -0.004182 0.009046 0.000000 0.000000 0.000000
# 4 0.000000 0.000000 0.000000 0.034162 0.000000 0.000000
# 5 0.000000 0.000000 0.000000 0.000000 0.158361 0.000000
# 6 0.000000 0.000000 0.000000 0.000000 0.000000 0.133585
#
#
# Mechanical properties :
#
#
# Convention : Reuss Voigt Hill
#
# Bulk Modulus (GPa) = 35.65654 52.54085 44.09870
# Shear Modulus (GPa) = 12.95201 25.03504 18.99353
#
# Velocity S-wave (km/s) = 2.43306 3.38266 2.94637
# Velocity P-wave (km/s) = 4.91834 6.26662 5.63297
#
# Compressibility (1/GPa) = 0.02804534
#
# Stress axis : x y z
#
# Youngs Moduli (GPa) = 48.34373 104.35335 110.54161
#
# Poissons Ratio (x) = -0.06206 0.22633
# Poissons Ratio (y) = -0.02875 0.46226
# Poissons Ratio (z) = 0.09898 0.43638
#
# Static dielectric constant tensor:
#      x y z
#    x 1.858640 0.000000 0.000000 
#    y 0.000000 1.794520 0.000000 
#    z 0.000000 0.000000 1.813510 
# 
# From -- ./inp_files/2248.got.cif
#   From: 2010.05.17/outbox.cif.g08.bks.cpg/sg47_2_cif.got.tgz:2248.got - 2010.06.03 20:15:42.
