data_PCOD9384788
_publ_section_title
;
Structure prediction by ZEFSAII (Michael W. Deem and Ramdas Pophale) SiO2 
 PCOD9384788
Probable space group: P M M M
;
_chemical_formula_sum "Si O2"
_cell_formula_units_Z 52
_cell_length_a 7.671726
_cell_length_b 16.221165
_cell_length_c 20.252551
_cell_angle_alpha 90.000000
_cell_angle_beta 90.000000
_cell_angle_gamma 90.000000
_cell_volume 2520.315206
_symmetry_space_group_name_H-M "P M M M"
_symmetry_group_IT_number 47
_symmetry_cell_setting 'orthorhombic'
loop_
_space_group_symop_operation_xyz
x,y,z
-x,-y,z
x,-y,-z
-x,y,-z
-x,-y,-z
x,y,-z
-x,y,z
x,-y,z
loop_
_atom_site_type_symbol
_atom_site_label
_atom_site_fract_x
_atom_site_fract_y
_atom_site_fract_z
Si Si1 0.287697 0.646665 0.927333
Si Si2 0.289226 0.410733 0.214199
Si Si3 0.206661 0.090423 0.212825
Si Si4 0.710362 0.160515 0.927249
Si Si5 0.697564 0.500000 0.419837
Si Si6 0.794807 0.682855 0.425831
Si Si7 0.791720 0.245890 0.294242
O O1 0.500000 0.643474 0.927852
O O2 0.230558 0.599612 0.861959
O O3 0.238822 0.743157 0.920270
O O4 0.229600 0.617823 0.000000
O O5 0.500000 0.410799 0.214544
O O6 0.230434 0.500000 0.240360
O O7 0.234865 0.330061 0.253770
O O8 0.227458 0.110269 0.135467
O O9 0.279560 0.167326 0.254563
O O10 0.000000 0.087505 0.225943
O O11 0.280358 0.000000 0.227904
O O12 0.500000 0.158405 0.926625
O O13 0.768411 0.131963 0.000000
O O14 0.500000 0.500000 0.395066
O O15 0.697683 0.500000 0.500000
O O16 0.779311 0.587582 0.402665
O O17 0.719611 0.690293 0.500000
O O18 0.719823 0.739291 0.367879
O O19 0.000000 0.700364 0.431009
O O20 0.000000 0.235102 0.299983
#
# Coordination Sequence:
#
# PCOD9384788 Si02
#       7
#     8   8   8   8   4   8   8
#     4   8  14  27  47  69  95 127 163 204 245 284
#     4  10  20  32  49  75 103 132 168 208 248 291
#     4  10  21  36  53  74 100 130 165 207 257 308
#     4   9  17  31  52  75  99 129 166 208 251 297
#     4   9  17  29  47  75 107 133 160 197 240 283
#     4   9  18  33  52  72  97 132 171 204 238 290
#     4  10  21  36  53  72  98 133 167 203 250 301
#
# _framework density 20.632339999999999
#
# number of rings (size 3 to 8) (size 9 to 14) (size 15 to 20)
#    0.000    2.692    1.538    1.154    1.077    3.077 
#    0.000    3.077    0.000    0.923    0.000    4.308 
#    0.000    0.000    0.000    6.615    0.000    7.077 
#
# Total GULP energy -290096.673344 kJ/mol
# GULP energy per Si atom -5578.782180 kJ/mol
# Density = 2.058538 g / cm^3
# Si number density = 20.632340 Si / 1000 Ang^3
#
#
#
# Elastic Constant Matrix: (Units=GPa)
#
#
# Indices 1 2 3 4 5 6 
#
# 1 35.6211 5.3274 3.2897 0.0000 0.0000 0.0000
# 2 5.3274 141.7972 85.7303 0.0000 0.0000 0.0000
# 3 3.2897 85.7303 139.5694 0.0000 0.0000 0.0000
# 4 0.0000 0.0000 0.0000 18.8886 0.0000 0.0000
# 5 0.0000 0.0000 0.0000 0.0000 20.5081 0.0000
# 6 0.0000 0.0000 0.0000 0.0000 0.0000 0.2191
#
#
#
# Elastic Compliance Matrix: (Units=1/GPa)
#
#
# Indices 1 2 3 4 5 6 
#
# 1 0.028232 -0.001047 -0.000022 0.000000 0.000000 0.000000
# 2 -0.001047 0.011257 -0.006890 0.000000 0.000000 0.000000
# 3 -0.000022 -0.006890 0.011398 0.000000 0.000000 0.000000
# 4 0.000000 0.000000 0.000000 0.052942 0.000000 0.000000
# 5 0.000000 0.000000 0.000000 0.000000 0.048761 0.000000
# 6 0.000000 0.000000 0.000000 0.000000 0.000000 4.564575
#
#
# Mechanical properties :
#
#
# Convention : Reuss Voigt Hill
#
# Bulk Modulus (GPa) = 28.59773 56.18694 42.39233
# Shear Modulus (GPa) = 1.05380 22.76583 11.90981
#
# Velocity S-wave (km/s) = 0.71544 3.32536 2.40519
# Velocity P-wave (km/s) = 3.81749 6.48349 5.32019
#
# Compressibility (1/GPa) = 0.03496781
#
# Stress axis : x y z
#
# Youngs Moduli (GPa) = 35.42093 88.82986 87.73691
#
# Poissons Ratio (x) = 0.09303 0.00194
# Poissons Ratio (y) = 0.03710 0.60453
# Poissons Ratio (z) = 0.00078 0.61206
#
# Static dielectric constant tensor:
#      x y z
#    x 1.779220 0.000000 0.000000 
#    y 0.000000 1.736560 0.000000 
#    z 0.000000 0.000000 1.774330 
# 
# From -- ./inp_files/29539.got.cif
#   From: 2010.05.17/outbox.cif.g08.bks.cpg/sg47_15_cif.got.tgz:29539.got - 2010.06.03 20:15:42.
