data_PCOD9384442
_publ_section_title
;
Structure prediction by ZEFSAII (Michael W. Deem and Ramdas Pophale) SiO2 
 PCOD9384442
Probable space group: P M M M
;
_chemical_formula_sum "Si O2"
_cell_formula_units_Z 44
_cell_length_a 29.555621
_cell_length_b 9.355355
_cell_length_c 9.305165
_cell_angle_alpha 90.000000
_cell_angle_beta 90.000000
_cell_angle_gamma 90.000000
_cell_volume 2572.909078
_symmetry_space_group_name_H-M "P M M M"
_symmetry_group_IT_number 47
_symmetry_cell_setting 'orthorhombic'
loop_
_space_group_symop_operation_xyz
x,y,z
-x,-y,z
x,-y,-z
-x,y,-z
-x,-y,-z
x,y,-z
-x,y,z
x,-y,z
loop_
_atom_site_type_symbol
_atom_site_label
_atom_site_fract_x
_atom_site_fract_y
_atom_site_fract_z
Si Si1 0.729301 0.331696 0.827375
Si Si2 0.550561 0.666124 0.174950
Si Si3 0.189926 0.831410 0.326694
Si Si4 0.088711 0.174048 0.665582
Si Si5 0.000000 0.825362 0.164879
Si Si6 0.361292 0.164050 0.824781
O O1 0.726841 0.500000 0.796459
O O2 0.771515 0.258990 0.749378
O O3 0.682786 0.254027 0.782635
O O4 0.733904 0.314410 0.000000
O O5 0.500000 0.710998 0.220842
O O6 0.557239 0.500000 0.215036
O O7 0.592141 0.762554 0.224607
O O8 0.550710 0.670086 0.000000
O O9 0.192552 0.818792 0.500000
O O10 0.138982 0.784744 0.283866
O O11 0.195301 0.000000 0.291807
O O12 0.083085 0.218345 0.500000
O O13 0.045901 0.222359 0.757160
O O14 0.088776 0.000000 0.666355
O O15 0.000000 0.000000 0.170002
O O16 0.000000 0.781980 0.000000
O O17 0.357876 0.000000 0.778033
O O18 0.362249 0.164734 0.000000
#
# Coordination Sequence:
#
# PCOD9384442 Si02
#       6
#     8   8   8   8   4   8
#     4  10  20  32  46  65  90 121 155 190 232 284
#     4   8  13  21  33  50  76 112 150 186 226 273
#     4   9  18  32  49  69  92 119 154 195 236 277
#     4   8  14  25  40  58  84 118 150 181 222 270
#     4   9  15  21  33  59  92 121 150 183 218 260
#     4   9  16  25  38  57  82 113 149 189 232 277
#
# _framework density 17.101265000000001
#
# number of rings (size 3 to 8) (size 9 to 14) (size 15 to 20)
#    0.000    3.182    0.000    3.000    0.000    5.818 
#    0.000    3.636    0.000    0.000    0.000    0.636 
#    0.000    5.818    0.000    7.636    0.000   10.545 
#
# Total GULP energy -245053.147883 kJ/mol
# GULP energy per Si atom -5569.389725 kJ/mol
# Density = 1.706234 g / cm^3
# Si number density = 17.101265 Si / 1000 Ang^3
#
#
#
# Elastic Constant Matrix: (Units=GPa)
#
#
# Indices 1 2 3 4 5 6 
#
# 1 216.0848 94.3858 55.7454 0.0000 0.0000 0.0000
# 2 94.3858 83.5196 30.6405 0.0000 0.0000 0.0000
# 3 55.7454 30.6405 23.1637 0.0000 0.0000 0.0000
# 4 0.0000 0.0000 0.0000 12.4095 0.0000 0.0000
# 5 0.0000 0.0000 0.0000 0.0000 -79.7836 0.0000
# 6 0.0000 0.0000 0.0000 0.0000 0.0000 -13.1645
#
#
#
# Elastic Compliance Matrix: (Units=1/GPa)
#
#
# Indices 1 2 3 4 5 6 
#
# 1 0.013886 -0.006669 -0.024597 0.000000 0.000000 0.000000
# 2 -0.006669 0.026465 -0.018957 0.000000 0.000000 0.000000
# 3 -0.024597 -0.018957 0.127440 0.000000 0.000000 0.000000
# 4 0.000000 0.000000 0.000000 0.080583 0.000000 0.000000
# 5 0.000000 0.000000 0.000000 0.000000 -0.012534 0.000000
# 6 0.000000 0.000000 0.000000 0.000000 0.000000 -0.075962
#
#
# Mechanical properties :
#
#
# Convention : Reuss Voigt Hill
#
# Bulk Modulus (GPa) = 14.84866 76.03460 45.44163
# Shear Modulus (GPa) = 17.68196 -6.64130 5.52033
#
# Velocity S-wave (km/s) = 3.21901 -1.97280 1.79862
# Velocity P-wave (km/s) = 4.74528 6.27444 5.56266
#
# Compressibility (1/GPa) = 0.06734613
#
# Stress axis : x y z
#
# Youngs Moduli (GPa) = 72.01262 37.78577 7.84680
#
# Poissons Ratio (x) = 0.25201 0.19301
# Poissons Ratio (y) = 0.48028 0.14875
# Poissons Ratio (z) = 1.77127 0.71630
#
# Static dielectric constant tensor:
#      x y z
#    x 1.583560 0.000000 0.000000 
#    y 0.000000 1.567020 0.000000 
#    z 0.000000 0.000000 1.568110 
# 
# From -- ./inp_files/2101.got.cif
#   From: 2010.05.17/outbox.cif.g08.bks.cpg/sg47_2_cif.got.tgz:2101.got - 2010.06.03 20:15:42.
