data_PCOD9384185
_publ_section_title
;
Structure prediction by ZEFSAII (Michael W. Deem and Ramdas Pophale) SiO2 
 PCOD9384185
Probable space group: P M M M
;
_chemical_formula_sum "Si O2"
_cell_formula_units_Z 40
_cell_length_a 28.317118
_cell_length_b 8.473924
_cell_length_c 7.380001
_cell_angle_alpha 90.000000
_cell_angle_beta 90.000000
_cell_angle_gamma 90.000000
_cell_volume 1770.883681
_symmetry_space_group_name_H-M "P M M M"
_symmetry_group_IT_number 47
_symmetry_cell_setting 'orthorhombic'
loop_
_space_group_symop_operation_xyz
x,y,z
-x,-y,z
x,-y,-z
-x,y,-z
-x,-y,-z
x,y,-z
-x,y,z
x,-y,z
loop_
_atom_site_type_symbol
_atom_site_label
_atom_site_fract_x
_atom_site_fract_y
_atom_site_fract_z
Si Si1 0.000000 0.806668 0.288026
Si Si2 0.202841 0.675333 0.783685
Si Si3 0.554917 0.000000 0.779389
Si Si4 0.298496 0.176073 0.220703
Si Si5 0.898558 0.179276 0.282695
Si Si6 0.605901 0.675203 0.220825
O O1 0.948999 0.755829 0.213199
O O2 0.000000 0.761546 0.500000
O O3 0.000000 0.000000 0.279231
O O4 0.208999 0.500000 0.711271
O O5 0.245769 0.782773 0.716700
O O6 0.149654 0.731116 0.752500
O O7 0.208361 0.670217 0.000000
O O8 0.578513 0.834073 0.720251
O O9 0.500000 0.000000 0.730643
O O10 0.558618 0.000000 0.000000
O O11 0.339370 0.297075 0.273081
O O12 0.311773 0.000000 0.277998
O O13 0.298140 0.175582 0.000000
O O14 0.903484 0.171814 0.500000
O O15 0.893050 0.000000 0.215505
O O16 0.589790 0.500000 0.279606
O O17 0.603540 0.674754 0.000000
#
# Coordination Sequence:
#
# PCOD9384185 Si02
#       6
#     4   8   4   8   8   8
#     4   7  12  26  48  69  86 108 144 187 224 267
#     4  10  20  31  43  64  93 121 150 186 228 274
#     4   9  16  24  32  46  70 100 139 184 225 266
#     4   9  15  25  41  58  77 104 140 182 225 269
#     4   9  17  31  51  71  89 113 148 188 230 276
#     4   9  15  23  35  50  70  99 137 180 225 272
#
# _framework density 22.587592999999998
#
# number of rings (size 3 to 8) (size 9 to 14) (size 15 to 20)
#    0.000    3.000    1.000    2.400    0.000    4.400 
#    0.000    3.000    0.000    4.800    0.000    0.000 
#    0.000    0.000    0.000    0.000    0.000    2.000 
#
# Total GULP energy -223068.425529 kJ/mol
# GULP energy per Si atom -5576.710638 kJ/mol
# Density = 2.253618 g / cm^3
# Si number density = 22.587593 Si / 1000 Ang^3
#
#
#
# Elastic Constant Matrix: (Units=GPa)
#
#
# Indices 1 2 3 4 5 6 
#
# 1 147.4450 73.0573 -0.5111 0.0000 0.0000 0.0000
# 2 73.0573 142.4011 3.0966 0.0000 0.0000 0.0000
# 3 -0.5111 3.0966 77.2009 0.0000 0.0000 0.0000
# 4 0.0000 0.0000 0.0000 -2.8566 0.0000 0.0000
# 5 0.0000 0.0000 0.0000 0.0000 4.1588 0.0000
# 6 0.0000 0.0000 0.0000 0.0000 0.0000 9.9333
#
#
#
# Elastic Compliance Matrix: (Units=1/GPa)
#
#
# Indices 1 2 3 4 5 6 
#
# 1 0.009099 -0.004673 0.000248 0.000000 0.000000 0.000000
# 2 -0.004673 0.009429 -0.000409 0.000000 0.000000 0.000000
# 3 0.000248 -0.000409 0.012971 0.000000 0.000000 0.000000
# 4 0.000000 0.000000 0.000000 -0.350069 0.000000 0.000000
# 5 0.000000 0.000000 0.000000 0.000000 0.240451 0.000000
# 6 0.000000 0.000000 0.000000 0.000000 0.000000 0.100672
#
#
# Mechanical properties :
#
#
# Convention : Reuss Voigt Hill
#
# Bulk Modulus (GPa) = 45.81012 57.59250 51.70131
# Shear Modulus (GPa) = 126.58655 21.67406 74.13031
#
# Velocity S-wave (km/s) = 7.49428 3.10103 5.73501
# Velocity P-wave (km/s) = 9.75760 6.19472 8.17268
#
# Compressibility (1/GPa) = 0.02182924
#
# Stress axis : x y z
#
# Youngs Moduli (GPa) = 109.90659 106.05669 77.09347
#
# Poissons Ratio (x) = 0.49564 -0.01910
# Poissons Ratio (y) = 0.51363 0.03154
# Poissons Ratio (z) = -0.02722 0.04339
#
# Static dielectric constant tensor:
#      x y z
#    x 1.833690 0.000000 0.000000 
#    y 0.000000 1.822530 0.000000 
#    z 0.000000 0.000000 1.901240 
# 
# From -- ./inp_files/13073.got.cif
#   From: 2010.05.17/outbox.cif.g08.bks.cpg/sg47_7_cif.got.tgz:13073.got - 2010.06.03 20:15:42.
