data_PCOD9384864
_publ_section_title
;
Structure prediction by ZEFSAII (Michael W. Deem and Ramdas Pophale) SiO2 
 PCOD9384864
Probable space group: P M M M
;
_chemical_formula_sum "Si O2"
_cell_formula_units_Z 64
_cell_length_a 7.972360
_cell_length_b 14.950618
_cell_length_c 24.996937
_cell_angle_alpha 90.000000
_cell_angle_beta 90.000000
_cell_angle_gamma 90.000000
_cell_volume 2979.427639
_symmetry_space_group_name_H-M "P M M M"
_symmetry_group_IT_number 47
_symmetry_cell_setting 'orthorhombic'
loop_
_space_group_symop_operation_xyz
x,y,z
-x,-y,z
x,-y,-z
-x,y,-z
-x,-y,-z
x,y,-z
-x,y,z
x,-y,z
loop_
_atom_site_type_symbol
_atom_site_label
_atom_site_fract_x
_atom_site_fract_y
_atom_site_fract_z
Si Si1 0.806596 0.706966 0.559404
Si Si2 0.702503 0.101952 0.722276
Si Si3 0.301668 0.602654 0.774727
Si Si4 0.295943 0.895865 0.842850
Si Si5 0.302164 0.219322 0.941460
Si Si6 0.195998 0.601793 0.893085
Si Si7 0.308488 0.902773 0.564054
Si Si8 0.800003 0.716619 0.672631
O O1 0.731413 0.689198 0.500000
O O2 0.801015 0.814278 0.568584
O O3 0.730748 0.676963 0.616277
O O4 0.000000 0.677408 0.556850
O O5 0.500000 0.100758 0.722708
O O6 0.760598 0.126752 0.782617
O O7 0.757261 0.179184 0.682272
O O8 0.757940 0.000000 0.711279
O O9 0.500000 0.606209 0.785086
O O10 0.253093 0.500000 0.762683
O O11 0.216038 0.627876 0.830633
O O12 0.262978 0.664119 0.724416
O O13 0.500000 0.887834 0.841585
O O14 0.230678 0.835152 0.891012
O O15 0.257186 0.000000 0.852345
O O16 0.500000 0.197942 0.943341
O O17 0.283618 0.323890 0.928630
O O18 0.230082 0.198412 0.000000
O O19 0.260976 0.500000 0.898470
O O20 0.000000 0.601562 0.906624
O O21 0.322619 0.911134 0.500000
O O22 0.500000 0.888391 0.584384
O O23 0.248837 0.000000 0.584167
O O24 0.000000 0.708229 0.670390
#
# Coordination Sequence:
#
# PCOD9384864 Si02
#       8
#     8   8   8   8   8   8   8   8
#     4   9  19  34  48  65  94 133 174 211 250 302
#     4   9  18  33  53  76 104 142 186 229 274 324
#     4  10  21  38  61  86 109 133 165 211 268 327
#     4   8  15  30  51  73  99 134 177 223 267 309
#     4  10  20  32  50  79 111 144 184 227 268 312
#     4  10  21  37  57  80 107 140 176 215 263 318
#     4   8  14  25  41  61  85 116 159 209 253 291
#     4  11  22  34  53  80 108 139 174 217 267 317
#
# _framework density 21.480637999999999
#
# number of rings (size 3 to 8) (size 9 to 14) (size 15 to 20)
#    0.000    2.625    0.000    3.000    0.000    5.250 
#    0.000    6.250    0.000    1.500    0.000    3.500 
#    0.000    0.000    0.000    0.000    0.000    0.000 
#
# Total GULP energy -356874.953929 kJ/mol
# GULP energy per Si atom -5576.171155 kJ/mol
# Density = 2.143175 g / cm^3
# Si number density = 21.480638 Si / 1000 Ang^3
#
#
#
# Elastic Constant Matrix: (Units=GPa)
#
#
# Indices 1 2 3 4 5 6 
#
# 1 21.0198 -4.8258 -1.4888 0.0000 0.0000 0.0000
# 2 -4.8258 26.2764 32.3856 0.0000 0.0000 0.0000
# 3 -1.4888 32.3856 132.8132 0.0000 0.0000 0.0000
# 4 0.0000 0.0000 0.0000 1.5737 0.0000 0.0000
# 5 0.0000 0.0000 0.0000 0.0000 15.3245 0.0000
# 6 0.0000 0.0000 0.0000 0.0000 0.0000 -21.7777
#
#
#
# Elastic Compliance Matrix: (Units=1/GPa)
#
#
# Indices 1 2 3 4 5 6 
#
# 1 0.050202 0.012190 -0.002410 0.000000 0.000000 0.000000
# 2 0.012190 0.057369 -0.013852 0.000000 0.000000 0.000000
# 3 -0.002410 -0.013852 0.010880 0.000000 0.000000 0.000000
# 4 0.000000 0.000000 0.000000 0.635454 0.000000 0.000000
# 5 0.000000 0.000000 0.000000 0.000000 0.065255 0.000000
# 6 0.000000 0.000000 0.000000 0.000000 0.000000 -0.045919
#
#
# Mechanical properties :
#
#
# Convention : Reuss Voigt Hill
#
# Bulk Modulus (GPa) = 9.06564 25.80570 17.43567
# Shear Modulus (GPa) = 6.11132 9.29334 7.70233
#
# Velocity S-wave (km/s) = 1.68855 2.08225 1.89565
# Velocity P-wave (km/s) = 2.83393 4.22144 3.59526
#
# Compressibility (1/GPa) = 0.11030657
#
# Stress axis : x y z
#
# Youngs Moduli (GPa) = 19.91949 17.43114 91.91046
#
# Poissons Ratio (x) = -0.21248 0.22147
# Poissons Ratio (y) = -0.24281 1.27317
# Poissons Ratio (z) = 0.04800 0.24146
#
# Static dielectric constant tensor:
#      x y z
#    x 1.796190 0.000000 0.000000 
#    y 0.000000 1.787070 0.000000 
#    z 0.000000 0.000000 1.843620 
# 
# From -- ./inp_files/7802.got.cif
#   From: 2010.05.17/outbox.cif.g08.bks.cpg/sg47_4_cif.got.tgz:7802.got - 2010.06.03 20:15:42.
