data_PCOD9384926
_publ_section_title
;
Structure prediction by ZEFSAII (Michael W. Deem and Ramdas Pophale) SiO2 
 PCOD9384926
Probable space group: P M M M
;
_chemical_formula_sum "Si O2"
_cell_formula_units_Z 40
_cell_length_a 15.933287
_cell_length_b 8.642008
_cell_length_c 20.522232
_cell_angle_alpha 90.000000
_cell_angle_beta 90.000000
_cell_angle_gamma 90.000000
_cell_volume 2825.820920
_symmetry_space_group_name_H-M "P M M M"
_symmetry_group_IT_number 47
_symmetry_cell_setting 'orthorhombic'
loop_
_space_group_symop_operation_xyz
x,y,z
-x,-y,z
x,-y,-z
-x,y,-z
-x,-y,-z
x,y,-z
-x,y,z
x,-y,z
loop_
_atom_site_type_symbol
_atom_site_label
_atom_site_fract_x
_atom_site_fract_y
_atom_site_fract_z
Si Si1 0.164782 0.185557 0.654584
Si Si2 0.678524 0.685036 0.424083
Si Si3 0.000000 0.188487 0.574790
Si Si4 0.898638 0.315584 0.929947
Si Si5 0.500000 0.178175 0.578990
Si Si6 0.901345 0.687429 0.212847
O O1 0.248188 0.246313 0.620013
O O2 0.083575 0.238106 0.612655
O O3 0.151051 0.246713 0.727468
O O4 0.165681 0.000000 0.654994
O O5 0.690056 0.734781 0.500000
O O6 0.681712 0.500000 0.422550
O O7 0.586530 0.740342 0.401535
O O8 0.000000 0.240937 0.500000
O O9 0.000000 0.000000 0.574339
O O10 0.881263 0.500000 0.930673
O O11 0.871452 0.257241 0.858909
O O12 0.000000 0.300862 0.929443
O O13 0.868769 0.251185 0.000000
O O14 0.500000 0.182280 0.500000
O O15 0.500000 0.000000 0.599811
O O16 0.898292 0.500000 0.213535
O O17 0.000000 0.730963 0.221050
#
# Coordination Sequence:
#
# PCOD9384926 Si02
#       6
#     8   8   4   8   4   8
#     4  11  20  30  43  59  82 113 146 179 213 255
#     4  10  20  33  48  66  86 107 135 175 219 258
#     4   9  18  30  41  53  72 103 144 184 215 243
#     4   7  10  18  34  55  75  98 132 171 208 246
#     4   9  17  31  51  71  87 105 130 163 208 263
#     4   9  16  26  40  57  80 108 139 177 215 251
#
# _framework density 14.155179
#
# number of rings (size 3 to 8) (size 9 to 14) (size 15 to 20)
#    0.000    2.800    1.000    3.900    0.000    3.200 
#    0.000    0.000    0.000    3.000    0.000    2.800 
#    0.000    0.000    0.000    0.900    0.000   18.600 
#
# Total GULP energy -222702.188426 kJ/mol
# GULP energy per Si atom -5567.554711 kJ/mol
# Density = 1.412296 g / cm^3
# Si number density = 14.155179 Si / 1000 Ang^3
#
#
#
# Elastic Constant Matrix: (Units=GPa)
#
#
# Indices 1 2 3 4 5 6 
#
# 1 93.2761 24.5395 61.0399 0.0000 0.0000 0.0000
# 2 24.5395 24.9936 26.2830 0.0000 0.0000 0.0000
# 3 61.0399 26.2830 138.8872 0.0000 0.0000 0.0000
# 4 0.0000 0.0000 0.0000 10.1033 0.0000 0.0000
# 5 0.0000 0.0000 0.0000 0.0000 4.5058 0.0000
# 6 0.0000 0.0000 0.0000 0.0000 0.0000 17.0669
#
#
#
# Elastic Compliance Matrix: (Units=1/GPa)
#
#
# Indices 1 2 3 4 5 6 
#
# 1 0.017235 -0.011181 -0.005459 0.000000 0.000000 0.000000
# 2 -0.011181 0.057205 -0.005911 0.000000 0.000000 0.000000
# 3 -0.005459 -0.005911 0.010718 0.000000 0.000000 0.000000
# 4 0.000000 0.000000 0.000000 0.098977 0.000000 0.000000
# 5 0.000000 0.000000 0.000000 0.000000 0.221937 0.000000
# 6 0.000000 0.000000 0.000000 0.000000 0.000000 0.058593
#
#
# Mechanical properties :
#
#
# Convention : Reuss Voigt Hill
#
# Bulk Modulus (GPa) = 24.96590 53.43129 39.19860
# Shear Modulus (GPa) = 9.55807 16.02150 12.78978
#
# Velocity S-wave (km/s) = 2.60135 3.36794 3.00916
# Velocity P-wave (km/s) = 5.16704 7.27687 6.31075
#
# Compressibility (1/GPa) = 0.04005463
#
# Stress axis : x y z
#
# Youngs Moduli (GPa) = 58.02309 17.48114 93.30343
#
# Poissons Ratio (x) = 0.19546 0.50930
# Poissons Ratio (y) = 0.64877 0.55155
# Poissons Ratio (z) = 0.31672 0.10334
#
# Static dielectric constant tensor:
#      x y z
#    x 1.436610 0.000000 0.000000 
#    y 0.000000 1.477170 0.000000 
#    z 0.000000 0.000000 1.495520 
# 
# From -- ./inp_files/24854.got.cif
#   From: 2010.05.17/outbox.cif.g08.bks.cpg/sg47_13_cif.got.tgz:24854.got - 2010.06.03 20:15:42.
