data_PCOD9384371
_publ_section_title
;
Structure prediction by ZEFSAII (Michael W. Deem and Ramdas Pophale) SiO2 
 PCOD9384371
Probable space group: P M M M
;
_chemical_formula_sum "Si O2"
_cell_formula_units_Z 64
_cell_length_a 20.486075
_cell_length_b 7.421991
_cell_length_c 21.059392
_cell_angle_alpha 90.000000
_cell_angle_beta 90.000000
_cell_angle_gamma 90.000000
_cell_volume 3202.027153
_symmetry_space_group_name_H-M "P M M M"
_symmetry_group_IT_number 47
_symmetry_cell_setting 'orthorhombic'
loop_
_space_group_symop_operation_xyz
x,y,z
-x,-y,z
x,-y,-z
-x,y,-z
-x,-y,-z
x,y,-z
-x,y,z
x,-y,z
loop_
_atom_site_type_symbol
_atom_site_label
_atom_site_fract_x
_atom_site_fract_y
_atom_site_fract_z
Si Si1 0.184922 0.221000 0.830411
Si Si2 0.240425 0.790907 0.703691
Si Si3 0.571154 0.717687 0.882691
Si Si4 0.717079 0.212174 0.431420
Si Si5 0.924750 0.780786 0.071384
Si Si6 0.613630 0.282249 0.743731
Si Si7 0.429661 0.717463 0.605680
Si Si8 0.711965 0.211216 0.068516
O O1 0.192843 0.284874 0.757925
O O2 0.122697 0.276747 0.872072
O O3 0.247448 0.282240 0.871932
O O4 0.185028 0.000000 0.827369
O O5 0.250860 0.711413 0.633138
O O6 0.312493 0.783695 0.735119
O O7 0.222638 0.000000 0.694871
O O8 0.500000 0.778621 0.905388
O O9 0.570834 0.500000 0.883267
O O10 0.582451 0.776708 0.809741
O O11 0.634847 0.773857 0.920843
O O12 0.736147 0.288852 0.500000
O O13 0.638403 0.224674 0.424898
O O14 0.732321 0.000000 0.432131
O O15 0.000000 0.726032 0.080210
O O16 0.923537 0.000000 0.071284
O O17 0.903785 0.725393 0.000000
O O18 0.615220 0.500000 0.744573
O O19 0.576032 0.229620 0.679840
O O20 0.500000 0.779141 0.580303
O O21 0.429414 0.500000 0.602206
O O22 0.728540 0.000000 0.066168
O O23 0.729590 0.289821 0.000000
#
# Coordination Sequence:
#
# PCOD9384371 Si02
#       8
#     8   8   8   8   8   8   8   8
#     4   9  15  25  42  62  84 110 140 172 203 240
#     4   9  16  27  44  62  80 103 134 170 205 239
#     4  10  20  32  45  59  77 103 135 174 219 260
#     4   9  18  30  41  55  78 105 131 164 207 251
#     4   8  13  21  35  59  92 124 145 162 196 248
#     4   9  16  28  44  60  78 100 129 168 212 254
#     4   9  17  28  42  59  77  98 128 165 206 256
#     4  10  20  32  45  61  81 105 134 171 214 253
#
# _framework density 19.98734
#
# number of rings (size 3 to 8) (size 9 to 14) (size 15 to 20)
#    0.000    2.875    1.250    1.125    0.000    4.500 
#    0.000    2.500    0.000    2.250    0.000    0.000 
#    0.000    2.500    0.000   13.875    0.000    6.250 
#
# Total GULP energy -356940.624949 kJ/mol
# GULP energy per Si atom -5577.197265 kJ/mol
# Density = 1.994185 g / cm^3
# Si number density = 19.987340 Si / 1000 Ang^3
#
#
#
# Elastic Constant Matrix: (Units=GPa)
#
#
# Indices 1 2 3 4 5 6 
#
# 1 78.4670 -2.9885 62.0253 0.0000 0.0000 0.0000
# 2 -2.9885 62.8330 8.2959 0.0000 0.0000 0.0000
# 3 62.0253 8.2959 171.4924 0.0000 0.0000 0.0000
# 4 0.0000 0.0000 0.0000 -9.8102 0.0000 0.0000
# 5 0.0000 0.0000 0.0000 0.0000 3.8297 0.0000
# 6 0.0000 0.0000 0.0000 0.0000 0.0000 12.0586
#
#
#
# Elastic Compliance Matrix: (Units=1/GPa)
#
#
# Indices 1 2 3 4 5 6 
#
# 1 0.018031 0.001730 -0.006605 0.000000 0.000000 0.000000
# 2 0.001730 0.016183 -0.001408 0.000000 0.000000 0.000000
# 3 -0.006605 -0.001408 0.008288 0.000000 0.000000 0.000000
# 4 0.000000 0.000000 0.000000 -0.101935 0.000000 0.000000
# 5 0.000000 0.000000 0.000000 0.000000 0.261117 0.000000
# 6 0.000000 0.000000 0.000000 0.000000 0.000000 0.082929
#
#
# Mechanical properties :
#
#
# Convention : Reuss Voigt Hill
#
# Bulk Modulus (GPa) = 33.40567 49.71750 41.56158
# Shear Modulus (GPa) = 16.27818 17.57960 16.92889
#
# Velocity S-wave (km/s) = 2.85691 2.96892 2.91345
# Velocity P-wave (km/s) = 5.25664 6.05649 5.67069
#
# Compressibility (1/GPa) = 0.02993504
#
# Stress axis : x y z
#
# Youngs Moduli (GPa) = 55.45922 61.79156 120.65249
#
# Poissons Ratio (x) = -0.10688 0.79694
# Poissons Ratio (y) = -0.09593 0.16994
# Poissons Ratio (z) = 0.36632 0.08703
#
# Static dielectric constant tensor:
#      x y z
#    x 1.676480 0.000000 0.000000 
#    y 0.000000 1.764020 0.000000 
#    z 0.000000 0.000000 1.755470 
# 
# From -- ./inp_files/30132.got.cif
#   From: 2010.05.17/outbox.cif.g08.bks.cpg/sg47_16_cif.got.tgz:30132.got - 2010.06.03 20:15:42.
