data_PCOD9384649
_publ_section_title
;
Structure prediction by ZEFSAII (Michael W. Deem and Ramdas Pophale) SiO2 
 PCOD9384649
Probable space group: P M M M
;
_chemical_formula_sum "Si O2"
_cell_formula_units_Z 44
_cell_length_a 9.196830
_cell_length_b 31.638279
_cell_length_c 8.203285
_cell_angle_alpha 90.000000
_cell_angle_beta 90.000000
_cell_angle_gamma 90.000000
_cell_volume 2386.925205
_symmetry_space_group_name_H-M "P M M M"
_symmetry_group_IT_number 47
_symmetry_cell_setting 'orthorhombic'
loop_
_space_group_symop_operation_xyz
x,y,z
-x,-y,z
x,-y,-z
-x,y,-z
-x,-y,-z
x,y,-z
-x,y,z
x,-y,z
loop_
_atom_site_type_symbol
_atom_site_label
_atom_site_fract_x
_atom_site_fract_y
_atom_site_fract_z
Si Si1 0.171002 0.954357 0.195990
Si Si2 0.824635 0.395038 0.690148
Si Si3 0.177068 0.548596 0.000000
Si Si4 0.834756 0.864893 0.306210
Si Si5 0.333245 0.308007 0.695433
Si Si6 0.665519 0.782468 0.194038
O O1 0.233724 0.909845 0.254349
O O2 0.000000 0.954072 0.245621
O O3 0.231836 0.000000 0.251434
O O4 0.175190 0.954165 0.000000
O O5 0.782016 0.404905 0.500000
O O6 0.778995 0.427634 0.832411
O O7 0.758939 0.349396 0.735855
O O8 0.000000 0.392974 0.691386
O O9 0.225677 0.500000 0.000000
O O10 0.000000 0.548679 0.000000
O O11 0.842399 0.865023 0.500000
O O12 0.750876 0.823332 0.252452
O O13 0.000000 0.863148 0.238714
O O14 0.338219 0.305971 0.500000
O O15 0.500000 0.312232 0.756825
O O16 0.272449 0.263155 0.755378
O O17 0.500000 0.783986 0.259548
O O18 0.660260 0.783673 0.000000
#
# Coordination Sequence:
#
# PCOD9384649 Si02
#       6
#     8   8   4   8   8   8
#     4   8  14  26  45  68  94 124 157 195 241 292
#     4   9  18  32  51  76 104 134 170 211 252 297
#     4   9  18  32  51  77 107 137 171 211 254 299
#     4  10  20  32  48  72 100 129 162 201 245 293
#     4   9  18  33  52  73  98 129 163 201 248 299
#     4  10  21  35  51  72  97 129 168 205 246 300
#
# _framework density 18.433757
#
# number of rings (size 3 to 8) (size 9 to 14) (size 15 to 20)
#    0.000    2.818    0.000    1.636    1.273    3.636 
#    0.000    5.455    0.000    1.636    0.000    6.364 
#    0.000    0.000    0.000    0.000    0.000    0.000 
#
# Total GULP energy -245035.598597 kJ/mol
# GULP energy per Si atom -5568.990877 kJ/mol
# Density = 1.839180 g / cm^3
# Si number density = 18.433757 Si / 1000 Ang^3
#
#
#
# Elastic Constant Matrix: (Units=GPa)
#
#
# Indices 1 2 3 4 5 6 
#
# 1 14.1554 38.0445 16.4265 0.0000 0.0000 0.0000
# 2 38.0445 214.6248 76.6801 0.0000 0.0000 0.0000
# 3 16.4265 76.6801 61.0352 0.0000 0.0000 0.0000
# 4 0.0000 0.0000 0.0000 64.3149 0.0000 0.0000
# 5 0.0000 0.0000 0.0000 0.0000 13.6899 0.0000
# 6 0.0000 0.0000 0.0000 0.0000 0.0000 -48.7669
#
#
#
# Elastic Compliance Matrix: (Units=1/GPa)
#
#
# Indices 1 2 3 4 5 6 
#
# 1 0.139415 -0.020516 -0.011746 0.000000 0.000000 0.000000
# 2 -0.020516 0.011473 -0.008892 0.000000 0.000000 0.000000
# 3 -0.011746 -0.008892 0.030717 0.000000 0.000000 0.000000
# 4 0.000000 0.000000 0.000000 0.015549 0.000000 0.000000
# 5 0.000000 0.000000 0.000000 0.000000 0.073047 0.000000
# 6 0.000000 0.000000 0.000000 0.000000 0.000000 -0.020506
#
#
# Mechanical properties :
#
#
# Convention : Reuss Voigt Hill
#
# Bulk Modulus (GPa) = 10.07095 61.34640 35.70867
# Shear Modulus (GPa) = 13.69483 16.42518 15.06001
#
# Velocity S-wave (km/s) = 2.72862 2.98826 2.86139
# Velocity P-wave (km/s) = 3.92458 6.72740 5.50728
#
# Compressibility (1/GPa) = 0.09929553
#
# Stress axis : x y z
#
# Youngs Moduli (GPa) = 7.17285 87.16143 32.55546
#
# Poissons Ratio (x) = 1.78821 0.38240
# Poissons Ratio (y) = 0.14716 0.28949
# Poissons Ratio (z) = 0.08425 0.77506
#
# Static dielectric constant tensor:
#      x y z
#    x 1.665460 0.000000 0.000000 
#    y 0.000000 1.649180 0.000000 
#    z 0.000000 0.000000 1.643250 
# 
# From -- ./inp_files/2185.got.cif
#   From: 2010.05.17/outbox.cif.g08.bks.cpg/sg47_2_cif.got.tgz:2185.got - 2010.06.03 20:15:42.
