data_PCOD9384730
_publ_section_title
;
Structure prediction by ZEFSAII (Michael W. Deem and Ramdas Pophale) SiO2 
 PCOD9384730
Probable space group: P M M M
;
_chemical_formula_sum "Si O2"
_cell_formula_units_Z 44
_cell_length_a 9.371362
_cell_length_b 7.569909
_cell_length_c 29.131377
_cell_angle_alpha 90.000000
_cell_angle_beta 90.000000
_cell_angle_gamma 90.000000
_cell_volume 2066.590300
_symmetry_space_group_name_H-M "P M M M"
_symmetry_group_IT_number 47
_symmetry_cell_setting 'orthorhombic'
loop_
_space_group_symop_operation_xyz
x,y,z
-x,-y,z
x,-y,-z
-x,y,-z
-x,-y,-z
x,y,-z
-x,y,z
x,-y,z
loop_
_atom_site_type_symbol
_atom_site_label
_atom_site_fract_x
_atom_site_fract_y
_atom_site_fract_z
Si Si1 0.164527 0.283833 0.319630
Si Si2 0.661931 0.289313 0.408389
Si Si3 0.839598 0.290063 0.141245
Si Si4 0.837853 0.789722 0.500000
Si Si5 0.662809 0.787131 0.948591
Si Si6 0.336099 0.283815 0.771089
O O1 0.163412 0.500000 0.320141
O O2 0.250824 0.222181 0.364390
O O3 0.245552 0.230110 0.273335
O O4 0.000000 0.226877 0.320391
O O5 0.500000 0.219428 0.411448
O O6 0.650685 0.500000 0.402145
O O7 0.750485 0.261247 0.454724
O O8 0.849813 0.500000 0.148817
O O9 0.767032 0.265091 0.092012
O O10 0.740060 0.221980 0.182297
O O11 0.000000 0.217241 0.142636
O O12 0.000000 0.717724 0.500000
O O13 0.847736 0.000000 0.500000
O O14 0.500000 0.726757 0.939501
O O15 0.659934 0.000000 0.949541
O O16 0.703637 0.727121 0.000000
O O17 0.500000 0.226071 0.768479
O O18 0.337952 0.500000 0.771353
#
# Coordination Sequence:
#
# PCOD9384730 Si02
#       6
#     8   8   8   4   8   8
#     4   9  16  27  46  73 104 135 166 204 250 296
#     4  10  20  34  54  80 106 133 170 213 253 297
#     4  10  20  32  48  74 106 136 167 205 249 298
#     4  11  24  39  54  74 102 137 174 211 256 308
#     4   9  19  36  55  73  95 127 168 211 254 302
#     4   9  16  27  45  70 101 135 169 205 246 293
#
# _framework density 21.291108999999999
#
# number of rings (size 3 to 8) (size 9 to 14) (size 15 to 20)
#    0.000    2.455    0.000    3.273    0.000    9.455 
#    0.000    2.727    0.000    1.091    0.000    0.000 
#    0.000    0.000    0.000    0.000    0.000    0.000 
#
# Total GULP energy -245814.893562 kJ/mol
# GULP energy per Si atom -5586.702126 kJ/mol
# Density = 2.124265 g / cm^3
# Si number density = 21.291109 Si / 1000 Ang^3
#
#
#
# Elastic Constant Matrix: (Units=GPa)
#
#
# Indices 1 2 3 4 5 6 
#
# 1 243.1140 7.1484 146.8363 0.0000 0.0000 0.0000
# 2 7.1484 47.2488 -2.8361 0.0000 0.0000 0.0000
# 3 146.8363 -2.8361 202.9381 0.0000 0.0000 0.0000
# 4 0.0000 0.0000 0.0000 133.7313 0.0000 0.0000
# 5 0.0000 0.0000 0.0000 0.0000-1404.6237 0.0000
# 6 0.0000 0.0000 0.0000 0.0000 0.0000 1.4667
#
#
#
# Elastic Compliance Matrix: (Units=1/GPa)
#
#
# Indices 1 2 3 4 5 6 
#
# 1 0.007403 -0.001443 -0.005377 0.000000 0.000000 0.000000
# 2 -0.001443 0.021463 0.001344 0.000000 0.000000 0.000000
# 3 -0.005377 0.001344 0.008837 0.000000 0.000000 0.000000
# 4 0.000000 0.000000 0.000000 0.007478 0.000000 0.000000
# 5 0.000000 0.000000 0.000000 0.000000 -0.000712 0.000000
# 6 0.000000 0.000000 0.000000 0.000000 0.000000 0.681809
#
#
# Mechanical properties :
#
#
# Convention : Reuss Voigt Hill
#
# Bulk Modulus (GPa) = 37.38020 88.39977 62.88999
# Shear Modulus (GPa) = 6.70109 -231.07498 -112.18694
#
# Velocity S-wave (km/s) = 1.77601 -10.42913 -7.26680
# Velocity P-wave (km/s) = 4.66909 10.16920 6.38797
#
# Compressibility (1/GPa) = 0.02675213
#
# Stress axis : x y z
#
# Youngs Moduli (GPa) = 135.07721 46.59075 113.16382
#
# Poissons Ratio (x) = 0.06722 0.60845
# Poissons Ratio (y) = 0.19489 -0.15208
# Poissons Ratio (z) = 0.72628 -0.06261
#
# Static dielectric constant tensor:
#      x y z
#    x 1.744010 0.000000 0.000000 
#    y 0.000000 1.808810 0.000000 
#    z 0.000000 0.000000 1.724420 
# 
# From -- ./inp_files/13635.got.cif
#   From: 2010.05.17/outbox.cif.g08.bks.cpg/sg47_7_cif.got.tgz:13635.got - 2010.06.03 20:15:42.
