data_PCOD9384471
_publ_section_title
;
Structure prediction by ZEFSAII (Michael W. Deem and Ramdas Pophale) SiO2 
 PCOD9384471
Probable space group: P M M M
;
_chemical_formula_sum "Si O2"
_cell_formula_units_Z 44
_cell_length_a 7.616212
_cell_length_b 29.929934
_cell_length_c 9.473175
_cell_angle_alpha 90.000000
_cell_angle_beta 90.000000
_cell_angle_gamma 90.000000
_cell_volume 2159.436032
_symmetry_space_group_name_H-M "P M M M"
_symmetry_group_IT_number 47
_symmetry_cell_setting 'orthorhombic'
loop_
_space_group_symop_operation_xyz
x,y,z
-x,-y,z
x,-y,-z
-x,y,-z
-x,-y,-z
x,y,-z
-x,y,z
x,-y,z
loop_
_atom_site_type_symbol
_atom_site_label
_atom_site_fract_x
_atom_site_fract_y
_atom_site_fract_z
Si Si1 0.792535 0.806397 0.661150
Si Si2 0.711528 0.904086 0.336806
Si Si3 0.707776 0.279779 0.158623
Si Si4 0.709339 0.000000 0.671617
Si Si5 0.714044 0.550128 0.837135
Si Si6 0.715378 0.635872 0.661990
O O1 0.718834 0.804179 0.500000
O O2 0.757864 0.855816 0.723602
O O3 0.727436 0.766398 0.757744
O O4 0.000000 0.801310 0.650575
O O5 0.773668 0.902299 0.500000
O O6 0.500000 0.906505 0.339010
O O7 0.776932 0.951721 0.277120
O O8 0.500000 0.287950 0.146092
O O9 0.777427 0.321247 0.249662
O O10 0.780934 0.277515 0.000000
O O11 0.500000 0.000000 0.699115
O O12 0.729094 0.000000 0.500000
O O13 0.500000 0.550200 0.835406
O O14 0.769954 0.500000 0.796047
O O15 0.772071 0.590101 0.737041
O O16 0.766122 0.557963 0.000000
O O17 0.771361 0.638465 0.500000
O O18 0.500000 0.636053 0.662030
#
# Coordination Sequence:
#
# PCOD9384471 Si02
#       6
#     8   8   8   4   8   8
#     4  10  20  32  46  67  95 124 154 190 234 282
#     4   8  13  23  41  64  91 123 156 189 225 267
#     4  10  20  33  49  67  87 116 156 198 238 282
#     4   7  10  18  35  61  90 119 152 187 222 262
#     4   8  13  21  33  51  80 118 153 183 220 269
#     4   9  16  25  39  60  85 113 147 189 234 278
#
# _framework density 20.375691
#
# number of rings (size 3 to 8) (size 9 to 14) (size 15 to 20)
#    0.000    3.182    0.000    3.273    0.000    4.727 
#    0.000    2.273    0.000    2.727    0.000    0.636 
#    0.000    5.818    0.000    7.636    0.000   10.545 
#
# Total GULP energy -245180.109059 kJ/mol
# GULP energy per Si atom -5572.275206 kJ/mol
# Density = 2.032932 g / cm^3
# Si number density = 20.375691 Si / 1000 Ang^3
#
#
#
# Elastic Constant Matrix: (Units=GPa)
#
#
# Indices 1 2 3 4 5 6 
#
# 1 39.7653 -0.3883 5.6829 0.0000 0.0000 0.0000
# 2 -0.3883 228.3711 112.5794 0.0000 0.0000 0.0000
# 3 5.6829 112.5794 109.8650 0.0000 0.0000 0.0000
# 4 0.0000 0.0000 0.0000 -28.1502 0.0000 0.0000
# 5 0.0000 0.0000 0.0000 0.0000 0.2268 0.0000
# 6 0.0000 0.0000 0.0000 0.0000 0.0000 -43.1781
#
#
#
# Elastic Compliance Matrix: (Units=1/GPa)
#
#
# Indices 1 2 3 4 5 6 
#
# 1 0.025556 0.001405 -0.002761 0.000000 0.000000 0.000000
# 2 0.001405 0.008926 -0.009219 0.000000 0.000000 0.000000
# 3 -0.002761 -0.009219 0.018692 0.000000 0.000000 0.000000
# 4 0.000000 0.000000 0.000000 -0.035524 0.000000 0.000000
# 5 0.000000 0.000000 0.000000 0.000000 4.408952 0.000000
# 6 0.000000 0.000000 0.000000 0.000000 0.000000 -0.023160
#
#
# Mechanical properties :
#
#
# Convention : Reuss Voigt Hill
#
# Bulk Modulus (GPa) = 31.22836 68.19438 49.71137
# Shear Modulus (GPa) = 1.12733 3.12153 2.12443
#
# Velocity S-wave (km/s) = 0.74463 1.23908 1.02220
# Velocity P-wave (km/s) = 4.01234 5.96559 5.08365
#
# Compressibility (1/GPa) = 0.03202217
#
# Stress axis : x y z
#
# Youngs Moduli (GPa) = 39.12991 112.03279 53.49934
#
# Poissons Ratio (x) = -0.15737 0.14773
# Poissons Ratio (y) = -0.05496 0.49322
# Poissons Ratio (z) = 0.10805 1.03285
#
# Static dielectric constant tensor:
#      x y z
#    x 1.757270 0.000000 0.000000 
#    y 0.000000 1.749070 0.000000 
#    z 0.000000 0.000000 1.701080 
# 
# From -- ./inp_files/2254.got.cif
#   From: 2010.05.17/outbox.cif.g08.bks.cpg/sg47_2_cif.got.tgz:2254.got - 2010.06.03 20:15:42.
