data_PCOD9384799
_publ_section_title
;
Structure prediction by ZEFSAII (Michael W. Deem and Ramdas Pophale) SiO2 
 PCOD9384799
Probable space group: P M M M
;
_chemical_formula_sum "Si O2"
_cell_formula_units_Z 52
_cell_length_a 14.679846
_cell_length_b 23.303242
_cell_length_c 9.236456
_cell_angle_alpha 90.000000
_cell_angle_beta 90.000000
_cell_angle_gamma 90.000000
_cell_volume 3159.680796
_symmetry_space_group_name_H-M "P M M M"
_symmetry_group_IT_number 47
_symmetry_cell_setting 'orthorhombic'
loop_
_space_group_symop_operation_xyz
x,y,z
-x,-y,z
x,-y,-z
-x,y,-z
-x,-y,-z
x,y,-z
-x,y,z
x,-y,z
loop_
_atom_site_type_symbol
_atom_site_label
_atom_site_fract_x
_atom_site_fract_y
_atom_site_fract_z
Si Si1 0.393228 0.279734 0.827960
Si Si2 0.390590 0.163523 0.333917
Si Si3 0.390875 0.500000 0.327291
Si Si4 0.717535 0.932793 0.827854
Si Si5 0.898641 0.069562 0.666294
Si Si6 0.104768 0.431106 0.671721
Si Si7 0.285181 0.603763 0.826544
O O1 0.500000 0.291921 0.793690
O O2 0.363737 0.223169 0.741954
O O3 0.331745 0.334929 0.796596
O O4 0.388402 0.268135 0.000000
O O5 0.359613 0.162007 0.500000
O O6 0.500000 0.161875 0.331483
O O7 0.352757 0.109088 0.248791
O O8 0.500000 0.500000 0.305984
O O9 0.372531 0.500000 0.500000
O O10 0.344796 0.444874 0.253022
O O11 0.817427 0.914430 0.771925
O O12 0.703835 0.000000 0.788378
O O13 0.711595 0.928256 0.000000
O O14 0.880196 0.087005 0.500000
O O15 0.000000 0.089617 0.707262
O O16 0.901406 0.000000 0.666587
O O17 0.117817 0.420119 0.500000
O O18 0.113989 0.500000 0.692218
O O19 0.183031 0.401062 0.764390
O O20 0.000000 0.415804 0.708662
O O21 0.285853 0.594350 0.000000
#
# Coordination Sequence:
#
# PCOD9384799 Si02
#       7
#     8   8   4   8   8   8   8
#     4   9  19  36  55  74 100 134 168 205 254 312
#     4  10  21  36  54  75  98 129 172 217 257 301
#     4  11  23  35  48  71 106 143 173 206 250 299
#     4  10  20  32  49  75 105 136 168 205 254 309
#     4   8  14  26  45  69  98 131 164 199 241 290
#     4   9  18  33  52  74 104 141 177 213 255 305
#     4  11  21  33  53  80 106 134 169 212 260 305
#
# _framework density 16.457360000000001
#
# number of rings (size 3 to 8) (size 9 to 14) (size 15 to 20)
#    0.000    2.385    0.769    3.000    0.000    5.231 
#    0.000    5.385    0.000    0.923    0.000    4.308 
#    0.000    0.000    0.000    0.000    0.000    0.000 
#
# Total GULP energy -289957.101078 kJ/mol
# GULP energy per Si atom -5576.098098 kJ/mol
# Density = 1.641990 g / cm^3
# Si number density = 16.457360 Si / 1000 Ang^3
#
#
#
# Elastic Constant Matrix: (Units=GPa)
#
#
# Indices 1 2 3 4 5 6 
#
# 1 84.7271 56.2685 59.1725 0.0000 0.0000 0.0000
# 2 56.2685 96.7538 69.2766 0.0000 0.0000 0.0000
# 3 59.1725 69.2766 84.7415 0.0000 0.0000 0.0000
# 4 0.0000 0.0000 0.0000 19.4950 0.0000 0.0000
# 5 0.0000 0.0000 0.0000 0.0000 28.7003 0.0000
# 6 0.0000 0.0000 0.0000 0.0000 0.0000 3.2320
#
#
#
# Elastic Compliance Matrix: (Units=1/GPa)
#
#
# Indices 1 2 3 4 5 6 
#
# 1 0.023892 -0.004701 -0.012840 0.000000 0.000000 0.000000
# 2 -0.004701 0.025850 -0.017850 0.000000 0.000000 0.000000
# 3 -0.012840 -0.017850 0.035359 0.000000 0.000000 0.000000
# 4 0.000000 0.000000 0.000000 0.051295 0.000000 0.000000
# 5 0.000000 0.000000 0.000000 0.000000 0.034843 0.000000
# 6 0.000000 0.000000 0.000000 0.000000 0.000000 0.309402
#
#
# Mechanical properties :
#
#
# Convention : Reuss Voigt Hill
#
# Bulk Modulus (GPa) = 69.83775 70.62864 70.23319
# Shear Modulus (GPa) = 8.98964 15.71912 12.35438
#
# Velocity S-wave (km/s) = 2.33971 3.09389 2.74284
# Velocity P-wave (km/s) = 7.05880 7.46808 7.26632
#
# Compressibility (1/GPa) = 0.01431890
#
# Stress axis : x y z
#
# Youngs Moduli (GPa) = 41.85514 38.68403 28.28160
#
# Poissons Ratio (x) = 0.18187 0.36313
# Poissons Ratio (y) = 0.19678 0.50483
# Poissons Ratio (z) = 0.53741 0.69051
#
# Static dielectric constant tensor:
#      x y z
#    x 1.560840 0.000000 0.000000 
#    y 0.000000 1.524560 0.000000 
#    z 0.000000 0.000000 1.550090 
# 
# From -- ./inp_files/7076.got.cif
#   From: 2010.05.17/outbox.cif.g08.bks.cpg/sg47_4_cif.got.tgz:7076.got - 2010.06.03 20:15:42.
