data_PCOD9384892
_publ_section_title
;
Structure prediction by ZEFSAII (Michael W. Deem and Ramdas Pophale) SiO2 
 PCOD9384892
Probable space group: P M M M
;
_chemical_formula_sum "Si O2"
_cell_formula_units_Z 48
_cell_length_a 23.950069
_cell_length_b 17.319875
_cell_length_c 9.000529
_cell_angle_alpha 90.000000
_cell_angle_beta 90.000000
_cell_angle_gamma 90.000000
_cell_volume 3733.529248
_symmetry_space_group_name_H-M "P M M M"
_symmetry_group_IT_number 47
_symmetry_cell_setting 'orthorhombic'
loop_
_space_group_symop_operation_xyz
x,y,z
-x,-y,z
x,-y,-z
-x,y,-z
-x,-y,-z
x,y,-z
-x,y,z
x,-y,z
loop_
_atom_site_type_symbol
_atom_site_label
_atom_site_fract_x
_atom_site_fract_y
_atom_site_fract_z
Si Si1 0.067536 0.500000 0.825495
Si Si2 0.894206 0.174946 0.322511
Si Si3 0.000000 0.092554 0.825791
Si Si4 0.789738 0.907602 0.175641
Si Si5 0.438227 0.093776 0.825966
Si Si6 0.066848 0.669794 0.820819
Si Si7 0.674601 0.906120 0.329959
O O1 0.084824 0.584020 0.767236
O O2 0.000000 0.500000 0.818514
O O3 0.082202 0.500000 0.000000
O O4 0.897200 0.173483 0.500000
O O5 0.945403 0.126568 0.252652
O O6 0.837145 0.137200 0.264825
O O7 0.901819 0.261438 0.260649
O O8 0.000000 0.000000 0.817511
O O9 0.000000 0.115300 0.000000
O O10 0.728089 0.884884 0.231677
O O11 0.796119 0.000000 0.200378
O O12 0.795611 0.893679 0.000000
O O13 0.500000 0.119109 0.774406
O O14 0.384550 0.121160 0.735428
O O15 0.438191 0.000000 0.818339
O O16 0.432331 0.113480 0.000000
O O17 0.000000 0.678189 0.794587
O O18 0.074459 0.674551 0.000000
O O19 0.682085 0.881581 0.500000
O O20 0.672717 0.000000 0.328629
#
# Coordination Sequence:
#
# PCOD9384892 Si02
#       7
#     4   8   4   8   8   8   8
#     4   7  12  24  45  69  83  99 124 146 171 212
#     4  12  23  32  44  62  82  99 121 156 198 236
#     4  11  23  37  49  58  71  96 129 161 196 237
#     4  10  20  33  46  56  69  96 133 166 197 235
#     4   8  13  21  33  49  69  93 120 149 183 225
#     4   9  16  29  48  65  83 103 124 148 179 224
#     4   9  16  25  37  53  72  92 117 154 197 234
#
# _framework density 12.856468
#
# number of rings (size 3 to 8) (size 9 to 14) (size 15 to 20)
#    0.000    2.500    0.833    4.750    0.000    6.000 
#    0.000    2.083    0.000    1.500    0.000    0.000 
#    0.000    0.000    0.000    0.000    0.000    0.000 
#
# Total GULP energy -267391.780028 kJ/mol
# GULP energy per Si atom -5570.662084 kJ/mol
# Density = 1.282721 g / cm^3
# Si number density = 12.856468 Si / 1000 Ang^3
#
#
#
# Elastic Constant Matrix: (Units=GPa)
#
#
# Indices 1 2 3 4 5 6 
#
# 1 86.8406 31.9983 44.1467 0.0000 0.0000 0.0000
# 2 31.9983 55.3928 35.1263 0.0000 0.0000 0.0000
# 3 44.1467 35.1263 72.2330 0.0000 0.0000 0.0000
# 4 0.0000 0.0000 0.0000 4.1505 0.0000 0.0000
# 5 0.0000 0.0000 0.0000 0.0000 6.9829 0.0000
# 6 0.0000 0.0000 0.0000 0.0000 0.0000 -0.1781
#
#
#
# Elastic Compliance Matrix: (Units=1/GPa)
#
#
# Indices 1 2 3 4 5 6 
#
# 1 0.017555 -0.004825 -0.008382 0.000000 0.000000 0.000000
# 2 -0.004825 0.027428 -0.010389 0.000000 0.000000 0.000000
# 3 -0.008382 -0.010389 0.024019 0.000000 0.000000 0.000000
# 4 0.000000 0.000000 0.000000 0.240935 0.000000 0.000000
# 5 0.000000 0.000000 0.000000 0.000000 0.143207 0.000000
# 6 0.000000 0.000000 0.000000 0.000000 0.000000 -5.615773
#
#
# Mechanical properties :
#
#
# Convention : Reuss Voigt Hill
#
# Bulk Modulus (GPa) = 45.85304 48.55655 47.20480
# Shear Modulus (GPa) = -0.97882 9.07074 4.04596
#
# Velocity S-wave (km/s) = -0.87350 2.65908 1.77591
# Velocity P-wave (km/s) = 5.89283 6.87588 6.40325
#
# Compressibility (1/GPa) = 0.02180880
#
# Stress axis : x y z
#
# Youngs Moduli (GPa) = 56.96512 36.45875 41.63299
#
# Poissons Ratio (x) = 0.17591 0.34899
# Poissons Ratio (y) = 0.27486 0.43253
# Poissons Ratio (z) = 0.47751 0.37878
#
# Static dielectric constant tensor:
#      x y z
#    x 1.415090 0.000000 0.000000 
#    y 0.000000 1.412940 0.000000 
#    z 0.000000 0.000000 1.426900 
# 
# From -- ./inp_files/11423.got.cif
#   From: 2010.05.17/outbox.cif.g08.bks.cpg/sg47_6_cif.got.tgz:11423.got - 2010.06.03 20:15:42.
