data_PCOD9384161
_publ_section_title
;
Structure prediction by ZEFSAII (Michael W. Deem and Ramdas Pophale) SiO2 
 PCOD9384161
Probable space group: P M M M
;
_chemical_formula_sum "Si O2"
_cell_formula_units_Z 64
_cell_length_a 20.143736
_cell_length_b 9.137778
_cell_length_c 20.343282
_cell_angle_alpha 90.000000
_cell_angle_beta 90.000000
_cell_angle_gamma 90.000000
_cell_volume 3744.567323
_symmetry_space_group_name_H-M "P M M M"
_symmetry_group_IT_number 47
_symmetry_cell_setting 'orthorhombic'
loop_
_space_group_symop_operation_xyz
x,y,z
-x,-y,z
x,-y,-z
-x,y,-z
-x,-y,-z
x,y,-z
-x,y,z
x,-y,z
loop_
_atom_site_type_symbol
_atom_site_label
_atom_site_fract_x
_atom_site_fract_y
_atom_site_fract_z
Si Si1 0.422671 0.174981 0.822443
Si Si2 0.698565 0.673034 0.572333
Si Si3 0.331602 0.674869 0.076337
Si Si4 0.212062 0.674464 0.824005
Si Si5 0.162463 0.832225 0.574296
Si Si6 0.074429 0.825363 0.813201
Si Si7 0.925109 0.334025 0.675530
Si Si8 0.676945 0.674877 0.277874
O O1 0.500000 0.212984 0.815736
O O2 0.391532 0.240750 0.888908
O O3 0.378637 0.242943 0.764044
O O4 0.416115 0.000000 0.822313
O O5 0.664541 0.693811 0.500000
O O6 0.717279 0.500000 0.574362
O O7 0.762523 0.775958 0.571577
O O8 0.667882 0.702675 0.644297
O O9 0.342889 0.500000 0.081652
O O10 0.265784 0.706933 0.119146
O O11 0.323756 0.712146 0.000000
O O12 0.200678 0.500000 0.822265
O O13 0.142423 0.753070 0.838892
O O14 0.250939 0.714482 0.755299
O O15 0.135729 0.825926 0.500000
O O16 0.123757 0.724597 0.621310
O O17 0.158752 0.000000 0.597135
O O18 0.075785 0.771783 0.737843
O O19 0.000000 0.781437 0.838627
O O20 0.078673 0.000000 0.818226
O O21 0.908666 0.500000 0.696401
O O22 0.000000 0.334308 0.649216
O O23 0.670745 0.500000 0.267173
#
# Coordination Sequence:
#
# PCOD9384161 Si02
#       8
#     8   8   8   8   8   8   8   8
#     4  10  21  35  52  78 110 141 173 207 243 287
#     4   9  17  30  49  72  97 124 158 205 256 301
#     4   9  19  36  57  81 108 138 171 204 241 290
#     4   9  17  30  50  75 101 130 167 209 249 294
#     4  10  20  31  43  61  85 114 149 190 240 299
#     4  10  20  32  47  69  96 125 160 204 252 300
#     4  10  20  32  45  60  80 111 152 196 244 298
#     4   9  18  32  51  75 101 132 171 212 254 302
#
# _framework density 17.091428000000001
#
# number of rings (size 3 to 8) (size 9 to 14) (size 15 to 20)
#    0.000    2.500    0.000    3.000    0.000    7.500 
#    0.000    2.500    0.000    0.750    0.000    5.250 
#    0.000    0.000    0.000    0.000    0.000    0.000 
#
# Total GULP energy -356373.866569 kJ/mol
# GULP energy per Si atom -5568.341665 kJ/mol
# Density = 1.705253 g / cm^3
# Si number density = 17.091428 Si / 1000 Ang^3
#
#
#
# Elastic Constant Matrix: (Units=GPa)
#
#
# Indices 1 2 3 4 5 6 
#
# 1 103.8766 41.4456 37.4056 0.0000 0.0000 0.0000
# 2 41.4456 31.3598 25.0360 0.0000 0.0000 0.0000
# 3 37.4056 25.0360 99.1532 0.0000 0.0000 0.0000
# 4 0.0000 0.0000 0.0000 14.5517 0.0000 0.0000
# 5 0.0000 0.0000 0.0000 0.0000 12.2369 0.0000
# 6 0.0000 0.0000 0.0000 0.0000 0.0000 26.6820
#
#
#
# Elastic Compliance Matrix: (Units=1/GPa)
#
#
# Indices 1 2 3 4 5 6 
#
# 1 0.020464 -0.026155 -0.001116 0.000000 0.000000 0.000000
# 2 -0.026155 0.073367 -0.008658 0.000000 0.000000 0.000000
# 3 -0.001116 -0.008658 0.012693 0.000000 0.000000 0.000000
# 4 0.000000 0.000000 0.000000 0.068720 0.000000 0.000000
# 5 0.000000 0.000000 0.000000 0.000000 0.081720 0.000000
# 6 0.000000 0.000000 0.000000 0.000000 0.000000 0.037478
#
#
# Mechanical properties :
#
#
# Convention : Reuss Voigt Hill
#
# Bulk Modulus (GPa) = 28.84708 49.12935 38.98822
# Shear Modulus (GPa) = 13.23260 19.39430 16.31345
#
# Velocity S-wave (km/s) = 2.78551 3.37224 3.09282
# Velocity P-wave (km/s) = 5.22112 6.63100 5.96784
#
# Compressibility (1/GPa) = 0.03466556
#
# Stress axis : x y z
#
# Youngs Moduli (GPa) = 48.86590 13.63019 78.78607
#
# Poissons Ratio (x) = 0.35649 0.08793
# Poissons Ratio (y) = 1.27807 0.68213
# Poissons Ratio (z) = 0.05454 0.11801
#
# Static dielectric constant tensor:
#      x y z
#    x 1.586480 0.000000 0.000000 
#    y 0.000000 1.568860 0.000000 
#    z 0.000000 0.000000 1.596720 
# 
# From -- ./inp_files/9989.got.cif
#   From: 2010.05.17/outbox.cif.g08.bks.cpg/sg47_5_cif.got.tgz:9989.got - 2010.06.03 20:15:42.
