data_PCOD9384686
_publ_section_title
;
Structure prediction by ZEFSAII (Michael W. Deem and Ramdas Pophale) SiO2 
 PCOD9384686
Probable space group: P M M M
;
_chemical_formula_sum "Si O2"
_cell_formula_units_Z 36
_cell_length_a 9.376356
_cell_length_b 23.916461
_cell_length_c 7.379462
_cell_angle_alpha 90.000000
_cell_angle_beta 90.000000
_cell_angle_gamma 90.000000
_cell_volume 1654.838838
_symmetry_space_group_name_H-M "P M M M"
_symmetry_group_IT_number 47
_symmetry_cell_setting 'orthorhombic'
loop_
_space_group_symop_operation_xyz
x,y,z
-x,-y,z
x,-y,-z
-x,y,-z
-x,-y,-z
x,y,-z
-x,y,z
x,-y,z
loop_
_atom_site_type_symbol
_atom_site_label
_atom_site_fract_x
_atom_site_fract_y
_atom_site_fract_z
Si Si1 0.164558 0.000000 0.721006
Si Si2 0.338973 0.330482 0.217167
Si Si3 0.835231 0.562721 0.220830
Si Si4 0.335477 0.889477 0.721477
Si Si5 0.838330 0.781398 0.716073
O O1 0.248692 0.944456 0.777456
O O2 0.163317 0.000000 0.500000
O O3 0.000000 0.000000 0.779468
O O4 0.500000 0.323156 0.285815
O O5 0.264343 0.387135 0.284549
O O6 0.242236 0.276698 0.253503
O O7 0.347131 0.335662 0.000000
O O8 0.792639 0.500000 0.276903
O O9 0.000000 0.571955 0.274306
O O10 0.833412 0.563110 0.000000
O O11 0.336634 0.889239 0.500000
O O12 0.500000 0.890778 0.779286
O O13 0.254654 0.833602 0.783424
O O14 0.848164 0.788869 0.500000
O O15 0.000000 0.780541 0.787343
#
# Coordination Sequence:
#
# PCOD9384686 Si02
#       5
#     4   8   8   8   8
#     4   9  15  23  37  59  88 119 152 191 232 275
#     4  10  20  32  48  72  99 126 157 193 234 280
#     4   8  14  26  45  68  93 121 153 190 232 276
#     4   9  16  26  41  62  89 120 153 191 236 281
#     4  10  20  33  49  69  94 126 162 197 236 282
#
# _framework density 21.754384999999999
#
# number of rings (size 3 to 8) (size 9 to 14) (size 15 to 20)
#    0.000    2.778    0.000    3.000    0.000    7.111 
#    0.000    2.222    0.000    0.667    0.000    5.444 
#    0.000    6.222    0.000    0.000    0.000    0.000 
#
# Total GULP energy -201153.816217 kJ/mol
# GULP energy per Si atom -5587.606006 kJ/mol
# Density = 2.170487 g / cm^3
# Si number density = 21.754385 Si / 1000 Ang^3
#
#
#
# Elastic Constant Matrix: (Units=GPa)
#
#
# Indices 1 2 3 4 5 6 
#
# 1 243.6317 160.0576 7.3458 0.0000 0.0000 0.0000
# 2 160.0576 230.0939 1.2576 0.0000 0.0000 0.0000
# 3 7.3458 1.2576 77.2433 0.0000 0.0000 0.0000
# 4 0.0000 0.0000 0.0000 15.2986 0.0000 0.0000
# 5 0.0000 0.0000 0.0000 0.0000 2.4655 0.0000
# 6 0.0000 0.0000 0.0000 0.0000 0.0000 49.0950
#
#
#
# Elastic Compliance Matrix: (Units=1/GPa)
#
#
# Indices 1 2 3 4 5 6 
#
# 1 0.007590 -0.005276 -0.000636 0.000000 0.000000 0.000000
# 2 -0.005276 0.008014 0.000371 0.000000 0.000000 0.000000
# 3 -0.000636 0.000371 0.013001 0.000000 0.000000 0.000000
# 4 0.000000 0.000000 0.000000 0.065366 0.000000 0.000000
# 5 0.000000 0.000000 0.000000 0.000000 0.405596 0.000000
# 6 0.000000 0.000000 0.000000 0.000000 0.000000 0.020369
#
#
# Mechanical properties :
#
#
# Convention : Reuss Voigt Hill
#
# Bulk Modulus (GPa) = 57.06761 98.69898 77.88329
# Shear Modulus (GPa) = 9.31344 38.85901 24.08623
#
# Velocity S-wave (km/s) = 2.07135 4.23100 3.33106
# Velocity P-wave (km/s) = 5.65776 8.32687 7.11853
#
# Compressibility (1/GPa) = 0.01752308
#
# Stress axis : x y z
#
# Youngs Moduli (GPa) = 131.75049 124.77624 76.91988
#
# Poissons Ratio (x) = 0.65836 0.04891
# Poissons Ratio (y) = 0.69516 -0.02856
# Poissons Ratio (z) = 0.08378 -0.04633
#
# Static dielectric constant tensor:
#      x y z
#    x 1.778520 0.000000 0.000000 
#    y 0.000000 1.735650 0.000000 
#    z 0.000000 0.000000 1.890630 
# 
# From -- ./inp_files/1437.got.cif
#   From: 2010.05.17/outbox.cif.g08.bks.cpg/sg47_1_cif.got.tgz:1437.got - 2010.06.03 20:15:42.
