data_PCOD9384171
_publ_section_title
;
Structure prediction by ZEFSAII (Michael W. Deem and Ramdas Pophale) SiO2 
 PCOD9384171
Probable space group: P M M M
;
_chemical_formula_sum "Si O2"
_cell_formula_units_Z 44
_cell_length_a 9.740012
_cell_length_b 29.590159
_cell_length_c 7.367756
_cell_angle_alpha 90.000000
_cell_angle_beta 90.000000
_cell_angle_gamma 90.000000
_cell_volume 2123.449933
_symmetry_space_group_name_H-M "P M M M"
_symmetry_group_IT_number 47
_symmetry_cell_setting 'orthorhombic'
loop_
_space_group_symop_operation_xyz
x,y,z
-x,-y,z
x,-y,-z
-x,y,-z
-x,-y,-z
x,y,-z
-x,y,z
x,-y,z
loop_
_atom_site_type_symbol
_atom_site_label
_atom_site_fract_x
_atom_site_fract_y
_atom_site_fract_z
Si Si1 0.154502 0.770260 0.714544
Si Si2 0.659545 0.852483 0.722053
Si Si3 0.842459 0.500000 0.221951
Si Si4 0.344733 0.314574 0.218091
Si Si5 0.335796 0.048557 0.718436
Si Si6 0.657318 0.583341 0.778987
O O1 0.143231 0.778595 0.500000
O O2 0.246585 0.811464 0.786617
O O3 0.236233 0.723540 0.734156
O O4 0.000000 0.768110 0.788442
O O5 0.658784 0.852584 0.500000
O O6 0.500000 0.846735 0.776270
O O7 0.712144 0.902156 0.781042
O O8 0.761011 0.455294 0.281040
O O9 0.000000 0.500000 0.279511
O O10 0.841442 0.500000 0.000000
O O11 0.500000 0.303518 0.281536
O O12 0.309618 0.365463 0.279457
O O13 0.350028 0.316122 0.000000
O O14 0.318629 0.048093 0.500000
O O15 0.500000 0.048696 0.752220
O O16 0.281665 0.000000 0.786174
O O17 0.500000 0.573372 0.725873
O O18 0.659469 0.583204 0.000000
#
# Coordination Sequence:
#
# PCOD9384171 Si02
#       6
#     8   8   4   8   8   8
#     4  10  20  31  43  62  89 120 151 181 215 258
#     4   8  13  22  37  55  76 106 142 177 212 250
#     4   9  15  21  33  57  86 113 140 167 198 244
#     4   9  18  32  49  68  88 112 146 186 224 260
#     4   7   9  14  27  49  74  98 128 168 211 251
#     4   8  14  25  40  58  82 110 137 169 211 254
#
# _framework density 20.720998000000002
#
# number of rings (size 3 to 8) (size 9 to 14) (size 15 to 20)
#    0.000    3.545    0.000    3.545    0.000    3.273 
#    0.000    1.818    0.000    0.545    0.000    4.455 
#    0.000    5.818    0.000    8.364    0.000    9.636 
#
# Total GULP energy -245267.689382 kJ/mol
# GULP energy per Si atom -5574.265668 kJ/mol
# Density = 2.067384 g / cm^3
# Si number density = 20.720998 Si / 1000 Ang^3
#
#
#
# Elastic Constant Matrix: (Units=GPa)
#
#
# Indices 1 2 3 4 5 6 
#
# 1 139.6439 141.5791 5.0380 0.0000 0.0000 0.0000
# 2 141.5791 222.1341 2.6889 0.0000 0.0000 0.0000
# 3 5.0380 2.6889 71.4521 0.0000 0.0000 0.0000
# 4 0.0000 0.0000 0.0000 7.6873 0.0000 0.0000
# 5 0.0000 0.0000 0.0000 0.0000 0.2805 0.0000
# 6 0.0000 0.0000 0.0000 0.0000 0.0000 -6.2869
#
#
#
# Elastic Compliance Matrix: (Units=1/GPa)
#
#
# Indices 1 2 3 4 5 6 
#
# 1 0.020304 -0.012929 -0.000945 0.000000 0.000000 0.000000
# 2 -0.012929 0.012737 0.000432 0.000000 0.000000 0.000000
# 3 -0.000945 0.000432 0.014046 0.000000 0.000000 0.000000
# 4 0.000000 0.000000 0.000000 0.130085 0.000000 0.000000
# 5 0.000000 0.000000 0.000000 0.000000 3.565378 0.000000
# 6 0.000000 0.000000 0.000000 0.000000 0.000000 -0.159062
#
#
# Mechanical properties :
#
#
# Convention : Reuss Voigt Hill
#
# Bulk Modulus (GPa) = 49.49878 81.31581 65.40729
# Shear Modulus (GPa) = 1.38232 19.26445 10.32339
#
# Velocity S-wave (km/s) = 0.81765 3.05242 2.23448
# Velocity P-wave (km/s) = 4.98312 7.19384 6.18801
#
# Compressibility (1/GPa) = 0.02020252
#
# Stress axis : x y z
#
# Youngs Moduli (GPa) = 49.25259 78.51100 71.19592
#
# Poissons Ratio (x) = 1.01508 0.06728
# Poissons Ratio (y) = 0.63680 -0.03078
# Poissons Ratio (z) = 0.04655 -0.03394
#
# Static dielectric constant tensor:
#      x y z
#    x 1.694260 0.000000 0.000000 
#    y 0.000000 1.753380 0.000000 
#    z 0.000000 0.000000 1.882650 
# 
# From -- ./inp_files/1999.got.cif
#   From: 2010.05.17/outbox.cif.g08.bks.cpg/sg47_1_cif.got.tgz:1999.got - 2010.06.03 20:15:42.
