data_PCOD9384482
_publ_section_title
;
Structure prediction by ZEFSAII (Michael W. Deem and Ramdas Pophale) SiO2 
 PCOD9384482
Probable space group: P M M M
;
_chemical_formula_sum "Si O2"
_cell_formula_units_Z 48
_cell_length_a 20.400735
_cell_length_b 15.778453
_cell_length_c 8.941138
_cell_angle_alpha 90.000000
_cell_angle_beta 90.000000
_cell_angle_gamma 90.000000
_cell_volume 2878.081136
_symmetry_space_group_name_H-M "P M M M"
_symmetry_group_IT_number 47
_symmetry_cell_setting 'orthorhombic'
loop_
_space_group_symop_operation_xyz
x,y,z
-x,-y,z
x,-y,-z
-x,y,-z
-x,-y,-z
x,y,-z
-x,y,z
x,-y,z
loop_
_atom_site_type_symbol
_atom_site_label
_atom_site_fract_x
_atom_site_fract_y
_atom_site_fract_z
Si Si1 0.739307 0.276926 0.178292
Si Si2 0.752755 0.091556 0.177488
Si Si3 0.363854 0.401204 0.321570
Si Si4 0.000000 0.596767 0.817793
Si Si5 0.500000 0.602913 0.172037
Si Si6 0.106593 0.732148 0.820283
Si Si7 0.104183 0.092932 0.321657
O O1 0.717260 0.179808 0.210537
O O2 0.695178 0.344173 0.262552
O O3 0.816674 0.280563 0.218239
O O4 0.734059 0.291414 0.000000
O O5 0.819423 0.091137 0.272470
O O6 0.719588 0.000000 0.200964
O O7 0.770758 0.096223 0.000000
O O8 0.367879 0.397560 0.500000
O O9 0.354130 0.500000 0.277949
O O10 0.432944 0.371154 0.252470
O O11 0.936884 0.652124 0.773102
O O12 0.000000 0.500000 0.764118
O O13 0.000000 0.593800 0.000000
O O14 0.500000 0.500000 0.175829
O O15 0.500000 0.630158 0.000000
O O16 0.080123 0.820185 0.752189
O O17 0.103076 0.739687 0.000000
O O18 0.097609 0.098678 0.500000
O O19 0.077542 0.000000 0.274806
#
# Coordination Sequence:
#
# PCOD9384482 Si02
#       7
#     8   8   8   4   4   8   8
#     4   9  17  28  45  71  97 121 153 192 233 276
#     4   8  14  26  44  66  93 123 154 190 231 274
#     4  10  20  32  46  67  97 130 159 188 226 273
#     4   9  18  34  54  71  86 112 157 207 248 285
#     4   9  17  31  51  71  92 121 156 193 231 274
#     4   9  18  32  50  70  91 118 154 197 241 282
#     4   9  16  26  43  67  93 120 147 179 226 282
#
# _framework density 16.677779000000001
#
# number of rings (size 3 to 8) (size 9 to 14) (size 15 to 20)
#    0.000    3.000    0.000    2.250    0.000    6.333 
#    0.000    2.500    0.000    3.500    0.000    0.583 
#    0.000    4.667    0.000    0.000    0.000    0.000 
#
# Total GULP energy -267208.756508 kJ/mol
# GULP energy per Si atom -5566.849094 kJ/mol
# Density = 1.663982 g / cm^3
# Si number density = 16.677779 Si / 1000 Ang^3
#
#
#
# Elastic Constant Matrix: (Units=GPa)
#
#
# Indices 1 2 3 4 5 6 
#
# 1 82.3952 66.0177 33.4147 0.0000 0.0000 0.0000
# 2 66.0177 154.6325 41.2645 0.0000 0.0000 0.0000
# 3 33.4147 41.2645 29.8278 0.0000 0.0000 0.0000
# 4 0.0000 0.0000 0.0000 24.9542 0.0000 0.0000
# 5 0.0000 0.0000 0.0000 0.0000 -9.2341 0.0000
# 6 0.0000 0.0000 0.0000 0.0000 0.0000 -14.6250
#
#
#
# Elastic Compliance Matrix: (Units=1/GPa)
#
#
# Indices 1 2 3 4 5 6 
#
# 1 0.024422 -0.004955 -0.020504 0.000000 0.000000 0.000000
# 2 -0.004955 0.011257 -0.010022 0.000000 0.000000 0.000000
# 3 -0.020504 -0.010022 0.070360 0.000000 0.000000 0.000000
# 4 0.000000 0.000000 0.000000 0.040073 0.000000 0.000000
# 5 0.000000 0.000000 0.000000 0.000000 -0.108295 0.000000
# 6 0.000000 0.000000 0.000000 0.000000 0.000000 -0.068376
#
#
# Mechanical properties :
#
#
# Convention : Reuss Voigt Hill
#
# Bulk Modulus (GPa) = 28.50879 60.91658 44.71269
# Shear Modulus (GPa) = 95.97678 8.62960 52.30319
#
# Velocity S-wave (km/s) = 7.59425 2.27718 5.60616
# Velocity P-wave (km/s) = 9.69679 6.59689 8.29297
#
# Compressibility (1/GPa) = 0.03507690
#
# Stress axis : x y z
#
# Youngs Moduli (GPa) = 40.94699 88.83492 14.21258
#
# Poissons Ratio (x) = 0.44017 0.29141
# Poissons Ratio (y) = 0.20289 0.14244
# Poissons Ratio (z) = 0.83957 0.89032
#
# Static dielectric constant tensor:
#      x y z
#    x 1.547000 0.000000 0.000000 
#    y 0.000000 1.597630 0.000000 
#    z 0.000000 0.000000 1.557930 
# 
# From -- ./inp_files/9184.got.cif
#   From: 2010.05.17/outbox.cif.g08.bks.cpg/sg47_5_cif.got.tgz:9184.got - 2010.06.03 20:15:42.
