data_PCOD9384461
_publ_section_title
;
Structure prediction by ZEFSAII (Michael W. Deem and Ramdas Pophale) SiO2 
 PCOD9384461
Probable space group: P M M M
;
_chemical_formula_sum "Si O2"
_cell_formula_units_Z 56
_cell_length_a 15.495980
_cell_length_b 23.479942
_cell_length_c 7.697989
_cell_angle_alpha 90.000000
_cell_angle_beta 90.000000
_cell_angle_gamma 90.000000
_cell_volume 2800.872588
_symmetry_space_group_name_H-M "P M M M"
_symmetry_group_IT_number 47
_symmetry_cell_setting 'orthorhombic'
loop_
_space_group_symop_operation_xyz
x,y,z
-x,-y,z
x,-y,-z
-x,y,-z
-x,-y,-z
x,y,-z
-x,y,z
x,-y,z
loop_
_atom_site_type_symbol
_atom_site_label
_atom_site_fract_x
_atom_site_fract_y
_atom_site_fract_z
Si Si1 0.596861 0.769528 0.204328
Si Si2 0.776476 0.062651 0.713136
Si Si3 0.595327 0.102115 0.701591
Si Si4 0.902713 0.292922 0.287751
Si Si5 0.722682 0.666751 0.294346
Si Si6 0.596885 0.435320 0.209090
Si Si7 0.097872 0.838002 0.288546
O O1 0.500000 0.750135 0.256922
O O2 0.613751 0.830016 0.293601
O O3 0.666364 0.720803 0.235125
O O4 0.595062 0.781604 0.000000
O O5 0.775282 0.065042 0.500000
O O6 0.678545 0.071234 0.776175
O O7 0.835164 0.114923 0.773275
O O8 0.808819 0.000000 0.761360
O O9 0.590123 0.084772 0.500000
O O10 0.500000 0.093059 0.779456
O O11 0.905193 0.294408 0.500000
O O12 0.820936 0.329578 0.226664
O O13 0.884670 0.227186 0.236726
O O14 0.000000 0.308128 0.229590
O O15 0.728763 0.671764 0.500000
O O16 0.669505 0.609898 0.255293
O O17 0.500000 0.418714 0.269526
O O18 0.613953 0.500000 0.269634
O O19 0.593479 0.436759 0.000000
O O20 0.100293 0.838212 0.500000
O O21 0.000000 0.852053 0.236722
#
# Coordination Sequence:
#
# PCOD9384461 Si02
#       7
#     8   8   8   8   8   8   8
#     4  10  20  32  46  66  94 126 156 188 234 291
#     4   9  16  24  36  58  86 112 141 182 232 282
#     4   9  17  29  44  61  83 113 150 190 229 273
#     4   8  15  28  45  67  96 127 156 189 235 288
#     4  11  20  29  49  78 102 125 157 199 241 277
#     4   9  19  36  54  71  98 138 174 198 227 272
#     4   8  13  22  36  54  81 117 149 177 218 275
#
# _framework density 19.993769
#
# number of rings (size 3 to 8) (size 9 to 14) (size 15 to 20)
#    0.000    2.857    0.000    3.429    0.000    6.000 
#    0.000    3.571    0.000    2.571    0.000    5.000 
#    0.000    0.000    0.000    5.143    0.000    4.571 
#
# Total GULP energy -312336.529910 kJ/mol
# GULP energy per Si atom -5577.438034 kJ/mol
# Density = 1.994826 g / cm^3
# Si number density = 19.993769 Si / 1000 Ang^3
#
#
#
# Elastic Constant Matrix: (Units=GPa)
#
#
# Indices 1 2 3 4 5 6 
#
# 1 143.5304 66.9794 3.5518 0.0000 0.0000 0.0000
# 2 66.9794 51.5982 -2.3493 0.0000 0.0000 0.0000
# 3 3.5518 -2.3493 35.7265 0.0000 0.0000 0.0000
# 4 0.0000 0.0000 0.0000 25.0978 0.0000 0.0000
# 5 0.0000 0.0000 0.0000 0.0000 570.2228 0.0000
# 6 0.0000 0.0000 0.0000 0.0000 0.0000 18.4798
#
#
#
# Elastic Compliance Matrix: (Units=1/GPa)
#
#
# Indices 1 2 3 4 5 6 
#
# 1 0.018063 -0.023600 -0.003348 0.000000 0.000000 0.000000
# 2 -0.023600 0.050273 0.005652 0.000000 0.000000 0.000000
# 3 -0.003348 0.005652 0.028695 0.000000 0.000000 0.000000
# 4 0.000000 0.000000 0.000000 0.039844 0.000000 0.000000
# 5 0.000000 0.000000 0.000000 0.000000 0.001754 0.000000
# 6 0.000000 0.000000 0.000000 0.000000 0.000000 0.054113
#
#
# Mechanical properties :
#
#
# Convention : Reuss Voigt Hill
#
# Bulk Modulus (GPa) = 18.36891 40.80210 29.58551
# Shear Modulus (GPa) = 19.72542 133.60497 76.66519
#
# Velocity S-wave (km/s) = 3.14439 8.18342 6.19901
# Velocity P-wave (km/s) = 4.73183 10.47582 8.12813
#
# Compressibility (1/GPa) = 0.05443980
#
# Stress axis : x y z
#
# Youngs Moduli (GPa) = 55.36140 19.89138 34.84937
#
# Poissons Ratio (x) = 0.46944 0.11667
# Poissons Ratio (y) = 1.30653 -0.19697
# Poissons Ratio (z) = 0.18533 -0.11243
#
# Static dielectric constant tensor:
#      x y z
#    x 1.737000 0.000000 0.000000 
#    y 0.000000 1.703510 0.000000 
#    z 0.000000 0.000000 1.751000 
# 
# From -- ./inp_files/7320.got.cif
#   From: 2010.05.17/outbox.cif.g08.bks.cpg/sg47_4_cif.got.tgz:7320.got - 2010.06.03 20:15:42.
