data_PCOD9384149
_publ_section_title
;
Structure prediction by ZEFSAII (Michael W. Deem and Ramdas Pophale) SiO2 
 PCOD9384149
Probable space group: P M M M
;
_chemical_formula_sum "Si O2"
_cell_formula_units_Z 64
_cell_length_a 15.039219
_cell_length_b 14.059217
_cell_length_c 19.056591
_cell_angle_alpha 90.000000
_cell_angle_beta 90.000000
_cell_angle_gamma 90.000000
_cell_volume 4029.318806
_symmetry_space_group_name_H-M "P M M M"
_symmetry_group_IT_number 47
_symmetry_cell_setting 'orthorhombic'
loop_
_space_group_symop_operation_xyz
x,y,z
-x,-y,z
x,-y,-z
-x,y,-z
-x,-y,-z
x,y,-z
-x,y,z
x,-y,z
loop_
_atom_site_type_symbol
_atom_site_label
_atom_site_fract_x
_atom_site_fract_y
_atom_site_fract_z
Si Si1 0.100356 0.384274 0.141841
Si Si2 0.605965 0.389336 0.213533
Si Si3 0.095638 0.884723 0.417334
Si Si4 0.101394 0.615307 0.302140
Si Si5 0.717168 0.384340 0.922718
Si Si6 0.765278 0.614268 0.577098
Si Si7 0.294559 0.887303 0.415374
Si Si8 0.395380 0.715411 0.641042
O O1 0.099197 0.500000 0.141220
O O2 0.120546 0.354760 0.222219
O O3 0.181245 0.354641 0.092652
O O4 0.000000 0.353564 0.123399
O O5 0.500000 0.389081 0.201246
O O6 0.632214 0.500000 0.229305
O O7 0.656792 0.357463 0.143535
O O8 0.624049 0.323756 0.280703
O O9 0.094486 0.860990 0.500000
O O10 0.194220 0.858202 0.392137
O O11 0.000000 0.852011 0.386952
O O12 0.095140 0.000000 0.413242
O O13 0.104771 0.500000 0.301342
O O14 0.169725 0.647210 0.361028
O O15 0.000000 0.641359 0.319088
O O16 0.715397 0.500000 0.923492
O O17 0.688041 0.351964 0.000000
O O18 0.797438 0.643925 0.500000
O O19 0.763241 0.500000 0.578972
O O20 0.667276 0.653536 0.590577
O O21 0.301782 0.871938 0.500000
O O22 0.364318 0.822638 0.374255
O O23 0.306003 0.000000 0.403842
O O24 0.500000 0.703376 0.628266
#
# Coordination Sequence:
#
# PCOD9384149 Si02
#       8
#     8   8   8   8   8   8   8   8
#     4   8  13  21  34  53  77 106 140 173 203 243
#     4   9  18  32  48  64  83 111 147 184 221 262
#     4   7  10  20  41  66  88 108 129 158 204 262
#     4   8  14  26  43  59  78 110 148 183 221 261
#     4   9  16  25  40  63  88 112 137 169 211 255
#     4  10  20  31  43  60  81 107 144 191 233 264
#     4   9  18  32  49  69  91 113 140 179 228 275
#     4  11  22  34  47  61  81 113 151 186 222 267
#
# _framework density 15.883578
#
# number of rings (size 3 to 8) (size 9 to 14) (size 15 to 20)
#    0.000    3.125    0.000    3.375    0.000    4.750 
#    0.000    5.625    0.000    2.250    0.000    0.000 
#    0.000    0.500    0.000    2.750    0.000    0.125 
#
# Total GULP energy -356344.086255 kJ/mol
# GULP energy per Si atom -5567.876348 kJ/mol
# Density = 1.584743 g / cm^3
# Si number density = 15.883578 Si / 1000 Ang^3
#
#
#
# Elastic Constant Matrix: (Units=GPa)
#
#
# Indices 1 2 3 4 5 6 
#
# 1 54.0782 10.2900 32.3331 0.0000 0.0000 0.0000
# 2 10.2900 45.9455 24.2455 0.0000 0.0000 0.0000
# 3 32.3331 24.2455 58.5815 0.0000 0.0000 0.0000
# 4 0.0000 0.0000 0.0000 5.2504 0.0000 0.0000
# 5 0.0000 0.0000 0.0000 0.0000 6.6832 0.0000
# 6 0.0000 0.0000 0.0000 0.0000 0.0000 -3.2329
#
#
#
# Elastic Compliance Matrix: (Units=1/GPa)
#
#
# Indices 1 2 3 4 5 6 
#
# 1 0.027804 0.002394 -0.016337 0.000000 0.000000 0.000000
# 2 0.002394 0.028053 -0.012932 0.000000 0.000000 0.000000
# 3 -0.016337 -0.012932 0.031439 0.000000 0.000000 0.000000
# 4 0.000000 0.000000 0.000000 0.190461 0.000000 0.000000
# 5 0.000000 0.000000 0.000000 0.000000 0.149628 0.000000
# 6 0.000000 0.000000 0.000000 0.000000 0.000000 -0.309323
#
#
# Mechanical properties :
#
#
# Convention : Reuss Voigt Hill
#
# Bulk Modulus (GPa) = 29.80901 32.48248 31.14574
# Shear Modulus (GPa) = 27.32352 7.85593 17.58972
#
# Velocity S-wave (km/s) = 4.15207 2.22636 3.33140
# Velocity P-wave (km/s) = 6.46484 5.20612 5.86932
#
# Compressibility (1/GPa) = 0.03354691
#
# Stress axis : x y z
#
# Youngs Moduli (GPa) = 35.96627 35.64700 31.80755
#
# Poissons Ratio (x) = -0.08533 0.51963
# Poissons Ratio (y) = -0.08610 0.41132
# Poissons Ratio (z) = 0.58757 0.46097
#
# Static dielectric constant tensor:
#      x y z
#    x 1.572180 0.000000 0.000000 
#    y 0.000000 1.539980 0.000000 
#    z 0.000000 0.000000 1.532350 
# 
# From -- ./inp_files/28368.got.cif
#   From: 2010.05.17/outbox.cif.g08.bks.cpg/sg47_15_cif.got.tgz:28368.got - 2010.06.03 20:15:42.
