data_PCOD9384942
_publ_section_title
;
Structure prediction by ZEFSAII (Michael W. Deem and Ramdas Pophale) SiO2 
 PCOD9384942
Probable space group: P M M M
;
_chemical_formula_sum "Si O2"
_cell_formula_units_Z 44
_cell_length_a 7.700995
_cell_length_b 18.175528
_cell_length_c 15.939156
_cell_angle_alpha 90.000000
_cell_angle_beta 90.000000
_cell_angle_gamma 90.000000
_cell_volume 2230.998091
_symmetry_space_group_name_H-M "P M M M"
_symmetry_group_IT_number 47
_symmetry_cell_setting 'orthorhombic'
loop_
_space_group_symop_operation_xyz
x,y,z
-x,-y,z
x,-y,-z
-x,y,-z
-x,-y,-z
x,y,-z
-x,y,z
x,-y,z
loop_
_atom_site_type_symbol
_atom_site_label
_atom_site_fract_x
_atom_site_fract_y
_atom_site_fract_z
Si Si1 0.709101 0.419339 0.845910
Si Si2 0.787958 0.914102 0.593670
Si Si3 0.800771 0.191780 0.262395
Si Si4 0.703485 0.653335 0.323938
Si Si5 0.791811 0.583658 0.500000
Si Si6 0.792355 0.257941 0.908226
O O1 0.500000 0.421298 0.851932
O O2 0.773724 0.500000 0.873241
O O3 0.756796 0.404230 0.748495
O O4 0.765358 0.345228 0.892862
O O5 0.731849 0.889378 0.500000
O O6 0.722570 0.865995 0.671775
O O7 0.000000 0.909501 0.593677
O O8 0.742837 0.000000 0.602698
O O9 0.800601 0.270522 0.308582
O O10 0.722119 0.211614 0.171159
O O11 0.000000 0.168003 0.247808
O O12 0.500000 0.668522 0.310465
O O13 0.731024 0.622910 0.415906
O O14 0.728057 0.500000 0.500000
O O15 0.000000 0.583469 0.500000
O O16 0.000000 0.247046 0.908412
O O17 0.723149 0.238065 0.000000
#
# Coordination Sequence:
#
# PCOD9384942 Si02
#       6
#     8   8   8   8   4   8
#     4   9  18  32  48  65  87 116 152 196 243 287
#     4   8  14  25  44  72 100 123 151 190 234 279
#     4   9  17  30  49  70  93 124 158 194 233 279
#     4  10  20  33  48  67  92 123 157 195 240 286
#     4  11  23  35  47  65  90 123 164 203 235 274
#     4   9  18  31  45  64  91 122 156 193 237 285
#
# _framework density 19.722113
#
# number of rings (size 3 to 8) (size 9 to 14) (size 15 to 20)
#    0.000    2.818    0.000    1.909    1.273    3.273 
#    0.000    1.818    0.000    1.091    0.000    5.091 
#    0.000    0.000    0.000    9.091    0.000    9.455 
#
# Total GULP energy -245268.316843 kJ/mol
# GULP energy per Si atom -5574.279928 kJ/mol
# Density = 1.967722 g / cm^3
# Si number density = 19.722113 Si / 1000 Ang^3
#
#
#
# Elastic Constant Matrix: (Units=GPa)
#
#
# Indices 1 2 3 4 5 6 
#
# 1 36.7950 2.1624 3.2932 0.0000 0.0000 0.0000
# 2 2.1624 77.2927 70.4633 0.0000 0.0000 0.0000
# 3 3.2932 70.4633 182.6225 0.0000 0.0000 0.0000
# 4 0.0000 0.0000 0.0000 16.2567 0.0000 0.0000
# 5 0.0000 0.0000 0.0000 0.0000 6.6046 0.0000
# 6 0.0000 0.0000 0.0000 0.0000 0.0000 -59.8838
#
#
#
# Elastic Compliance Matrix: (Units=1/GPa)
#
#
# Indices 1 2 3 4 5 6 
#
# 1 0.027233 -0.000485 -0.000304 0.000000 0.000000 0.000000
# 2 -0.000485 0.019967 -0.007695 0.000000 0.000000 0.000000
# 3 -0.000304 -0.007695 0.008450 0.000000 0.000000 0.000000
# 4 0.000000 0.000000 0.000000 0.061513 0.000000 0.000000
# 5 0.000000 0.000000 0.000000 0.000000 0.151410 0.000000
# 6 0.000000 0.000000 0.000000 0.000000 0.000000 -0.016699
#
#
# Mechanical properties :
#
#
# Convention : Reuss Voigt Hill
#
# Bulk Modulus (GPa) = 25.85155 49.83864 37.84510
# Shear Modulus (GPa) = 17.74708 7.31491 12.53100
#
# Velocity S-wave (km/s) = 3.00302 1.92796 2.52341
# Velocity P-wave (km/s) = 5.01602 5.50285 5.26507
#
# Compressibility (1/GPa) = 0.03868239
#
# Stress axis : x y z
#
# Youngs Moduli (GPa) = 36.71977 50.08339 118.33763
#
# Poissons Ratio (x) = 0.02427 0.03598
# Poissons Ratio (y) = 0.01780 0.91064
# Poissons Ratio (z) = 0.01117 0.38540
#
# Static dielectric constant tensor:
#      x y z
#    x 1.729350 0.000000 0.000000 
#    y 0.000000 1.665190 0.000000 
#    z 0.000000 0.000000 1.727140 
# 
# From -- ./inp_files/8962.got.cif
#   From: 2010.05.17/outbox.cif.g08.bks.cpg/sg47_5_cif.got.tgz:8962.got - 2010.06.03 20:15:42.
