data_PCOD9384819
_publ_section_title
;
Structure prediction by ZEFSAII (Michael W. Deem and Ramdas Pophale) SiO2 
 PCOD9384819
Probable space group: P M M M
;
_chemical_formula_sum "Si O2"
_cell_formula_units_Z 36
_cell_length_a 23.847248
_cell_length_b 7.647184
_cell_length_c 9.375670
_cell_angle_alpha 90.000000
_cell_angle_beta 90.000000
_cell_angle_gamma 90.000000
_cell_volume 1709.787434
_symmetry_space_group_name_H-M "P M M M"
_symmetry_group_IT_number 47
_symmetry_cell_setting 'orthorhombic'
loop_
_space_group_symop_operation_xyz
x,y,z
-x,-y,z
x,-y,-z
-x,y,-z
-x,-y,-z
x,y,-z
-x,y,z
x,-y,z
loop_
_atom_site_type_symbol
_atom_site_label
_atom_site_fract_x
_atom_site_fract_y
_atom_site_fract_z
Si Si1 0.718239 0.290066 0.837964
Si Si2 0.937082 0.786607 0.835179
Si Si3 0.829617 0.210709 0.338381
Si Si4 0.500000 0.791569 0.837850
Si Si5 0.388484 0.290860 0.661786
O O1 0.712266 0.500000 0.846147
O O2 0.776039 0.253667 0.757343
O O3 0.665547 0.221720 0.746938
O O4 0.718616 0.222294 0.000000
O O5 0.886835 0.725211 0.735323
O O6 0.000000 0.731700 0.793045
O O7 0.936776 0.000000 0.832961
O O8 0.927645 0.735055 0.000000
O O9 0.823007 0.275839 0.500000
O O10 0.833338 0.000000 0.344311
O O11 0.555302 0.739521 0.751197
O O12 0.500000 0.000000 0.846793
O O13 0.500000 0.720894 0.000000
O O14 0.392430 0.221976 0.500000
O O15 0.381591 0.500000 0.651066
#
# Coordination Sequence:
#
# PCOD9384819 Si02
#       5
#     8   8   8   4   8
#     4  10  21  37  57  79 103 136 177 217 259 308
#     4   8  14  26  45  69  98 133 172 213 257 306
#     4  10  20  32  49  76 107 138 172 212 261 313
#     4  11  24  39  56  82 114 145 176 211 254 302
#     4  10  21  38  60  83 106 136 175 216 259 308
#
# _framework density 21.055249
#
# number of rings (size 3 to 8) (size 9 to 14) (size 15 to 20)
#    0.000    2.333    0.000    3.333    0.000    7.556 
#    0.000    2.222    0.000    0.667    0.000    4.667 
#    0.000    0.000    0.000    0.000    0.000    0.000 
#
# Total GULP energy -201116.803084 kJ/mol
# GULP energy per Si atom -5586.577863 kJ/mol
# Density = 2.100733 g / cm^3
# Si number density = 21.055249 Si / 1000 Ang^3
#
#
#
# Elastic Constant Matrix: (Units=GPa)
#
#
# Indices 1 2 3 4 5 6 
#
# 1 212.3400 -1.6353 146.3596 0.0000 0.0000 0.0000
# 2 -1.6353 40.5822 9.3017 0.0000 0.0000 0.0000
# 3 146.3596 9.3017 231.4421 0.0000 0.0000 0.0000
# 4 0.0000 0.0000 0.0000 15.8395 0.0000 0.0000
# 5 0.0000 0.0000 0.0000 0.0000 65.9412 0.0000
# 6 0.0000 0.0000 0.0000 0.0000 0.0000 24.9715
#
#
#
# Elastic Compliance Matrix: (Units=1/GPa)
#
#
# Indices 1 2 3 4 5 6 
#
# 1 0.008447 0.001579 -0.005405 0.000000 0.000000 0.000000
# 2 0.001579 0.025166 -0.002010 0.000000 0.000000 0.000000
# 3 -0.005405 -0.002010 0.007820 0.000000 0.000000 0.000000
# 4 0.000000 0.000000 0.000000 0.063133 0.000000 0.000000
# 5 0.000000 0.000000 0.000000 0.000000 0.015165 0.000000
# 6 0.000000 0.000000 0.000000 0.000000 0.000000 0.040046
#
#
# Mechanical properties :
#
#
# Convention : Reuss Voigt Hill
#
# Bulk Modulus (GPa) = 33.60166 88.04627 60.82396
# Shear Modulus (GPa) = 27.56800 43.37300 35.47050
#
# Velocity S-wave (km/s) = 3.62237 4.54360 4.10889
# Velocity P-wave (km/s) = 5.78696 8.33267 7.17364
#
# Compressibility (1/GPa) = 0.02976044
#
# Stress axis : x y z
#
# Youngs Moduli (GPa) = 118.37946 39.73658 127.87995
#
# Poissons Ratio (x) = -0.06276 0.69125
# Poissons Ratio (y) = -0.18696 0.25706
# Poissons Ratio (z) = 0.63990 0.07988
#
# Static dielectric constant tensor:
#      x y z
#    x 1.710570 0.000000 0.000000 
#    y 0.000000 1.805460 0.000000 
#    z 0.000000 0.000000 1.744960 
# 
# From -- ./inp_files/1364.got.cif
#   From: 2010.05.17/outbox.cif.g08.bks.cpg/sg47_1_cif.got.tgz:1364.got - 2010.06.03 20:15:42.
