data_PCOD9384525
_publ_section_title
;
Structure prediction by ZEFSAII (Michael W. Deem and Ramdas Pophale) SiO2 
 PCOD9384525
Probable space group: P M M M
;
_chemical_formula_sum "Si O2"
_cell_formula_units_Z 44
_cell_length_a 9.679755
_cell_length_b 7.586765
_cell_length_c 29.630604
_cell_angle_alpha 90.000000
_cell_angle_beta 90.000000
_cell_angle_gamma 90.000000
_cell_volume 2176.013080
_symmetry_space_group_name_H-M "P M M M"
_symmetry_group_IT_number 47
_symmetry_cell_setting 'orthorhombic'
loop_
_space_group_symop_operation_xyz
x,y,z
-x,-y,z
x,-y,-z
-x,y,-z
-x,-y,-z
x,y,-z
-x,y,z
x,-y,z
loop_
_atom_site_type_symbol
_atom_site_label
_atom_site_fract_x
_atom_site_fract_y
_atom_site_fract_z
Si Si1 0.155348 0.791198 0.769994
Si Si2 0.343124 0.211123 0.583226
Si Si3 0.841605 0.783740 0.500000
Si Si4 0.660566 0.783841 0.147207
Si Si5 0.656611 0.709310 0.314480
Si Si6 0.666175 0.211403 0.951519
O O1 0.245698 0.720635 0.811674
O O2 0.238937 0.770885 0.723661
O O3 0.000000 0.718664 0.767436
O O4 0.143979 0.000000 0.778091
O O5 0.500000 0.279757 0.577618
O O6 0.240685 0.275210 0.544537
O O7 0.298972 0.248201 0.634465
O O8 0.349828 0.000000 0.578405
O O9 0.000000 0.726706 0.500000
O O10 0.842093 0.000000 0.500000
O O11 0.500000 0.731669 0.153137
O O12 0.712883 0.724912 0.097650
O O13 0.660412 0.000000 0.146867
O O14 0.500000 0.781217 0.308153
O O15 0.648790 0.500000 0.310642
O O16 0.500000 0.237028 0.951226
O O17 0.688881 0.000000 0.952074
O O18 0.718116 0.280898 0.000000
#
# Coordination Sequence:
#
# PCOD9384525 Si02
#       6
#     8   8   4   8   8   8
#     4  10  20  32  47  68  94 125 160 197 237 282
#     4   9  17  31  52  75  98 125 156 190 230 275
#     4   9  17  29  48  75 102 126 156 193 226 261
#     4   8  13  22  38  59  83 114 152 192 231 272
#     4  10  21  36  53  73  96 123 158 200 244 287
#     4   7   9  14  27  50  79 109 142 181 225 271
#
# _framework density 20.220465999999998
#
# number of rings (size 3 to 8) (size 9 to 14) (size 15 to 20)
#    0.000    3.182    0.000    3.000    0.000    4.000 
#    0.000    2.273    0.000    3.273    0.000    3.818 
#    0.000    0.727    0.000    8.364    0.000    9.636 
#
# Total GULP energy -245244.107634 kJ/mol
# GULP energy per Si atom -5573.729719 kJ/mol
# Density = 2.017444 g / cm^3
# Si number density = 20.220466 Si / 1000 Ang^3
#
#
#
# Elastic Constant Matrix: (Units=GPa)
#
#
# Indices 1 2 3 4 5 6 
#
# 1 112.1234 5.4468 128.8076 0.0000 0.0000 0.0000
# 2 5.4468 42.0629 -1.5518 0.0000 0.0000 0.0000
# 3 128.8076 -1.5518 226.9083 0.0000 0.0000 0.0000
# 4 0.0000 0.0000 0.0000 -49.7486 0.0000 0.0000
# 5 0.0000 0.0000 0.0000 0.0000 1.4013 0.0000
# 6 0.0000 0.0000 0.0000 0.0000 0.0000 0.2470
#
#
#
# Elastic Compliance Matrix: (Units=1/GPa)
#
#
# Indices 1 2 3 4 5 6 
#
# 1 0.026280 -0.003954 -0.014945 0.000000 0.000000 0.000000
# 2 -0.003954 0.024375 0.002411 0.000000 0.000000 0.000000
# 3 -0.014945 0.002411 0.012907 0.000000 0.000000 0.000000
# 4 0.000000 0.000000 0.000000 -0.020101 0.000000 0.000000
# 5 0.000000 0.000000 0.000000 0.000000 0.713647 0.000000
# 6 0.000000 0.000000 0.000000 0.000000 0.000000 4.047874
#
#
# Mechanical properties :
#
#
# Convention : Reuss Voigt Hill
#
# Bulk Modulus (GPa) = 32.69470 71.83331 52.26400
# Shear Modulus (GPa) = 1.03132 6.93941 3.98536
#
# Velocity S-wave (km/s) = 0.71494 1.85454 1.40543
# Velocity P-wave (km/s) = 4.10923 6.33940 5.34199
#
# Compressibility (1/GPa) = 0.03058600
#
# Stress axis : x y z
#
# Youngs Moduli (GPa) = 38.05188 41.02577 77.47495
#
# Poissons Ratio (x) = 0.16223 1.15788
# Poissons Ratio (y) = 0.15047 -0.18683
# Poissons Ratio (z) = 0.56869 -0.09893
#
# Static dielectric constant tensor:
#      x y z
#    x 1.687580 0.000000 0.000000 
#    y 0.000000 1.751130 0.000000 
#    z 0.000000 0.000000 1.732660 
# 
# From -- ./inp_files/2125.got.cif
#   From: 2010.05.17/outbox.cif.g08.bks.cpg/sg47_2_cif.got.tgz:2125.got - 2010.06.03 20:15:42.
