data_PCOD9384100
_publ_section_title
;
Structure prediction by ZEFSAII (Michael W. Deem and Ramdas Pophale) SiO2 
 PCOD9384100
Probable space group: P M M M
;
_chemical_formula_sum "Si O2"
_cell_formula_units_Z 36
_cell_length_a 26.040002
_cell_length_b 9.661357
_cell_length_c 7.627638
_cell_angle_alpha 90.000000
_cell_angle_beta 90.000000
_cell_angle_gamma 90.000000
_cell_volume 1918.974559
_symmetry_space_group_name_H-M "P M M M"
_symmetry_group_IT_number 47
_symmetry_cell_setting 'orthorhombic'
loop_
_space_group_symop_operation_xyz
x,y,z
-x,-y,z
x,-y,-z
-x,y,-z
-x,-y,-z
x,y,-z
-x,y,z
x,-y,z
loop_
_atom_site_type_symbol
_atom_site_label
_atom_site_fract_x
_atom_site_fract_y
_atom_site_fract_z
Si Si1 0.058892 0.169026 0.500000
Si Si2 0.442039 0.159107 0.714044
Si Si3 0.652040 0.656150 0.709924
Si Si4 0.863492 0.168562 0.799147
Si Si5 0.749757 0.157324 0.789072
O O1 0.091355 0.212729 0.329836
O O2 0.000000 0.215374 0.500000
O O3 0.058307 0.000000 0.500000
O O4 0.441541 0.160335 0.500000
O O5 0.500000 0.197471 0.767760
O O6 0.397354 0.259727 0.777412
O O7 0.432331 0.000000 0.767014
O O8 0.645973 0.647889 0.500000
O O9 0.655055 0.500000 0.778932
O O10 0.703584 0.742313 0.742671
O O11 0.806442 0.206318 0.732137
O O12 0.863098 0.000000 0.801877
O O13 0.870538 0.215022 0.000000
O O14 0.740429 0.000000 0.724433
O O15 0.752867 0.150173 0.000000
#
# Coordination Sequence:
#
# PCOD9384100 Si02
#       5
#     4   8   8   8   8
#     4   9  16  24  38  64  95 129 164 195 240 295
#     4   8  14  26  44  65  90 122 160 198 236 283
#     4  10  20  30  43  69  99 124 154 194 244 298
#     4   8  15  27  41  61  90 123 162 204 243 290
#     4   9  18  32  49  67  88 121 164 203 241 287
#
# _framework density 18.760020000000001
#
# number of rings (size 3 to 8) (size 9 to 14) (size 15 to 20)
#    0.000    3.222    0.000    2.667    1.556    2.667 
#    0.000    4.444    0.000    0.667    0.000    4.667 
#    0.000    1.778    0.000    4.889    0.000    4.889 
#
# Total GULP energy -200666.056694 kJ/mol
# GULP energy per Si atom -5574.057130 kJ/mol
# Density = 1.871732 g / cm^3
# Si number density = 18.760020 Si / 1000 Ang^3
#
#
#
# Elastic Constant Matrix: (Units=GPa)
#
#
# Indices 1 2 3 4 5 6 
#
# 1 212.2453 92.0476 46.4779 0.0000 0.0000 0.0000
# 2 92.0476 74.6067 20.9726 0.0000 0.0000 0.0000
# 3 46.4779 20.9726 56.2687 0.0000 0.0000 0.0000
# 4 0.0000 0.0000 0.0000 6.3397 0.0000 0.0000
# 5 0.0000 0.0000 0.0000 0.0000 98.3852 0.0000
# 6 0.0000 0.0000 0.0000 0.0000 0.0000 -4.3020
#
#
#
# Elastic Compliance Matrix: (Units=1/GPa)
#
#
# Indices 1 2 3 4 5 6 
#
# 1 0.011080 -0.012396 -0.004532 0.000000 0.000000 0.000000
# 2 -0.012396 0.028841 -0.000510 0.000000 0.000000 0.000000
# 3 -0.004532 -0.000510 0.021705 0.000000 0.000000 0.000000
# 4 0.000000 0.000000 0.000000 0.157737 0.000000 0.000000
# 5 0.000000 0.000000 0.000000 0.000000 0.010164 0.000000
# 6 0.000000 0.000000 0.000000 0.000000 0.000000 -0.232449
#
#
# Mechanical properties :
#
#
# Convention : Reuss Voigt Hill
#
# Bulk Modulus (GPa) = 37.38361 73.56855 55.47608
# Shear Modulus (GPa) = 122.33411 32.32608 77.33010
#
# Velocity S-wave (km/s) = 8.08403 4.15557 6.42730
# Velocity P-wave (km/s) = 10.34920 7.89467 9.20412
#
# Compressibility (1/GPa) = 0.02674969
#
# Stress axis : x y z
#
# Youngs Moduli (GPa) = 90.25319 34.67263 46.07168
#
# Poissons Ratio (x) = 0.42981 0.20878
# Poissons Ratio (y) = 1.11880 0.02352
# Poissons Ratio (z) = 0.40900 0.01770
#
# Static dielectric constant tensor:
#      x y z
#    x 1.646110 0.000000 0.000000 
#    y 0.000000 1.622920 0.000000 
#    z 0.000000 0.000000 1.707670 
# 
# From -- ./inp_files/12072.got.cif
#   From: 2010.05.17/outbox.cif.g08.bks.cpg/sg47_7_cif.got.tgz:12072.got - 2010.06.03 20:15:42.
