data_PCOD9384174
_publ_section_title
;
Structure prediction by ZEFSAII (Michael W. Deem and Ramdas Pophale) SiO2 
 PCOD9384174
Probable space group: P M M M
;
_chemical_formula_sum "Si O2"
_cell_formula_units_Z 64
_cell_length_a 21.119218
_cell_length_b 7.367738
_cell_length_c 18.560103
_cell_angle_alpha 90.000000
_cell_angle_beta 90.000000
_cell_angle_gamma 90.000000
_cell_volume 2887.968081
_symmetry_space_group_name_H-M "P M M M"
_symmetry_group_IT_number 47
_symmetry_cell_setting 'orthorhombic'
loop_
_space_group_symop_operation_xyz
x,y,z
-x,-y,z
x,-y,-z
-x,y,-z
-x,-y,-z
x,y,-z
-x,y,z
x,-y,z
loop_
_atom_site_type_symbol
_atom_site_label
_atom_site_fract_x
_atom_site_fract_y
_atom_site_fract_z
Si Si1 0.293488 0.778104 0.706615
Si Si2 0.843714 0.713534 0.077256
Si Si3 0.431578 0.216682 0.884652
Si Si4 0.567743 0.216783 0.710816
Si Si5 0.792645 0.212321 0.422331
Si Si6 0.071627 0.720395 0.205997
Si Si7 0.929484 0.719137 0.629090
Si Si8 0.294350 0.780854 0.873061
O O1 0.364321 0.719256 0.683443
O O2 0.241689 0.714230 0.649181
O O3 0.285042 0.720028 0.789722
O O4 0.292351 0.000000 0.709014
O O5 0.859073 0.500000 0.076240
O O6 0.878264 0.788309 0.147907
O O7 0.768521 0.730780 0.085119
O O8 0.863824 0.790211 0.000000
O O9 0.500000 0.287669 0.910754
O O10 0.431292 0.240511 0.797648
O O11 0.361698 0.284263 0.905193
O O12 0.432539 0.000000 0.899288
O O13 0.500000 0.289276 0.684411
O O14 0.566916 0.000000 0.698927
O O15 0.773672 0.290490 0.500000
O O16 0.868224 0.224759 0.414707
O O17 0.775848 0.000000 0.423713
O O18 0.074997 0.500000 0.208941
O O19 0.081043 0.780674 0.288187
O O20 0.000000 0.767737 0.184265
O O21 0.930549 0.500000 0.628390
O O22 0.000000 0.778925 0.606028
O O23 0.298449 0.000000 0.871714
#
# Coordination Sequence:
#
# PCOD9384174 Si02
#       8
#     8   8   8   8   8   8   8   8
#     4   8  14  25  41  62  87 114 146 181 215 253
#     4  10  20  31  44  65  92 118 141 169 208 254
#     4   7  10  18  35  61  86 103 130 178 224 252
#     4   7   9  15  31  56  83 108 135 172 217 256
#     4  10  20  31  43  62  91 124 150 174 209 254
#     4   8  15  30  51  71  88 108 139 177 213 251
#     4   9  18  33  52  70  86 107 139 181 222 254
#     4   9  16  27  46  67  85 111 146 182 218 254
#
# _framework density 22.160910000000001
#
# number of rings (size 3 to 8) (size 9 to 14) (size 15 to 20)
#    0.000    3.500    0.000    3.750    0.000    1.250 
#    0.000    2.500    0.000    2.250    0.000    6.125 
#    0.000    1.500    0.000    1.125    0.000    1.250 
#
# Total GULP energy -356739.703503 kJ/mol
# GULP energy per Si atom -5574.057867 kJ/mol
# Density = 2.211047 g / cm^3
# Si number density = 22.160910 Si / 1000 Ang^3
#
#
#
# Elastic Constant Matrix: (Units=GPa)
#
#
# Indices 1 2 3 4 5 6 
#
# 1 91.6939 -10.7115 34.2351 0.0000 0.0000 0.0000
# 2 -10.7115 75.3414 0.3737 0.0000 0.0000 0.0000
# 3 34.2351 0.3737 66.7875 0.0000 0.0000 0.0000
# 4 0.0000 0.0000 0.0000 -5.1968 0.0000 0.0000
# 5 0.0000 0.0000 0.0000 0.0000 -20.2053 0.0000
# 6 0.0000 0.0000 0.0000 0.0000 0.0000 14.2651
#
#
#
# Elastic Compliance Matrix: (Units=1/GPa)
#
#
# Indices 1 2 3 4 5 6 
#
# 1 0.013780 0.001994 -0.007075 0.000000 0.000000 0.000000
# 2 0.001994 0.013562 -0.001098 0.000000 0.000000 0.000000
# 3 -0.007075 -0.001098 0.018606 0.000000 0.000000 0.000000
# 4 0.000000 0.000000 0.000000 -0.192424 0.000000 0.000000
# 5 0.000000 0.000000 0.000000 0.000000 -0.049492 0.000000
# 6 0.000000 0.000000 0.000000 0.000000 0.000000 0.070101
#
#
# Mechanical properties :
#
#
# Convention : Reuss Voigt Hill
#
# Bulk Modulus (GPa) = 29.77055 31.29082 30.53068
# Shear Modulus (GPa) = -48.86971 11.76762 -18.55104
#
# Velocity S-wave (km/s) = -4.70107 2.30686 -2.89642
# Velocity P-wave (km/s) = 4.00048 4.60933 1.61897
#
# Compressibility (1/GPa) = 0.03359025
#
# Stress axis : x y z
#
# Youngs Moduli (GPa) = 72.56723 73.73599 53.74734
#
# Poissons Ratio (x) = -0.14705 0.38026
# Poissons Ratio (y) = -0.14472 0.05902
# Poissons Ratio (z) = 0.51341 0.08097
#
# Static dielectric constant tensor:
#      x y z
#    x 1.836360 0.000000 0.000000 
#    y 0.000000 1.800300 0.000000 
#    z 0.000000 0.000000 1.806150 
# 
# From -- ./inp_files/28663.got.cif
#   From: 2010.05.17/outbox.cif.g08.bks.cpg/sg47_15_cif.got.tgz:28663.got - 2010.06.03 20:15:42.
