data_PCOD9384995
_publ_section_title
;
Structure prediction by ZEFSAII (Michael W. Deem and Ramdas Pophale) SiO2 
 PCOD9384995
Probable space group: P M M M
;
_chemical_formula_sum "Si O2"
_cell_formula_units_Z 64
_cell_length_a 23.255392
_cell_length_b 8.833551
_cell_length_c 18.758578
_cell_angle_alpha 90.000000
_cell_angle_beta 90.000000
_cell_angle_gamma 90.000000
_cell_volume 3853.531370
_symmetry_space_group_name_H-M "P M M M"
_symmetry_group_IT_number 47
_symmetry_cell_setting 'orthorhombic'
loop_
_space_group_symop_operation_xyz
x,y,z
-x,-y,z
x,-y,-z
-x,y,-z
-x,-y,-z
x,y,-z
-x,y,z
x,-y,z
loop_
_atom_site_type_symbol
_atom_site_label
_atom_site_fract_x
_atom_site_fract_y
_atom_site_fract_z
Si Si1 0.827755 0.323534 0.334093
Si Si2 0.812183 0.678770 0.918238
Si Si3 0.934301 0.829786 0.715384
Si Si4 0.257740 0.172611 0.582195
Si Si5 0.254040 0.818830 0.787111
Si Si6 0.655650 0.322065 0.312236
Si Si7 0.431103 0.820855 0.580906
Si Si8 0.064616 0.177701 0.887143
O O1 0.814464 0.500000 0.338093
O O2 0.893823 0.293251 0.319024
O O3 0.805817 0.232931 0.402732
O O4 0.792753 0.247781 0.268618
O O5 0.811910 0.500000 0.901677
O O6 0.769566 0.761432 0.863105
O O7 0.878219 0.737329 0.912397
O O8 0.793783 0.701222 0.000000
O O9 0.933681 0.814524 0.801086
O O10 0.000000 0.818654 0.692261
O O11 0.912585 0.000000 0.699326
O O12 0.272222 0.174919 0.500000
O O13 0.297926 0.283906 0.626358
O O14 0.264620 0.000000 0.608579
O O15 0.315544 0.757142 0.757349
O O16 0.254005 0.000000 0.785572
O O17 0.650491 0.500000 0.299396
O O18 0.598929 0.257319 0.351376
O O19 0.414372 0.767459 0.500000
O O20 0.500000 0.805623 0.585217
O O21 0.416754 0.000000 0.583487
O O22 0.000000 0.230403 0.909242
O O23 0.068937 0.000000 0.906941
#
# Coordination Sequence:
#
# PCOD9384995 Si02
#       8
#     8   8   8   8   8   8   8   8
#     4  11  20  30  48  71  94 117 146 191 246 292
#     4  11  23  36  50  71 100 129 158 200 256 309
#     4   9  17  30  48  68  89 115 149 189 232 284
#     4  10  20  33  49  68  92 125 163 198 236 286
#     4  11  21  35  53  70  93 126 168 207 241 291
#     4  11  21  32  50  75 104 135 168 210 254 289
#     4   9  18  33  52  75 108 150 189 218 245 284
#     4   9  18  32  50  70  92 123 161 198 237 291
#
# _framework density 16.608142999999998
#
# number of rings (size 3 to 8) (size 9 to 14) (size 15 to 20)
#    0.000    1.875    1.250    7.125    0.000    4.750 
#    0.000    3.125    0.000    0.375    0.000    2.625 
#    0.000    0.500    0.000    5.250    0.000    2.250 
#
# Total GULP energy -356757.227931 kJ/mol
# GULP energy per Si atom -5574.331686 kJ/mol
# Density = 1.657034 g / cm^3
# Si number density = 16.608143 Si / 1000 Ang^3
#
#
#
# Elastic Constant Matrix: (Units=GPa)
#
#
# Indices 1 2 3 4 5 6 
#
# 1 63.9585 38.2724 34.1143 0.0000 0.0000 0.0000
# 2 38.2724 87.8838 32.4306 0.0000 0.0000 0.0000
# 3 34.1143 32.4306 56.7774 0.0000 0.0000 0.0000
# 4 0.0000 0.0000 0.0000 21.0617 0.0000 0.0000
# 5 0.0000 0.0000 0.0000 0.0000 17.2058 0.0000
# 6 0.0000 0.0000 0.0000 0.0000 0.0000 1.6479
#
#
#
# Elastic Compliance Matrix: (Units=1/GPa)
#
#
# Indices 1 2 3 4 5 6 
#
# 1 0.026060 -0.007059 -0.011626 0.000000 0.000000 0.000000
# 2 -0.007059 0.016329 -0.005086 0.000000 0.000000 0.000000
# 3 -0.011626 -0.005086 0.027503 0.000000 0.000000 0.000000
# 4 0.000000 0.000000 0.000000 0.047479 0.000000 0.000000
# 5 0.000000 0.000000 0.000000 0.000000 0.058120 0.000000
# 6 0.000000 0.000000 0.000000 0.000000 0.000000 0.606821
#
#
# Mechanical properties :
#
#
# Convention : Reuss Voigt Hill
#
# Bulk Modulus (GPa) = 44.74071 46.47271 45.60671
# Shear Modulus (GPa) = 5.97153 14.90325 10.43739
#
# Velocity S-wave (km/s) = 1.89825 2.99882 2.50961
# Velocity P-wave (km/s) = 5.63932 6.32718 5.99313
#
# Compressibility (1/GPa) = 0.02235101
#
# Stress axis : x y z
#
# Youngs Moduli (GPa) = 38.37256 61.23902 36.35924
#
# Poissons Ratio (x) = 0.43227 0.42272
# Poissons Ratio (y) = 0.27086 0.18492
# Poissons Ratio (z) = 0.44613 0.31146
#
# Static dielectric constant tensor:
#      x y z
#    x 1.600700 0.000000 0.000000 
#    y 0.000000 1.571760 0.000000 
#    z 0.000000 0.000000 1.578240 
# 
# From -- ./inp_files/31568.got.cif
#   From: 2010.05.17/outbox.cif.g08.bks.cpg/sg47_16_cif.got.tgz:31568.got - 2010.06.03 20:15:42.
