data_PCOD9384556
_publ_section_title
;
Structure prediction by ZEFSAII (Michael W. Deem and Ramdas Pophale) SiO2 
 PCOD9384556
Probable space group: P M M M
;
_chemical_formula_sum "Si O2"
_cell_formula_units_Z 44
_cell_length_a 9.573630
_cell_length_b 29.692793
_cell_length_c 8.259825
_cell_angle_alpha 90.000000
_cell_angle_beta 90.000000
_cell_angle_gamma 90.000000
_cell_volume 2348.002396
_symmetry_space_group_name_H-M "P M M M"
_symmetry_group_IT_number 47
_symmetry_cell_setting 'orthorhombic'
loop_
_space_group_symop_operation_xyz
x,y,z
-x,-y,z
x,-y,-z
-x,y,-z
-x,-y,-z
x,y,-z
-x,y,z
x,-y,z
loop_
_atom_site_type_symbol
_atom_site_label
_atom_site_fract_x
_atom_site_fract_y
_atom_site_fract_z
Si Si1 0.839688 0.316517 0.193530
Si Si2 0.658896 0.500000 0.806586
Si Si3 0.837556 0.853252 0.698318
Si Si4 0.659323 0.767679 0.304684
Si Si5 0.160232 0.415763 0.306337
Si Si6 0.830770 0.048419 0.307767
O O1 0.741382 0.277246 0.257344
O O2 0.794652 0.366389 0.247399
O O3 0.000000 0.309974 0.252316
O O4 0.840749 0.314975 0.000000
O O5 0.500000 0.500000 0.743950
O O6 0.741474 0.455722 0.751454
O O7 0.654631 0.500000 0.000000
O O8 0.835959 0.854239 0.500000
O O9 0.743593 0.811721 0.752922
O O10 0.786039 0.902646 0.755326
O O11 0.000000 0.846984 0.745300
O O12 0.656238 0.769962 0.500000
O O13 0.500000 0.767176 0.245644
O O14 0.158361 0.415731 0.500000
O O15 0.000000 0.422920 0.248378
O O16 0.798234 0.047749 0.500000
O O17 0.000000 0.049003 0.295914
O O18 0.782846 0.000000 0.239078
#
# Coordination Sequence:
#
# PCOD9384556 Si02
#       6
#     8   4   8   8   8   8
#     4  10  21  37  57  79 101 128 165 209 256 303
#     4  11  24  39  56  82 116 151 182 211 246 288
#     4   8  13  22  38  59  84 118 159 201 243 288
#     4  10  20  32  47  69  98 132 167 203 246 297
#     4  10  21  38  61  86 109 136 172 212 254 300
#     4   7   9  14  27  50  79 110 147 192 240 287
#
# _framework density 18.739332999999998
#
# number of rings (size 3 to 8) (size 9 to 14) (size 15 to 20)
#    0.000    2.818    0.000    3.818    0.000    5.818 
#    0.000    0.000    0.000    0.545    0.000    3.818 
#    0.000    0.727    0.000    8.364    0.000    9.636 
#
# Total GULP energy -245262.712128 kJ/mol
# GULP energy per Si atom -5574.152548 kJ/mol
# Density = 1.869668 g / cm^3
# Si number density = 18.739333 Si / 1000 Ang^3
#
#
#
# Elastic Constant Matrix: (Units=GPa)
#
#
# Indices 1 2 3 4 5 6 
#
# 1 95.3787 115.0479 13.0601 0.0000 0.0000 0.0000
# 2 115.0479 229.9050 16.3979 0.0000 0.0000 0.0000
# 3 13.0601 16.3979 13.6076 0.0000 0.0000 0.0000
# 4 0.0000 0.0000 0.0000 -47.5603 0.0000 0.0000
# 5 0.0000 0.0000 0.0000 0.0000 15.3700 0.0000
# 6 0.0000 0.0000 0.0000 0.0000 0.0000 -6.3519
#
#
#
# Elastic Compliance Matrix: (Units=1/GPa)
#
#
# Indices 1 2 3 4 5 6 
#
# 1 0.027845 -0.013159 -0.010868 0.000000 0.000000 0.000000
# 2 -0.013159 0.010977 -0.000599 0.000000 0.000000 0.000000
# 3 -0.010868 -0.000599 0.084640 0.000000 0.000000 0.000000
# 4 0.000000 0.000000 0.000000 -0.021026 0.000000 0.000000
# 5 0.000000 0.000000 0.000000 0.000000 0.065062 0.000000
# 6 0.000000 0.000000 0.000000 0.000000 0.000000 -0.157432
#
#
# Mechanical properties :
#
#
# Convention : Reuss Voigt Hill
#
# Bulk Modulus (GPa) = 13.47487 69.76701 41.62094
# Shear Modulus (GPa) = 59.48507 5.25058 32.36783
#
# Velocity S-wave (km/s) = 5.64024 1.67570 4.16055
# Velocity P-wave (km/s) = 7.04434 6.40742 6.73342
#
# Compressibility (1/GPa) = 0.07421224
#
# Stress axis : x y z
#
# Youngs Moduli (GPa) = 35.91245 91.09653 11.81472
#
# Poissons Ratio (x) = 1.19876 0.12840
# Poissons Ratio (y) = 0.47258 0.00707
# Poissons Ratio (z) = 0.39028 0.05453
#
# Static dielectric constant tensor:
#      x y z
#    x 1.633890 0.000000 0.000000 
#    y 0.000000 1.664080 0.000000 
#    z 0.000000 0.000000 1.652100 
# 
# From -- ./inp_files/2146.got.cif
#   From: 2010.05.17/outbox.cif.g08.bks.cpg/sg47_2_cif.got.tgz:2146.got - 2010.06.03 20:15:42.
