data_PCOD9384629
_publ_section_title
;
Structure prediction by ZEFSAII (Michael W. Deem and Ramdas Pophale) SiO2 
 PCOD9384629
Probable space group: P M M M
;
_chemical_formula_sum "Si O2"
_cell_formula_units_Z 52
_cell_length_a 8.866789
_cell_length_b 23.671515
_cell_length_c 15.471005
_cell_angle_alpha 90.000000
_cell_angle_beta 90.000000
_cell_angle_gamma 90.000000
_cell_volume 3247.214327
_symmetry_space_group_name_H-M "P M M M"
_symmetry_group_IT_number 47
_symmetry_cell_setting 'orthorhombic'
loop_
_space_group_symop_operation_xyz
x,y,z
-x,-y,z
x,-y,-z
-x,y,-z
-x,-y,-z
x,y,-z
-x,y,z
x,-y,z
loop_
_atom_site_type_symbol
_atom_site_label
_atom_site_fract_x
_atom_site_fract_y
_atom_site_fract_z
Si Si1 0.670943 0.567085 0.000000
Si Si2 0.818227 0.687799 0.402724
Si Si3 0.324917 0.062400 0.104606
Si Si4 0.320593 0.272102 0.769978
Si Si5 0.180149 0.561635 0.357182
Si Si6 0.179891 0.180418 0.101441
Si Si7 0.821683 0.389358 0.172415
O O1 0.759815 0.585669 0.084604
O O2 0.661774 0.500000 0.000000
O O3 0.500000 0.590324 0.000000
O O4 0.787159 0.707257 0.500000
O O5 0.744736 0.725066 0.327561
O O6 0.766057 0.621806 0.394761
O O7 0.000000 0.687336 0.389227
O O8 0.500000 0.070182 0.130418
O O9 0.227846 0.116891 0.127660
O O10 0.274162 0.000000 0.134670
O O11 0.322999 0.060609 0.000000
O O12 0.500000 0.268445 0.767729
O O13 0.255024 0.223927 0.832387
O O14 0.265859 0.331785 0.808482
O O15 0.240710 0.500000 0.384894
O O16 0.200845 0.569311 0.254158
O O17 0.000000 0.560468 0.374838
O O18 0.000000 0.186442 0.104681
O O19 0.226305 0.189459 0.000000
O O20 0.000000 0.377548 0.167389
#
# Coordination Sequence:
#
# PCOD9384629 Si02
#       7
#     4   8   8   8   8   8   8
#     4  11  23  35  47  67  93 119 152 195 244 295
#     4   9  18  33  52  73  97 124 155 195 244 298
#     4   8  14  26  44  67  98 135 171 204 239 278
#     4  11  22  35  51  70  96 127 162 205 251 297
#     4   8  14  26  46  71  93 112 141 183 231 283
#     4  10  20  32  48  71 100 134 172 209 245 287
#     4  10  20  34  50  66  88 120 159 199 239 286
#
# _framework density 16.013725999999998
#
# number of rings (size 3 to 8) (size 9 to 14) (size 15 to 20)
#    0.000    2.538    0.000    4.385    1.077    3.077 
#    0.000    3.077    0.000    4.154    0.000    4.308 
#    0.000    0.615    0.000    6.462    0.000    3.077 
#
# Total GULP energy -289745.739890 kJ/mol
# GULP energy per Si atom -5572.033459 kJ/mol
# Density = 1.597728 g / cm^3
# Si number density = 16.013726 Si / 1000 Ang^3
#
#
#
# Elastic Constant Matrix: (Units=GPa)
#
#
# Indices 1 2 3 4 5 6 
#
# 1 64.6267 41.9107 46.5342 0.0000 0.0000 0.0000
# 2 41.9107 96.6980 43.5393 0.0000 0.0000 0.0000
# 3 46.5342 43.5393 97.8913 0.0000 0.0000 0.0000
# 4 0.0000 0.0000 0.0000 -716.2900 0.0000 0.0000
# 5 0.0000 0.0000 0.0000 0.0000 15.9857 0.0000
# 6 0.0000 0.0000 0.0000 0.0000 0.0000 23.0103
#
#
#
# Elastic Compliance Matrix: (Units=1/GPa)
#
#
# Indices 1 2 3 4 5 6 
#
# 1 0.027258 -0.007477 -0.009632 0.000000 0.000000 0.000000
# 2 -0.007477 0.014982 -0.003109 0.000000 0.000000 0.000000
# 3 -0.009632 -0.003109 0.016177 0.000000 0.000000 0.000000
# 4 0.000000 0.000000 0.000000 -0.001396 0.000000 0.000000
# 5 0.000000 0.000000 0.000000 0.000000 0.062556 0.000000
# 6 0.000000 0.000000 0.000000 0.000000 0.000000 0.043459
#
#
# Mechanical properties :
#
#
# Convention : Reuss Voigt Hill
#
# Bulk Modulus (GPa) = 55.61595 58.13161 56.87378
# Shear Modulus (GPa) = 23.87026 -126.97669 -51.55321
#
# Velocity S-wave (km/s) = 3.86503 -8.91429 -5.68006
# Velocity P-wave (km/s) = 7.39754 8.34103 2.72482
#
# Compressibility (1/GPa) = 0.01798045
#
# Stress axis : x y z
#
# Youngs Moduli (GPa) = 36.68670 66.74574 61.81630
#
# Poissons Ratio (x) = 0.49907 0.59540
# Poissons Ratio (y) = 0.27432 0.19220
# Poissons Ratio (z) = 0.35336 0.20753
#
# Static dielectric constant tensor:
#      x y z
#    x 1.542340 0.000000 0.000000 
#    y 0.000000 1.541010 0.000000 
#    z 0.000000 0.000000 1.534890 
# 
# From -- ./inp_files/21425.got.cif
#   From: 2010.05.17/outbox.cif.g08.bks.cpg/sg47_11_cif.got.tgz:21425.got - 2010.06.03 20:15:42.
