data_PCOD9384796
_publ_section_title
;
Structure prediction by ZEFSAII (Michael W. Deem and Ramdas Pophale) SiO2 
 PCOD9384796
Probable space group: P M M M
;
_chemical_formula_sum "Si O2"
_cell_formula_units_Z 52
_cell_length_a 14.930528
_cell_length_b 20.902135
_cell_length_c 8.021198
_cell_angle_alpha 90.000000
_cell_angle_beta 90.000000
_cell_angle_gamma 90.000000
_cell_volume 2503.254765
_symmetry_space_group_name_H-M "P M M M"
_symmetry_group_IT_number 47
_symmetry_cell_setting 'orthorhombic'
loop_
_space_group_symop_operation_xyz
x,y,z
-x,-y,z
x,-y,-z
-x,y,-z
-x,-y,-z
x,y,-z
-x,y,z
x,-y,z
loop_
_atom_site_type_symbol
_atom_site_label
_atom_site_fract_x
_atom_site_fract_y
_atom_site_fract_z
Si Si1 0.101722 0.254369 0.194978
Si Si2 0.712695 0.069056 0.803659
Si Si3 0.100712 0.112086 0.693621
Si Si4 0.601591 0.665359 0.201653
Si Si5 0.396015 0.810629 0.201942
Si Si6 0.787680 0.375765 0.301985
Si Si7 0.103539 0.500000 0.704136
O O1 0.116731 0.188493 0.291913
O O2 0.170403 0.310758 0.229982
O O3 0.000000 0.276649 0.232606
O O4 0.106719 0.237434 0.000000
O O5 0.818826 0.077683 0.785592
O O6 0.665366 0.132263 0.731873
O O7 0.685795 0.000000 0.731956
O O8 0.690259 0.067963 0.000000
O O9 0.103400 0.093573 0.500000
O O10 0.000000 0.100096 0.758088
O O11 0.500000 0.648924 0.254549
O O12 0.621572 0.738290 0.260857
O O13 0.682662 0.621505 0.260502
O O14 0.601763 0.665927 0.000000
O O15 0.500000 0.824958 0.235302
O O16 0.385056 0.807946 0.000000
O O17 0.798340 0.372814 0.500000
O O18 0.843675 0.436731 0.240077
O O19 0.104015 0.500000 0.500000
O O20 0.000000 0.500000 0.757035
#
# Coordination Sequence:
#
# PCOD9384796 Si02
#       7
#     8   8   8   8   8   8   4
#     4  10  20  34  54  80 108 136 169 216 273 328
#     4  10  20  32  49  75 104 135 172 215 265 320
#     4  10  21  36  53  73  98 132 176 223 269 317
#     4   9  18  34  56  80 107 141 181 226 275 322
#     4   8  15  30  52  76 102 133 169 210 257 310
#     4  11  21  34  56  82 109 144 183 223 266 312
#     4   9  20  38  56  77 110 150 187 221 260 311
#
# _framework density 20.772955
#
# number of rings (size 3 to 8) (size 9 to 14) (size 15 to 20)
#    0.000    2.385    0.000    3.692    0.000    4.923 
#    0.000    5.000    0.000    6.462    0.000    1.077 
#    0.000    0.000    0.000    0.000    0.000    0.000 
#
# Total GULP energy -290289.864986 kJ/mol
# GULP energy per Si atom -5582.497404 kJ/mol
# Density = 2.072567 g / cm^3
# Si number density = 20.772955 Si / 1000 Ang^3
#
#
#
# Elastic Constant Matrix: (Units=GPa)
#
#
# Indices 1 2 3 4 5 6 
#
# 1 109.1428 53.8422 -2.9638 0.0000 0.0000 0.0000
# 2 53.8422 50.4114 -2.3811 0.0000 0.0000 0.0000
# 3 -2.9638 -2.3811 19.6977 0.0000 0.0000 0.0000
# 4 0.0000 0.0000 0.0000 9.9884 0.0000 0.0000
# 5 0.0000 0.0000 0.0000 0.0000 15.4643 0.0000
# 6 0.0000 0.0000 0.0000 0.0000 0.0000 13.2781
#
#
#
# Elastic Compliance Matrix: (Units=1/GPa)
#
#
# Indices 1 2 3 4 5 6 
#
# 1 0.019370 -0.020668 0.000416 0.000000 0.000000 0.000000
# 2 -0.020668 0.042005 0.001968 0.000000 0.000000 0.000000
# 3 0.000416 0.001968 0.051068 0.000000 0.000000 0.000000
# 4 0.000000 0.000000 0.000000 0.100116 0.000000 0.000000
# 5 0.000000 0.000000 0.000000 0.000000 0.064665 0.000000
# 6 0.000000 0.000000 0.000000 0.000000 0.000000 0.075312
#
#
# Mechanical properties :
#
#
# Convention : Reuss Voigt Hill
#
# Bulk Modulus (GPa) = 13.17989 30.69407 21.93698
# Shear Modulus (GPa) = 12.06577 16.46312 14.26445
#
# Velocity S-wave (km/s) = 2.41268 2.81824 2.62331
# Velocity P-wave (km/s) = 3.75764 5.03964 4.44510
#
# Compressibility (1/GPa) = 0.07587314
#
# Stress axis : x y z
#
# Youngs Moduli (GPa) = 51.62719 23.80695 19.58181
#
# Poissons Ratio (x) = 0.49205 -0.00815
# Poissons Ratio (y) = 1.06704 -0.03853
# Poissons Ratio (z) = -0.02148 -0.04685
#
# Static dielectric constant tensor:
#      x y z
#    x 1.742880 0.000000 0.000000 
#    y 0.000000 1.747670 0.000000 
#    z 0.000000 0.000000 1.761720 
# 
# From -- ./inp_files/7008.got.cif
#   From: 2010.05.17/outbox.cif.g08.bks.cpg/sg47_4_cif.got.tgz:7008.got - 2010.06.03 20:15:42.
