data_PCOD9384184
_publ_section_title
;
Structure prediction by ZEFSAII (Michael W. Deem and Ramdas Pophale) SiO2 
 PCOD9384184
Probable space group: P M M M
;
_chemical_formula_sum "Si O2"
_cell_formula_units_Z 64
_cell_length_a 9.300170
_cell_length_b 29.031460
_cell_length_c 14.533818
_cell_angle_alpha 90.000000
_cell_angle_beta 90.000000
_cell_angle_gamma 90.000000
_cell_volume 3924.094719
_symmetry_space_group_name_H-M "P M M M"
_symmetry_group_IT_number 47
_symmetry_cell_setting 'orthorhombic'
loop_
_space_group_symop_operation_xyz
x,y,z
-x,-y,z
x,-y,-z
-x,y,-z
-x,-y,-z
x,y,-z
-x,y,z
x,-y,z
loop_
_atom_site_type_symbol
_atom_site_label
_atom_site_fract_x
_atom_site_fract_y
_atom_site_fract_z
Si Si1 0.829404 0.447858 0.719533
Si Si2 0.170518 0.226313 0.211138
Si Si3 0.665182 0.694268 0.890138
Si Si4 0.170854 0.273821 0.605990
Si Si5 0.669393 0.414768 0.892545
Si Si6 0.328878 0.856459 0.109532
Si Si7 0.333783 0.631438 0.389620
Si Si8 0.166627 0.948613 0.888426
O O1 0.801488 0.500000 0.687133
O O2 0.767451 0.442120 0.822220
O O3 0.749278 0.409995 0.658554
O O4 0.000000 0.439907 0.718402
O O5 0.225634 0.272639 0.161242
O O6 0.200761 0.234597 0.319178
O O7 0.253629 0.183882 0.166290
O O8 0.000000 0.220683 0.198317
O O9 0.500000 0.704973 0.862837
O O10 0.689699 0.639978 0.874390
O O11 0.675374 0.701769 0.000000
O O12 0.203684 0.261544 0.500000
O O13 0.258700 0.319785 0.630633
O O14 0.000000 0.284260 0.611464
O O15 0.500000 0.424859 0.877823
O O16 0.700914 0.423284 0.000000
O O17 0.500000 0.855139 0.120890
O O18 0.265321 0.905963 0.138926
O O19 0.298210 0.850212 0.000000
O O20 0.328874 0.625648 0.500000
O O21 0.500000 0.632140 0.359836
O O22 0.000000 0.941086 0.861601
O O23 0.210773 0.000000 0.857408
O O24 0.169365 0.949503 0.000000
#
# Coordination Sequence:
#
# PCOD9384184 Si02
#       8
#     8   8   8   8   8   8   8   8
#     4  11  24  38  52  73 100 128 156 188 230 279
#     4  11  21  30  45  69  95 125 159 194 233 277
#     4   9  18  32  48  67  93 123 153 186 226 272
#     4   9  19  36  55  74  97 124 154 190 235 287
#     4   9  19  36  56  75  95 123 159 197 235 275
#     4  10  20  31  43  63  95 134 170 203 240 280
#     4  10  21  37  58  81 100 120 150 189 233 283
#     4   8  14  26  44  64  88 122 164 208 248 282
#
# _framework density 16.309494999999998
#
# number of rings (size 3 to 8) (size 9 to 14) (size 15 to 20)
#    0.000    2.375    0.000    3.750    0.000    8.750 
#    0.000    5.000    0.000    0.000    0.000    0.000 
#    0.000    0.500    0.000    5.750    0.000    1.875 
#
# Total GULP energy -357137.064440 kJ/mol
# GULP energy per Si atom -5580.266632 kJ/mol
# Density = 1.627237 g / cm^3
# Si number density = 16.309495 Si / 1000 Ang^3
#
#
#
# Elastic Constant Matrix: (Units=GPa)
#
#
# Indices 1 2 3 4 5 6 
#
# 1 78.2745 66.4672 47.6896 0.0000 0.0000 0.0000
# 2 66.4672 85.7975 54.5934 0.0000 0.0000 0.0000
# 3 47.6896 54.5934 53.9683 0.0000 0.0000 0.0000
# 4 0.0000 0.0000 0.0000 13.4340 0.0000 0.0000
# 5 0.0000 0.0000 0.0000 0.0000 21.3870 0.0000
# 6 0.0000 0.0000 0.0000 0.0000 0.0000 7.6783
#
#
#
# Elastic Compliance Matrix: (Units=1/GPa)
#
#
# Indices 1 2 3 4 5 6 
#
# 1 0.039575 -0.023593 -0.011105 0.000000 0.000000 0.000000
# 2 -0.023593 0.046775 -0.026469 0.000000 0.000000 0.000000
# 3 -0.011105 -0.026469 0.055118 0.000000 0.000000 0.000000
# 4 0.000000 0.000000 0.000000 0.074438 0.000000 0.000000
# 5 0.000000 0.000000 0.000000 0.000000 0.046757 0.000000
# 6 0.000000 0.000000 0.000000 0.000000 0.000000 0.130238
#
#
# Mechanical properties :
#
#
# Convention : Reuss Voigt Hill
#
# Bulk Modulus (GPa) = 52.26049 61.72674 56.99362
# Shear Modulus (GPa) = 9.58568 11.78588 10.68578
#
# Velocity S-wave (km/s) = 2.42696 2.69111 2.56244
# Velocity P-wave (km/s) = 6.32187 6.89822 6.61632
#
# Compressibility (1/GPa) = 0.01913491
#
# Stress axis : x y z
#
# Youngs Moduli (GPa) = 25.26832 21.37913 18.14294
#
# Poissons Ratio (x) = 0.50439 0.20148
# Poissons Ratio (y) = 0.59614 0.48022
# Poissons Ratio (z) = 0.28061 0.56588
#
# Static dielectric constant tensor:
#      x y z
#    x 1.540500 0.000000 0.000000 
#    y 0.000000 1.537480 0.000000 
#    z 0.000000 0.000000 1.555930 
# 
# From -- ./inp_files/22153.got.cif
#   From: 2010.05.17/outbox.cif.g08.bks.cpg/sg47_12_cif.got.tgz:22153.got - 2010.06.03 20:15:42.
