data_PCOD9384604
_publ_section_title
;
Structure prediction by ZEFSAII (Michael W. Deem and Ramdas Pophale) SiO2 
 PCOD9384604
Probable space group: P M M M
;
_chemical_formula_sum "Si O2"
_cell_formula_units_Z 44
_cell_length_a 31.570817
_cell_length_b 7.783858
_cell_length_c 9.304674
_cell_angle_alpha 90.000000
_cell_angle_beta 90.000000
_cell_angle_gamma 90.000000
_cell_volume 2286.556237
_symmetry_space_group_name_H-M "P M M M"
_symmetry_group_IT_number 47
_symmetry_cell_setting 'orthorhombic'
loop_
_space_group_symop_operation_xyz
x,y,z
-x,-y,z
x,-y,-z
-x,y,-z
-x,-y,-z
x,y,-z
-x,y,z
x,-y,z
loop_
_atom_site_type_symbol
_atom_site_label
_atom_site_fract_x
_atom_site_fract_y
_atom_site_fract_z
Si Si1 0.045601 0.706787 0.168149
Si Si2 0.387896 0.298870 0.672580
Si Si3 0.779653 0.704396 0.338447
Si Si4 0.451733 0.000000 0.325320
Si Si5 0.862351 0.796927 0.164040
Si Si6 0.698260 0.290324 0.835543
O O1 0.045399 0.500000 0.170591
O O2 0.090838 0.763059 0.227656
O O3 0.000000 0.765193 0.229353
O O4 0.045973 0.761499 0.000000
O O5 0.382052 0.286181 0.500000
O O6 0.396804 0.500000 0.705194
O O7 0.425335 0.169793 0.715730
O O8 0.344440 0.246630 0.750474
O O9 0.780547 0.775518 0.500000
O O10 0.772887 0.500000 0.349354
O O11 0.824008 0.729098 0.258332
O O12 0.740255 0.772563 0.245865
O O13 0.500000 0.000000 0.272778
O O14 0.453250 0.000000 0.500000
O O15 0.857158 0.000000 0.154496
O O16 0.860770 0.725287 0.000000
O O17 0.699798 0.500000 0.838112
O O18 0.697267 0.231288 0.000000
#
# Coordination Sequence:
#
# PCOD9384604 Si02
#       6
#     8   8   8   4   8   8
#     4   8  14  26  46  71  96 124 161 204 249 297
#     4   9  17  31  52  77 106 140 178 220 265 314
#     4  10  20  34  53  75  99 131 171 212 256 308
#     4   9  18  32  51  79 111 141 179 223 264 309
#     4  10  20  32  47  71 103 135 167 204 249 303
#     4   9  17  31  53  78 102 130 167 211 258 308
#
# _framework density 19.242912
#
# number of rings (size 3 to 8) (size 9 to 14) (size 15 to 20)
#    0.000    2.818    0.000    2.182    0.000    5.091 
#    1.636    4.091    0.000    1.636    0.000    6.364 
#    0.000    0.000    0.000    0.000    0.000    0.000 
#
# Total GULP energy -245264.013751 kJ/mol
# GULP energy per Si atom -5574.182131 kJ/mol
# Density = 1.919911 g / cm^3
# Si number density = 19.242912 Si / 1000 Ang^3
#
#
#
# Elastic Constant Matrix: (Units=GPa)
#
#
# Indices 1 2 3 4 5 6 
#
# 1 206.5949 40.6275 74.1917 0.0000 0.0000 0.0000
# 2 40.6275 46.6295 23.5197 0.0000 0.0000 0.0000
# 3 74.1917 23.5197 70.7993 0.0000 0.0000 0.0000
# 4 0.0000 0.0000 0.0000 7.6539 0.0000 0.0000
# 5 0.0000 0.0000 0.0000 0.0000 21.9059 0.0000
# 6 0.0000 0.0000 0.0000 0.0000 0.0000 93.7834
#
#
#
# Elastic Compliance Matrix: (Units=1/GPa)
#
#
# Indices 1 2 3 4 5 6 
#
# 1 0.008179 -0.003367 -0.007452 0.000000 0.000000 0.000000
# 2 -0.003367 0.027149 -0.005490 0.000000 0.000000 0.000000
# 3 -0.007452 -0.005490 0.023757 0.000000 0.000000 0.000000
# 4 0.000000 0.000000 0.000000 0.130652 0.000000 0.000000
# 5 0.000000 0.000000 0.000000 0.000000 0.045650 0.000000
# 6 0.000000 0.000000 0.000000 0.000000 0.000000 0.010663
#
#
# Mechanical properties :
#
#
# Convention : Reuss Voigt Hill
#
# Bulk Modulus (GPa) = 37.78470 66.74461 52.26466
# Shear Modulus (GPa) = 17.39186 37.04763 27.21975
#
# Velocity S-wave (km/s) = 3.00960 4.39254 3.76511
# Velocity P-wave (km/s) = 5.63517 7.77731 6.79123
#
# Compressibility (1/GPa) = 0.02646574
#
# Stress axis : x y z
#
# Youngs Moduli (GPa) = 122.26902 36.83416 42.09221
#
# Poissons Ratio (x) = 0.12403 0.31367
# Poissons Ratio (y) = 0.41170 0.23110
# Poissons Ratio (z) = 0.91115 0.20223
#
# Static dielectric constant tensor:
#      x y z
#    x 1.669190 0.000000 0.000000 
#    y 0.000000 1.692150 0.000000 
#    z 0.000000 0.000000 1.670890 
# 
# From -- ./inp_files/13566.got.cif
#   From: 2010.05.17/outbox.cif.g08.bks.cpg/sg47_7_cif.got.tgz:13566.got - 2010.06.03 20:15:42.
