data_PCOD9384913
_publ_section_title
;
Structure prediction by ZEFSAII (Michael W. Deem and Ramdas Pophale) SiO2 
 PCOD9384913
Probable space group: P M M M
;
_chemical_formula_sum "Si O2"
_cell_formula_units_Z 52
_cell_length_a 11.767330
_cell_length_b 9.109347
_cell_length_c 32.204064
_cell_angle_alpha 90.000000
_cell_angle_beta 90.000000
_cell_angle_gamma 90.000000
_cell_volume 3452.040321
_symmetry_space_group_name_H-M "P M M M"
_symmetry_group_IT_number 47
_symmetry_cell_setting 'orthorhombic'
loop_
_space_group_symop_operation_xyz
x,y,z
-x,-y,z
x,-y,-z
-x,y,-z
-x,-y,-z
x,y,-z
-x,y,z
x,-y,z
loop_
_atom_site_type_symbol
_atom_site_label
_atom_site_fract_x
_atom_site_fract_y
_atom_site_fract_z
Si Si1 0.131918 0.320985 0.500000
Si Si2 0.861345 0.328746 0.590405
Si Si3 0.138116 0.668248 0.757571
Si Si4 0.500000 0.677789 0.952103
Si Si5 0.863959 0.172140 0.000000
Si Si6 0.138558 0.831049 0.325912
Si Si7 0.747268 0.677065 0.078724
Si Si8 0.136001 0.174333 0.157037
O O1 0.131752 0.500000 0.500000
O O2 0.180148 0.276632 0.455111
O O3 0.000000 0.273796 0.500000
O O4 0.831540 0.500000 0.595823
O O5 0.824095 0.237470 0.630310
O O6 0.000000 0.323182 0.589039
O O7 0.175845 0.500000 0.761600
O O8 0.176232 0.739295 0.714220
O O9 0.169153 0.762878 0.797860
O O10 0.000000 0.667370 0.756397
O O11 0.500000 0.500000 0.954206
O O12 0.384292 0.719202 0.928989
O O13 0.500000 0.730936 0.000000
O O14 0.816020 0.253503 0.959589
O O15 0.000000 0.178851 0.000000
O O16 0.830710 0.000000 0.000000
O O17 0.000000 0.826884 0.326077
O O18 0.172566 0.000000 0.322106
O O19 0.756699 0.500000 0.078176
O O20 0.797368 0.741905 0.121001
O O21 0.000000 0.198972 0.151708
O O22 0.155392 0.000000 0.154817
#
# Coordination Sequence:
#
# PCOD9384913 Si02
#       8
#     4   8   8   4   4   8   8   8
#     4   7  10  16  25  35  47  67  99 141 187 230
#     4   8  12  18  27  37  50  72 105 144 185 232
#     4   9  16  26  40  56  73  97 130 161 191 237
#     4   9  18  36  56  74  94 116 144 182 216 235
#     4  11  23  36  49  70 100 125 144 173 212 247
#     4   9  15  21  29  43  63  86 112 146 191 238
#     4  11  21  35  55  73  91 117 149 178 206 245
#     4  10  20  33  47  66  94 119 137 167 212 254
#
# _framework density 15.063556
#
# number of rings (size 3 to 8) (size 9 to 14) (size 15 to 20)
#    0.000    2.692    0.769    3.462    0.000    7.077 
#    0.000    2.308    0.000    2.308    0.000    0.000 
#    0.000    0.000    0.000    0.000    0.000    0.000 
#
# Total GULP energy -289571.908013 kJ/mol
# GULP energy per Si atom -5568.690539 kJ/mol
# Density = 1.502927 g / cm^3
# Si number density = 15.063556 Si / 1000 Ang^3
#
#
#
# Elastic Constant Matrix: (Units=GPa)
#
#
# Indices 1 2 3 4 5 6 
#
# 1 35.1145 29.1217 34.0171 0.0000 0.0000 0.0000
# 2 29.1217 88.0336 66.6665 0.0000 0.0000 0.0000
# 3 34.0171 66.6665 156.7326 0.0000 0.0000 0.0000
# 4 0.0000 0.0000 0.0000 8.0059 0.0000 0.0000
# 5 0.0000 0.0000 0.0000 0.0000 -1.3458 0.0000
# 6 0.0000 0.0000 0.0000 0.0000 0.0000 5.5499
#
#
#
# Elastic Compliance Matrix: (Units=1/GPa)
#
#
# Indices 1 2 3 4 5 6 
#
# 1 0.041436 -0.010174 -0.004666 0.000000 0.000000 0.000000
# 2 -0.010174 0.019255 -0.005982 0.000000 0.000000 0.000000
# 3 -0.004666 -0.005982 0.009937 0.000000 0.000000 0.000000
# 4 0.000000 0.000000 0.000000 0.124908 0.000000 0.000000
# 5 0.000000 0.000000 0.000000 0.000000 -0.743074 0.000000
# 6 0.000000 0.000000 0.000000 0.000000 0.000000 0.180184
#
#
# Mechanical properties :
#
#
# Convention : Reuss Voigt Hill
#
# Bulk Modulus (GPa) = 34.50061 59.94349 47.22205
# Shear Modulus (GPa) = -15.82035 12.44702 -1.68666
#
# Velocity S-wave (km/s) = -3.24426 2.87766 -1.05931
# Velocity P-wave (km/s) = 2.98655 7.13592 5.46996
#
# Compressibility (1/GPa) = 0.02898499
#
# Stress axis : x y z
#
# Youngs Moduli (GPa) = 24.13379 51.93493 100.63001
#
# Poissons Ratio (x) = 0.52837 0.46951
# Poissons Ratio (y) = 0.24553 0.60197
# Poissons Ratio (z) = 0.11260 0.31067
#
# Static dielectric constant tensor:
#      x y z
#    x 1.466250 0.000000 0.000000 
#    y 0.000000 1.503660 0.000000 
#    z 0.000000 0.000000 1.516180 
# 
# From -- ./inp_files/34549.got.cif
#   From: 2010.05.17/outbox.cif.g08.bks.cpg/sg47_18_cif.got.tgz:34549.got - 2010.06.03 20:15:42.
