data_PCOD9384619
_publ_section_title
;
Structure prediction by ZEFSAII (Michael W. Deem and Ramdas Pophale) SiO2 
 PCOD9384619
Probable space group: P M M M
;
_chemical_formula_sum "Si O2"
_cell_formula_units_Z 52
_cell_length_a 11.998504
_cell_length_b 9.217973
_cell_length_c 28.809503
_cell_angle_alpha 90.000000
_cell_angle_beta 90.000000
_cell_angle_gamma 90.000000
_cell_volume 3186.385364
_symmetry_space_group_name_H-M "P M M M"
_symmetry_group_IT_number 47
_symmetry_cell_setting 'orthorhombic'
loop_
_space_group_symop_operation_xyz
x,y,z
-x,-y,z
x,-y,-z
-x,y,-z
-x,-y,-z
x,y,-z
-x,y,z
x,-y,z
loop_
_atom_site_type_symbol
_atom_site_label
_atom_site_fract_x
_atom_site_fract_y
_atom_site_fract_z
Si Si1 0.131239 0.673700 0.282545
Si Si2 0.134012 0.827505 0.898436
Si Si3 0.500000 0.326076 0.208491
Si Si4 0.130428 0.176136 0.000000
Si Si5 0.369437 0.673800 0.553930
Si Si6 0.500000 0.165948 0.695867
Si Si7 0.270784 0.170321 0.360589
Si Si8 0.745809 0.675171 0.813440
O O1 0.145323 0.500000 0.288150
O O2 0.181493 0.753426 0.327219
O O3 0.197795 0.716908 0.235786
O O4 0.000000 0.703665 0.276763
O O5 0.175592 0.778141 0.949731
O O6 0.189598 0.743647 0.856360
O O7 0.000000 0.808153 0.897113
O O8 0.154885 0.000000 0.894064
O O9 0.500000 0.500000 0.207489
O O10 0.500000 0.274460 0.261450
O O11 0.616565 0.277548 0.186422
O O12 0.000000 0.217088 0.000000
O O13 0.133437 0.000000 0.000000
O O14 0.345191 0.706582 0.500000
O O15 0.500000 0.712966 0.562182
O O16 0.360959 0.500000 0.560139
O O17 0.289921 0.754349 0.589895
O O18 0.610341 0.185882 0.665509
O O19 0.500000 0.000000 0.713576
O O20 0.246645 0.000000 0.365624
O O21 0.751129 0.500000 0.816159
#
# Coordination Sequence:
#
# PCOD9384619 Si02
#       8
#     8   8   4   4   8   4   8   8
#     4  10  21  36  53  73  98 132 172 208 244 292
#     4   9  17  30  50  74  99 129 163 201 247 295
#     4  10  20  34  52  70  94 132 171 203 241 290
#     4   7  12  26  47  70  95 124 162 203 242 289
#     4   9  18  32  51  76 104 134 168 204 244 293
#     4  10  20  32  47  73 103 130 164 204 244 288
#     4  11  21  33  51  76 106 135 163 203 252 297
#     4  10  20  33  50  73 100 129 163 204 247 292
#
# _framework density 16.319431999999999
#
# number of rings (size 3 to 8) (size 9 to 14) (size 15 to 20)
#    0.000    2.385    2.308    2.308    0.000    3.385 
#    0.000    1.154    0.000    2.308    0.000    6.462 
#    0.000    0.000    0.000    0.000    0.000    0.000 
#
# Total GULP energy -289825.359566 kJ/mol
# GULP energy per Si atom -5573.564607 kJ/mol
# Density = 1.628229 g / cm^3
# Si number density = 16.319432 Si / 1000 Ang^3
#
#
#
# Elastic Constant Matrix: (Units=GPa)
#
#
# Indices 1 2 3 4 5 6 
#
# 1 77.3067 35.6862 50.7740 0.0000 0.0000 0.0000
# 2 35.6862 24.9165 49.0172 0.0000 0.0000 0.0000
# 3 50.7740 49.0172 142.5512 0.0000 0.0000 0.0000
# 4 0.0000 0.0000 0.0000 31.3417 0.0000 0.0000
# 5 0.0000 0.0000 0.0000 0.0000 17.5573 0.0000
# 6 0.0000 0.0000 0.0000 0.0000 0.0000 19.2203
#
#
#
# Elastic Compliance Matrix: (Units=1/GPa)
#
#
# Indices 1 2 3 4 5 6 
#
# 1 0.055524 -0.125539 0.023391 0.000000 0.000000 0.000000
# 2 -0.125539 0.407888 -0.095540 0.000000 0.000000 0.000000
# 3 0.023391 -0.095540 0.031536 0.000000 0.000000 0.000000
# 4 0.000000 0.000000 0.000000 0.031906 0.000000 0.000000
# 5 0.000000 0.000000 0.000000 0.000000 0.056956 0.000000
# 6 0.000000 0.000000 0.000000 0.000000 0.000000 0.052028
#
#
# Mechanical properties :
#
#
# Convention : Reuss Voigt Hill
#
# Bulk Modulus (GPa) = 10.04311 57.30323 33.67317
# Shear Modulus (GPa) = 4.69746 20.91032 12.80389
#
# Velocity S-wave (km/s) = 1.69844 3.58343 2.80407
# Velocity P-wave (km/s) = 3.16444 7.23263 5.58232
#
# Compressibility (1/GPa) = 0.09957078
#
# Stress axis : x y z
#
# Youngs Moduli (GPa) = 18.01034 2.45165 31.70993
#
# Poissons Ratio (x) = 0.30778 -0.74172
# Poissons Ratio (y) = 2.26100 3.02958
# Poissons Ratio (z) = -0.42128 0.23423
#
# Static dielectric constant tensor:
#      x y z
#    x 1.542840 0.000000 0.000000 
#    y 0.000000 1.542330 0.000000 
#    z 0.000000 0.000000 1.542370 
# 
# From -- ./inp_files/33618.got.cif
#   From: 2010.05.17/outbox.cif.g08.bks.cpg/sg47_17_cif.got.tgz:33618.got - 2010.06.03 20:15:42.
