data_PCOD9384311
_publ_section_title
;
Structure prediction by ZEFSAII (Michael W. Deem and Ramdas Pophale) SiO2 
 PCOD9384311
Probable space group: P M M M
;
_chemical_formula_sum "Si O2"
_cell_formula_units_Z 44
_cell_length_a 9.704988
_cell_length_b 28.831696
_cell_length_c 7.566497
_cell_angle_alpha 90.000000
_cell_angle_beta 90.000000
_cell_angle_gamma 90.000000
_cell_volume 2117.191087
_symmetry_space_group_name_H-M "P M M M"
_symmetry_group_IT_number 47
_symmetry_cell_setting 'orthorhombic'
loop_
_space_group_symop_operation_xyz
x,y,z
-x,-y,z
x,-y,-z
-x,y,-z
-x,-y,-z
x,y,-z
-x,y,z
x,-y,z
loop_
_atom_site_type_symbol
_atom_site_label
_atom_site_fract_x
_atom_site_fract_y
_atom_site_fract_z
Si Si1 0.841692 0.552269 0.715794
Si Si2 0.656016 0.914277 0.709503
Si Si3 0.345441 0.636152 0.710334
Si Si4 0.840938 0.000000 0.716800
Si Si5 0.844677 0.277373 0.212870
Si Si6 0.156226 0.172241 0.786896
O O1 0.841018 0.552862 0.500000
O O2 0.801817 0.500000 0.769089
O O3 0.742643 0.592836 0.780623
O O4 0.000000 0.560497 0.769831
O O5 0.644830 0.922483 0.500000
O O6 0.500000 0.915155 0.781665
O O7 0.731752 0.865308 0.733264
O O8 0.756307 0.954803 0.777236
O O9 0.355371 0.628945 0.500000
O O10 0.500000 0.638372 0.782510
O O11 0.263429 0.683801 0.735586
O O12 0.843938 0.000000 0.500000
O O13 0.000000 0.000000 0.774451
O O14 0.813143 0.224860 0.272928
O O15 0.000000 0.289277 0.273896
O O16 0.847819 0.276161 0.000000
O O17 0.000000 0.160125 0.727239
O O18 0.153483 0.172787 0.000000
#
# Coordination Sequence:
#
# PCOD9384311 Si02
#       6
#     8   8   8   4   8   8
#     4   8  14  26  45  68  94 126 163 200 239 285
#     4  10  20  33  51  77 107 135 163 199 244 293
#     4  10  20  31  46  73 105 132 160 198 244 293
#     4   9  17  31  52  75 100 133 170 204 240 285
#     4   9  19  36  55  72  93 127 169 208 247 292
#     4   9  19  36  55  74  97 127 166 209 249 291
#
# _framework density 20.782252
#
# number of rings (size 3 to 8) (size 9 to 14) (size 15 to 20)
#    0.000    2.818    0.000    3.000    0.000    5.818 
#    0.000    7.727    0.000    3.273    0.000    3.818 
#    0.000    0.000    0.000    0.000    0.000    0.000 
#
# Total GULP energy -245595.520964 kJ/mol
# GULP energy per Si atom -5581.716386 kJ/mol
# Density = 2.073495 g / cm^3
# Si number density = 20.782252 Si / 1000 Ang^3
#
#
#
# Elastic Constant Matrix: (Units=GPa)
#
#
# Indices 1 2 3 4 5 6 
#
# 1 208.7876 146.9424 6.3035 0.0000 0.0000 0.0000
# 2 146.9424 166.1497 -1.4005 0.0000 0.0000 0.0000
# 3 6.3035 -1.4005 45.6579 0.0000 0.0000 0.0000
# 4 0.0000 0.0000 0.0000 40.2534 0.0000 0.0000
# 5 0.0000 0.0000 0.0000 0.0000 8.6129 0.0000
# 6 0.0000 0.0000 0.0000 0.0000 0.0000 -18.6992
#
#
#
# Elastic Compliance Matrix: (Units=1/GPa)
#
#
# Indices 1 2 3 4 5 6 
#
# 1 0.012889 -0.011417 -0.002130 0.000000 0.000000 0.000000
# 2 -0.011417 0.016133 0.002071 0.000000 0.000000 0.000000
# 3 -0.002130 0.002071 0.022260 0.000000 0.000000 0.000000
# 4 0.000000 0.000000 0.000000 0.024843 0.000000 0.000000
# 5 0.000000 0.000000 0.000000 0.000000 0.116104 0.000000
# 6 0.000000 0.000000 0.000000 0.000000 0.000000 -0.053478
#
#
# Mechanical properties :
#
#
# Convention : Reuss Voigt Hill
#
# Bulk Modulus (GPa) = 35.29733 80.47622 57.88678
# Shear Modulus (GPa) = 29.21500 23.95009 26.58255
#
# Velocity S-wave (km/s) = 3.75342 3.39843 3.58033
# Velocity P-wave (km/s) = 5.98377 7.36252 6.70866
#
# Compressibility (1/GPa) = 0.02833076
#
# Stress axis : x y z
#
# Youngs Moduli (GPa) = 77.58601 61.98404 44.92455
#
# Poissons Ratio (x) = 0.70766 0.09567
# Poissons Ratio (y) = 0.88579 -0.09304
# Poissons Ratio (z) = 0.16523 -0.12837
#
# Static dielectric constant tensor:
#      x y z
#    x 1.723430 0.000000 0.000000 
#    y 0.000000 1.716290 0.000000 
#    z 0.000000 0.000000 1.797070 
# 
# From -- ./inp_files/2076.got.cif
#   From: 2010.05.17/outbox.cif.g08.bks.cpg/sg47_2_cif.got.tgz:2076.got - 2010.06.03 20:15:42.
