data_PCOD9384128
_publ_section_title
;
Structure prediction by ZEFSAII (Michael W. Deem and Ramdas Pophale) SiO2 
 PCOD9384128
Probable space group: P M M M
;
_chemical_formula_sum "Si O2"
_cell_formula_units_Z 40
_cell_length_a 18.734184
_cell_length_b 8.748654
_cell_length_c 17.600866
_cell_angle_alpha 90.000000
_cell_angle_beta 90.000000
_cell_angle_gamma 90.000000
_cell_volume 2884.762467
_symmetry_space_group_name_H-M "P M M M"
_symmetry_group_IT_number 47
_symmetry_cell_setting 'orthorhombic'
loop_
_space_group_symop_operation_xyz
x,y,z
-x,-y,z
x,-y,-z
-x,y,-z
-x,-y,-z
x,y,-z
-x,y,z
x,-y,z
loop_
_atom_site_type_symbol
_atom_site_label
_atom_site_fract_x
_atom_site_fract_y
_atom_site_fract_z
Si Si1 0.078394 0.820601 0.591968
Si Si2 0.416236 0.685335 0.166413
Si Si3 0.359852 0.183338 0.680611
Si Si4 0.413326 0.677505 0.000000
Si Si5 0.228092 0.682179 0.588989
Si Si6 0.500000 0.186045 0.587110
O O1 0.076919 0.810824 0.500000
O O2 0.149004 0.731295 0.615659
O O3 0.000000 0.766678 0.618771
O O4 0.085457 0.000000 0.611131
O O5 0.500000 0.727292 0.177422
O O6 0.413181 0.500000 0.166603
O O7 0.370895 0.751357 0.235193
O O8 0.392821 0.741725 0.082379
O O9 0.289070 0.241589 0.639307
O O10 0.428879 0.234314 0.631370
O O11 0.359684 0.000000 0.683097
O O12 0.390607 0.500000 0.000000
O O13 0.500000 0.677191 0.000000
O O14 0.236149 0.729455 0.500000
O O15 0.234667 0.500000 0.592212
O O16 0.500000 0.238708 0.500000
O O17 0.500000 0.000000 0.586171
#
# Coordination Sequence:
#
# PCOD9384128 Si02
#       6
#     8   8   8   4   8   4
#     4   8  14  26  44  63  81 103 132 165 204 251
#     4   9  16  28  45  62  81 103 132 168 207 251
#     4  11  20  30  43  58  80 108 141 177 215 252
#     4   7  12  24  43  63  79 101 128 157 200 255
#     4  10  20  31  42  59  82 108 141 178 214 248
#     4   9  18  30  41  52  69 100 142 181 213 245
#
# _framework density 13.865959999999999
#
# number of rings (size 3 to 8) (size 9 to 14) (size 15 to 20)
#    0.000    2.800    1.000    3.600    0.000    2.400 
#    0.000    2.500    0.000    4.200    0.000    0.000 
#    0.000    0.000    0.000    0.900    0.000   17.400 
#
# Total GULP energy -222717.651814 kJ/mol
# GULP energy per Si atom -5567.941295 kJ/mol
# Density = 1.383440 g / cm^3
# Si number density = 13.865960 Si / 1000 Ang^3
#
#
#
# Elastic Constant Matrix: (Units=GPa)
#
#
# Indices 1 2 3 4 5 6 
#
# 1 99.1992 28.7912 52.9886 0.0000 0.0000 0.0000
# 2 28.7912 23.1294 24.7264 0.0000 0.0000 0.0000
# 3 52.9886 24.7264 105.0550 0.0000 0.0000 0.0000
# 4 0.0000 0.0000 0.0000 12.9078 0.0000 0.0000
# 5 0.0000 0.0000 0.0000 0.0000 2.9054 0.0000
# 6 0.0000 0.0000 0.0000 0.0000 0.0000 16.4513
#
#
#
# Elastic Compliance Matrix: (Units=1/GPa)
#
#
# Indices 1 2 3 4 5 6 
#
# 1 0.017517 -0.016515 -0.004948 0.000000 0.000000 0.000000
# 2 -0.016515 0.073342 -0.008932 0.000000 0.000000 0.000000
# 3 -0.004948 -0.008932 0.014117 0.000000 0.000000 0.000000
# 4 0.000000 0.000000 0.000000 0.077472 0.000000 0.000000
# 5 0.000000 0.000000 0.000000 0.000000 0.344192 0.000000
# 6 0.000000 0.000000 0.000000 0.000000 0.000000 0.060785
#
#
# Mechanical properties :
#
#
# Convention : Reuss Voigt Hill
#
# Bulk Modulus (GPa) = 22.63221 48.93288 35.78255
# Shear Modulus (GPa) = 7.54208 14.51138 11.02673
#
# Velocity S-wave (km/s) = 2.33476 3.23855 2.82305
# Velocity P-wave (km/s) = 4.86063 7.02501 6.04055
#
# Compressibility (1/GPa) = 0.04418481
#
# Stress axis : x y z
#
# Youngs Moduli (GPa) = 57.08629 13.63474 70.83627
#
# Poissons Ratio (x) = 0.22518 0.35053
# Poissons Ratio (y) = 0.94280 0.63272
# Poissons Ratio (z) = 0.28249 0.12179
#
# Static dielectric constant tensor:
#      x y z
#    x 1.449380 0.000000 0.000000 
#    y 0.000000 1.464770 0.000000 
#    z 0.000000 0.000000 1.458070 
# 
# From -- ./inp_files/9365.got.cif
#   From: 2010.05.17/outbox.cif.g08.bks.cpg/sg47_5_cif.got.tgz:9365.got - 2010.06.03 20:15:42.
