data_PCOD9384971
_publ_section_title
;
Structure prediction by ZEFSAII (Michael W. Deem and Ramdas Pophale) SiO2 
 PCOD9384971
Probable space group: P M M M
;
_chemical_formula_sum "Si O2"
_cell_formula_units_Z 64
_cell_length_a 7.535509
_cell_length_b 20.932023
_cell_length_c 20.834071
_cell_angle_alpha 90.000000
_cell_angle_beta 90.000000
_cell_angle_gamma 90.000000
_cell_volume 3286.229849
_symmetry_space_group_name_H-M "P M M M"
_symmetry_group_IT_number 47
_symmetry_cell_setting 'orthorhombic'
loop_
_space_group_symop_operation_xyz
x,y,z
-x,-y,z
x,-y,-z
-x,y,-z
-x,-y,-z
x,y,-z
-x,y,z
x,-y,z
loop_
_atom_site_type_symbol
_atom_site_label
_atom_site_fract_x
_atom_site_fract_y
_atom_site_fract_z
Si Si1 0.209166 0.071428 0.811759
Si Si2 0.213839 0.928162 0.573212
Si Si3 0.284237 0.568871 0.750021
Si Si4 0.217050 0.154936 0.070064
Si Si5 0.792624 0.431086 0.098355
Si Si6 0.784971 0.706435 0.111636
Si Si7 0.291444 0.158827 0.308068
Si Si8 0.710191 0.293719 0.263810
O O1 0.282757 0.112421 0.870963
O O2 0.223215 0.110997 0.746397
O O3 0.000000 0.065244 0.824700
O O4 0.283567 0.000000 0.806010
O O5 0.273807 0.916774 0.500000
O O6 0.265122 0.873970 0.623323
O O7 0.000000 0.929846 0.572398
O O8 0.273720 0.000000 0.592582
O O9 0.500000 0.570396 0.752241
O O10 0.231522 0.500000 0.721820
O O11 0.220118 0.569075 0.823885
O O12 0.220869 0.635288 0.719236
O O13 0.273648 0.228431 0.078562
O O14 0.000000 0.155863 0.072403
O O15 0.268800 0.130595 0.000000
O O16 0.716194 0.500000 0.077475
O O17 0.718863 0.360888 0.082374
O O18 0.000000 0.431662 0.079876
O O19 0.735806 0.712213 0.186902
O O20 0.000000 0.703805 0.108602
O O21 0.500000 0.163751 0.296243
O O22 0.216011 0.230210 0.297566
O O23 0.500000 0.295502 0.276971
#
# Coordination Sequence:
#
# PCOD9384971 Si02
#       8
#     8   8   8   8   8   8   8   8
#     4  10  20  33  49  67  86 112 149 191 233 277
#     4   9  19  36  55  73  95 125 159 191 220 254
#     4   8  13  22  36  54  79 112 146 177 211 252
#     4   9  17  29  45  64  83 106 144 193 237 275
#     4   8  13  20  32  53  78 102 131 169 213 261
#     4   9  15  25  42  59  78 108 143 179 222 271
#     4  11  21  31  47  72 101 127 149 180 223 270
#     4   9  17  27  40  62  91 118 145 180 220 261
#
# _framework density 19.475204000000002
#
# number of rings (size 3 to 8) (size 9 to 14) (size 15 to 20)
#    0.000    2.875    1.250    1.125    0.000    3.000 
#    0.000    1.875    0.000    1.875    0.000    3.500 
#    0.000    0.500    0.000   26.500    0.000   10.500 
#
# Total GULP energy -356649.591179 kJ/mol
# GULP energy per Si atom -5572.649862 kJ/mol
# Density = 1.943088 g / cm^3
# Si number density = 19.475204 Si / 1000 Ang^3
#
#
#
# Elastic Constant Matrix: (Units=GPa)
#
#
# Indices 1 2 3 4 5 6 
#
# 1 47.4935 8.5867 -8.5506 0.0000 0.0000 0.0000
# 2 8.5867 204.4304 68.7211 0.0000 0.0000 0.0000
# 3 -8.5506 68.7211 65.1256 0.0000 0.0000 0.0000
# 4 0.0000 0.0000 0.0000 26.9629 0.0000 0.0000
# 5 0.0000 0.0000 0.0000 0.0000 33.7119 0.0000
# 6 0.0000 0.0000 0.0000 0.0000 0.0000 7.6429
#
#
#
# Elastic Compliance Matrix: (Units=1/GPa)
#
#
# Indices 1 2 3 4 5 6 
#
# 1 0.022717 -0.003032 0.006182 0.000000 0.000000 0.000000
# 2 -0.003032 0.007985 -0.008824 0.000000 0.000000 0.000000
# 3 0.006182 -0.008824 0.025478 0.000000 0.000000 0.000000
# 4 0.000000 0.000000 0.000000 0.037088 0.000000 0.000000
# 5 0.000000 0.000000 0.000000 0.000000 0.029663 0.000000
# 6 0.000000 0.000000 0.000000 0.000000 0.000000 0.130840
#
#
# Mechanical properties :
#
#
# Convention : Reuss Voigt Hill
#
# Bulk Modulus (GPa) = 22.30567 50.50712 36.40639
# Shear Modulus (GPa) = 17.85307 30.21636 24.03471
#
# Velocity S-wave (km/s) = 3.03100 3.94322 3.51681
# Velocity P-wave (km/s) = 4.87109 6.83537 5.93506
#
# Compressibility (1/GPa) = 0.04483165
#
# Stress axis : x y z
#
# Youngs Moduli (GPa) = 44.02017 125.22819 39.24917
#
# Poissons Ratio (x) = 0.37975 -0.24266
# Poissons Ratio (y) = 0.13349 0.34635
# Poissons Ratio (z) = -0.27215 1.10507
#
# Static dielectric constant tensor:
#      x y z
#    x 1.812670 0.000000 0.000000 
#    y 0.000000 1.763990 0.000000 
#    z 0.000000 0.000000 1.633310 
# 
# From -- ./inp_files/11576.got.cif
#   From: 2010.05.17/outbox.cif.g08.bks.cpg/sg47_6_cif.got.tgz:11576.got - 2010.06.03 20:15:42.
