data_PCOD9384719
_publ_section_title
;
Structure prediction by ZEFSAII (Michael W. Deem and Ramdas Pophale) SiO2 
 PCOD9384719
Probable space group: P M M M
;
_chemical_formula_sum "Si O2"
_cell_formula_units_Z 64
_cell_length_a 8.776019
_cell_length_b 20.320532
_cell_length_c 20.173417
_cell_angle_alpha 90.000000
_cell_angle_beta 90.000000
_cell_angle_gamma 90.000000
_cell_volume 3597.593537
_symmetry_space_group_name_H-M "P M M M"
_symmetry_group_IT_number 47
_symmetry_cell_setting 'orthorhombic'
loop_
_space_group_symop_operation_xyz
x,y,z
-x,-y,z
x,-y,-z
-x,y,-z
-x,-y,-z
x,y,-z
-x,y,z
x,-y,z
loop_
_atom_site_type_symbol
_atom_site_label
_atom_site_fract_x
_atom_site_fract_y
_atom_site_fract_z
Si Si1 0.820544 0.202293 0.697234
Si Si2 0.673801 0.252564 0.075080
Si Si3 0.329329 0.572280 0.263593
Si Si4 0.820944 0.425909 0.401853
Si Si5 0.816049 0.108239 0.073725
Si Si6 0.185267 0.072583 0.776025
Si Si7 0.681861 0.717535 0.573704
Si Si8 0.172586 0.683836 0.806879
O O1 0.761902 0.133520 0.729712
O O2 0.745270 0.236419 0.632804
O O3 0.808830 0.255582 0.756203
O O4 0.000000 0.193595 0.682016
O O5 0.500000 0.256080 0.100488
O O6 0.730172 0.177560 0.074093
O O7 0.789670 0.290963 0.120824
O O8 0.675523 0.277035 0.000000
O O9 0.500000 0.580635 0.291922
O O10 0.321445 0.500000 0.233247
O O11 0.209932 0.575571 0.323245
O O12 0.290932 0.628421 0.212922
O O13 0.767036 0.500000 0.423224
O O14 0.743224 0.357991 0.424354
O O15 0.000000 0.422356 0.416874
O O16 0.774363 0.077518 0.145327
O O17 0.000000 0.116947 0.075657
O O18 0.783858 0.077933 0.000000
O O19 0.000000 0.075724 0.774597
O O20 0.232396 0.000000 0.752113
O O21 0.720296 0.743625 0.500000
O O22 0.500000 0.714679 0.580492
O O23 0.000000 0.659523 0.800748
#
# Coordination Sequence:
#
# PCOD9384719 Si02
#       8
#     8   8   8   8   8   8   8   8
#     4  10  20  35  55  81 107 136 176 220 268 319
#     4  10  20  32  48  73 105 142 182 222 267 315
#     4  10  20  33  51  77 108 141 177 217 262 312
#     4  10  20  34  53  79 112 147 180 214 256 309
#     4   9  16  28  47  73 108 145 179 215 257 309
#     4   9  17  31  52  79 110 140 175 221 268 315
#     4  11  24  39  56  79 107 142 181 222 270 319
#     4  11  20  32  54  80 105 137 178 224 270 315
#
# _framework density 17.789670999999998
#
# number of rings (size 3 to 8) (size 9 to 14) (size 15 to 20)
#    0.000    2.000    2.500    1.875    0.000    4.250 
#    0.000    2.500    0.000    2.250    0.000    7.000 
#    0.000    0.000    0.000    0.000    0.000    0.000 
#
# Total GULP energy -356455.456430 kJ/mol
# GULP energy per Si atom -5569.616507 kJ/mol
# Density = 1.774918 g / cm^3
# Si number density = 17.789671 Si / 1000 Ang^3
#
#
#
# Elastic Constant Matrix: (Units=GPa)
#
#
# Indices 1 2 3 4 5 6 
#
# 1 35.5922 27.1541 27.6787 0.0000 0.0000 0.0000
# 2 27.1541 93.5186 51.4394 0.0000 0.0000 0.0000
# 3 27.6787 51.4394 92.1388 0.0000 0.0000 0.0000
# 4 0.0000 0.0000 0.0000 18.6164 0.0000 0.0000
# 5 0.0000 0.0000 0.0000 0.0000 19.3564 0.0000
# 6 0.0000 0.0000 0.0000 0.0000 0.0000 5.7691
#
#
#
# Elastic Compliance Matrix: (Units=1/GPa)
#
#
# Indices 1 2 3 4 5 6 
#
# 1 0.039739 -0.007176 -0.007931 0.000000 0.000000 0.000000
# 2 -0.007176 0.016728 -0.007183 0.000000 0.000000 0.000000
# 3 -0.007931 -0.007183 0.017246 0.000000 0.000000 0.000000
# 4 0.000000 0.000000 0.000000 0.053716 0.000000 0.000000
# 5 0.000000 0.000000 0.000000 0.000000 0.051663 0.000000
# 6 0.000000 0.000000 0.000000 0.000000 0.000000 0.173339
#
#
# Mechanical properties :
#
#
# Convention : Reuss Voigt Hill
#
# Bulk Modulus (GPa) = 34.32710 48.19935 41.26322
# Shear Modulus (GPa) = 12.29345 16.41353 14.35349
#
# Velocity S-wave (km/s) = 2.63162 3.04080 2.84358
# Velocity P-wave (km/s) = 5.34527 6.28343 5.83324
#
# Compressibility (1/GPa) = 0.02913150
#
# Stress axis : x y z
#
# Youngs Moduli (GPa) = 25.16442 59.78108 57.98450
#
# Poissons Ratio (x) = 0.42898 0.45990
# Poissons Ratio (y) = 0.18058 0.41651
# Poissons Ratio (z) = 0.19959 0.42941
#
# Static dielectric constant tensor:
#      x y z
#    x 1.609510 0.000000 0.000000 
#    y 0.000000 1.615540 0.000000 
#    z 0.000000 0.000000 1.620500 
# 
# From -- ./inp_files/30006.got.cif
#   From: 2010.05.17/outbox.cif.g08.bks.cpg/sg47_16_cif.got.tgz:30006.got - 2010.06.03 20:15:42.
