data_PCOD9384832
_publ_section_title
;
Structure prediction by ZEFSAII (Michael W. Deem and Ramdas Pophale) SiO2 
 PCOD9384832
Probable space group: P M M M
;
_chemical_formula_sum "Si O2"
_cell_formula_units_Z 44
_cell_length_a 9.589051
_cell_length_b 8.325522
_cell_length_c 29.013633
_cell_angle_alpha 90.000000
_cell_angle_beta 90.000000
_cell_angle_gamma 90.000000
_cell_volume 2316.270172
_symmetry_space_group_name_H-M "P M M M"
_symmetry_group_IT_number 47
_symmetry_cell_setting 'orthorhombic'
loop_
_space_group_symop_operation_xyz
x,y,z
-x,-y,z
x,-y,-z
-x,y,-z
-x,-y,-z
x,y,-z
-x,y,z
x,-y,z
loop_
_atom_site_type_symbol
_atom_site_label
_atom_site_fract_x
_atom_site_fract_y
_atom_site_fract_z
Si Si1 0.158450 0.306149 0.637549
Si Si2 0.338505 0.305824 0.171896
Si Si3 0.659906 0.308110 0.000000
Si Si4 0.159874 0.191767 0.086503
Si Si5 0.660872 0.193895 0.447975
Si Si6 0.340290 0.695833 0.723455
O O1 0.155806 0.500000 0.639902
O O2 0.241083 0.258559 0.591810
O O3 0.239174 0.247520 0.683141
O O4 0.000000 0.247259 0.636325
O O5 0.500000 0.258797 0.162397
O O6 0.334149 0.500000 0.170234
O O7 0.233421 0.239628 0.134196
O O8 0.304084 0.255252 0.224336
O O9 0.745116 0.254798 0.044905
O O10 0.652998 0.500000 0.000000
O O11 0.500000 0.246198 0.000000
O O12 0.000000 0.252143 0.083707
O O13 0.155689 0.000000 0.083141
O O14 0.700527 0.244558 0.500000
O O15 0.500000 0.243582 0.440068
O O16 0.664195 0.000000 0.447010
O O17 0.500000 0.744623 0.714064
O O18 0.338435 0.500000 0.723349
#
# Coordination Sequence:
#
# PCOD9384832 Si02
#       6
#     8   8   4   8   8   8
#     4  10  20  32  49  77 109 137 168 209 258 312
#     4   9  18  34  57  83 107 135 177 222 260 305
#     4  11  24  41  62  86 108 135 178 225 264 310
#     4  11  24  39  55  80 114 147 178 214 259 311
#     4   9  19  36  55  73  95 128 172 217 259 308
#     4   8  15  30  52  76 103 136 174 216 258 301
#
# _framework density 18.996057
#
# number of rings (size 3 to 8) (size 9 to 14) (size 15 to 20)
#    0.000    2.455    0.000    3.818    0.000    8.727 
#    0.000    5.455    0.000    1.091    0.000    0.000 
#    0.000    0.000    0.000    0.000    0.000    0.000 
#
# Total GULP energy -245589.394287 kJ/mol
# GULP energy per Si atom -5581.577143 kJ/mol
# Density = 1.895282 g / cm^3
# Si number density = 18.996057 Si / 1000 Ang^3
#
#
#
# Elastic Constant Matrix: (Units=GPa)
#
#
# Indices 1 2 3 4 5 6 
#
# 1 175.1130 25.7328 140.4035 0.0000 0.0000 0.0000
# 2 25.7328 14.8776 20.4437 0.0000 0.0000 0.0000
# 3 140.4035 20.4437 181.7219 0.0000 0.0000 0.0000
# 4 0.0000 0.0000 0.0000 88.6181 0.0000 0.0000
# 5 0.0000 0.0000 0.0000 0.0000 -5.6109 0.0000
# 6 0.0000 0.0000 0.0000 0.0000 0.0000 -34.0134
#
#
#
# Elastic Compliance Matrix: (Units=1/GPa)
#
#
# Indices 1 2 3 4 5 6 
#
# 1 0.017012 -0.013441 -0.011632 0.000000 0.000000 0.000000
# 2 -0.013441 0.090125 0.000246 0.000000 0.000000 0.000000
# 3 -0.011632 0.000246 0.014462 0.000000 0.000000 0.000000
# 4 0.000000 0.000000 0.000000 0.011284 0.000000 0.000000
# 5 0.000000 0.000000 0.000000 0.000000 -0.178225 0.000000
# 6 0.000000 0.000000 0.000000 0.000000 0.000000 -0.029400
#
#
# Mechanical properties :
#
#
# Convention : Reuss Voigt Hill
#
# Bulk Modulus (GPa) = 13.89941 82.76362 48.33152
# Shear Modulus (GPa) = -4522.94786 22.14093 -2250.40346
#
# Velocity S-wave (km/s) = -48.84836 3.41772 -34.45636
# Velocity P-wave (km/s) = 56.34018 7.69662 39.46504
#
# Compressibility (1/GPa) = 0.07194550
#
# Stress axis : x y z
#
# Youngs Moduli (GPa) = 58.78176 11.09568 69.14479
#
# Poissons Ratio (x) = 0.14914 0.80429
# Poissons Ratio (y) = 0.79008 -0.01700
# Poissons Ratio (z) = 0.68374 -0.00273
#
# Static dielectric constant tensor:
#      x y z
#    x 1.648340 0.000000 0.000000 
#    y 0.000000 1.664540 0.000000 
#    z 0.000000 0.000000 1.639270 
# 
# From -- ./inp_files/33914.got.cif
#   From: 2010.05.17/outbox.cif.g08.bks.cpg/sg47_17_cif.got.tgz:33914.got - 2010.06.03 20:15:42.
