data_PCOD9384031
_publ_section_title
;
Structure prediction by ZEFSAII (Michael W. Deem and Ramdas Pophale) SiO2 
 PCOD9384031
Probable space group: P M M M
;
_chemical_formula_sum "Si O2"
_cell_formula_units_Z 48
_cell_length_a 8.567573
_cell_length_b 15.508618
_cell_length_c 17.847621
_cell_angle_alpha 90.000000
_cell_angle_beta 90.000000
_cell_angle_gamma 90.000000
_cell_volume 2371.435120
_symmetry_space_group_name_H-M "P M M M"
_symmetry_group_IT_number 47
_symmetry_cell_setting 'orthorhombic'
loop_
_space_group_symop_operation_xyz
x,y,z
-x,-y,z
x,-y,-z
-x,y,-z
-x,-y,-z
x,y,-z
-x,y,z
x,-y,z
loop_
_atom_site_type_symbol
_atom_site_label
_atom_site_fract_x
_atom_site_fract_y
_atom_site_fract_z
Si Si1 0.317646 0.858028 0.584494
Si Si2 0.189335 0.594929 0.911357
Si Si3 0.810117 0.217835 0.137112
Si Si4 0.680846 0.500000 0.591820
Si Si5 0.813399 0.091756 0.738392
Si Si6 0.173626 0.677577 0.590063
Si Si7 0.311945 0.101585 0.000000
O O1 0.258250 0.875737 0.500000
O O2 0.500000 0.878544 0.585851
O O3 0.232547 0.903864 0.652030
O O4 0.289653 0.756690 0.600340
O O5 0.244271 0.500000 0.884805
O O6 0.244150 0.683401 0.873098
O O7 0.000000 0.594140 0.905557
O O8 0.225695 0.601590 0.000000
O O9 0.756949 0.173173 0.214172
O O10 0.000000 0.219112 0.134138
O O11 0.751874 0.154857 0.071270
O O12 0.500000 0.500000 0.612535
O O13 0.686181 0.500000 0.500000
O O14 0.765244 0.413536 0.618824
O O15 0.000000 0.092501 0.743483
O O16 0.756284 0.000000 0.770356
O O17 0.161759 0.668185 0.500000
O O18 0.000000 0.698580 0.619098
O O19 0.500000 0.104042 0.000000
O O20 0.264094 0.000000 0.000000
#
# Coordination Sequence:
#
# PCOD9384031 Si02
#       7
#     8   8   8   4   8   8   4
#     4  10  21  37  57  79 103 137 182 230 288 356
#     4   8  13  24  49  86 119 146 183 228 270 315
#     4  10  19  35  59  84 112 151 195 235 277 332
#     4   9  15  23  39  67 103 137 169 208 259 322
#     4  10  22  38  56  80 109 143 185 235 292 348
#     4   9  16  27  46  72 100 130 167 214 266 321
#     4  11  23  35  50  79 118 156 193 235 284 333
#
# _framework density 20.240907
#
# number of rings (size 3 to 8) (size 9 to 14) (size 15 to 20)
#    0.000    2.500    0.833    2.500    0.000    6.667 
#    0.000    1.667    1.833    1.000    0.000    0.000 
#    0.000    0.000    0.000    0.000    0.000    0.000 
#
# Total GULP energy -267587.211923 kJ/mol
# GULP energy per Si atom -5574.733582 kJ/mol
# Density = 2.019484 g / cm^3
# Si number density = 20.240907 Si / 1000 Ang^3
#
#
#
# Elastic Constant Matrix: (Units=GPa)
#
#
# Indices 1 2 3 4 5 6 
#
# 1 10.4470 8.1897 -0.0666 0.0000 0.0000 0.0000
# 2 8.1897 179.3981 57.3944 0.0000 0.0000 0.0000
# 3 -0.0666 57.3944 74.4884 0.0000 0.0000 0.0000
# 4 0.0000 0.0000 0.0000 9.8999 0.0000 0.0000
# 5 0.0000 0.0000 0.0000 0.0000 7.0765 0.0000
# 6 0.0000 0.0000 0.0000 0.0000 0.0000 16.9214
#
#
#
# Elastic Compliance Matrix: (Units=1/GPa)
#
#
# Indices 1 2 3 4 5 6 
#
# 1 0.100558 -0.006131 0.004814 0.000000 0.000000 0.000000
# 2 -0.006131 0.007772 -0.005994 0.000000 0.000000 0.000000
# 3 0.004814 -0.005994 0.018047 0.000000 0.000000 0.000000
# 4 0.000000 0.000000 0.000000 0.101011 0.000000 0.000000
# 5 0.000000 0.000000 0.000000 0.000000 0.141312 0.000000
# 6 0.000000 0.000000 0.000000 0.000000 0.000000 0.059097
#
#
# Mechanical properties :
#
#
# Convention : Reuss Voigt Hill
#
# Bulk Modulus (GPa) = 8.94808 43.92983 26.43895
# Shear Modulus (GPa) = 10.42384 20.03397 15.22891
#
# Velocity S-wave (km/s) = 2.27180 3.14948 2.74594
# Velocity P-wave (km/s) = 3.36330 5.91407 4.81083
#
# Compressibility (1/GPa) = 0.11175585
#
# Stress axis : x y z
#
# Youngs Moduli (GPa) = 9.94450 128.67394 55.40971
#
# Poissons Ratio (x) = 0.78884 -0.26672
# Poissons Ratio (y) = 0.06097 0.33210
# Poissons Ratio (z) = -0.04787 0.77122
#
# Static dielectric constant tensor:
#      x y z
#    x 1.693270 0.000000 0.000000 
#    y 0.000000 1.762400 0.000000 
#    z 0.000000 0.000000 1.719630 
# 
# From -- ./inp_files/26491.got.cif
#   From: 2010.05.17/outbox.cif.g08.bks.cpg/sg47_14_cif.got.tgz:26491.got - 2010.06.03 20:15:42.
