data_PCOD9384370
_publ_section_title
;
Structure prediction by ZEFSAII (Michael W. Deem and Ramdas Pophale) SiO2 
 PCOD9384370
Probable space group: P M M M
;
_chemical_formula_sum "Si O2"
_cell_formula_units_Z 36
_cell_length_a 11.953427
_cell_length_b 8.867047
_cell_length_c 21.450130
_cell_angle_alpha 90.000000
_cell_angle_beta 90.000000
_cell_angle_gamma 90.000000
_cell_volume 2273.533578
_symmetry_space_group_name_H-M "P M M M"
_symmetry_group_IT_number 47
_symmetry_cell_setting 'orthorhombic'
loop_
_space_group_symop_operation_xyz
x,y,z
-x,-y,z
x,-y,-z
-x,y,-z
-x,-y,-z
x,y,-z
-x,y,z
x,-y,z
loop_
_atom_site_type_symbol
_atom_site_label
_atom_site_fract_x
_atom_site_fract_y
_atom_site_fract_z
Si Si1 0.368458 0.320384 0.734662
Si Si2 0.629557 0.815877 0.000000
Si Si3 0.000000 0.816748 0.572288
Si Si4 0.367008 0.320889 0.500000
Si Si5 0.242441 0.181261 0.381627
Si Si6 0.363917 0.175076 0.864609
O O1 0.500000 0.277581 0.726606
O O2 0.361133 0.500000 0.728417
O O3 0.294433 0.241841 0.682185
O O4 0.333196 0.269950 0.804046
O O5 0.678004 0.771064 0.067306
O O6 0.500000 0.765681 0.000000
O O7 0.628540 0.000000 0.000000
O O8 0.886084 0.771028 0.606481
O O9 0.000000 0.765547 0.500000
O O10 0.000000 0.000000 0.570471
O O11 0.345166 0.500000 0.500000
O O12 0.500000 0.298138 0.500000
O O13 0.313423 0.246600 0.439033
O O14 0.247500 0.000000 0.382719
O O15 0.500000 0.177660 0.868243
O O16 0.331668 0.000000 0.855748
#
# Coordination Sequence:
#
# PCOD9384370 Si02
#       6
#     8   4   4   4   8   8
#     4  10  20  32  44  64  98 131 156 190 233 271
#     4   7  10  18  35  59  85 114 153 198 229 255
#     4   9  18  36  56  74  92 109 140 195 246 274
#     4  11  23  36  49  70 100 125 146 181 226 269
#     4  11  21  35  55  72  89 117 154 191 230 279
#     4   8  13  23  40  61  86 120 160 194 226 268
#
# _framework density 15.834382
#
# number of rings (size 3 to 8) (size 9 to 14) (size 15 to 20)
#    0.000    2.556    1.111    3.667    0.000    4.889 
#    0.000    3.333    0.000    3.333    0.000    0.000 
#    0.000    0.889    0.000   10.222    0.000    7.111 
#
# Total GULP energy -200564.268543 kJ/mol
# GULP energy per Si atom -5571.229682 kJ/mol
# Density = 1.579834 g / cm^3
# Si number density = 15.834382 Si / 1000 Ang^3
#
#
#
# Elastic Constant Matrix: (Units=GPa)
#
#
# Indices 1 2 3 4 5 6 
#
# 1 72.9278 39.5505 65.7169 0.0000 0.0000 0.0000
# 2 39.5505 45.5313 48.0363 0.0000 0.0000 0.0000
# 3 65.7169 48.0363 165.0344 0.0000 0.0000 0.0000
# 4 0.0000 0.0000 0.0000 -6.1227 0.0000 0.0000
# 5 0.0000 0.0000 0.0000 0.0000 -2.1783 0.0000
# 6 0.0000 0.0000 0.0000 0.0000 0.0000 4.5121
#
#
#
# Elastic Compliance Matrix: (Units=1/GPa)
#
#
# Indices 1 2 3 4 5 6 
#
# 1 0.029816 -0.019300 -0.006255 0.000000 0.000000 0.000000
# 2 -0.019300 0.044190 -0.005177 0.000000 0.000000 0.000000
# 3 -0.006255 -0.005177 0.010057 0.000000 0.000000 0.000000
# 4 0.000000 0.000000 0.000000 -0.163326 0.000000 0.000000
# 5 0.000000 0.000000 0.000000 0.000000 -0.459075 0.000000
# 6 0.000000 0.000000 0.000000 0.000000 0.000000 0.221627
#
#
# Mechanical properties :
#
#
# Convention : Reuss Voigt Hill
#
# Bulk Modulus (GPa) = 44.25127 65.56678 54.90903
# Shear Modulus (GPa) = -20.18445 7.92152 -6.13147
#
# Velocity S-wave (km/s) = -3.57420 2.23911 -1.96994
# Velocity P-wave (km/s) = 3.31267 6.94136 5.43858
#
# Compressibility (1/GPa) = 0.02259822
#
# Stress axis : x y z
#
# Youngs Moduli (GPa) = 33.53949 22.62981 99.43411
#
# Poissons Ratio (x) = 0.43676 0.62196
# Poissons Ratio (y) = 0.64731 0.51476
# Poissons Ratio (z) = 0.20979 0.11715
#
# Static dielectric constant tensor:
#      x y z
#    x 1.507150 0.000000 0.000000 
#    y 0.000000 1.528910 0.000000 
#    z 0.000000 0.000000 1.548290 
# 
# From -- ./inp_files/30300.got.cif
#   From: 2010.05.17/outbox.cif.g08.bks.cpg/sg47_16_cif.got.tgz:30300.got - 2010.06.03 20:15:42.
