data_PCOD9384810
_publ_section_title
;
Structure prediction by ZEFSAII (Michael W. Deem and Ramdas Pophale) SiO2 
 PCOD9384810
Probable space group: P M M M
;
_chemical_formula_sum "Si O2"
_cell_formula_units_Z 36
_cell_length_a 7.545641
_cell_length_b 8.497392
_cell_length_c 24.864387
_cell_angle_alpha 90.000000
_cell_angle_beta 90.000000
_cell_angle_gamma 90.000000
_cell_volume 1594.261466
_symmetry_space_group_name_H-M "P M M M"
_symmetry_group_IT_number 47
_symmetry_cell_setting 'orthorhombic'
loop_
_space_group_symop_operation_xyz
x,y,z
-x,-y,z
x,-y,-z
-x,y,-z
-x,-y,-z
x,y,-z
-x,y,z
x,-y,z
loop_
_atom_site_type_symbol
_atom_site_label
_atom_site_fract_x
_atom_site_fract_y
_atom_site_fract_z
Si Si1 0.215753 0.684413 0.558713
Si Si2 0.785234 0.500000 0.063214
Si Si3 0.204914 0.172521 0.112277
Si Si4 0.785959 0.823383 0.328891
Si Si5 0.708690 0.325398 0.782910
O O1 0.274256 0.744878 0.500000
O O2 0.261800 0.500000 0.561989
O O3 0.278308 0.769176 0.612503
O O4 0.000000 0.693104 0.558809
O O5 0.718112 0.665054 0.088167
O O6 0.000000 0.500000 0.071255
O O7 0.749610 0.500000 0.000000
O O8 0.208947 0.200202 0.176503
O O9 0.000000 0.167577 0.094452
O O10 0.282737 0.000000 0.099481
O O11 0.734590 0.713905 0.279431
O O12 0.000000 0.823159 0.330976
O O13 0.724924 0.000000 0.317468
O O14 0.500000 0.324953 0.793676
O O15 0.780666 0.500000 0.794452
#
# Coordination Sequence:
#
# PCOD9384810 Si02
#       5
#     8   4   8   8   8
#     4   8  14  26  45  69  97 130 168 210 258 313
#     4   9  18  34  57  87 121 151 180 221 268 311
#     4  10  20  35  58  86 114 147 185 223 268 321
#     4  10  20  32  49  76 106 136 172 215 267 325
#     4  11  23  37  54  76 104 141 183 226 274 324
#
# _framework density 22.58099
#
# number of rings (size 3 to 8) (size 9 to 14) (size 15 to 20)
#    0.000    2.333    1.111    2.667    0.000    6.667 
#    0.000    4.444    0.000    2.000    0.000    6.222 
#    0.000    0.000    0.000    0.000    0.000    0.000 
#
# Total GULP energy -200995.065382 kJ/mol
# GULP energy per Si atom -5583.196261 kJ/mol
# Density = 2.252959 g / cm^3
# Si number density = 22.580990 Si / 1000 Ang^3
#
#
#
# Elastic Constant Matrix: (Units=GPa)
#
#
# Indices 1 2 3 4 5 6 
#
# 1 60.0529 9.8173 -1.7122 0.0000 0.0000 0.0000
# 2 9.8173 162.1222 55.7381 0.0000 0.0000 0.0000
# 3 -1.7122 55.7381 106.3659 0.0000 0.0000 0.0000
# 4 0.0000 0.0000 0.0000 8.8313 0.0000 0.0000
# 5 0.0000 0.0000 0.0000 0.0000 -66.7072 0.0000
# 6 0.0000 0.0000 0.0000 0.0000 0.0000 -5.1685
#
#
#
# Elastic Compliance Matrix: (Units=1/GPa)
#
#
# Indices 1 2 3 4 5 6 
#
# 1 0.016903 -0.001363 0.000986 0.000000 0.000000 0.000000
# 2 -0.001363 0.007633 -0.004022 0.000000 0.000000 0.000000
# 3 0.000986 -0.004022 0.011525 0.000000 0.000000 0.000000
# 4 0.000000 0.000000 0.000000 0.113233 0.000000 0.000000
# 5 0.000000 0.000000 0.000000 0.000000 -0.014991 0.000000
# 6 0.000000 0.000000 0.000000 0.000000 0.000000 -0.193478
#
#
# Mechanical properties :
#
#
# Convention : Reuss Voigt Hill
#
# Bulk Modulus (GPa) = 36.67795 50.69193 43.68494
# Shear Modulus (GPa) = -121.09582 5.03764 -58.02909
#
# Velocity S-wave (km/s) = -7.33101 1.49525 -5.07484
# Velocity P-wave (km/s) = 7.44179 5.04764 3.86662
#
# Compressibility (1/GPa) = 0.02726433
#
# Stress axis : x y z
#
# Youngs Moduli (GPa) = 59.16160 131.00168 86.76770
#
# Poissons Ratio (x) = 0.17850 -0.08556
# Poissons Ratio (y) = 0.08061 0.34898
# Poissons Ratio (z) = -0.05834 0.52690
#
# Static dielectric constant tensor:
#      x y z
#    x 1.855010 0.000000 0.000000 
#    y 0.000000 1.838200 0.000000 
#    z 0.000000 0.000000 1.808230 
# 
# From -- ./inp_files/31654.got.cif
#   From: 2010.05.17/outbox.cif.g08.bks.cpg/sg47_16_cif.got.tgz:31654.got - 2010.06.03 20:15:42.
