data_PCOD9384642
_publ_section_title
;
Structure prediction by ZEFSAII (Michael W. Deem and Ramdas Pophale) SiO2 
 PCOD9384642
Probable space group: P M M M
;
_chemical_formula_sum "Si O2"
_cell_formula_units_Z 52
_cell_length_a 7.617784
_cell_length_b 37.011045
_cell_length_c 8.401126
_cell_angle_alpha 90.000000
_cell_angle_beta 90.000000
_cell_angle_gamma 90.000000
_cell_volume 2368.631497
_symmetry_space_group_name_H-M "P M M M"
_symmetry_group_IT_number 47
_symmetry_cell_setting 'orthorhombic'
loop_
_space_group_symop_operation_xyz
x,y,z
-x,-y,z
x,-y,-z
-x,y,-z
-x,-y,-z
x,y,-z
-x,y,z
x,-y,z
loop_
_atom_site_type_symbol
_atom_site_label
_atom_site_fract_x
_atom_site_fract_y
_atom_site_fract_z
Si Si1 0.204317 0.690203 0.688987
Si Si2 0.204269 0.234607 0.808430
Si Si3 0.285880 0.042212 0.000000
Si Si4 0.290621 0.539020 0.318723
Si Si5 0.213102 0.844385 0.814885
Si Si6 0.293049 0.079737 0.676038
Si Si7 0.198233 0.383920 0.188267
O O1 0.201250 0.691494 0.500000
O O2 0.284078 0.727717 0.750749
O O3 0.286089 0.651959 0.740447
O O4 0.000000 0.689840 0.749898
O O5 0.276517 0.195346 0.761289
O O6 0.000000 0.234855 0.753819
O O7 0.204878 0.234692 0.000000
O O8 0.221315 0.060508 0.164302
O O9 0.500000 0.045833 0.000000
O O10 0.243553 0.000000 0.000000
O O11 0.223603 0.542768 0.500000
O O12 0.500000 0.536305 0.327856
O O13 0.226089 0.500000 0.254331
O O14 0.259860 0.575872 0.226246
O O15 0.273382 0.877611 0.709001
O O16 0.000000 0.843597 0.814097
O O17 0.267101 0.850258 0.000000
O O18 0.220298 0.070711 0.500000
O O19 0.500000 0.070902 0.671052
O O20 0.000000 0.383688 0.252911
O O21 0.198673 0.379116 0.000000
#
# Coordination Sequence:
#
# PCOD9384642 Si02
#       7
#     8   8   4   8   8   8   8
#     4   9  16  26  42  65  94 127 162 200 242 286
#     4   8  14  25  42  66  96 128 163 204 246 288
#     4   9  18  34  55  77 103 135 171 215 263 309
#     4   9  19  36  55  73  94 122 156 193 236 288
#     4   9  17  30  50  75 103 137 174 210 252 302
#     4  10  20  33  52  78 105 135 171 211 259 312
#     4  10  20  32  48  72 100 128 158 195 239 285
#
# _framework density 21.953603999999999
#
# number of rings (size 3 to 8) (size 9 to 14) (size 15 to 20)
#    0.000    2.846    0.769    2.308    0.000    4.923 
#    0.000    5.385    0.000    1.846    0.000    5.385 
#    0.000    0.000    0.000    0.000    0.000    0.000 
#
# Total GULP energy -289816.230060 kJ/mol
# GULP energy per Si atom -5573.389040 kJ/mol
# Density = 2.190364 g / cm^3
# Si number density = 21.953604 Si / 1000 Ang^3
#
#
#
# Elastic Constant Matrix: (Units=GPa)
#
#
# Indices 1 2 3 4 5 6 
#
# 1 41.3217 2.3549 5.5705 0.0000 0.0000 0.0000
# 2 2.3549 176.6773 75.3804 0.0000 0.0000 0.0000
# 3 5.5705 75.3804 90.0504 0.0000 0.0000 0.0000
# 4 0.0000 0.0000 0.0000 -14.4986 0.0000 0.0000
# 5 0.0000 0.0000 0.0000 0.0000 8.9112 0.0000
# 6 0.0000 0.0000 0.0000 0.0000 0.0000 14.7455
#
#
#
# Elastic Compliance Matrix: (Units=1/GPa)
#
#
# Indices 1 2 3 4 5 6 
#
# 1 0.024432 0.000497 -0.001927 0.000000 0.000000 0.000000
# 2 0.000497 0.008815 -0.007409 0.000000 0.000000 0.000000
# 3 -0.001927 -0.007409 0.017426 0.000000 0.000000 0.000000
# 4 0.000000 0.000000 0.000000 -0.068972 0.000000 0.000000
# 5 0.000000 0.000000 0.000000 0.000000 0.112218 0.000000
# 6 0.000000 0.000000 0.000000 0.000000 0.000000 0.067818
#
#
# Mechanical properties :
#
#
# Convention : Reuss Voigt Hill
#
# Bulk Modulus (GPa) = 30.30928 52.74012 41.52470
# Shear Modulus (GPa) = 26.25862 16.81452 21.53657
#
# Velocity S-wave (km/s) = 3.46221 2.77051 3.13550
# Velocity P-wave (km/s) = 5.46064 5.85747 5.66253
#
# Compressibility (1/GPa) = 0.03299319
#
# Stress axis : x y z
#
# Youngs Moduli (GPa) = 40.93025 113.44693 57.38399
#
# Poissons Ratio (x) = -0.05633 0.11058
# Poissons Ratio (y) = -0.02032 0.42518
# Poissons Ratio (z) = 0.07887 0.84058
#
# Static dielectric constant tensor:
#      x y z
#    x 1.818260 0.000000 0.000000 
#    y 0.000000 1.852910 0.000000 
#    z 0.000000 0.000000 1.773800 
# 
# From -- ./inp_files/4801.got.cif
#   From: 2010.05.17/outbox.cif.g08.bks.cpg/sg47_3_cif.got.tgz:4801.got - 2010.06.03 20:15:42.
