data_PCOD9384509
_publ_section_title
;
Structure prediction by ZEFSAII (Michael W. Deem and Ramdas Pophale) SiO2 
 PCOD9384509
Probable space group: P M M M
;
_chemical_formula_sum "Si O2"
_cell_formula_units_Z 44
_cell_length_a 9.712996
_cell_length_b 7.634798
_cell_length_c 29.532557
_cell_angle_alpha 90.000000
_cell_angle_beta 90.000000
_cell_angle_gamma 90.000000
_cell_volume 2190.038814
_symmetry_space_group_name_H-M "P M M M"
_symmetry_group_IT_number 47
_symmetry_cell_setting 'orthorhombic'
loop_
_space_group_symop_operation_xyz
x,y,z
-x,-y,z
x,-y,-z
-x,y,-z
-x,-y,-z
x,y,-z
-x,y,z
x,-y,z
loop_
_atom_site_type_symbol
_atom_site_label
_atom_site_fract_x
_atom_site_fract_y
_atom_site_fract_z
Si Si1 0.154467 0.207151 0.267795
Si Si2 0.841955 0.214644 0.000000
Si Si3 0.342847 0.705905 0.648053
Si Si4 0.660792 0.789179 0.451322
Si Si5 0.341985 0.786439 0.916020
Si Si6 0.341984 0.785870 0.186403
O O1 0.243928 0.225005 0.313132
O O2 0.239850 0.279123 0.225117
O O3 0.000000 0.279482 0.272290
O O4 0.141868 0.000000 0.259442
O O5 0.760381 0.272093 0.044812
O O6 0.000000 0.270497 0.000000
O O7 0.840884 0.000000 0.000000
O O8 0.500000 0.780084 0.650208
O O9 0.353718 0.500000 0.655294
O O10 0.284179 0.733491 0.597372
O O11 0.719977 0.729602 0.500000
O O12 0.500000 0.733267 0.451033
O O13 0.663121 0.000000 0.451656
O O14 0.500000 0.733573 0.925148
O O15 0.305553 0.732189 0.864834
O O16 0.340869 0.000000 0.916311
O O17 0.500000 0.733191 0.195643
O O18 0.341212 0.000000 0.186899
#
# Coordination Sequence:
#
# PCOD9384509 Si02
#       6
#     8   4   8   8   8   8
#     4  10  20  32  47  67  90 119 155 194 237 283
#     4   9  15  19  25  41  67 101 138 175 216 263
#     4  10  20  32  48  71  97 126 158 191 230 276
#     4   8  14  26  46  72  99 125 154 190 231 272
#     4   8  13  21  32  46  67  98 136 176 219 268
#     4   8  14  25  41  59  78 104 142 188 233 275
#
# _framework density 20.090969999999999
#
# number of rings (size 3 to 8) (size 9 to 14) (size 15 to 20)
#    0.000    3.182    0.000    3.000    0.000    4.364 
#    0.000    5.455    0.000    0.545    0.000    3.818 
#    0.000    0.000    0.000    0.818    0.000   16.727 
#
# Total GULP energy -245227.665490 kJ/mol
# GULP energy per Si atom -5573.356034 kJ/mol
# Density = 2.004524 g / cm^3
# Si number density = 20.090970 Si / 1000 Ang^3
#
#
#
# Elastic Constant Matrix: (Units=GPa)
#
#
# Indices 1 2 3 4 5 6 
#
# 1 119.7965 5.1086 123.8236 0.0000 0.0000 0.0000
# 2 5.1086 36.5398 -0.0069 0.0000 0.0000 0.0000
# 3 123.8236 -0.0069 203.1155 0.0000 0.0000 0.0000
# 4 0.0000 0.0000 0.0000 -40.1560 0.0000 0.0000
# 5 0.0000 0.0000 0.0000 0.0000 -6.2537 0.0000
# 6 0.0000 0.0000 0.0000 0.0000 0.0000 0.6587
#
#
#
# Elastic Compliance Matrix: (Units=1/GPa)
#
#
# Indices 1 2 3 4 5 6 
#
# 1 0.022938 -0.003210 -0.013984 0.000000 0.000000 0.000000
# 2 -0.003210 0.027816 0.001958 0.000000 0.000000 0.000000
# 3 -0.013984 0.001958 0.013448 0.000000 0.000000 0.000000
# 4 0.000000 0.000000 0.000000 -0.024903 0.000000 0.000000
# 5 0.000000 0.000000 0.000000 0.000000 -0.159906 0.000000
# 6 0.000000 0.000000 0.000000 0.000000 0.000000 1.518106
#
#
# Mechanical properties :
#
#
# Convention : Reuss Voigt Hill
#
# Bulk Modulus (GPa) = 29.64601 68.58917 49.11759
# Shear Modulus (GPa) = 3.47412 6.21824 4.84618
#
# Velocity S-wave (km/s) = 1.31641 1.76118 1.55478
# Velocity P-wave (km/s) = 4.13504 6.19266 5.26534
#
# Compressibility (1/GPa) = 0.03373135
#
# Stress axis : x y z
#
# Youngs Moduli (GPa) = 43.59552 35.94989 74.35974
#
# Poissons Ratio (x) = 0.11538 1.03982
# Poissons Ratio (y) = 0.13992 -0.14557
# Poissons Ratio (z) = 0.60963 -0.07037
#
# Static dielectric constant tensor:
#      x y z
#    x 1.689940 0.000000 0.000000 
#    y 0.000000 1.751750 0.000000 
#    z 0.000000 0.000000 1.719360 
# 
# From -- ./inp_files/13676.got.cif
#   From: 2010.05.17/outbox.cif.g08.bks.cpg/sg47_7_cif.got.tgz:13676.got - 2010.06.03 20:15:42.
