data_PCOD9384510
_publ_section_title
;
Structure prediction by ZEFSAII (Michael W. Deem and Ramdas Pophale) SiO2 
 PCOD9384510
Probable space group: P M M M
;
_chemical_formula_sum "Si O2"
_cell_formula_units_Z 64
_cell_length_a 7.638898
_cell_length_b 18.177367
_cell_length_c 21.642498
_cell_angle_alpha 90.000000
_cell_angle_beta 90.000000
_cell_angle_gamma 90.000000
_cell_volume 3005.170194
_symmetry_space_group_name_H-M "P M M M"
_symmetry_group_IT_number 47
_symmetry_cell_setting 'orthorhombic'
loop_
_space_group_symop_operation_xyz
x,y,z
-x,-y,z
x,-y,-z
-x,y,-z
-x,-y,-z
x,y,-z
-x,y,z
x,-y,z
loop_
_atom_site_type_symbol
_atom_site_label
_atom_site_fract_x
_atom_site_fract_y
_atom_site_fract_z
Si Si1 0.797733 0.721489 0.931321
Si Si2 0.796665 0.420397 0.589066
Si Si3 0.699468 0.115674 0.930103
Si Si4 0.711029 0.578050 0.142584
Si Si5 0.788685 0.745038 0.432647
Si Si6 0.287494 0.377804 0.276732
Si Si7 0.291617 0.211825 0.703768
Si Si8 0.285777 0.918428 0.206041
O O1 0.695091 0.796235 0.919874
O O2 0.772040 0.652824 0.887881
O O3 0.000000 0.744166 0.929931
O O4 0.751433 0.695734 0.000000
O O5 0.720717 0.500000 0.570166
O O6 0.722829 0.340222 0.570463
O O7 0.786595 0.415708 0.662931
O O8 0.000000 0.420565 0.570017
O O9 0.500000 0.088117 0.932896
O O10 0.777584 0.087704 0.865365
O O11 0.774700 0.103006 0.000000
O O12 0.500000 0.578901 0.139369
O O13 0.772376 0.500000 0.115594
O O14 0.761601 0.582977 0.213969
O O15 0.735597 0.775252 0.500000
O O16 0.738192 0.788600 0.370456
O O17 0.000000 0.741428 0.431272
O O18 0.500000 0.378755 0.281872
O O19 0.227950 0.292587 0.275467
O O20 0.500000 0.211902 0.712504
O O21 0.224242 0.145993 0.747451
O O22 0.500000 0.913499 0.203247
O O23 0.241449 0.000000 0.229326
#
# Coordination Sequence:
#
# PCOD9384510 Si02
#       8
#     8   8   8   8   8   8   8   8
#     4  10  21  35  49  65  88 121 160 201 244 289
#     4   9  17  28  43  66  95 124 155 193 237 284
#     4   9  17  31  53  78 103 132 164 196 231 280
#     4  10  20  32  47  67  90 119 158 204 251 296
#     4   9  18  32  49  69  94 126 164 205 247 289
#     4   9  17  30  47  66  90 121 156 191 231 281
#     4   9  17  30  50  73  97 127 160 196 237 284
#     4   9  17  30  51  80 109 132 157 194 240 287
#
# _framework density 21.296631999999999
#
# number of rings (size 3 to 8) (size 9 to 14) (size 15 to 20)
#    0.000    2.750    0.000    1.500    0.000    5.250 
#    0.000    6.875    0.000    1.875    0.000    7.875 
#    0.000    0.000    0.000    0.000    0.000    0.000 
#
# Total GULP energy -356785.616063 kJ/mol
# GULP energy per Si atom -5574.775251 kJ/mol
# Density = 2.124816 g / cm^3
# Si number density = 21.296632 Si / 1000 Ang^3
#
#
#
# Elastic Constant Matrix: (Units=GPa)
#
#
# Indices 1 2 3 4 5 6 
#
# 1 37.9467 10.5866 3.8744 0.0000 0.0000 0.0000
# 2 10.5866 119.6170 72.8062 0.0000 0.0000 0.0000
# 3 3.8744 72.8062 113.7438 0.0000 0.0000 0.0000
# 4 0.0000 0.0000 0.0000 -36.0354 0.0000 0.0000
# 5 0.0000 0.0000 0.0000 0.0000 5.9844 0.0000
# 6 0.0000 0.0000 0.0000 0.0000 0.0000 -2.6915
#
#
#
# Elastic Compliance Matrix: (Units=1/GPa)
#
#
# Indices 1 2 3 4 5 6 
#
# 1 0.027090 -0.003008 0.001002 0.000000 0.000000 0.000000
# 2 -0.003008 0.014030 -0.008878 0.000000 0.000000 0.000000
# 3 0.001002 -0.008878 0.014440 0.000000 0.000000 0.000000
# 4 0.000000 0.000000 0.000000 -0.027750 0.000000 0.000000
# 5 0.000000 0.000000 0.000000 0.000000 0.167100 0.000000
# 6 0.000000 0.000000 0.000000 0.000000 0.000000 -0.371535
#
#
# Mechanical properties :
#
#
# Convention : Reuss Voigt Hill
#
# Bulk Modulus (GPa) = 29.59167 49.53798 39.56482
# Shear Modulus (GPa) = -34.82016 5.72086 -14.54965
#
# Velocity S-wave (km/s) = -4.04791 1.64076 -2.61663
# Velocity P-wave (km/s) = 2.81465 5.18661 3.08047
#
# Compressibility (1/GPa) = 0.03379329
#
# Stress axis : x y z
#
# Youngs Moduli (GPa) = 36.91465 71.27667 69.25116
#
# Poissons Ratio (x) = 0.21438 -0.06942
# Poissons Ratio (y) = 0.11103 0.61480
# Poissons Ratio (z) = -0.03701 0.63279
#
# Static dielectric constant tensor:
#      x y z
#    x 1.821820 0.000000 0.000000 
#    y 0.000000 1.779000 0.000000 
#    z 0.000000 0.000000 1.783770 
# 
# From -- ./inp_files/11589.got.cif
#   From: 2010.05.17/outbox.cif.g08.bks.cpg/sg47_6_cif.got.tgz:11589.got - 2010.06.03 20:15:42.
