data_PCOD9384538
_publ_section_title
;
Structure prediction by ZEFSAII (Michael W. Deem and Ramdas Pophale) SiO2 
 PCOD9384538
Probable space group: P M M M
;
_chemical_formula_sum "Si O2"
_cell_formula_units_Z 48
_cell_length_a 14.889762
_cell_length_b 18.381941
_cell_length_c 9.003013
_cell_angle_alpha 90.000000
_cell_angle_beta 90.000000
_cell_angle_gamma 90.000000
_cell_volume 2464.149206
_symmetry_space_group_name_H-M "P M M M"
_symmetry_group_IT_number 47
_symmetry_cell_setting 'orthorhombic'
loop_
_space_group_symop_operation_xyz
x,y,z
-x,-y,z
x,-y,-z
-x,y,-z
-x,-y,-z
x,y,-z
-x,y,z
x,-y,z
loop_
_atom_site_type_symbol
_atom_site_label
_atom_site_fract_x
_atom_site_fract_y
_atom_site_fract_z
Si Si1 0.786376 0.417958 0.176645
Si Si2 0.293207 0.919461 0.178809
Si Si3 0.353699 0.220501 0.332295
Si Si4 0.598392 0.621642 0.679902
Si Si5 0.852146 0.722716 0.331061
Si Si6 0.903541 0.867974 0.821246
O O1 0.819173 0.500000 0.203640
O O2 0.685100 0.412058 0.242101
O O3 0.845625 0.355635 0.253990
O O4 0.783178 0.404942 0.000000
O O5 0.352135 0.853101 0.239445
O O6 0.188919 0.906554 0.227167
O O7 0.321776 0.000000 0.226827
O O8 0.294358 0.916937 0.000000
O O9 0.383636 0.205112 0.500000
O O10 0.402682 0.292816 0.277007
O O11 0.250637 0.248466 0.337105
O O12 0.610919 0.618389 0.500000
O O13 0.500000 0.590205 0.714015
O O14 0.885388 0.717935 0.500000
O O15 0.900142 0.785460 0.238048
O O16 0.000000 0.900575 0.775200
O O17 0.901199 0.867596 0.000000
#
# Coordination Sequence:
#
# PCOD9384538 Si02
#       6
#     8   8   8   8   8   8
#     4  10  20  32  47  69  96 123 151 185 225 270
#     4   9  17  28  43  65  92 121 153 188 225 267
#     4   8  15  28  45  64  85 113 151 190 225 264
#     4   9  18  32  49  69  93 121 153 189 228 270
#     4   9  17  30  48  67  88 118 156 193 225 263
#     4   9  17  29  46  68  94 123 152 185 228 274
#
# _framework density 19.479341999999999
#
# number of rings (size 3 to 8) (size 9 to 14) (size 15 to 20)
#    0.000    3.000    0.000    2.000    0.000    7.000 
#    0.000    3.333    0.000    1.000    0.000   11.667 
#    0.000    0.000    0.000    0.000    0.000    0.000 
#
# Total GULP energy -267381.507596 kJ/mol
# GULP energy per Si atom -5570.448075 kJ/mol
# Density = 1.943501 g / cm^3
# Si number density = 19.479342 Si / 1000 Ang^3
#
#
#
# Elastic Constant Matrix: (Units=GPa)
#
#
# Indices 1 2 3 4 5 6 
#
# 1 21.4593 -14.6795 -10.8911 0.0000 0.0000 0.0000
# 2 -14.6795 110.1961 24.9149 0.0000 0.0000 0.0000
# 3 -10.8911 24.9149 19.7879 0.0000 0.0000 0.0000
# 4 0.0000 0.0000 0.0000 6.3015 0.0000 0.0000
# 5 0.0000 0.0000 0.0000 0.0000 8.4130 0.0000
# 6 0.0000 0.0000 0.0000 0.0000 0.0000 5.7527
#
#
#
# Elastic Compliance Matrix: (Units=1/GPa)
#
#
# Indices 1 2 3 4 5 6 
#
# 1 0.064712 0.000794 0.034618 0.000000 0.000000 0.000000
# 2 0.000794 0.012696 -0.015549 0.000000 0.000000 0.000000
# 3 0.034618 -0.015549 0.089167 0.000000 0.000000 0.000000
# 4 0.000000 0.000000 0.000000 0.158692 0.000000 0.000000
# 5 0.000000 0.000000 0.000000 0.000000 0.118864 0.000000
# 6 0.000000 0.000000 0.000000 0.000000 0.000000 0.173831
#
#
# Mechanical properties :
#
#
# Convention : Reuss Voigt Hill
#
# Bulk Modulus (GPa) = 4.84731 16.68132 10.76431
# Shear Modulus (GPa) = 7.72794 14.23337 10.98066
#
# Velocity S-wave (km/s) = 1.99396 2.70606 2.37683
# Velocity P-wave (km/s) = 2.79195 4.28321 3.61531
#
# Compressibility (1/GPa) = 0.20630020
#
# Stress axis : x y z
#
# Youngs Moduli (GPa) = 15.45304 78.76535 11.21496
#
# Poissons Ratio (x) = -0.06250 -0.38824
# Poissons Ratio (y) = -0.01226 0.17438
# Poissons Ratio (z) = -0.53495 1.22470
#
# Static dielectric constant tensor:
#      x y z
#    x 1.725590 0.000000 0.000000 
#    y 0.000000 1.690190 0.000000 
#    z 0.000000 0.000000 1.663310 
# 
# From -- ./inp_files/6384.got.cif
#   From: 2010.05.17/outbox.cif.g08.bks.cpg/sg47_4_cif.got.tgz:6384.got - 2010.06.03 20:15:42.
