data_PCOD9384933
_publ_section_title
;
Structure prediction by ZEFSAII (Michael W. Deem and Ramdas Pophale) SiO2 
 PCOD9384933
Probable space group: P M M M
;
_chemical_formula_sum "Si O2"
_cell_formula_units_Z 32
_cell_length_a 25.573190
_cell_length_b 7.684535
_cell_length_c 7.758557
_cell_angle_alpha 90.000000
_cell_angle_beta 90.000000
_cell_angle_gamma 90.000000
_cell_volume 1524.696676
_symmetry_space_group_name_H-M "P M M M"
_symmetry_group_IT_number 47
_symmetry_cell_setting 'orthorhombic'
loop_
_space_group_symop_operation_xyz
x,y,z
-x,-y,z
x,-y,-z
-x,y,-z
-x,-y,-z
x,y,-z
-x,y,z
x,-y,z
loop_
_atom_site_type_symbol
_atom_site_label
_atom_site_fract_x
_atom_site_fract_y
_atom_site_fract_z
Si Si1 0.861568 0.000000 0.302341
Si Si2 0.443890 0.711526 0.203707
Si Si3 0.058850 0.698909 0.208200
Si Si4 0.744010 0.000000 0.798926
Si Si5 0.670369 0.699801 0.211851
O O1 0.897415 0.166870 0.264266
O O2 0.847202 0.000000 0.500000
O O3 0.806224 0.000000 0.208920
O O4 0.500000 0.770055 0.277434
O O5 0.443191 0.500000 0.214400
O O6 0.387064 0.766122 0.269902
O O7 0.444793 0.755550 0.000000
O O8 0.068537 0.500000 0.264129
O O9 0.000000 0.748977 0.265440
O O10 0.058229 0.699640 0.000000
O O11 0.716106 0.172699 0.728219
O O12 0.729881 0.000000 0.000000
O O13 0.677813 0.500000 0.266908
O O14 0.669052 0.695372 0.000000
#
# Coordination Sequence:
#
# PCOD9384933 Si02
#       5
#     4   8   8   4   8
#     4  12  25  37  52  78 113 149 181 218 263 308
#     4   7   9  15  30  53  82 114 143 178 239 314
#     4   9  19  38  64  90 113 139 173 212 255 307
#     4  10  20  33  48  66  90 127 177 220 249 290
#     4   8  14  25  41  61  86 118 157 202 251 302
#
# _framework density 20.987783
#
# number of rings (size 3 to 8) (size 9 to 14) (size 15 to 20)
#    0.000    3.250    0.000    4.500    0.000    3.500 
#    0.000    4.375    0.000    3.750    0.000    0.000 
#    0.000    2.000    0.000    6.250    0.000    5.000 
#
# Total GULP energy -178349.546972 kJ/mol
# GULP energy per Si atom -5573.423343 kJ/mol
# Density = 2.094001 g / cm^3
# Si number density = 20.987783 Si / 1000 Ang^3
#
#
#
# Elastic Constant Matrix: (Units=GPa)
#
#
# Indices 1 2 3 4 5 6 
#
# 1 152.0936 81.1416 -14.9548 0.0000 0.0000 0.0000
# 2 81.1416 98.6279 0.0285 0.0000 0.0000 0.0000
# 3 -14.9548 0.0285 23.4622 0.0000 0.0000 0.0000
# 4 0.0000 0.0000 0.0000 34.1941 0.0000 0.0000
# 5 0.0000 0.0000 0.0000 0.0000 -37.3266 0.0000
# 6 0.0000 0.0000 0.0000 0.0000 0.0000 -45.6342
#
#
#
# Elastic Compliance Matrix: (Units=1/GPa)
#
#
# Indices 1 2 3 4 5 6 
#
# 1 0.013197 -0.010860 0.008425 0.000000 0.000000 0.000000
# 2 -0.010860 0.019075 -0.006945 0.000000 0.000000 0.000000
# 3 0.008425 -0.006945 0.048000 0.000000 0.000000 0.000000
# 4 0.000000 0.000000 0.000000 0.029245 0.000000 0.000000
# 5 0.000000 0.000000 0.000000 0.000000 -0.026791 0.000000
# 6 0.000000 0.000000 0.000000 0.000000 0.000000 -0.021913
#
#
# Mechanical properties :
#
#
# Convention : Reuss Voigt Hill
#
# Bulk Modulus (GPa) = 16.25675 45.17936 30.71805
# Shear Modulus (GPa) = 49.96163 4.11123 27.03643
#
# Velocity S-wave (km/s) = 4.88434 1.40111 3.59304
# Velocity P-wave (km/s) = 6.29060 4.91841 5.64634
#
# Compressibility (1/GPa) = 0.06151292
#
# Stress axis : x y z
#
# Youngs Moduli (GPa) = 75.77589 52.42384 20.83325
#
# Poissons Ratio (x) = 0.56930 -0.17552
# Poissons Ratio (y) = 0.82289 0.14469
# Poissons Ratio (z) = -0.63840 0.36408
#
# Static dielectric constant tensor:
#      x y z
#    x 1.781120 0.000000 0.000000 
#    y 0.000000 1.764280 0.000000 
#    z 0.000000 0.000000 1.781730 
# 
# From -- ./inp_files/12007.got.cif
#   From: 2010.05.17/outbox.cif.g08.bks.cpg/sg47_7_cif.got.tgz:12007.got - 2010.06.03 20:15:42.
