data_PCOD9384986
_publ_section_title
;
Structure prediction by ZEFSAII (Michael W. Deem and Ramdas Pophale) SiO2 
 PCOD9384986
Probable space group: P M M M
;
_chemical_formula_sum "Si O2"
_cell_formula_units_Z 64
_cell_length_a 14.570334
_cell_length_b 30.078978
_cell_length_c 8.858293
_cell_angle_alpha 90.000000
_cell_angle_beta 90.000000
_cell_angle_gamma 90.000000
_cell_volume 3882.242186
_symmetry_space_group_name_H-M "P M M M"
_symmetry_group_IT_number 47
_symmetry_cell_setting 'orthorhombic'
loop_
_space_group_symop_operation_xyz
x,y,z
-x,-y,z
x,-y,-z
-x,y,-z
-x,-y,-z
x,y,-z
-x,y,z
x,-y,z
loop_
_atom_site_type_symbol
_atom_site_label
_atom_site_fract_x
_atom_site_fract_y
_atom_site_fract_z
Si Si1 0.214656 0.048921 0.681300
Si Si2 0.395338 0.096713 0.318602
Si Si3 0.389161 0.547756 0.820559
Si Si4 0.893005 0.768788 0.182533
Si Si5 0.110195 0.869150 0.824339
Si Si6 0.609979 0.192269 0.176186
Si Si7 0.391722 0.354268 0.816902
Si Si8 0.279803 0.272932 0.320563
O O1 0.208197 0.048266 0.500000
O O2 0.320133 0.060053 0.720970
O O3 0.155405 0.090006 0.739361
O O4 0.187396 0.000000 0.738199
O O5 0.392398 0.103246 0.500000
O O6 0.500000 0.085152 0.277522
O O7 0.370508 0.143223 0.239712
O O8 0.500000 0.547849 0.807798
O O9 0.356426 0.500000 0.757222
O O10 0.360645 0.596346 0.763800
O O11 0.369037 0.547354 0.000000
O O12 0.866443 0.819316 0.230447
O O13 0.821911 0.734877 0.254845
O O14 0.000000 0.761495 0.221876
O O15 0.886713 0.767465 0.000000
O O16 0.000000 0.872359 0.816107
O O17 0.137069 0.871747 0.000000
O O18 0.500000 0.198890 0.187973
O O19 0.661814 0.230125 0.267522
O O20 0.635815 0.195146 0.000000
O O21 0.500000 0.348132 0.778746
O O22 0.330063 0.315838 0.747863
O O23 0.386415 0.352902 0.000000
O O24 0.277526 0.275569 0.500000
#
# Coordination Sequence:
#
# PCOD9384986 Si02
#       8
#     8   8   8   8   8   8   8   8
#     4  10  21  34  48  70  97 122 148 177 213 260
#     4   9  18  33  51  69  90 117 150 187 225 265
#     4   7  10  19  38  63  88 117 159 209 250 277
#     4   9  19  37  58  75  91 115 150 191 233 279
#     4   9  19  36  56  75  92 112 141 178 222 271
#     4  10  20  33  49  68  91 121 157 194 230 271
#     4   9  17  29  45  66  95 132 171 206 239 277
#     4  12  23  31  44  68  99 130 157 190 232 278
#
# _framework density 16.485317999999999
#
# number of rings (size 3 to 8) (size 9 to 14) (size 15 to 20)
#    0.000    2.625    0.000    4.500    0.000    6.750 
#    0.000    3.750    0.000    0.375    0.000    4.375 
#    0.000    0.500    0.000    5.750    0.000    1.875 
#
# Total GULP energy -356769.988099 kJ/mol
# GULP energy per Si atom -5574.531064 kJ/mol
# Density = 1.644780 g / cm^3
# Si number density = 16.485318 Si / 1000 Ang^3
#
#
#
# Elastic Constant Matrix: (Units=GPa)
#
#
# Indices 1 2 3 4 5 6 
#
# 1 53.9059 57.9914 25.8408 0.0000 0.0000 0.0000
# 2 57.9914 117.5386 34.8371 0.0000 0.0000 0.0000
# 3 25.8408 34.8371 29.4345 0.0000 0.0000 0.0000
# 4 0.0000 0.0000 0.0000 0.6783 0.0000 0.0000
# 5 0.0000 0.0000 0.0000 0.0000 17.2408 0.0000
# 6 0.0000 0.0000 0.0000 0.0000 0.0000 16.2346
#
#
#
# Elastic Compliance Matrix: (Units=1/GPa)
#
#
# Indices 1 2 3 4 5 6 
#
# 1 0.046782 -0.016803 -0.021183 0.000000 0.000000 0.000000
# 2 -0.016803 0.019140 -0.007902 0.000000 0.000000 0.000000
# 3 -0.021183 -0.007902 0.061923 0.000000 0.000000 0.000000
# 4 0.000000 0.000000 0.000000 1.474226 0.000000 0.000000
# 5 0.000000 0.000000 0.000000 0.000000 0.058002 0.000000
# 6 0.000000 0.000000 0.000000 0.000000 0.000000 0.061597
#
#
# Mechanical properties :
#
#
# Convention : Reuss Voigt Hill
#
# Bulk Modulus (GPa) = 27.72466 48.69086 38.20776
# Shear Modulus (GPa) = 2.73902 12.31138 7.52520
#
# Velocity S-wave (km/s) = 1.29039 2.73575 2.13886
# Velocity P-wave (km/s) = 4.36743 6.29119 5.41542
#
# Compressibility (1/GPa) = 0.03606897
#
# Stress axis : x y z
#
# Youngs Moduli (GPa) = 21.37590 52.24646 16.14915
#
# Poissons Ratio (x) = 0.87789 0.34209
# Poissons Ratio (y) = 0.35917 0.12761
# Poissons Ratio (z) = 0.45281 0.41284
#
# Static dielectric constant tensor:
#      x y z
#    x 1.558630 0.000000 0.000000 
#    y 0.000000 1.567930 0.000000 
#    z 0.000000 0.000000 1.551940 
# 
# From -- ./inp_files/8347.got.cif
#   From: 2010.05.17/outbox.cif.g08.bks.cpg/sg47_5_cif.got.tgz:8347.got - 2010.06.03 20:15:42.
