data_PCOD9384936
_publ_section_title
;
Structure prediction by ZEFSAII (Michael W. Deem and Ramdas Pophale) SiO2 
 PCOD9384936
Probable space group: P M M M
;
_chemical_formula_sum "Si O2"
_cell_formula_units_Z 52
_cell_length_a 7.355843
_cell_length_b 11.260677
_cell_length_c 28.340601
_cell_angle_alpha 90.000000
_cell_angle_beta 90.000000
_cell_angle_gamma 90.000000
_cell_volume 2347.502203
_symmetry_space_group_name_H-M "P M M M"
_symmetry_group_IT_number 47
_symmetry_cell_setting 'orthorhombic'
loop_
_space_group_symop_operation_xyz
x,y,z
-x,-y,z
x,-y,-z
-x,y,-z
-x,-y,-z
x,y,-z
-x,y,z
x,-y,z
loop_
_atom_site_type_symbol
_atom_site_label
_atom_site_fract_x
_atom_site_fract_y
_atom_site_fract_z
Si Si1 0.707115 0.298095 0.872533
Si Si2 0.208235 0.369129 0.230403
Si Si3 0.221144 0.632251 0.444851
Si Si4 0.778744 0.868790 0.720335
Si Si5 0.219346 0.500000 0.945993
Si Si6 0.220876 0.867927 0.609767
Si Si7 0.720879 0.861984 0.949399
O O1 0.500000 0.273956 0.858348
O O2 0.795699 0.349670 0.825950
O O3 0.711681 0.389997 0.915697
O O4 0.790095 0.186859 0.899748
O O5 0.289594 0.500000 0.239853
O O6 0.287068 0.248984 0.252917
O O7 0.000000 0.374611 0.247477
O O8 0.270558 0.641405 0.500000
O O9 0.278447 0.500000 0.427803
O O10 0.283723 0.749842 0.417347
O O11 0.000000 0.632565 0.442589
O O12 0.732049 0.859539 0.665047
O O13 0.000000 0.869689 0.723669
O O14 0.718735 0.000000 0.737442
O O15 0.000000 0.500000 0.944951
O O16 0.279202 0.500000 0.000000
O O17 0.000000 0.867804 0.607024
O O18 0.279081 0.000000 0.592693
O O19 0.500000 0.849189 0.948424
O O20 0.761994 0.000000 0.951455
O O21 0.782372 0.807926 0.000000
#
# Coordination Sequence:
#
# PCOD9384936 Si02
#       7
#     8   8   8   8   4   8   8
#     4  11  21  33  52  75  97 123 156 191 228 275
#     4  10  20  33  48  66  92 122 152 190 237 284
#     4   8  13  19  26  40  66 100 137 181 234 288
#     4   8  15  28  44  61  81 110 151 196 241 289
#     4  11  23  37  53  73  99 129 157 189 230 273
#     4   8  13  21  33  49  69  95 135 187 234 280
#     4   8  15  29  48  70  95 119 144 178 218 260
#
# _framework density 22.151202999999999
#
# number of rings (size 3 to 8) (size 9 to 14) (size 15 to 20)
#    0.000    3.000    0.769    3.000    0.000    2.769 
#    0.000    4.615    0.000    1.385    0.000    5.385 
#    0.000    0.000    0.000    0.000    0.000    0.769 
#
# Total GULP energy -289806.209283 kJ/mol
# GULP energy per Si atom -5573.196332 kJ/mol
# Density = 2.210079 g / cm^3
# Si number density = 22.151203 Si / 1000 Ang^3
#
#
#
# Elastic Constant Matrix: (Units=GPa)
#
#
# Indices 1 2 3 4 5 6 
#
# 1 84.1094 6.3148 -1.0105 0.0000 0.0000 0.0000
# 2 6.3148 225.6995 91.9660 0.0000 0.0000 0.0000
# 3 -1.0105 91.9660 72.9370 0.0000 0.0000 0.0000
# 4 0.0000 0.0000 0.0000 -209.5208 0.0000 0.0000
# 5 0.0000 0.0000 0.0000 0.0000 0.0017 0.0000
# 6 0.0000 0.0000 0.0000 0.0000 0.0000 -4.1927
#
#
#
# Elastic Compliance Matrix: (Units=1/GPa)
#
#
# Indices 1 2 3 4 5 6 
#
# 1 0.011966 -0.000827 0.001209 0.000000 0.000000 0.000000
# 2 -0.000827 0.009170 -0.011573 0.000000 0.000000 0.000000
# 3 0.001209 -0.011573 0.028320 0.000000 0.000000 0.000000
# 4 0.000000 0.000000 0.000000 -0.004773 0.000000 0.000000
# 5 0.000000 0.000000 0.000000 0.000000593.018712 0.000000
# 6 0.000000 0.000000 0.000000 0.000000 0.000000 -0.238511
#
#
# Mechanical properties :
#
#
# Convention : Reuss Voigt Hill
#
# Bulk Modulus (GPa) = 36.93833 64.14296 50.54065
# Shear Modulus (GPa) = 0.00843 -23.71066 -11.85111
#
# Velocity S-wave (km/s) = 0.06177 -3.27525 -2.31554
# Velocity P-wave (km/s) = 4.08862 3.83624 3.96444
#
# Compressibility (1/GPa) = 0.02707215
#
# Stress axis : x y z
#
# Youngs Moduli (GPa) = 83.57064 109.05508 35.31053
#
# Poissons Ratio (x) = 0.09024 -0.04270
# Poissons Ratio (y) = 0.06915 0.40867
# Poissons Ratio (z) = -0.10105 1.26215
#
# Static dielectric constant tensor:
#      x y z
#    x 1.902380 0.000000 0.000000 
#    y 0.000000 1.998930 0.000000 
#    z 0.000000 0.000000 1.770820 
# 
# From -- ./inp_files/33219.got.cif
#   From: 2010.05.17/outbox.cif.g08.bks.cpg/sg47_17_cif.got.tgz:33219.got - 2010.06.03 20:15:42.
