data_PCOD9384617
_publ_section_title
;
Structure prediction by ZEFSAII (Michael W. Deem and Ramdas Pophale) SiO2 
 PCOD9384617
Probable space group: P M M M
;
_chemical_formula_sum "Si O2"
_cell_formula_units_Z 64
_cell_length_a 8.231860
_cell_length_b 21.113824
_cell_length_c 18.317495
_cell_angle_alpha 90.000000
_cell_angle_beta 90.000000
_cell_angle_gamma 90.000000
_cell_volume 3183.691328
_symmetry_space_group_name_H-M "P M M M"
_symmetry_group_IT_number 47
_symmetry_cell_setting 'orthorhombic'
loop_
_space_group_symop_operation_xyz
x,y,z
-x,-y,z
x,-y,-z
-x,y,-z
-x,-y,-z
x,y,-z
-x,y,z
x,-y,z
loop_
_atom_site_type_symbol
_atom_site_label
_atom_site_fract_x
_atom_site_fract_y
_atom_site_fract_z
Si Si1 0.695902 0.738275 0.380408
Si Si2 0.803737 0.791257 0.079789
Si Si3 0.188219 0.928574 0.881684
Si Si4 0.678058 0.924933 0.728169
Si Si5 0.304744 0.706539 0.784254
Si Si6 0.305224 0.431768 0.740857
Si Si7 0.806018 0.599359 0.580273
Si Si8 0.808956 0.872536 0.578424
O O1 0.500000 0.740859 0.387538
O O2 0.737542 0.737990 0.293857
O O3 0.760775 0.673311 0.413712
O O4 0.777166 0.797845 0.417935
O O5 0.741378 0.864144 0.084905
O O6 0.752142 0.747497 0.147198
O O7 0.000000 0.794931 0.082470
O O8 0.756148 0.765561 0.000000
O O9 0.200679 0.914837 0.794991
O O10 0.000000 0.932387 0.903845
O O11 0.258495 0.000000 0.894660
O O12 0.500000 0.899928 0.750090
O O13 0.725165 0.898462 0.650344
O O14 0.669062 0.000000 0.720059
O O15 0.500000 0.704145 0.786921
O O16 0.243818 0.633414 0.777834
O O17 0.500000 0.431134 0.749435
O O18 0.243087 0.500000 0.768265
O O19 0.269417 0.428416 0.654136
O O20 0.751496 0.576332 0.500000
O O21 0.000000 0.590771 0.584182
O O22 0.747826 0.896970 0.500000
O O23 0.000000 0.886091 0.582881
#
# Coordination Sequence:
#
# PCOD9384617 Si02
#       8
#     8   8   8   8   8   8   8   8
#     4  10  20  34  53  75  99 131 174 219 260 308
#     4  10  21  35  53  81 113 141 170 206 250 304
#     4   9  18  34  56  79 105 140 177 211 251 302
#     4  10  21  36  53  72  95 126 167 214 260 310
#     4   9  19  35  55  79 104 133 171 214 260 311
#     4   9  19  36  56  77 102 136 181 229 272 316
#     4  10  20  32  47  72 108 144 176 214 261 313
#     4  11  23  35  48  69  97 129 168 217 270 319
#
# _framework density 20.102450999999999
#
# number of rings (size 3 to 8) (size 9 to 14) (size 15 to 20)
#    0.000    2.250    0.000    3.375    0.000   10.500 
#    0.000    3.750    0.000    0.375    0.000    5.250 
#    0.000    0.000    0.000    0.000    0.000    0.000 
#
# Total GULP energy -356958.712742 kJ/mol
# GULP energy per Si atom -5577.479887 kJ/mol
# Density = 2.005670 g / cm^3
# Si number density = 20.102451 Si / 1000 Ang^3
#
#
#
# Elastic Constant Matrix: (Units=GPa)
#
#
# Indices 1 2 3 4 5 6 
#
# 1 12.6651 4.0878 3.6962 0.0000 0.0000 0.0000
# 2 4.0878 62.0424 61.1987 0.0000 0.0000 0.0000
# 3 3.6962 61.1987 111.8675 0.0000 0.0000 0.0000
# 4 0.0000 0.0000 0.0000 -15.0416 0.0000 0.0000
# 5 0.0000 0.0000 0.0000 0.0000 26.8902 0.0000
# 6 0.0000 0.0000 0.0000 0.0000 0.0000 3.8560
#
#
#
# Elastic Compliance Matrix: (Units=1/GPa)
#
#
# Indices 1 2 3 4 5 6 
#
# 1 0.080687 -0.005835 0.000526 0.000000 0.000000 0.000000
# 2 -0.005835 0.035433 -0.019191 0.000000 0.000000 0.000000
# 3 0.000526 -0.019191 0.019421 0.000000 0.000000 0.000000
# 4 0.000000 0.000000 0.000000 -0.066482 0.000000 0.000000
# 5 0.000000 0.000000 0.000000 0.000000 0.037188 0.000000
# 6 0.000000 0.000000 0.000000 0.000000 0.000000 0.259338
#
#
# Mechanical properties :
#
#
# Convention : Reuss Voigt Hill
#
# Bulk Modulus (GPa) = 11.55539 36.06004 23.80772
# Shear Modulus (GPa) = 11.27572 10.98041 11.12806
#
# Velocity S-wave (km/s) = 2.37093 2.33968 2.35535
# Velocity P-wave (km/s) = 3.64085 5.02751 4.38929
#
# Compressibility (1/GPa) = 0.08653970
#
# Stress axis : x y z
#
# Youngs Moduli (GPa) = 12.39360 28.22255 51.49184
#
# Poissons Ratio (x) = 0.16469 -0.02710
# Poissons Ratio (y) = 0.07232 0.98819
# Poissons Ratio (z) = -0.00652 0.54162
#
# Static dielectric constant tensor:
#      x y z
#    x 1.726660 0.000000 0.000000 
#    y 0.000000 1.922050 0.000000 
#    z 0.000000 0.000000 1.719420 
# 
# From -- ./inp_files/27028.got.cif
#   From: 2010.05.17/outbox.cif.g08.bks.cpg/sg47_14_cif.got.tgz:27028.got - 2010.06.03 20:15:42.
