data_PCOD9384203
_publ_section_title
;
Structure prediction by ZEFSAII (Michael W. Deem and Ramdas Pophale) SiO2 
 PCOD9384203
Probable space group: P M M M
;
_chemical_formula_sum "Si O2"
_cell_formula_units_Z 64
_cell_length_a 7.706653
_cell_length_b 20.407086
_cell_length_c 18.954450
_cell_angle_alpha 90.000000
_cell_angle_beta 90.000000
_cell_angle_gamma 90.000000
_cell_volume 2980.972617
_symmetry_space_group_name_H-M "P M M M"
_symmetry_group_IT_number 47
_symmetry_cell_setting 'orthorhombic'
loop_
_space_group_symop_operation_xyz
x,y,z
-x,-y,z
x,-y,-z
-x,y,-z
-x,-y,-z
x,y,-z
-x,y,z
x,-y,z
loop_
_atom_site_type_symbol
_atom_site_label
_atom_site_fract_x
_atom_site_fract_y
_atom_site_fract_z
Si Si1 0.211645 0.740592 0.876005
Si Si2 0.689475 0.077113 0.224714
Si Si3 0.792493 0.784723 0.423864
Si Si4 0.289887 0.428567 0.765575
Si Si5 0.794465 0.714608 0.717668
Si Si6 0.288937 0.075199 0.625778
Si Si7 0.206595 0.880353 0.925941
Si Si8 0.297019 0.598400 0.923056
O O1 0.269619 0.741194 0.793855
O O2 0.268552 0.806315 0.914417
O O3 0.280840 0.676545 0.914366
O O4 0.000000 0.737446 0.877032
O O5 0.500000 0.108832 0.223665
O O6 0.782441 0.097059 0.296608
O O7 0.761279 0.084509 0.147337
O O8 0.672450 0.000000 0.237014
O O9 0.725484 0.760389 0.500000
O O10 0.722884 0.748419 0.353307
O O11 0.759587 0.862884 0.420810
O O12 0.000000 0.774831 0.423587
O O13 0.500000 0.425365 0.768153
O O14 0.239954 0.500000 0.736634
O O15 0.231293 0.363969 0.723941
O O16 0.225807 0.425285 0.847391
O O17 0.000000 0.727378 0.718069
O O18 0.500000 0.072940 0.629351
O O19 0.233650 0.000000 0.607871
O O20 0.000000 0.877817 0.931211
O O21 0.275014 0.908070 0.000000
O O22 0.500000 0.579863 0.924126
O O23 0.223298 0.579396 0.000000
#
# Coordination Sequence:
#
# PCOD9384203 Si02
#       8
#     8   8   8   8   8   8   8   8
#     4   9  17  30  47  65  88 121 159 196 237 286
#     4   9  19  35  51  66  87 119 160 203 245 290
#     4  10  21  36  55  81 110 136 164 201 246 298
#     4   9  18  32  50  73 100 131 169 211 252 295
#     4   9  18  33  53  75  99 129 165 205 247 294
#     4   9  19  36  56  78 105 137 172 207 244 293
#     4  10  20  31  44  65  92 122 159 205 255 302
#     4   9  17  28  43  66  96 128 161 198 242 290
#
# _framework density 21.469503
#
# number of rings (size 3 to 8) (size 9 to 14) (size 15 to 20)
#    0.000    2.750    0.000    1.875    0.000    5.250 
#    0.000    7.500    0.000    0.375    0.000    6.125 
#    0.000    0.000    0.000    0.000    0.000    0.000 
#
# Total GULP energy -356591.255922 kJ/mol
# GULP energy per Si atom -5571.738374 kJ/mol
# Density = 2.142064 g / cm^3
# Si number density = 21.469503 Si / 1000 Ang^3
#
#
#
# Elastic Constant Matrix: (Units=GPa)
#
#
# Indices 1 2 3 4 5 6 
#
# 1 30.6184 -3.3368 7.8697 0.0000 0.0000 0.0000
# 2 -3.3368 60.4932 47.0058 0.0000 0.0000 0.0000
# 3 7.8697 47.0058 154.2654 0.0000 0.0000 0.0000
# 4 0.0000 0.0000 0.0000 -29.7836 0.0000 0.0000
# 5 0.0000 0.0000 0.0000 0.0000 12.0731 0.0000
# 6 0.0000 0.0000 0.0000 0.0000 0.0000 15.8626
#
#
#
# Elastic Compliance Matrix: (Units=1/GPa)
#
#
# Indices 1 2 3 4 5 6 
#
# 1 0.033893 0.004210 -0.003012 0.000000 0.000000 0.000000
# 2 0.004210 0.022182 -0.006974 0.000000 0.000000 0.000000
# 3 -0.003012 -0.006974 0.008761 0.000000 0.000000 0.000000
# 4 0.000000 0.000000 0.000000 -0.033576 0.000000 0.000000
# 5 0.000000 0.000000 0.000000 0.000000 0.082829 0.000000
# 6 0.000000 0.000000 0.000000 0.000000 0.000000 0.063041
#
#
# Mechanical properties :
#
#
# Convention : Reuss Voigt Hill
#
# Bulk Modulus (GPa) = 18.76724 38.71715 28.74219
# Shear Modulus (GPa) = 24.21973 12.55299 18.38636
#
# Velocity S-wave (km/s) = 3.36236 2.42066 2.92960
# Velocity P-wave (km/s) = 4.88204 5.08778 4.98597
#
# Compressibility (1/GPa) = 0.05328435
#
# Stress axis : x y z
#
# Youngs Moduli (GPa) = 29.50466 45.08186 114.14329
#
# Poissons Ratio (x) = -0.18979 0.34377
# Poissons Ratio (y) = -0.12421 0.79600
# Poissons Ratio (z) = 0.08886 0.31439
#
# Static dielectric constant tensor:
#      x y z
#    x 1.811690 0.000000 0.000000 
#    y 0.000000 1.780500 0.000000 
#    z 0.000000 0.000000 2.085700 
# 
# From -- ./inp_files/11564.got.cif
#   From: 2010.05.17/outbox.cif.g08.bks.cpg/sg47_6_cif.got.tgz:11564.got - 2010.06.03 20:15:42.
