data_PCOD9384025
_publ_section_title
;
Structure prediction by ZEFSAII (Michael W. Deem and Ramdas Pophale) SiO2 
 PCOD9384025
Probable space group: P M M M
;
_chemical_formula_sum "Si O2"
_cell_formula_units_Z 48
_cell_length_a 8.145054
_cell_length_b 14.637174
_cell_length_c 21.214190
_cell_angle_alpha 90.000000
_cell_angle_beta 90.000000
_cell_angle_gamma 90.000000
_cell_volume 2529.167880
_symmetry_space_group_name_H-M "P M M M"
_symmetry_group_IT_number 47
_symmetry_cell_setting 'orthorhombic'
loop_
_space_group_symop_operation_xyz
x,y,z
-x,-y,z
x,-y,-z
-x,y,-z
-x,-y,-z
x,y,-z
-x,y,z
x,-y,z
loop_
_atom_site_type_symbol
_atom_site_label
_atom_site_fract_x
_atom_site_fract_y
_atom_site_fract_z
Si Si1 0.200251 0.397676 0.821236
Si Si2 0.197578 0.896496 0.749760
Si Si3 0.701100 0.893938 0.500000
Si Si4 0.198576 0.209048 0.874553
Si Si5 0.801957 0.397206 0.325073
Si Si6 0.304264 0.895484 0.000000
Si Si7 0.695234 0.209708 0.374671
O O1 0.254493 0.500000 0.839041
O O2 0.254695 0.313764 0.864567
O O3 0.248081 0.380891 0.748106
O O4 0.000000 0.398319 0.821768
O O5 0.256629 0.847189 0.813250
O O6 0.240028 0.839980 0.687763
O O7 0.000000 0.899690 0.753953
O O8 0.260242 0.000000 0.745360
O O9 0.500000 0.893415 0.500000
O O10 0.757153 0.840892 0.562614
O O11 0.751968 0.000000 0.500000
O O12 0.250914 0.159316 0.937983
O O13 0.000000 0.210016 0.873549
O O14 0.748868 0.500000 0.342312
O O15 0.740194 0.316020 0.368691
O O16 0.000000 0.395417 0.325703
O O17 0.500000 0.900664 0.000000
O O18 0.238722 0.000000 0.000000
O O19 0.500000 0.201481 0.374614
#
# Coordination Sequence:
#
# PCOD9384025 Si02
#       7
#     8   8   4   8   8   4   8
#     4   8  14  28  54  84 109 135 170 213 261 314
#     4  10  20  34  54  81 110 137 176 231 280 326
#     4   9  20  38  54  71 104 152 195 225 266 327
#     4  10  19  35  59  82 105 138 182 223 262 317
#     4   9  17  33  57  82 111 144 176 218 273 329
#     4  11  25  41  54  73 108 148 183 223 272 323
#     4  11  21  34  55  80 108 143 185 231 275 324
#
# _framework density 18.978574999999999
#
# number of rings (size 3 to 8) (size 9 to 14) (size 15 to 20)
#    0.000    2.333    1.667    2.750    0.000    3.333 
#    0.000    2.500    0.000    8.500    0.000    0.000 
#    0.000    0.000    0.000    0.000    0.000    0.000 
#
# Total GULP energy -267841.672430 kJ/mol
# GULP energy per Si atom -5580.034842 kJ/mol
# Density = 1.893538 g / cm^3
# Si number density = 18.978575 Si / 1000 Ang^3
#
#
#
# Elastic Constant Matrix: (Units=GPa)
#
#
# Indices 1 2 3 4 5 6 
#
# 1 6.8309 10.7401 7.2313 0.0000 0.0000 0.0000
# 2 10.7401 194.7931 100.9608 0.0000 0.0000 0.0000
# 3 7.2313 100.9608 152.3315 0.0000 0.0000 0.0000
# 4 0.0000 0.0000 0.0000 32.6778 0.0000 0.0000
# 5 0.0000 0.0000 0.0000 0.0000 22.4125 0.0000
# 6 0.0000 0.0000 0.0000 0.0000 0.0000 19.2582
#
#
#
# Elastic Compliance Matrix: (Units=1/GPa)
#
#
# Indices 1 2 3 4 5 6 
#
# 1 0.161005 -0.007488 -0.002680 0.000000 0.000000 0.000000
# 2 -0.007488 0.008168 -0.005058 0.000000 0.000000 0.000000
# 3 -0.002680 -0.005058 0.010044 0.000000 0.000000 0.000000
# 4 0.000000 0.000000 0.000000 0.030602 0.000000 0.000000
# 5 0.000000 0.000000 0.000000 0.000000 0.044618 0.000000
# 6 0.000000 0.000000 0.000000 0.000000 0.000000 0.051926
#
#
# Mechanical properties :
#
#
# Convention : Reuss Voigt Hill
#
# Bulk Modulus (GPa) = 6.72202 65.75776 36.23989
# Shear Modulus (GPa) = 12.93983 30.53793 21.73888
#
# Velocity S-wave (km/s) = 2.61399 4.01568 3.38811
# Velocity P-wave (km/s) = 3.55811 7.49830 5.86876
#
# Compressibility (1/GPa) = 0.14876473
#
# Stress axis : x y z
#
# Youngs Moduli (GPa) = 6.21099 122.42708 99.55962
#
# Poissons Ratio (x) = 0.91674 0.26683
# Poissons Ratio (y) = 0.04651 0.50359
# Poissons Ratio (z) = 0.01665 0.61925
#
# Static dielectric constant tensor:
#      x y z
#    x 1.679610 0.000000 0.000000 
#    y 0.000000 1.681340 0.000000 
#    z 0.000000 0.000000 1.624290 
# 
# From -- ./inp_files/26573.got.cif
#   From: 2010.05.17/outbox.cif.g08.bks.cpg/sg47_14_cif.got.tgz:26573.got - 2010.06.03 20:15:42.
