data_PCOD9384557
_publ_section_title
;
Structure prediction by ZEFSAII (Michael W. Deem and Ramdas Pophale) SiO2 
 PCOD9384557
Probable space group: P M M M
;
_chemical_formula_sum "Si O2"
_cell_formula_units_Z 44
_cell_length_a 7.445249
_cell_length_b 31.308723
_cell_length_c 9.615561
_cell_angle_alpha 90.000000
_cell_angle_beta 90.000000
_cell_angle_gamma 90.000000
_cell_volume 2241.399179
_symmetry_space_group_name_H-M "P M M M"
_symmetry_group_IT_number 47
_symmetry_cell_setting 'orthorhombic'
loop_
_space_group_symop_operation_xyz
x,y,z
-x,-y,z
x,-y,-z
-x,y,-z
-x,-y,-z
x,y,-z
-x,y,z
x,-y,z
loop_
_atom_site_type_symbol
_atom_site_label
_atom_site_fract_x
_atom_site_fract_y
_atom_site_fract_z
Si Si1 0.718832 0.200846 0.841667
Si Si2 0.000000 0.949018 0.664331
Si Si3 0.785745 0.545949 0.832008
Si Si4 0.285807 0.897004 0.835148
Si Si5 0.285924 0.278751 0.343822
Si Si6 0.783900 0.638691 0.840873
O O1 0.500000 0.201557 0.842699
O O2 0.767371 0.152262 0.804962
O O3 0.784082 0.237494 0.738848
O O4 0.776566 0.209684 0.000000
O O5 0.171624 0.928409 0.740535
O O6 0.000000 0.939191 0.500000
O O7 0.000000 0.000000 0.680835
O O8 0.713213 0.500000 0.782106
O O9 0.717276 0.592402 0.786458
O O10 0.000000 0.545163 0.804493
O O11 0.764916 0.546468 0.000000
O O12 0.500000 0.901296 0.813186
O O13 0.251830 0.904131 0.000000
O O14 0.214265 0.282323 0.500000
O O15 0.500000 0.272798 0.353453
O O16 0.258323 0.321611 0.255954
O O17 0.000000 0.635487 0.847899
O O18 0.720045 0.645518 0.000000
#
# Coordination Sequence:
#
# PCOD9384557 Si02
#       6
#     8   4   8   8   8   8
#     4   8  15  31  55  79 101 128 168 216 262 309
#     4  11  25  41  57  85 125 163 197 233 278 337
#     4   7  10  19  38  63  87 110 142 191 247 296
#     4   9  19  38  64  90 114 146 192 244 293 337
#     4  10  20  32  47  69  98 133 169 202 243 299
#     4   9  17  29  46  69  94 120 155 199 248 301
#
# _framework density 19.630597000000002
#
# number of rings (size 3 to 8) (size 9 to 14) (size 15 to 20)
#    0.000    3.182    0.000    3.545    0.000    3.636 
#    1.636    3.636    0.000    1.091    0.000    6.364 
#    0.000    0.000    0.000    0.000    0.000    0.000 
#
# Total GULP energy -245284.172689 kJ/mol
# GULP energy per Si atom -5574.640288 kJ/mol
# Density = 1.958592 g / cm^3
# Si number density = 19.630597 Si / 1000 Ang^3
#
#
#
# Elastic Constant Matrix: (Units=GPa)
#
#
# Indices 1 2 3 4 5 6 
#
# 1 71.0488 38.4896 31.8907 0.0000 0.0000 0.0000
# 2 38.4896 184.9237 116.8789 0.0000 0.0000 0.0000
# 3 31.8907 116.8789 112.4061 0.0000 0.0000 0.0000
# 4 0.0000 0.0000 0.0000 -19.7331 0.0000 0.0000
# 5 0.0000 0.0000 0.0000 0.0000 15.5356 0.0000
# 6 0.0000 0.0000 0.0000 0.0000 0.0000 23.2182
#
#
#
# Elastic Compliance Matrix: (Units=1/GPa)
#
#
# Indices 1 2 3 4 5 6 
#
# 1 0.016246 -0.001366 -0.003189 0.000000 0.000000 0.000000
# 2 -0.001366 0.015889 -0.016134 0.000000 0.000000 0.000000
# 3 -0.003189 -0.016134 0.026577 0.000000 0.000000 0.000000
# 4 0.000000 0.000000 0.000000 -0.050676 0.000000 0.000000
# 5 0.000000 0.000000 0.000000 0.000000 0.064368 0.000000
# 6 0.000000 0.000000 0.000000 0.000000 0.000000 0.043070
#
#
# Mechanical properties :
#
#
# Convention : Reuss Voigt Hill
#
# Bulk Modulus (GPa) = 57.68745 82.54409 70.11577
# Shear Modulus (GPa) = 30.74467 15.87877 23.31172
#
# Velocity S-wave (km/s) = 3.96177 2.84716 3.44978
# Velocity P-wave (km/s) = 7.09773 7.27657 7.18770
#
# Compressibility (1/GPa) = 0.01733479
#
# Stress axis : x y z
#
# Youngs Moduli (GPa) = 61.55295 62.93587 37.62659
#
# Poissons Ratio (x) = 0.08597 0.11999
# Poissons Ratio (y) = 0.08408 0.60706
# Poissons Ratio (z) = 0.19629 1.01540
#
# Static dielectric constant tensor:
#      x y z
#    x 1.660120 0.000000 0.000000 
#    y 0.000000 1.702340 0.000000 
#    z 0.000000 0.000000 1.654920 
# 
# From -- ./inp_files/2285.got.cif
#   From: 2010.05.17/outbox.cif.g08.bks.cpg/sg47_2_cif.got.tgz:2285.got - 2010.06.03 20:15:42.
