data_PCOD9384811
_publ_section_title
;
Structure prediction by ZEFSAII (Michael W. Deem and Ramdas Pophale) SiO2 
 PCOD9384811
Probable space group: P M M M
;
_chemical_formula_sum "Si O2"
_cell_formula_units_Z 48
_cell_length_a 16.217327
_cell_length_b 18.499041
_cell_length_c 9.164397
_cell_angle_alpha 90.000000
_cell_angle_beta 90.000000
_cell_angle_gamma 90.000000
_cell_volume 2749.364895
_symmetry_space_group_name_H-M "P M M M"
_symmetry_group_IT_number 47
_symmetry_cell_setting 'orthorhombic'
loop_
_space_group_symop_operation_xyz
x,y,z
-x,-y,z
x,-y,-z
-x,y,-z
-x,-y,-z
x,y,-z
-x,y,z
x,-y,z
loop_
_atom_site_type_symbol
_atom_site_label
_atom_site_fract_x
_atom_site_fract_y
_atom_site_fract_z
Si Si1 0.091833 0.912100 0.829840
Si Si2 0.405737 0.320364 0.672575
Si Si3 0.257231 0.087233 0.331647
Si Si4 0.731511 0.586996 0.826857
Si Si5 0.911793 0.586028 0.823498
Si Si6 0.593826 0.165001 0.174401
O O1 0.170323 0.887455 0.737489
O O2 0.000000 0.888621 0.781135
O O3 0.091620 0.000000 0.824675
O O4 0.101783 0.891936 0.000000
O O5 0.393432 0.309730 0.500000
O O6 0.500000 0.345879 0.694952
O O7 0.340352 0.375636 0.737739
O O8 0.397424 0.244263 0.755590
O O9 0.263457 0.109895 0.500000
O O10 0.334932 0.115969 0.241872
O O11 0.257214 0.000000 0.326758
O O12 0.728985 0.500000 0.812079
O O13 0.822434 0.613430 0.775274
O O14 0.723074 0.602887 0.000000
O O15 0.912498 0.500000 0.792297
O O16 0.000000 0.616273 0.770747
O O17 0.911377 0.592210 0.000000
O O18 0.500000 0.139554 0.207370
O O19 0.602250 0.168903 0.000000
#
# Coordination Sequence:
#
# PCOD9384811 Si02
#       6
#     8   8   8   8   8   8
#     4   8  14  26  45  69  98 132 168 204 240 280
#     4  10  21  36  52  69  93 127 163 199 244 298
#     4  10  20  32  49  76 107 135 162 197 243 292
#     4   9  17  29  48  75 102 127 159 200 241 280
#     4   7  10  19  38  65  95 124 154 189 229 273
#     4  10  21  37  56  74  93 123 164 207 249 295
#
# _framework density 17.458579
#
# number of rings (size 3 to 8) (size 9 to 14) (size 15 to 20)
#    0.000    3.000    0.000    3.500    0.000    4.333 
#    0.000    5.000    0.000    1.500    0.000    4.667 
#    0.000    0.000    0.000    0.000    0.000    0.000 
#
# Total GULP energy -267269.765391 kJ/mol
# GULP energy per Si atom -5568.120112 kJ/mol
# Density = 1.741884 g / cm^3
# Si number density = 17.458579 Si / 1000 Ang^3
#
#
#
# Elastic Constant Matrix: (Units=GPa)
#
#
# Indices 1 2 3 4 5 6 
#
# 1 176.5610 37.1486 85.3755 0.0000 0.0000 0.0000
# 2 37.1486 9.9611 22.8915 0.0000 0.0000 0.0000
# 3 85.3755 22.8915 81.0452 0.0000 0.0000 0.0000
# 4 0.0000 0.0000 0.0000 19.2909 0.0000 0.0000
# 5 0.0000 0.0000 0.0000 0.0000 18.8680 0.0000
# 6 0.0000 0.0000 0.0000 0.0000 0.0000 -27.4815
#
#
#
# Elastic Compliance Matrix: (Units=1/GPa)
#
#
# Indices 1 2 3 4 5 6 
#
# 1 0.026302 -0.098082 -0.000004 0.000000 0.000000 0.000000
# 2 -0.098082 0.651849 -0.080795 0.000000 0.000000 0.000000
# 3 -0.000004 -0.080795 0.035164 0.000000 0.000000 0.000000
# 4 0.000000 0.000000 0.000000 0.051838 0.000000 0.000000
# 5 0.000000 0.000000 0.000000 0.000000 0.053000 0.000000
# 6 0.000000 0.000000 0.000000 0.000000 0.000000 -0.036388
#
#
# Mechanical properties :
#
#
# Convention : Reuss Voigt Hill
#
# Bulk Modulus (GPa) = 2.81251 62.04425 32.42838
# Shear Modulus (GPa) = 3.97443 10.27894 7.12669
#
# Velocity S-wave (km/s) = 1.51044 2.42907 2.02260
# Velocity P-wave (km/s) = 2.15786 6.59411 4.90605
#
# Compressibility (1/GPa) = 0.35555415
#
# Stress axis : x y z
#
# Youngs Moduli (GPa) = 38.01964 1.53410 28.43836
#
# Poissons Ratio (x) = 0.15047 0.00012
# Poissons Ratio (y) = 3.72903 2.29766
# Poissons Ratio (z) = 0.00016 0.12395
#
# Static dielectric constant tensor:
#      x y z
#    x 1.628800 0.000000 0.000000 
#    y 0.000000 1.573050 0.000000 
#    z 0.000000 0.000000 1.576740 
# 
# From -- ./inp_files/6379.got.cif
#   From: 2010.05.17/outbox.cif.g08.bks.cpg/sg47_4_cif.got.tgz:6379.got - 2010.06.03 20:15:42.
