data_PCOD9384175
_publ_section_title
;
Structure prediction by ZEFSAII (Michael W. Deem and Ramdas Pophale) SiO2 
 PCOD9384175
Probable space group: P M M M
;
_chemical_formula_sum "Si O2"
_cell_formula_units_Z 56
_cell_length_a 9.071590
_cell_length_b 20.791983
_cell_length_c 15.396603
_cell_angle_alpha 90.000000
_cell_angle_beta 90.000000
_cell_angle_gamma 90.000000
_cell_volume 2904.050984
_symmetry_space_group_name_H-M "P M M M"
_symmetry_group_IT_number 47
_symmetry_cell_setting 'orthorhombic'
loop_
_space_group_symop_operation_xyz
x,y,z
-x,-y,z
x,-y,-z
-x,y,-z
-x,-y,-z
x,y,-z
-x,y,z
x,-y,z
loop_
_atom_site_type_symbol
_atom_site_label
_atom_site_fract_x
_atom_site_fract_y
_atom_site_fract_z
Si Si1 0.178534 0.500000 0.398761
Si Si2 0.668279 0.205586 0.161702
Si Si3 0.322403 0.070989 0.776581
Si Si4 0.676372 0.574668 0.000000
Si Si5 0.170164 0.332630 0.867266
Si Si6 0.824144 0.894346 0.595499
Si Si7 0.667852 0.764397 0.368477
Si Si8 0.827963 0.361511 0.661847
O O1 0.215442 0.500000 0.500000
O O2 0.228425 0.433138 0.357021
O O3 0.000000 0.500000 0.390382
O O4 0.500000 0.207199 0.128637
O O5 0.725086 0.132023 0.165093
O O6 0.763975 0.261328 0.118319
O O7 0.664235 0.224037 0.264210
O O8 0.500000 0.077161 0.767828
O O9 0.253758 0.076392 0.680171
O O10 0.288802 0.000000 0.811790
O O11 0.738743 0.613840 0.081782
O O12 0.723462 0.500000 0.000000
O O13 0.500000 0.576589 0.000000
O O14 0.176736 0.348079 0.764750
O O15 0.000000 0.334701 0.893819
O O16 0.784009 0.921041 0.500000
O O17 0.772913 0.820058 0.596357
O O18 0.000000 0.899555 0.605308
O O19 0.500000 0.771346 0.399179
O O20 0.733555 0.694031 0.383468
O O21 0.000000 0.356795 0.634420
#
# Coordination Sequence:
#
# PCOD9384175 Si02
#       8
#     4   8   8   4   8   8   8   8
#     4   9  18  32  49  70  97 130 170 215 263 315
#     4   8  15  30  51  73 101 134 171 210 252 305
#     4   9  18  32  50  73 101 134 174 221 269 318
#     4  11  25  41  57  83 118 149 180 217 263 322
#     4  10  20  34  56  82 110 143 179 220 262 312
#     4  10  20  31  43  62  91 128 170 217 272 331
#     4   9  17  30  48  68  89 118 161 213 261 311
#     4   9  18  32  52  75 100 133 173 215 263 317
#
# _framework density 19.283408000000001
#
# number of rings (size 3 to 8) (size 9 to 14) (size 15 to 20)
#    0.000    2.714    0.000    2.357    1.000    6.857 
#    0.000    3.214    0.000    0.429    0.000    0.500 
#    0.000    4.000    0.000    0.000    0.000    0.000 
#
# Total GULP energy -312251.998770 kJ/mol
# GULP energy per Si atom -5575.928549 kJ/mol
# Density = 1.923952 g / cm^3
# Si number density = 19.283408 Si / 1000 Ang^3
#
#
#
# Elastic Constant Matrix: (Units=GPa)
#
#
# Indices 1 2 3 4 5 6 
#
# 1 45.9630 38.4704 10.6464 0.0000 0.0000 0.0000
# 2 38.4704 182.2911 16.9615 0.0000 0.0000 0.0000
# 3 10.6464 16.9615 21.3396 0.0000 0.0000 0.0000
# 4 0.0000 0.0000 0.0000 -12.4323 0.0000 0.0000
# 5 0.0000 0.0000 0.0000 0.0000 10.8602 0.0000
# 6 0.0000 0.0000 0.0000 0.0000 0.0000 20.1071
#
#
#
# Elastic Compliance Matrix: (Units=1/GPa)
#
#
# Indices 1 2 3 4 5 6 
#
# 1 0.028315 -0.005033 -0.010126 0.000000 0.000000 0.000000
# 2 -0.005033 0.006819 -0.002908 0.000000 0.000000 0.000000
# 3 -0.010126 -0.002908 0.054225 0.000000 0.000000 0.000000
# 4 0.000000 0.000000 0.000000 -0.080436 0.000000 0.000000
# 5 0.000000 0.000000 0.000000 0.000000 0.092079 0.000000
# 6 0.000000 0.000000 0.000000 0.000000 0.000000 0.049734
#
#
# Mechanical properties :
#
#
# Convention : Reuss Voigt Hill
#
# Bulk Modulus (GPa) = 18.78883 42.41669 30.60276
# Shear Modulus (GPa) = 24.43653 15.94137 20.18895
#
# Velocity S-wave (km/s) = 3.56368 2.87834 3.23919
# Velocity P-wave (km/s) = 5.16699 5.75245 5.46756
#
# Compressibility (1/GPa) = 0.05322310
#
# Stress axis : x y z
#
# Youngs Moduli (GPa) = 35.31706 146.65795 18.44178
#
# Poissons Ratio (x) = 0.73818 0.18674
# Poissons Ratio (y) = 0.17776 0.05364
# Poissons Ratio (z) = 0.35761 0.42655
#
# Static dielectric constant tensor:
#      x y z
#    x 1.648970 0.000000 0.000000 
#    y 0.000000 1.695220 0.000000 
#    z 0.000000 0.000000 1.692640 
# 
# From -- ./inp_files/21590.got.cif
#   From: 2010.05.17/outbox.cif.g08.bks.cpg/sg47_11_cif.got.tgz:21590.got - 2010.06.03 20:15:42.
