data_PCOD9384574
_publ_section_title
;
Structure prediction by ZEFSAII (Michael W. Deem and Ramdas Pophale) SiO2 
 PCOD9384574
Probable space group: P M M M
;
_chemical_formula_sum "Si O2"
_cell_formula_units_Z 52
_cell_length_a 14.115936
_cell_length_b 21.562418
_cell_length_c 9.240855
_cell_angle_alpha 90.000000
_cell_angle_beta 90.000000
_cell_angle_gamma 90.000000
_cell_volume 2812.673343
_symmetry_space_group_name_H-M "P M M M"
_symmetry_group_IT_number 47
_symmetry_cell_setting 'orthorhombic'
loop_
_space_group_symop_operation_xyz
x,y,z
-x,-y,z
x,-y,-z
-x,y,-z
-x,-y,-z
x,y,-z
-x,y,z
x,-y,z
loop_
_atom_site_type_symbol
_atom_site_label
_atom_site_fract_x
_atom_site_fract_y
_atom_site_fract_z
Si Si1 0.115169 0.431131 0.169855
Si Si2 0.114882 0.306580 0.667936
Si Si3 0.384696 0.378342 0.834293
Si Si4 0.799400 0.812836 0.173310
Si Si5 0.383683 0.500000 0.664997
Si Si6 0.886166 0.070289 0.330105
Si Si7 0.606567 0.758520 0.175787
O O1 0.145784 0.500000 0.219802
O O2 0.147367 0.371068 0.258444
O O3 0.000000 0.431108 0.177989
O O4 0.138884 0.424772 0.000000
O O5 0.144023 0.303583 0.500000
O O6 0.150506 0.246708 0.754901
O O7 0.000000 0.306002 0.671887
O O8 0.500000 0.379521 0.837697
O O9 0.353062 0.437647 0.745503
O O10 0.362173 0.310249 0.774204
O O11 0.352206 0.383458 0.000000
O O12 0.841098 0.876043 0.235270
O O13 0.688146 0.806581 0.211295
O O14 0.810080 0.809621 0.000000
O O15 0.500000 0.500000 0.667015
O O16 0.352955 0.500000 0.500000
O O17 0.863491 0.079672 0.500000
O O18 0.000000 0.073817 0.317325
O O19 0.857708 0.000000 0.289915
O O20 0.500000 0.772061 0.226303
O O21 0.602644 0.753952 0.000000
#
# Coordination Sequence:
#
# PCOD9384574 Si02
#       7
#     8   8   8   8   4   8   8
#     4   8  14  26  45  68  94 126 167 217 267 308
#     4  10  20  32  47  70 103 141 175 207 251 313
#     4   8  13  24  43  62  81 113 158 201 243 300
#     4  11  21  32  53  82 108 134 170 218 264 302
#     4   9  15  21  33  59  91 115 142 193 260 315
#     4   9  19  37  59  82 112 149 179 201 238 300
#     4   8  16  32  52  73  98 130 171 217 261 308
#
# _framework density 18.487749999999998
#
# number of rings (size 3 to 8) (size 9 to 14) (size 15 to 20)
#    0.000    3.000    0.000    3.462    0.000    4.615 
#    0.000    3.846    1.692    4.154    0.000    3.231 
#    0.000    0.000    0.000    0.000    0.000    0.000 
#
# Total GULP energy -290157.511444 kJ/mol
# GULP energy per Si atom -5579.952143 kJ/mol
# Density = 1.844567 g / cm^3
# Si number density = 18.487750 Si / 1000 Ang^3
#
#
#
# Elastic Constant Matrix: (Units=GPa)
#
#
# Indices 1 2 3 4 5 6 
#
# 1 59.0407 50.8680 27.3768 0.0000 0.0000 0.0000
# 2 50.8680 162.4547 86.3612 0.0000 0.0000 0.0000
# 3 27.3768 86.3612 88.3587 0.0000 0.0000 0.0000
# 4 0.0000 0.0000 0.0000 61.8562 0.0000 0.0000
# 5 0.0000 0.0000 0.0000 0.0000 4.8545 0.0000
# 6 0.0000 0.0000 0.0000 0.0000 0.0000 25.0780
#
#
#
# Elastic Compliance Matrix: (Units=1/GPa)
#
#
# Indices 1 2 3 4 5 6 
#
# 1 0.023196 -0.007166 -0.000183 0.000000 0.000000 0.000000
# 2 -0.007166 0.015027 -0.012467 0.000000 0.000000 0.000000
# 3 -0.000183 -0.012467 0.023559 0.000000 0.000000 0.000000
# 4 0.000000 0.000000 0.000000 0.016167 0.000000 0.000000
# 5 0.000000 0.000000 0.000000 0.000000 0.205996 0.000000
# 6 0.000000 0.000000 0.000000 0.000000 0.000000 0.039876
#
#
# Mechanical properties :
#
#
# Convention : Reuss Voigt Hill
#
# Bulk Modulus (GPa) = 45.14557 71.00735 58.07646
# Shear Modulus (GPa) = 13.48308 28.04095 20.76201
#
# Velocity S-wave (km/s) = 2.70348 3.89875 3.35478
# Velocity P-wave (km/s) = 5.84955 7.66539 6.81819
#
# Compressibility (1/GPa) = 0.02215057
#
# Stress axis : x y z
#
# Youngs Moduli (GPa) = 43.11021 66.54835 42.44632
#
# Poissons Ratio (x) = 0.47688 0.00778
# Poissons Ratio (y) = 0.30892 0.52917
# Poissons Ratio (z) = 0.00790 0.82964
#
# Static dielectric constant tensor:
#      x y z
#    x 1.686880 0.000000 0.000000 
#    y 0.000000 1.614240 0.000000 
#    z 0.000000 0.000000 1.627670 
# 
# From -- ./inp_files/7097.got.cif
#   From: 2010.05.17/outbox.cif.g08.bks.cpg/sg47_4_cif.got.tgz:7097.got - 2010.06.03 20:15:42.
