data_PCOD9384244
_publ_section_title
;
Structure prediction by ZEFSAII (Michael W. Deem and Ramdas Pophale) SiO2 
 PCOD9384244
Probable space group: P M M M
;
_chemical_formula_sum "Si O2"
_cell_formula_units_Z 64
_cell_length_a 30.258397
_cell_length_b 7.620599
_cell_length_c 14.839909
_cell_angle_alpha 90.000000
_cell_angle_beta 90.000000
_cell_angle_gamma 90.000000
_cell_volume 3421.891728
_symmetry_space_group_name_H-M "P M M M"
_symmetry_group_IT_number 47
_symmetry_cell_setting 'orthorhombic'
loop_
_space_group_symop_operation_xyz
x,y,z
-x,-y,z
x,-y,-z
-x,y,-z
-x,-y,-z
x,y,-z
-x,y,z
x,-y,z
loop_
_atom_site_type_symbol
_atom_site_label
_atom_site_fract_x
_atom_site_fract_y
_atom_site_fract_z
Si Si1 0.867953 0.713112 0.605525
Si Si2 0.048077 0.706754 0.714070
Si Si3 0.547564 0.707738 0.109141
Si Si4 0.271428 0.793377 0.217031
Si Si5 0.188983 0.786336 0.895984
Si Si6 0.089002 0.787689 0.102582
Si Si7 0.230578 0.710925 0.602079
Si Si8 0.643243 0.709284 0.897751
O O1 0.874360 0.753505 0.500000
O O2 0.867268 0.500000 0.613532
O O3 0.908835 0.781310 0.663814
O O4 0.818588 0.775186 0.630729
O O5 0.046885 0.500000 0.691865
O O6 0.056445 0.724629 0.820436
O O7 0.000000 0.781466 0.689892
O O8 0.500000 0.782387 0.139452
O O9 0.546592 0.500000 0.131581
O O10 0.595619 0.779658 0.136211
O O11 0.548144 0.719640 0.000000
O O12 0.227943 0.717900 0.167094
O O13 0.265989 0.757347 0.322554
O O14 0.316215 0.736696 0.168896
O O15 0.269369 0.000000 0.203892
O O16 0.139122 0.728659 0.873787
O O17 0.188155 0.000000 0.892076
O O18 0.197952 0.739208 0.000000
O O19 0.088536 0.000000 0.103075
O O20 0.079345 0.731886 0.000000
O O21 0.239250 0.773062 0.500000
O O22 0.228333 0.500000 0.598266
O O23 0.637605 0.500000 0.905669
O O24 0.652529 0.775613 0.000000
#
# Coordination Sequence:
#
# PCOD9384244 Si02
#       8
#     8   8   8   8   8   8   8   8
#     4   8  15  30  51  71  89 110 137 169 207 255
#     4  10  20  31  45  68  93 112 132 165 210 255
#     4   7  10  19  37  59  82 113 156 200 232 254
#     4  11  20  28  43  66  93 122 147 178 223 271
#     4   8  15  28  44  62  84 111 144 178 210 247
#     4   9  18  33  50  63  78 108 149 183 208 242
#     4   9  18  33  51  67  84 110 145 184 222 260
#     4   9  17  28  42  63  93 127 161 194 225 260
#
# _framework density 18.703105999999998
#
# number of rings (size 3 to 8) (size 9 to 14) (size 15 to 20)
#    0.000    3.125    0.000    4.125    0.000    2.000 
#    0.000    3.125    0.000    3.000    0.000    2.625 
#    0.000    0.500    0.000    5.750    0.000    1.875 
#
# Total GULP energy -356686.902740 kJ/mol
# GULP energy per Si atom -5573.232855 kJ/mol
# Density = 1.866054 g / cm^3
# Si number density = 18.703106 Si / 1000 Ang^3
#
#
#
# Elastic Constant Matrix: (Units=GPa)
#
#
# Indices 1 2 3 4 5 6 
#
# 1 124.6229 4.6796 70.9529 0.0000 0.0000 0.0000
# 2 4.6796 37.5856 -3.0230 0.0000 0.0000 0.0000
# 3 70.9529 -3.0230 64.9892 0.0000 0.0000 0.0000
# 4 0.0000 0.0000 0.0000 49.2543 0.0000 0.0000
# 5 0.0000 0.0000 0.0000 0.0000 16.7586 0.0000
# 6 0.0000 0.0000 0.0000 0.0000 0.0000 31.0214
#
#
#
# Elastic Compliance Matrix: (Units=1/GPa)
#
#
# Indices 1 2 3 4 5 6 
#
# 1 0.021998 -0.004688 -0.024235 0.000000 0.000000 0.000000
# 2 -0.004688 0.027705 0.006407 0.000000 0.000000 0.000000
# 3 -0.024235 0.006407 0.042144 0.000000 0.000000 0.000000
# 4 0.000000 0.000000 0.000000 0.020303 0.000000 0.000000
# 5 0.000000 0.000000 0.000000 0.000000 0.059671 0.000000
# 6 0.000000 0.000000 0.000000 0.000000 0.000000 0.032236
#
#
# Mechanical properties :
#
#
# Convention : Reuss Voigt Hill
#
# Bulk Modulus (GPa) = 21.36062 41.37963 31.37012
# Shear Modulus (GPa) = 18.88977 29.71275 24.30126
#
# Velocity S-wave (km/s) = 3.18147 3.99012 3.60851
# Velocity P-wave (km/s) = 4.99413 6.58791 5.84559
#
# Compressibility (1/GPa) = 0.04681513
#
# Stress axis : x y z
#
# Youngs Moduli (GPa) = 45.45837 36.09465 23.72818
#
# Poissons Ratio (x) = 0.16921 0.57505
# Poissons Ratio (y) = 0.21311 -0.15203
# Poissons Ratio (z) = 1.10168 -0.23126
#
# Static dielectric constant tensor:
#      x y z
#    x 1.702240 0.000000 0.000000 
#    y 0.000000 1.704930 0.000000 
#    z 0.000000 0.000000 1.643200 
# 
# From -- ./inp_files/25904.got.cif
#   From: 2010.05.17/outbox.cif.g08.bks.cpg/sg47_13_cif.got.tgz:25904.got - 2010.06.03 20:15:42.
