data_PCOD9384089
_publ_section_title
;
Structure prediction by ZEFSAII (Michael W. Deem and Ramdas Pophale) SiO2 
 PCOD9384089
Probable space group: P M M M
;
_chemical_formula_sum "Si O2"
_cell_formula_units_Z 56
_cell_length_a 15.985521
_cell_length_b 8.164040
_cell_length_c 20.996453
_cell_angle_alpha 90.000000
_cell_angle_beta 90.000000
_cell_angle_gamma 90.000000
_cell_volume 2740.172184
_symmetry_space_group_name_H-M "P M M M"
_symmetry_group_IT_number 47
_symmetry_cell_setting 'orthorhombic'
loop_
_space_group_symop_operation_xyz
x,y,z
-x,-y,z
x,-y,-z
-x,y,-z
-x,-y,-z
x,y,-z
-x,y,z
x,-y,z
loop_
_atom_site_type_symbol
_atom_site_label
_atom_site_fract_x
_atom_site_fract_y
_atom_site_fract_z
Si Si1 0.730931 0.697050 0.570328
Si Si2 0.870143 0.306190 0.236165
Si Si3 0.274954 0.695570 0.931126
Si Si4 0.090823 0.699973 0.379872
Si Si5 0.090782 0.808738 0.099475
Si Si6 0.324346 0.694157 0.205672
Si Si7 0.592204 0.193314 0.669973
O O1 0.705190 0.755120 0.500000
O O2 0.735929 0.500000 0.568848
O O3 0.824697 0.757840 0.586268
O O4 0.664749 0.739065 0.624717
O O5 0.888779 0.500000 0.227322
O O6 0.901850 0.255887 0.305252
O O7 0.905912 0.211444 0.175943
O O8 0.769871 0.287930 0.232947
O O9 0.287854 0.500000 0.930793
O O10 0.175150 0.723977 0.924515
O O11 0.318921 0.759557 0.866822
O O12 0.302269 0.761308 0.000000
O O13 0.091946 0.500000 0.382435
O O14 0.000000 0.753262 0.404879
O O15 0.000000 0.745109 0.077728
O O16 0.095993 0.000000 0.082747
O O17 0.342448 0.500000 0.203561
O O18 0.385443 0.773923 0.256374
O O19 0.500000 0.262284 0.655333
O O20 0.590382 0.000000 0.659825
#
# Coordination Sequence:
#
# PCOD9384089 Si02
#       7
#     8   8   8   8   8   8   8
#     4  10  21  38  59  84 116 151 188 231 278 327
#     4   9  16  29  50  73 101 139 182 228 276 324
#     4   9  19  35  54  76 103 139 181 223 272 330
#     4   9  16  28  50  80 112 145 183 227 273 321
#     4  10  20  30  41  65 103 142 183 232 279 323
#     4   9  17  33  58  84 109 137 176 226 273 322
#     4  11  24  40  60  86 114 145 182 226 279 339
#
# _framework density 20.436672000000002
#
# number of rings (size 3 to 8) (size 9 to 14) (size 15 to 20)
#    0.000    2.429    1.429    2.143    0.000    6.571 
#    0.000    4.286    0.000    0.857    0.000    4.000 
#    0.000    0.000    0.000    0.000    0.000    0.000 
#
# Total GULP energy -312406.941541 kJ/mol
# GULP energy per Si atom -5578.695385 kJ/mol
# Density = 2.039016 g / cm^3
# Si number density = 20.436672 Si / 1000 Ang^3
#
#
#
# Elastic Constant Matrix: (Units=GPa)
#
#
# Indices 1 2 3 4 5 6 
#
# 1 96.2862 12.5412 54.3863 0.0000 0.0000 0.0000
# 2 12.5412 6.9242 6.5977 0.0000 0.0000 0.0000
# 3 54.3863 6.5977 123.3417 0.0000 0.0000 0.0000
# 4 0.0000 0.0000 0.0000 -19.1392 0.0000 0.0000
# 5 0.0000 0.0000 0.0000 0.0000 -7.4870 0.0000
# 6 0.0000 0.0000 0.0000 0.0000 0.0000 18.9571
#
#
#
# Elastic Compliance Matrix: (Units=1/GPa)
#
#
# Indices 1 2 3 4 5 6 
#
# 1 0.017186 -0.025191 -0.006231 0.000000 0.000000 0.000000
# 2 -0.025191 0.189101 0.000992 0.000000 0.000000 0.000000
# 3 -0.006231 0.000992 0.010802 0.000000 0.000000 0.000000
# 4 0.000000 0.000000 0.000000 -0.052249 0.000000 0.000000
# 5 0.000000 0.000000 0.000000 0.000000 -0.133565 0.000000
# 6 0.000000 0.000000 0.000000 0.000000 0.000000 0.052751
#
#
# Mechanical properties :
#
#
# Convention : Reuss Voigt Hill
#
# Bulk Modulus (GPa) = 6.40077 41.51139 23.95608
# Shear Modulus (GPa) = 25.38577 8.66798 17.02688
#
# Velocity S-wave (km/s) = 3.52826 2.06170 2.88957
# Velocity P-wave (km/s) = 4.44263 5.10135 4.78334
#
# Compressibility (1/GPa) = 0.15623114
#
# Stress axis : x y z
#
# Youngs Moduli (GPa) = 58.18682 5.28817 92.57747
#
# Poissons Ratio (x) = 0.13321 0.57681
# Poissons Ratio (y) = 1.46577 -0.09186
# Poissons Ratio (z) = 0.36253 -0.00525
#
# Static dielectric constant tensor:
#      x y z
#    x 1.735710 0.000000 0.000000 
#    y 0.000000 1.712480 0.000000 
#    z 0.000000 0.000000 1.748620 
# 
# From -- ./inp_files/7262.got.cif
#   From: 2010.05.17/outbox.cif.g08.bks.cpg/sg47_4_cif.got.tgz:7262.got - 2010.06.03 20:15:42.
