data_PCOD9384876
_publ_section_title
;
Structure prediction by ZEFSAII (Michael W. Deem and Ramdas Pophale) SiO2 
 PCOD9384876
Probable space group: P M M M
;
_chemical_formula_sum "Si O2"
_cell_formula_units_Z 64
_cell_length_a 7.477411
_cell_length_b 15.309413
_cell_length_c 25.912013
_cell_angle_alpha 90.000000
_cell_angle_beta 90.000000
_cell_angle_gamma 90.000000
_cell_volume 2966.271811
_symmetry_space_group_name_H-M "P M M M"
_symmetry_group_IT_number 47
_symmetry_cell_setting 'orthorhombic'
loop_
_space_group_symop_operation_xyz
x,y,z
-x,-y,z
x,-y,-z
-x,y,-z
-x,-y,-z
x,y,-z
-x,y,z
x,-y,z
loop_
_atom_site_type_symbol
_atom_site_label
_atom_site_fract_x
_atom_site_fract_y
_atom_site_fract_z
Si Si1 0.287048 0.744949 0.365160
Si Si2 0.786469 0.599738 0.843950
Si Si3 0.715476 0.730631 0.751464
Si Si4 0.785053 0.100233 0.557843
Si Si5 0.208095 0.094903 0.925932
Si Si6 0.718273 0.598265 0.558485
Si Si7 0.283498 0.094055 0.805522
Si Si8 0.218528 0.710123 0.943442
O O1 0.500000 0.732480 0.361505
O O2 0.217554 0.731110 0.307296
O O3 0.262872 0.836266 0.395174
O O4 0.214436 0.670444 0.402699
O O5 0.717954 0.500000 0.842894
O O6 0.756162 0.651559 0.790479
O O7 0.719491 0.655936 0.893356
O O8 0.000000 0.594715 0.850482
O O9 0.500000 0.734980 0.749488
O O10 0.781352 0.820645 0.776698
O O11 0.723505 0.129451 0.500000
O O12 0.000000 0.098689 0.555990
O O13 0.724037 0.000000 0.565299
O O14 0.218292 0.096701 0.864046
O O15 0.282114 0.188929 0.942089
O O16 0.000000 0.094012 0.941372
O O17 0.285253 0.000000 0.941537
O O18 0.775146 0.616109 0.500000
O O19 0.500000 0.600123 0.558425
O O20 0.771046 0.500000 0.572563
O O21 0.500000 0.096653 0.806911
O O22 0.231266 0.000000 0.782595
O O23 0.000000 0.712945 0.940670
O O24 0.265088 0.672870 0.000000
#
# Coordination Sequence:
#
# PCOD9384876 Si02
#       8
#     8   8   8   8   8   8   8   8
#     4  10  20  32  51  80 106 132 174 224 267 309
#     4  10  21  37  56  76 100 134 177 222 265 314
#     4  10  21  35  52  76 105 137 171 212 264 316
#     4   9  19  36  55  76 108 150 188 220 262 315
#     4   9  16  27  47  74 100 127 160 199 246 301
#     4   8  14  26  45  69  97 126 156 198 253 306
#     4   9  17  30  48  68  94 130 166 199 241 296
#     4   9  17  30  50  77 106 132 163 212 268 315
#
# _framework density 21.575907000000001
#
# number of rings (size 3 to 8) (size 9 to 14) (size 15 to 20)
#    0.000    2.750    1.250    1.125    0.000    3.250 
#    0.000    5.625    0.000    3.375    0.000    4.375 
#    0.000    0.000    0.000    0.000    0.000    0.000 
#
# Total GULP energy -357006.179753 kJ/mol
# GULP energy per Si atom -5578.221559 kJ/mol
# Density = 2.152680 g / cm^3
# Si number density = 21.575907 Si / 1000 Ang^3
#
#
#
# Elastic Constant Matrix: (Units=GPa)
#
#
# Indices 1 2 3 4 5 6 
#
# 1 62.6066 4.7814 2.5065 0.0000 0.0000 0.0000
# 2 4.7814 175.2519 119.7163 0.0000 0.0000 0.0000
# 3 2.5065 119.7163 167.8622 0.0000 0.0000 0.0000
# 4 0.0000 0.0000 0.0000 1.0100 0.0000 0.0000
# 5 0.0000 0.0000 0.0000 0.0000 -184.9788 0.0000
# 6 0.0000 0.0000 0.0000 0.0000 0.0000 15.4413
#
#
#
# Elastic Compliance Matrix: (Units=1/GPa)
#
#
# Indices 1 2 3 4 5 6 
#
# 1 0.016008 -0.000533 0.000141 0.000000 0.000000 0.000000
# 2 -0.000533 0.011145 -0.007940 0.000000 0.000000 0.000000
# 3 0.000141 -0.007940 0.011618 0.000000 0.000000 0.000000
# 4 0.000000 0.000000 0.000000 0.990070 0.000000 0.000000
# 5 0.000000 0.000000 0.000000 0.000000 -0.005406 0.000000
# 6 0.000000 0.000000 0.000000 0.000000 0.000000 0.064762
#
#
# Mechanical properties :
#
#
# Convention : Reuss Voigt Hill
#
# Bulk Modulus (GPa) = 45.23636 73.30320 59.26978
# Shear Modulus (GPa) = 4.49548 -15.12440 -5.31446
#
# Velocity S-wave (km/s) = 1.44502 -2.65049 -1.57114
# Velocity P-wave (km/s) = 4.87809 4.96805 4.92328
#
# Compressibility (1/GPa) = 0.02210611
#
# Stress axis : x y z
#
# Youngs Moduli (GPa) = 62.46940 89.72910 86.07354
#
# Poissons Ratio (x) = 0.04785 -0.01216
# Poissons Ratio (y) = 0.03331 0.68344
# Poissons Ratio (z) = -0.00883 0.71247
#
# Static dielectric constant tensor:
#      x y z
#    x 1.831560 0.000000 0.000000 
#    y 0.000000 1.784580 0.000000 
#    z 0.000000 0.000000 1.775720 
# 
# From -- ./inp_files/32114.got.cif
#   From: 2010.05.17/outbox.cif.g08.bks.cpg/sg47_17_cif.got.tgz:32114.got - 2010.06.03 20:15:42.
