data_PCOD9384343
_publ_section_title
;
Structure prediction by ZEFSAII (Michael W. Deem and Ramdas Pophale) SiO2 
 PCOD9384343
Probable space group: P M M M
;
_chemical_formula_sum "Si O2"
_cell_formula_units_Z 52
_cell_length_a 14.386151
_cell_length_b 9.160243
_cell_length_c 24.916983
_cell_angle_alpha 90.000000
_cell_angle_beta 90.000000
_cell_angle_gamma 90.000000
_cell_volume 3283.575942
_symmetry_space_group_name_H-M "P M M M"
_symmetry_group_IT_number 47
_symmetry_cell_setting 'orthorhombic'
loop_
_space_group_symop_operation_xyz
x,y,z
-x,-y,z
x,-y,-z
-x,y,-z
-x,-y,-z
x,y,-z
-x,y,z
x,-y,z
loop_
_atom_site_type_symbol
_atom_site_label
_atom_site_fract_x
_atom_site_fract_y
_atom_site_fract_z
Si Si1 0.892359 0.172787 0.300713
Si Si2 0.285118 0.326309 0.342879
Si Si3 0.388870 0.828410 0.244652
Si Si4 0.286513 0.334853 0.850707
Si Si5 0.106369 0.826358 0.172655
Si Si6 0.389328 0.500000 0.063199
Si Si7 0.390886 0.172782 0.436751
O O1 0.818739 0.267567 0.332778
O O2 0.880189 0.198105 0.236699
O O3 0.000000 0.203924 0.313559
O O4 0.875980 0.000000 0.309841
O O5 0.288786 0.500000 0.340156
O O6 0.346389 0.255249 0.295344
O O7 0.326790 0.267328 0.398427
O O8 0.500000 0.813387 0.243742
O O9 0.344520 0.760975 0.191071
O O10 0.365322 0.000000 0.248556
O O11 0.275316 0.500000 0.827996
O O12 0.186022 0.262563 0.857218
O O13 0.342348 0.363502 0.905755
O O14 0.000000 0.785567 0.159453
O O15 0.116363 0.000000 0.163717
O O16 0.500000 0.500000 0.072235
O O17 0.371476 0.500000 0.000000
O O18 0.374855 0.198232 0.500000
O O19 0.500000 0.202906 0.425808
O O20 0.376048 0.000000 0.426306
#
# Coordination Sequence:
#
# PCOD9384343 Si02
#       7
#     8   8   8   8   8   4   8
#     4   9  18  33  52  73 102 141 179 213 255 316
#     4  12  23  32  49  78 111 140 169 214 268 324
#     4  11  22  34  49  72 106 143 175 214 267 321
#     4  10  20  31  53  80 105 133 174 221 263 315
#     4   9  17  31  52  78 109 143 177 214 263 323
#     4   9  20  38  57  77 107 147 183 219 265 316
#     4   9  19  37  58  76  97 135 186 227 260 308
#
# _framework density 15.836394
#
# number of rings (size 3 to 8) (size 9 to 14) (size 15 to 20)
#    0.462    1.615    1.538    4.615    0.000    4.000 
#    0.000    2.308    0.000    3.231    0.000    9.692 
#    0.000    0.000    0.000    0.000    0.000    0.000 
#
# Total GULP energy -289994.742008 kJ/mol
# GULP energy per Si atom -5576.821962 kJ/mol
# Density = 1.580035 g / cm^3
# Si number density = 15.836394 Si / 1000 Ang^3
#
#
#
# Elastic Constant Matrix: (Units=GPa)
#
#
# Indices 1 2 3 4 5 6 
#
# 1 125.0143 79.5559 64.2803 0.0000 0.0000 0.0000
# 2 79.5559 94.5566 54.8757 0.0000 0.0000 0.0000
# 3 64.2803 54.8757 73.8213 0.0000 0.0000 0.0000
# 4 0.0000 0.0000 0.0000 10.9610 0.0000 0.0000
# 5 0.0000 0.0000 0.0000 0.0000 16.9904 0.0000
# 6 0.0000 0.0000 0.0000 0.0000 0.0000 17.3150
#
#
#
# Elastic Compliance Matrix: (Units=1/GPa)
#
#
# Indices 1 2 3 4 5 6 
#
# 1 0.019894 -0.011757 -0.008584 0.000000 0.000000 0.000000
# 2 -0.011757 0.025547 -0.008754 0.000000 0.000000 0.000000
# 3 -0.008584 -0.008754 0.027528 0.000000 0.000000 0.000000
# 4 0.000000 0.000000 0.000000 0.091233 0.000000 0.000000
# 5 0.000000 0.000000 0.000000 0.000000 0.058857 0.000000
# 6 0.000000 0.000000 0.000000 0.000000 0.000000 0.057753
#
#
# Mechanical properties :
#
#
# Convention : Reuss Voigt Hill
#
# Bulk Modulus (GPa) = 67.65307 76.75733 72.20520
# Shear Modulus (GPa) = 14.53795 15.36530 14.95162
#
# Velocity S-wave (km/s) = 3.03315 3.11827 3.07600
# Velocity P-wave (km/s) = 7.42155 7.84468 7.63605
#
# Compressibility (1/GPa) = 0.01478129
#
# Stress axis : x y z
#
# Youngs Moduli (GPa) = 50.26552 39.14280 36.32723
#
# Poissons Ratio (x) = 0.46019 0.31182
# Poissons Ratio (y) = 0.59096 0.31800
# Poissons Ratio (z) = 0.43146 0.34264
#
# Static dielectric constant tensor:
#      x y z
#    x 1.536140 0.000000 0.000000 
#    y 0.000000 1.523520 0.000000 
#    z 0.000000 0.000000 1.503960 
# 
# From -- ./inp_files/32665.got.cif
#   From: 2010.05.17/outbox.cif.g08.bks.cpg/sg47_17_cif.got.tgz:32665.got - 2010.06.03 20:15:42.
