data_PCOD9384794
_publ_section_title
;
Structure prediction by ZEFSAII (Michael W. Deem and Ramdas Pophale) SiO2 
 PCOD9384794
Probable space group: P M M M
;
_chemical_formula_sum "Si O2"
_cell_formula_units_Z 44
_cell_length_a 29.164546
_cell_length_b 8.064824
_cell_length_c 9.559939
_cell_angle_alpha 90.000000
_cell_angle_beta 90.000000
_cell_angle_gamma 90.000000
_cell_volume 2248.563908
_symmetry_space_group_name_H-M "P M M M"
_symmetry_group_IT_number 47
_symmetry_cell_setting 'orthorhombic'
loop_
_space_group_symop_operation_xyz
x,y,z
-x,-y,z
x,-y,-z
-x,y,-z
-x,-y,-z
x,y,-z
-x,y,z
x,-y,z
loop_
_atom_site_type_symbol
_atom_site_label
_atom_site_fract_x
_atom_site_fract_y
_atom_site_fract_z
Si Si1 0.913556 0.697841 0.659419
Si Si2 0.725971 0.799568 0.159778
Si Si3 0.000000 0.197474 0.157820
Si Si4 0.551811 0.702281 0.839048
Si Si5 0.638048 0.700492 0.659738
Si Si6 0.812044 0.199539 0.339856
O O1 0.920351 0.761898 0.500000
O O2 0.913400 0.500000 0.653503
O O3 0.863237 0.754913 0.707073
O O4 0.954751 0.751068 0.758152
O O5 0.681665 0.750676 0.248767
O O6 0.771745 0.739621 0.239161
O O7 0.727891 0.000000 0.155698
O O8 0.723238 0.739250 0.000000
O O9 0.000000 0.000000 0.149808
O O10 0.000000 0.266072 0.000000
O O11 0.500000 0.754714 0.802243
O O12 0.551946 0.500000 0.837179
O O13 0.591547 0.759445 0.735527
O O14 0.561134 0.751739 0.000000
O O15 0.641752 0.760091 0.500000
O O16 0.636393 0.500000 0.656427
O O17 0.806093 0.260963 0.500000
O O18 0.809178 0.000000 0.344003
#
# Coordination Sequence:
#
# PCOD9384794 Si02
#       6
#     8   8   4   8   8   8
#     4  10  21  37  58  84 112 141 174 214 261 312
#     4  10  21  36  54  76 103 137 175 214 258 309
#     4  11  24  39  56  80 110 145 184 223 260 302
#     4   8  14  26  45  69  98 132 168 207 254 308
#     4  10  20  32  49  75 104 134 170 213 259 307
#     4   9  18  34  55  77 103 137 175 213 254 304
#
# _framework density 19.568045999999999
#
# number of rings (size 3 to 8) (size 9 to 14) (size 15 to 20)
#    0.000    2.455    0.000    2.727    0.000    6.909 
#    0.000    5.455    0.000    0.545    0.000    3.818 
#    0.000    0.000    0.000    0.000    0.000    0.000 
#
# Total GULP energy -245622.149917 kJ/mol
# GULP energy per Si atom -5582.321589 kJ/mol
# Density = 1.952351 g / cm^3
# Si number density = 19.568046 Si / 1000 Ang^3
#
#
#
# Elastic Constant Matrix: (Units=GPa)
#
#
# Indices 1 2 3 4 5 6 
#
# 1 210.6007 9.3731 144.7497 0.0000 0.0000 0.0000
# 2 9.3731 13.0473 11.6539 0.0000 0.0000 0.0000
# 3 144.7497 11.6539 164.8405 0.0000 0.0000 0.0000
# 4 0.0000 0.0000 0.0000 17.7769 0.0000 0.0000
# 5 0.0000 0.0000 0.0000 0.0000 97.5769 0.0000
# 6 0.0000 0.0000 0.0000 0.0000 0.0000 27.9299
#
#
#
# Elastic Compliance Matrix: (Units=1/GPa)
#
#
# Indices 1 2 3 4 5 6 
#
# 1 0.011986 0.000844 -0.010585 0.000000 0.000000 0.000000
# 2 0.000844 0.081869 -0.006529 0.000000 0.000000 0.000000
# 3 -0.010585 -0.006529 0.015823 0.000000 0.000000 0.000000
# 4 0.000000 0.000000 0.000000 0.056253 0.000000 0.000000
# 5 0.000000 0.000000 0.000000 0.000000 0.010248 0.000000
# 6 0.000000 0.000000 0.000000 0.000000 0.000000 0.035804
#
#
# Mechanical properties :
#
#
# Convention : Reuss Voigt Hill
#
# Bulk Modulus (GPa) = 12.96374 80.00465 46.48420
# Shear Modulus (GPa) = 18.50242 43.50420 31.00331
#
# Velocity S-wave (km/s) = 3.07830 4.72023 3.98475
# Velocity P-wave (km/s) = 4.39021 8.40723 6.70654
#
# Compressibility (1/GPa) = 0.07713823
#
# Stress axis : x y z
#
# Youngs Moduli (GPa) = 83.43257 12.21458 63.20097
#
# Poissons Ratio (x) = -0.01031 0.66895
# Poissons Ratio (y) = -0.07039 0.41263
# Poissons Ratio (z) = 0.88310 0.07975
#
# Static dielectric constant tensor:
#      x y z
#    x 1.664900 0.000000 0.000000 
#    y 0.000000 1.705530 0.000000 
#    z 0.000000 0.000000 1.687370 
# 
# From -- ./inp_files/13563.got.cif
#   From: 2010.05.17/outbox.cif.g08.bks.cpg/sg47_7_cif.got.tgz:13563.got - 2010.06.03 20:15:42.
