data_PCOD9384589
_publ_section_title
;
Structure prediction by ZEFSAII (Michael W. Deem and Ramdas Pophale) SiO2 
 PCOD9384589
Probable space group: P M M M
;
_chemical_formula_sum "Si O2"
_cell_formula_units_Z 64
_cell_length_a 14.776241
_cell_length_b 9.440350
_cell_length_c 21.946944
_cell_angle_alpha 90.000000
_cell_angle_beta 90.000000
_cell_angle_gamma 90.000000
_cell_volume 3061.442573
_symmetry_space_group_name_H-M "P M M M"
_symmetry_group_IT_number 47
_symmetry_cell_setting 'orthorhombic'
loop_
_space_group_symop_operation_xyz
x,y,z
-x,-y,z
x,-y,-z
-x,y,-z
-x,-y,-z
x,y,-z
-x,y,z
x,-y,z
loop_
_atom_site_type_symbol
_atom_site_label
_atom_site_fract_x
_atom_site_fract_y
_atom_site_fract_z
Si Si1 0.394906 0.844825 0.323424
Si Si2 0.395838 0.169162 0.098842
Si Si3 0.108005 0.331247 0.811919
Si Si4 0.780637 0.668998 0.933699
Si Si5 0.635781 0.345915 0.569062
Si Si6 0.608034 0.343680 0.219853
Si Si7 0.853278 0.662118 0.431090
Si Si8 0.108231 0.161865 0.308860
O O1 0.500000 0.856668 0.305059
O O2 0.393596 0.784782 0.390875
O O3 0.352666 0.724438 0.280895
O O4 0.354110 0.000000 0.317708
O O5 0.500000 0.204190 0.080232
O O6 0.314706 0.249257 0.065872
O O7 0.383371 0.228228 0.167201
O O8 0.386559 0.000000 0.095172
O O9 0.120029 0.500000 0.801920
O O10 0.161589 0.291062 0.873772
O O11 0.139340 0.246820 0.751600
O O12 0.000000 0.307417 0.820756
O O13 0.764335 0.500000 0.929571
O O14 0.825663 0.695152 0.000000
O O15 0.603878 0.336805 0.500000
O O16 0.607203 0.500000 0.594617
O O17 0.744403 0.344375 0.567526
O O18 0.500000 0.361990 0.227265
O O19 0.645487 0.500000 0.205235
O O20 0.882306 0.707797 0.500000
O O21 0.886102 0.500000 0.421890
O O22 0.875532 0.759129 0.373215
O O23 0.000000 0.156218 0.302499
O O24 0.142127 0.000000 0.310232
#
# Coordination Sequence:
#
# PCOD9384589 Si02
#       8
#     8   8   8   8   8   8   8   8
#     4  10  20  32  47  70  99 129 166 216 272 329
#     4  10  21  37  57  82 115 154 193 234 281 334
#     4   9  19  38  63  88 116 152 193 239 291 346
#     4  10  22  39  60  89 121 153 194 242 292 348
#     4   9  19  35  51  67  91 127 173 222 270 323
#     4   9  17  31  52  75  99 131 173 220 272 330
#     4   9  19  36  56  78 106 142 184 227 271 324
#     4  10  21  36  56  85 118 149 183 224 271 327
#
# _framework density 20.905177999999999
#
# number of rings (size 3 to 8) (size 9 to 14) (size 15 to 20)
#    0.000    2.500    0.000    2.250    0.000    7.500 
#    0.000    7.500    0.000    0.000    0.000    2.625 
#    0.000    0.000    0.000    0.000    0.000    0.000 
#
# Total GULP energy -356898.210520 kJ/mol
# GULP energy per Si atom -5576.534539 kJ/mol
# Density = 2.085760 g / cm^3
# Si number density = 20.905178 Si / 1000 Ang^3
#
#
#
# Elastic Constant Matrix: (Units=GPa)
#
#
# Indices 1 2 3 4 5 6 
#
# 1 79.1944 27.9162 33.9183 0.0000 0.0000 0.0000
# 2 27.9162 82.4768 74.6935 0.0000 0.0000 0.0000
# 3 33.9183 74.6935 165.7370 0.0000 0.0000 0.0000
# 4 0.0000 0.0000 0.0000 -465.5198 0.0000 0.0000
# 5 0.0000 0.0000 0.0000 0.0000 20.2995 0.0000
# 6 0.0000 0.0000 0.0000 0.0000 0.0000 11.4621
#
#
#
# Elastic Compliance Matrix: (Units=1/GPa)
#
#
# Indices 1 2 3 4 5 6 
#
# 1 0.014496 -0.003751 -0.001276 0.000000 0.000000 0.000000
# 2 -0.003751 0.021456 -0.008902 0.000000 0.000000 0.000000
# 3 -0.001276 -0.008902 0.010307 0.000000 0.000000 0.000000
# 4 0.000000 0.000000 0.000000 -0.002148 0.000000 0.000000
# 5 0.000000 0.000000 0.000000 0.000000 0.049262 0.000000
# 6 0.000000 0.000000 0.000000 0.000000 0.000000 0.087244
#
#
# Mechanical properties :
#
#
# Convention : Reuss Voigt Hill
#
# Bulk Modulus (GPa) = 54.34576 66.71824 60.53200
# Shear Modulus (GPa) = 23.29823 -74.02627 -25.36402
#
# Velocity S-wave (km/s) = 3.34199 -5.95713 -3.48701
# Velocity P-wave (km/s) = 6.39880 3.91567 3.57856
#
# Compressibility (1/GPa) = 0.01840070
#
# Stress axis : x y z
#
# Youngs Moduli (GPa) = 68.98512 46.60656 97.02288
#
# Poissons Ratio (x) = 0.17480 0.12383
# Poissons Ratio (y) = 0.25874 0.86372
# Poissons Ratio (z) = 0.08804 0.41490
#
# Static dielectric constant tensor:
#      x y z
#    x 1.788540 0.000000 0.000000 
#    y 0.000000 1.761380 0.000000 
#    z 0.000000 0.000000 1.775450 
# 
# From -- ./inp_files/32789.got.cif
#   From: 2010.05.17/outbox.cif.g08.bks.cpg/sg47_17_cif.got.tgz:32789.got - 2010.06.03 20:15:42.
