data_PCOD9384460
_publ_section_title
;
Structure prediction by ZEFSAII (Michael W. Deem and Ramdas Pophale) SiO2 
 PCOD9384460
Probable space group: P M M M
;
_chemical_formula_sum "Si O2"
_cell_formula_units_Z 64
_cell_length_a 7.761144
_cell_length_b 19.467175
_cell_length_c 19.173071
_cell_angle_alpha 90.000000
_cell_angle_beta 90.000000
_cell_angle_gamma 90.000000
_cell_volume 2896.812294
_symmetry_space_group_name_H-M "P M M M"
_symmetry_group_IT_number 47
_symmetry_cell_setting 'orthorhombic'
loop_
_space_group_symop_operation_xyz
x,y,z
-x,-y,z
x,-y,-z
-x,y,-z
-x,-y,-z
x,y,-z
-x,y,z
x,-y,z
loop_
_atom_site_type_symbol
_atom_site_label
_atom_site_fract_x
_atom_site_fract_y
_atom_site_fract_z
Si Si1 0.302743 0.403468 0.922689
Si Si2 0.289448 0.424580 0.374303
Si Si3 0.708484 0.722319 0.424521
Si Si4 0.796841 0.223574 0.273514
Si Si5 0.806645 0.747814 0.081676
Si Si6 0.293409 0.624323 0.222384
Si Si7 0.199849 0.926323 0.230083
Si Si8 0.698731 0.102517 0.919902
O O1 0.500000 0.427122 0.924767
O O2 0.300882 0.321129 0.915353
O O3 0.222479 0.415668 0.846300
O O4 0.226160 0.419654 0.000000
O O5 0.500000 0.424839 0.375285
O O6 0.232414 0.500000 0.397588
O O7 0.235695 0.357314 0.416562
O O8 0.235082 0.409927 0.294446
O O9 0.765784 0.749144 0.500000
O O10 0.500000 0.722832 0.423321
O O11 0.765230 0.761228 0.355023
O O12 0.736705 0.292807 0.231915
O O13 0.724902 0.147818 0.253687
O O14 0.000000 0.220373 0.261557
O O15 0.710508 0.816873 0.099697
O O16 0.000000 0.741196 0.112197
O O17 0.833299 0.756720 0.000000
O O18 0.500000 0.616077 0.218609
O O19 0.205087 0.928396 0.145769
O O20 0.000000 0.925847 0.252213
O O21 0.276503 0.000000 0.254075
O O22 0.500000 0.081141 0.918981
O O23 0.761870 0.091429 0.000000
#
# Coordination Sequence:
#
# PCOD9384460 Si02
#       8
#     8   8   8   8   8   8   8   8
#     4   9  16  25  38  58  86 120 160 210 263 305
#     4   8  14  26  46  73 104 137 170 198 225 268
#     4   9  18  33  55  83 110 134 160 191 230 278
#     4  10  20  34  53  75  99 128 162 200 242 291
#     4   9  16  25  38  57  81 110 147 193 246 300
#     4   9  17  29  46  68  95 129 168 208 249 293
#     4  10  22  38  53  70  94 127 168 212 256 300
#     4  10  20  32  46  66  93 125 163 207 254 305
#
# _framework density 22.093250999999999
#
# number of rings (size 3 to 8) (size 9 to 14) (size 15 to 20)
#    0.000    2.750    0.000    2.625    0.000    6.750 
#    0.000    2.500    0.000    6.750    0.000    8.750 
#    0.000    0.000    0.000    7.625    0.000    8.250 
#
# Total GULP energy -356321.621795 kJ/mol
# GULP energy per Si atom -5567.525341 kJ/mol
# Density = 2.204297 g / cm^3
# Si number density = 22.093251 Si / 1000 Ang^3
#
#
#
# Elastic Constant Matrix: (Units=GPa)
#
#
# Indices 1 2 3 4 5 6 
#
# 1 44.0671 6.4815 0.5990 0.0000 0.0000 0.0000
# 2 6.4815 144.3905 34.9648 0.0000 0.0000 0.0000
# 3 0.5990 34.9648 138.5161 0.0000 0.0000 0.0000
# 4 0.0000 0.0000 0.0000 -5.1582 0.0000 0.0000
# 5 0.0000 0.0000 0.0000 0.0000 12.4185 0.0000
# 6 0.0000 0.0000 0.0000 0.0000 0.0000 -1.9474
#
#
#
# Elastic Compliance Matrix: (Units=1/GPa)
#
#
# Indices 1 2 3 4 5 6 
#
# 1 0.022847 -0.001067 0.000171 0.000000 0.000000 0.000000
# 2 -0.001067 0.007426 -0.001870 0.000000 0.000000 0.000000
# 3 0.000171 -0.001870 0.007691 0.000000 0.000000 0.000000
# 4 0.000000 0.000000 0.000000 -0.193867 0.000000 0.000000
# 5 0.000000 0.000000 0.000000 0.000000 0.080525 0.000000
# 6 0.000000 0.000000 0.000000 0.000000 0.000000 -0.513496
#
#
# Mechanical properties :
#
#
# Convention : Reuss Voigt Hill
#
# Bulk Modulus (GPa) = 30.83411 45.67381 38.25396
# Shear Modulus (GPa) = -8.73316 20.05779 5.66232
#
# Velocity S-wave (km/s) = -1.99034 3.01636 1.60265
# Velocity P-wave (km/s) = 2.95038 5.73143 4.55818
#
# Compressibility (1/GPa) = 0.03243162
#
# Stress axis : x y z
#
# Youngs Moduli (GPa) = 43.76891 134.65508 130.02764
#
# Poissons Ratio (x) = 0.14366 -0.02217
# Poissons Ratio (y) = 0.04670 0.24315
# Poissons Ratio (z) = -0.00746 0.25180
#
# Static dielectric constant tensor:
#      x y z
#    x 1.832280 0.000000 0.000000 
#    y 0.000000 1.883770 0.000000 
#    z 0.000000 0.000000 1.866990 
# 
# From -- ./inp_files/30119.got.cif
#   From: 2010.05.17/outbox.cif.g08.bks.cpg/sg47_16_cif.got.tgz:30119.got - 2010.06.03 20:15:42.
