data_PCOD9384374
_publ_section_title
;
Structure prediction by ZEFSAII (Michael W. Deem and Ramdas Pophale) SiO2 
 PCOD9384374
Probable space group: P M M M
;
_chemical_formula_sum "Si O2"
_cell_formula_units_Z 40
_cell_length_a 8.964999
_cell_length_b 17.342030
_cell_length_c 18.558560
_cell_angle_alpha 90.000000
_cell_angle_beta 90.000000
_cell_angle_gamma 90.000000
_cell_volume 2885.323108
_symmetry_space_group_name_H-M "P M M M"
_symmetry_group_IT_number 47
_symmetry_cell_setting 'orthorhombic'
loop_
_space_group_symop_operation_xyz
x,y,z
-x,-y,z
x,-y,-z
-x,y,-z
-x,-y,-z
x,y,-z
-x,y,z
x,-y,z
loop_
_atom_site_type_symbol
_atom_site_label
_atom_site_fract_x
_atom_site_fract_y
_atom_site_fract_z
Si Si1 0.322211 0.325222 0.636549
Si Si2 0.825435 0.407661 0.500000
Si Si3 0.180961 0.000000 0.584037
Si Si4 0.821391 0.830384 0.413137
Si Si5 0.176868 0.591988 0.771845
Si Si6 0.673999 0.593477 0.079827
O O1 0.500000 0.328263 0.633460
O O2 0.252420 0.373571 0.570534
O O3 0.264208 0.238304 0.625354
O O4 0.262722 0.361967 0.710293
O O5 0.816605 0.500000 0.500000
O O6 0.000000 0.384961 0.500000
O O7 0.226466 0.083865 0.612624
O O8 0.224627 0.000000 0.500000
O O9 0.000000 0.000000 0.585480
O O10 0.796936 0.825304 0.500000
O O11 0.000000 0.822263 0.402389
O O12 0.207988 0.500000 0.764382
O O13 0.230291 0.617145 0.851356
O O14 0.000000 0.602614 0.763815
O O15 0.500000 0.614648 0.089435
O O16 0.679420 0.500000 0.078478
O O17 0.723159 0.619862 0.000000
#
# Coordination Sequence:
#
# PCOD9384374 Si02
#       6
#     8   4   4   8   8   8
#     4  12  23  32  44  62  85 111 142 179 220 259
#     4  11  23  37  49  58  73 104 147 189 224 255
#     4   7  12  24  45  69  83 101 133 166 205 254
#     4   9  16  29  48  65  84 108 137 172 210 255
#     4  10  20  32  45  61  82 111 148 185 218 252
#     4   8  14  26  44  64  85 108 134 168 213 261
#
# _framework density 13.863265
#
# number of rings (size 3 to 8) (size 9 to 14) (size 15 to 20)
#    0.000    2.400    1.000    5.100    0.000    4.800 
#    0.000    2.500    0.000    1.800    0.000    0.000 
#    0.000    0.000    0.000    0.900    0.000   17.400 
#
# Total GULP energy -222898.868353 kJ/mol
# GULP energy per Si atom -5572.471709 kJ/mol
# Density = 1.383171 g / cm^3
# Si number density = 13.863265 Si / 1000 Ang^3
#
#
#
# Elastic Constant Matrix: (Units=GPa)
#
#
# Indices 1 2 3 4 5 6 
#
# 1 79.9331 54.1342 55.7056 0.0000 0.0000 0.0000
# 2 54.1342 82.7118 46.7809 0.0000 0.0000 0.0000
# 3 55.7056 46.7809 96.2180 0.0000 0.0000 0.0000
# 4 0.0000 0.0000 0.0000 -1.7370 0.0000 0.0000
# 5 0.0000 0.0000 0.0000 0.0000 -73.0053 0.0000
# 6 0.0000 0.0000 0.0000 0.0000 0.0000 3.6603
#
#
#
# Elastic Compliance Matrix: (Units=1/GPa)
#
#
# Indices 1 2 3 4 5 6 
#
# 1 0.028185 -0.012714 -0.010136 0.000000 0.000000 0.000000
# 2 -0.012714 0.022411 -0.003535 0.000000 0.000000 0.000000
# 3 -0.010136 -0.003535 0.017980 0.000000 0.000000 0.000000
# 4 0.000000 0.000000 0.000000 -0.575705 0.000000 0.000000
# 5 0.000000 0.000000 0.000000 0.000000 -0.013698 0.000000
# 6 0.000000 0.000000 0.000000 0.000000 0.000000 0.273199
#
#
# Mechanical properties :
#
#
# Convention : Reuss Voigt Hill
#
# Bulk Modulus (GPa) = 63.27057 63.56713 63.41885
# Shear Modulus (GPa) = -26.37284 -7.40024 -16.88654
#
# Velocity S-wave (km/s) = -4.36633 -2.31292 -3.49388
# Velocity P-wave (km/s) = 4.50758 6.23054 5.43774
#
# Compressibility (1/GPa) = 0.01580514
#
# Stress axis : x y z
#
# Youngs Moduli (GPa) = 35.48021 44.62136 55.61622
#
# Poissons Ratio (x) = 0.56730 0.56374
# Poissons Ratio (y) = 0.45109 0.19663
# Poissons Ratio (z) = 0.35964 0.15776
#
# Static dielectric constant tensor:
#      x y z
#    x 1.458650 0.000000 0.000000 
#    y 0.000000 1.461400 0.000000 
#    z 0.000000 0.000000 1.446130 
# 
# From -- ./inp_files/26636.got.cif
#   From: 2010.05.17/outbox.cif.g08.bks.cpg/sg47_14_cif.got.tgz:26636.got - 2010.06.03 20:15:42.
