data_PCOD9384416
_publ_section_title
;
Structure prediction by ZEFSAII (Michael W. Deem and Ramdas Pophale) SiO2 
 PCOD9384416
Probable space group: P M M M
;
_chemical_formula_sum "Si O2"
_cell_formula_units_Z 60
_cell_length_a 9.264264
_cell_length_b 18.858961
_cell_length_c 24.357079
_cell_angle_alpha 90.000000
_cell_angle_beta 90.000000
_cell_angle_gamma 90.000000
_cell_volume 4255.532284
_symmetry_space_group_name_H-M "P M M M"
_symmetry_group_IT_number 47
_symmetry_cell_setting 'orthorhombic'
loop_
_space_group_symop_operation_xyz
x,y,z
-x,-y,z
x,-y,-z
-x,y,-z
-x,-y,-z
x,y,-z
-x,y,z
x,-y,z
loop_
_atom_site_type_symbol
_atom_site_label
_atom_site_fract_x
_atom_site_fract_y
_atom_site_fract_z
Si Si1 0.327001 0.917049 0.664687
Si Si2 0.672935 0.837928 0.221956
Si Si3 0.835184 0.712649 0.727369
Si Si4 0.165966 0.206537 0.390516
Si Si5 0.327053 0.916035 0.110860
Si Si6 0.173745 0.417564 0.339735
Si Si7 0.671119 0.663538 0.562806
Si Si8 0.833701 0.086217 0.000000
O O1 0.500000 0.908214 0.657785
O O2 0.290493 0.888066 0.725838
O O3 0.243108 0.867910 0.621514
O O4 0.292636 0.000000 0.660196
O O5 0.500000 0.832335 0.221153
O O6 0.740540 0.761140 0.233187
O O7 0.719153 0.873516 0.164994
O O8 0.835033 0.753419 0.668616
O O9 0.784562 0.633977 0.710787
O O10 0.000000 0.709720 0.747156
O O11 0.256506 0.259345 0.428698
O O12 0.000000 0.198981 0.408398
O O13 0.500000 0.908531 0.104143
O O14 0.298568 0.000000 0.119204
O O15 0.247607 0.892034 0.055557
O O16 0.203952 0.500000 0.330460
O O17 0.253507 0.388725 0.393828
O O18 0.000000 0.408715 0.347078
O O19 0.692076 0.640267 0.500000
O O20 0.500000 0.667977 0.573928
O O21 0.000000 0.108707 0.000000
O O22 0.830521 0.000000 0.000000
#
# Coordination Sequence:
#
# PCOD9384416 Si02
#       8
#     8   8   8   8   8   8   8   4
#     4   9  16  26  41  61  84 107 131 164 207 249
#     4   9  16  25  39  59  81 106 137 170 202 239
#     4   8  15  27  41  58  80 105 132 161 195 234
#     4   9  17  29  44  60  79 105 135 164 197 241
#     4   9  16  26  39  54  75 106 143 178 209 241
#     4   9  18  32  48  65  86 112 138 161 189 231
#     4  10  20  32  46  64  84 105 131 164 200 237
#     4   9  17  27  37  51  73 103 140 179 216 249
#
# _framework density 14.099292999999999
#
# number of rings (size 3 to 8) (size 9 to 14) (size 15 to 20)
#    0.000    3.000    0.000    2.200    0.000    8.000 
#    0.000    1.333    0.000    2.800    0.000    2.800 
#    0.000    0.000    0.000    0.600    0.000   12.133 
#
# Total GULP energy -334082.530338 kJ/mol
# GULP energy per Si atom -5568.042172 kJ/mol
# Density = 1.406720 g / cm^3
# Si number density = 14.099293 Si / 1000 Ang^3
#
#
#
# Elastic Constant Matrix: (Units=GPa)
#
#
# Indices 1 2 3 4 5 6 
#
# 1 36.1761 36.5774 23.4943 0.0000 0.0000 0.0000
# 2 36.5774 105.7390 32.2013 0.0000 0.0000 0.0000
# 3 23.4943 32.2013 44.4076 0.0000 0.0000 0.0000
# 4 0.0000 0.0000 0.0000 14.1657 0.0000 0.0000
# 5 0.0000 0.0000 0.0000 0.0000 14.7174 0.0000
# 6 0.0000 0.0000 0.0000 0.0000 0.0000 21.0526
#
#
#
# Elastic Compliance Matrix: (Units=1/GPa)
#
#
# Indices 1 2 3 4 5 6 
#
# 1 0.052325 -0.012410 -0.018684 0.000000 0.000000 0.000000
# 2 -0.012410 0.015081 -0.004370 0.000000 0.000000 0.000000
# 3 -0.018684 -0.004370 0.035572 0.000000 0.000000 0.000000
# 4 0.000000 0.000000 0.000000 0.070593 0.000000 0.000000
# 5 0.000000 0.000000 0.000000 0.000000 0.067947 0.000000
# 6 0.000000 0.000000 0.000000 0.000000 0.000000 0.047500
#
#
# Mechanical properties :
#
#
# Convention : Reuss Voigt Hill
#
# Bulk Modulus (GPa) = 31.20137 41.20764 36.20450
# Shear Modulus (GPa) = 13.49057 16.25713 14.87385
#
# Velocity S-wave (km/s) = 3.09662 3.39934 3.25150
# Velocity P-wave (km/s) = 5.91297 6.68562 6.31113
#
# Compressibility (1/GPa) = 0.03204988
#
# Stress axis : x y z
#
# Youngs Moduli (GPa) = 19.11143 66.30840 28.11173
#
# Poissons Ratio (x) = 0.82291 0.52524
# Poissons Ratio (y) = 0.23718 0.12284
# Poissons Ratio (z) = 0.35708 0.28976
#
# Static dielectric constant tensor:
#      x y z
#    x 1.476470 0.000000 0.000000 
#    y 0.000000 1.462790 0.000000 
#    z 0.000000 0.000000 1.448270 
# 
# From -- ./inp_files/32229.got.cif
#   From: 2010.05.17/outbox.cif.g08.bks.cpg/sg47_17_cif.got.tgz:32229.got - 2010.06.03 20:15:42.
