data_PCOD9384921
_publ_section_title
;
Structure prediction by ZEFSAII (Michael W. Deem and Ramdas Pophale) SiO2 
 PCOD9384921
Probable space group: P M M M
;
_chemical_formula_sum "Si O2"
_cell_formula_units_Z 56
_cell_length_a 16.239458
_cell_length_b 13.947031
_cell_length_c 14.820710
_cell_angle_alpha 90.000000
_cell_angle_beta 90.000000
_cell_angle_gamma 90.000000
_cell_volume 3356.775571
_symmetry_space_group_name_H-M "P M M M"
_symmetry_group_IT_number 47
_symmetry_cell_setting 'orthorhombic'
loop_
_space_group_symop_operation_xyz
x,y,z
-x,-y,z
x,-y,-z
-x,y,-z
-x,-y,-z
x,y,-z
-x,y,z
x,-y,z
loop_
_atom_site_type_symbol
_atom_site_label
_atom_site_fract_x
_atom_site_fract_y
_atom_site_fract_z
Si Si1 0.669397 0.886195 0.399055
Si Si2 0.151803 0.791928 0.397573
Si Si3 0.902116 0.384051 0.097113
Si Si4 0.909950 0.884649 0.218582
Si Si5 0.248561 0.116901 0.896272
Si Si6 0.099565 0.387394 0.701729
Si Si7 0.409245 0.116260 0.212398
O O1 0.635514 0.871783 0.500000
O O2 0.754260 0.828217 0.390779
O O3 0.609681 0.861596 0.316940
O O4 0.689480 0.000000 0.390116
O O5 0.123870 0.809930 0.500000
O O6 0.102536 0.847438 0.319858
O O7 0.140966 0.681025 0.371207
O O8 0.893697 0.500000 0.096683
O O9 0.873015 0.355612 0.197106
O O10 0.000000 0.364888 0.096307
O O11 0.868335 0.348839 0.000000
O O12 0.833737 0.853820 0.156579
O O13 0.000000 0.853695 0.184469
O O14 0.908569 0.000000 0.220092
O O15 0.331654 0.149912 0.846334
O O16 0.249678 0.000000 0.894359
O O17 0.247162 0.146388 0.000000
O O18 0.117350 0.500000 0.690025
O O19 0.000000 0.376647 0.696777
O O20 0.500000 0.150826 0.185289
O O21 0.410326 0.000000 0.205029
#
# Coordination Sequence:
#
# PCOD9384921 Si02
#       7
#     8   8   8   8   8   8   8
#     4   9  17  30  48  68  92 123 156 192 235 279
#     4  11  21  32  47  64  86 120 160 198 238 280
#     4   7  10  20  40  61  78  99 129 169 221 275
#     4  10  20  33  48  65  87 120 164 205 236 270
#     4   9  17  30  46  64  91 125 159 196 234 272
#     4   9  18  31  45  63  88 116 149 193 241 285
#     4   9  16  27  46  71  96 122 152 186 231 288
#
# _framework density 16.682676000000001
#
# number of rings (size 3 to 8) (size 9 to 14) (size 15 to 20)
#    0.000    2.857    1.429    2.143    0.000    3.143 
#    0.000    6.429    0.000    1.714    0.000    0.000 
#    0.000    0.571    0.000    3.143    0.000    1.857 
#
# Total GULP energy -311940.104247 kJ/mol
# GULP energy per Si atom -5570.359004 kJ/mol
# Density = 1.664471 g / cm^3
# Si number density = 16.682676 Si / 1000 Ang^3
#
#
#
# Elastic Constant Matrix: (Units=GPa)
#
#
# Indices 1 2 3 4 5 6 
#
# 1 107.5513 19.9076 66.2842 0.0000 0.0000 0.0000
# 2 19.9076 39.2237 14.3262 0.0000 0.0000 0.0000
# 3 66.2842 14.3262 117.6378 0.0000 0.0000 0.0000
# 4 0.0000 0.0000 0.0000 16.1895 0.0000 0.0000
# 5 0.0000 0.0000 0.0000 0.0000 2.6078 0.0000
# 6 0.0000 0.0000 0.0000 0.0000 0.0000 3.9700
#
#
#
# Elastic Compliance Matrix: (Units=1/GPa)
#
#
# Indices 1 2 3 4 5 6 
#
# 1 0.015045 -0.004751 -0.007899 0.000000 0.000000 0.000000
# 2 -0.004751 0.028182 -0.000755 0.000000 0.000000 0.000000
# 3 -0.007899 -0.000755 0.013043 0.000000 0.000000 0.000000
# 4 0.000000 0.000000 0.000000 0.061768 0.000000 0.000000
# 5 0.000000 0.000000 0.000000 0.000000 0.383458 0.000000
# 6 0.000000 0.000000 0.000000 0.000000 0.000000 0.251890
#
#
# Mechanical properties :
#
#
# Convention : Reuss Voigt Hill
#
# Bulk Modulus (GPa) = 33.94356 51.71654 42.83005
# Shear Modulus (GPa) = 6.32898 15.47980 10.90439
#
# Velocity S-wave (km/s) = 1.94987 3.04944 2.55940
# Velocity P-wave (km/s) = 5.04580 6.59289 5.87053
#
# Compressibility (1/GPa) = 0.02946067
#
# Stress axis : x y z
#
# Youngs Moduli (GPa) = 66.46542 35.48370 76.66763
#
# Poissons Ratio (x) = 0.16859 0.60559
# Poissons Ratio (y) = 0.31579 0.05788
# Poissons Ratio (z) = 0.52500 0.02679
#
# Static dielectric constant tensor:
#      x y z
#    x 1.557910 0.000000 0.000000 
#    y 0.000000 1.572700 0.000000 
#    z 0.000000 0.000000 1.602660 
# 
# From -- ./inp_files/23828.got.cif
#   From: 2010.05.17/outbox.cif.g08.bks.cpg/sg47_12_cif.got.tgz:23828.got - 2010.06.03 20:15:42.
