data_PCOD9384402
_publ_section_title
;
Structure prediction by ZEFSAII (Michael W. Deem and Ramdas Pophale) SiO2 
 PCOD9384402
Probable space group: P M M M
;
_chemical_formula_sum "Si O2"
_cell_formula_units_Z 44
_cell_length_a 7.361224
_cell_length_b 29.490683
_cell_length_c 9.470787
_cell_angle_alpha 90.000000
_cell_angle_beta 90.000000
_cell_angle_gamma 90.000000
_cell_volume 2055.989695
_symmetry_space_group_name_H-M "P M M M"
_symmetry_group_IT_number 47
_symmetry_cell_setting 'orthorhombic'
loop_
_space_group_symop_operation_xyz
x,y,z
-x,-y,z
x,-y,-z
-x,y,-z
-x,-y,-z
x,y,-z
-x,y,z
x,-y,z
loop_
_atom_site_type_symbol
_atom_site_label
_atom_site_fract_x
_atom_site_fract_y
_atom_site_fract_z
Si Si1 0.209607 0.500000 0.671980
Si Si2 0.277965 0.773821 0.337555
Si Si3 0.284304 0.687712 0.159407
Si Si4 0.278236 0.137830 0.162130
Si Si5 0.781522 0.401508 0.661096
Si Si6 0.278820 0.050969 0.662865
O O1 0.209384 0.500000 0.500000
O O2 0.287906 0.549066 0.711070
O O3 0.000000 0.500000 0.720545
O O4 0.219380 0.774128 0.500000
O O5 0.500000 0.773563 0.339038
O O6 0.215194 0.728978 0.255279
O O7 0.222233 0.818817 0.253743
O O8 0.500000 0.695005 0.148904
O O9 0.259063 0.639965 0.237182
O O10 0.211339 0.687692 0.000000
O O11 0.500000 0.137656 0.162164
O O12 0.218743 0.091220 0.235783
O O13 0.220326 0.141297 0.000000
O O14 0.717913 0.392761 0.500000
O O15 0.000000 0.405488 0.653748
O O16 0.225246 0.059165 0.500000
O O17 0.500000 0.051123 0.664480
O O18 0.221789 0.000000 0.703047
#
# Coordination Sequence:
#
# PCOD9384402 Si02
#       6
#     4   8   8   8   8   8
#     4   7  12  26  48  71  92 114 144 183 220 255
#     4   9  16  26  40  55  72  99 136 175 213 255
#     4  10  20  32  45  64  92 122 150 183 224 267
#     4   9  15  21  30  45  65  89 120 161 208 256
#     4   9  17  31  52  74  93 116 149 186 222 262
#     4   8  13  20  28  38  55  82 118 160 203 246
#
# _framework density 21.400886
#
# number of rings (size 3 to 8) (size 9 to 14) (size 15 to 20)
#    0.000    3.182    0.000    3.273    0.000    6.182 
#    0.000    2.727    0.000    4.364    0.000    0.000 
#    0.000    0.000    0.000    0.000    0.000    0.909 
#
# Total GULP energy -245587.637698 kJ/mol
# GULP energy per Si atom -5581.537220 kJ/mol
# Density = 2.135218 g / cm^3
# Si number density = 21.400886 Si / 1000 Ang^3
#
#
#
# Elastic Constant Matrix: (Units=GPa)
#
#
# Indices 1 2 3 4 5 6 
#
# 1 77.8722 3.3090 6.9103 0.0000 0.0000 0.0000
# 2 3.3090 242.2200 155.0589 0.0000 0.0000 0.0000
# 3 6.9103 155.0589 194.9383 0.0000 0.0000 0.0000
# 4 0.0000 0.0000 0.0000 -17.6628 0.0000 0.0000
# 5 0.0000 0.0000 0.0000 0.0000 2.4147 0.0000
# 6 0.0000 0.0000 0.0000 0.0000 0.0000 14.4455
#
#
#
# Elastic Compliance Matrix: (Units=1/GPa)
#
#
# Indices 1 2 3 4 5 6 
#
# 1 0.012889 0.000237 -0.000646 0.000000 0.000000 0.000000
# 2 0.000237 0.008416 -0.006703 0.000000 0.000000 0.000000
# 3 -0.000646 -0.006703 0.010484 0.000000 0.000000 0.000000
# 4 0.000000 0.000000 0.000000 -0.056616 0.000000 0.000000
# 5 0.000000 0.000000 0.000000 0.000000 0.414123 0.000000
# 6 0.000000 0.000000 0.000000 0.000000 0.000000 0.069226
#
#
# Mechanical properties :
#
#
# Convention : Reuss Voigt Hill
#
# Bulk Modulus (GPa) = 56.92547 93.95408 75.43978
# Shear Modulus (GPa) = 10.44716 23.15633 16.80174
#
# Velocity S-wave (km/s) = 2.21184 3.29299 2.80500
# Velocity P-wave (km/s) = 5.76024 7.64563 6.76890
#
# Compressibility (1/GPa) = 0.01756683
#
# Stress axis : x y z
#
# Youngs Moduli (GPa) = 77.58696 118.82058 95.38120
#
# Poissons Ratio (x) = -0.02818 0.06157
# Poissons Ratio (y) = -0.01840 0.63932
# Poissons Ratio (z) = 0.05009 0.79642
#
# Static dielectric constant tensor:
#      x y z
#    x 1.882410 0.000000 0.000000 
#    y 0.000000 1.754760 0.000000 
#    z 0.000000 0.000000 1.720480 
# 
# From -- ./inp_files/2116.got.cif
#   From: 2010.05.17/outbox.cif.g08.bks.cpg/sg47_2_cif.got.tgz:2116.got - 2010.06.03 20:15:42.
