data_PCOD9384857
_publ_section_title
;
Structure prediction by ZEFSAII (Michael W. Deem and Ramdas Pophale) SiO2 
 PCOD9384857
Probable space group: P M M M
;
_chemical_formula_sum "Si O2"
_cell_formula_units_Z 56
_cell_length_a 20.686070
_cell_length_b 7.851957
_cell_length_c 16.147586
_cell_angle_alpha 90.000000
_cell_angle_beta 90.000000
_cell_angle_gamma 90.000000
_cell_volume 2622.789937
_symmetry_space_group_name_H-M "P M M M"
_symmetry_group_IT_number 47
_symmetry_cell_setting 'orthorhombic'
loop_
_space_group_symop_operation_xyz
x,y,z
-x,-y,z
x,-y,-z
-x,y,-z
-x,-y,-z
x,y,-z
-x,y,z
x,-y,z
loop_
_atom_site_type_symbol
_atom_site_label
_atom_site_fract_x
_atom_site_fract_y
_atom_site_fract_z
Si Si1 0.830338 0.207117 0.645671
Si Si2 0.404048 0.195642 0.093218
Si Si3 0.866997 0.300096 0.173637
Si Si4 0.429892 0.299234 0.280745
Si Si5 0.000000 0.291819 0.903641
Si Si6 0.260148 0.693781 0.904134
Si Si7 0.314282 0.203795 0.594832
Si Si8 0.073729 0.792751 0.500000
O O1 0.857978 0.281919 0.729664
O O2 0.757068 0.264330 0.624230
O O3 0.882421 0.257039 0.577202
O O4 0.828893 0.000000 0.650987
O O5 0.425879 0.272053 0.180981
O O6 0.326623 0.206761 0.100687
O O7 0.424801 0.000000 0.092092
O O8 0.419882 0.268260 0.000000
O O9 0.864978 0.500000 0.148681
O O10 0.801105 0.222523 0.138235
O O11 0.934405 0.230656 0.139909
O O12 0.500000 0.226367 0.307434
O O13 0.430846 0.500000 0.294095
O O14 0.369534 0.237374 0.336228
O O15 0.000000 0.500000 0.898112
O O16 0.000000 0.246683 0.000000
O O17 0.272516 0.500000 0.871777
O O18 0.243203 0.678971 0.000000
O O19 0.328032 0.266008 0.500000
O O20 0.309274 0.000000 0.589065
O O21 0.000000 0.730327 0.500000
O O22 0.070707 0.000000 0.500000
#
# Coordination Sequence:
#
# PCOD9384857 Si02
#       8
#     8   8   8   8   4   8   8   4
#     4  10  20  36  58  84 112 144 186 230 278 337
#     4  10  21  37  59  87 117 150 190 237 290 348
#     4  10  20  32  50  77 107 140 185 234 280 332
#     4  11  25  42  60  86 120 156 195 240 290 349
#     4   9  18  34  53  72 103 150 196 235 279 335
#     4   9  17  31  52  77 106 142 184 229 277 333
#     4  10  21  40  65  90 118 153 196 245 294 350
#     4   9  18  34  57  81 108 145 184 222 269 335
#
# _framework density 21.351310999999999
#
# number of rings (size 3 to 8) (size 9 to 14) (size 15 to 20)
#    0.000    2.143    0.714    2.143    1.000    8.000 
#    0.000    3.214    0.000    2.143    0.000    0.000 
#    0.000    0.000    0.000    0.000    0.000    0.000 
#
# Total GULP energy -312295.847619 kJ/mol
# GULP energy per Si atom -5576.711565 kJ/mol
# Density = 2.130271 g / cm^3
# Si number density = 21.351311 Si / 1000 Ang^3
#
#
#
# Elastic Constant Matrix: (Units=GPa)
#
#
# Indices 1 2 3 4 5 6 
#
# 1 195.1236 7.5300 95.2243 0.0000 0.0000 0.0000
# 2 7.5300 28.5311 -2.4307 0.0000 0.0000 0.0000
# 3 95.2243 -2.4307 115.6776 0.0000 0.0000 0.0000
# 4 0.0000 0.0000 0.0000 15.8189 0.0000 0.0000
# 5 0.0000 0.0000 0.0000 0.0000 21.0511 0.0000
# 6 0.0000 0.0000 0.0000 0.0000 0.0000 -95.3880
#
#
#
# Elastic Compliance Matrix: (Units=1/GPa)
#
#
# Indices 1 2 3 4 5 6 
#
# 1 0.008807 -0.002947 -0.007312 0.000000 0.000000 0.000000
# 2 -0.002947 0.036099 0.003185 0.000000 0.000000 0.000000
# 3 -0.007312 0.003185 0.014731 0.000000 0.000000 0.000000
# 4 0.000000 0.000000 0.000000 0.063215 0.000000 0.000000
# 5 0.000000 0.000000 0.000000 0.000000 0.047503 0.000000
# 6 0.000000 0.000000 0.000000 0.000000 0.000000 -0.010483
#
#
# Mechanical properties :
#
#
# Convention : Reuss Voigt Hill
#
# Bulk Modulus (GPa) = 21.98404 59.99771 40.99088
# Shear Modulus (GPa) = 26.42950 4.23032 15.32991
#
# Velocity S-wave (km/s) = 3.52211 1.40911 2.68243
# Velocity P-wave (km/s) = 5.18257 5.55056 5.36972
#
# Compressibility (1/GPa) = 0.04548755
#
# Stress axis : x y z
#
# Youngs Moduli (GPa) = 113.54664 27.70187 67.88623
#
# Poissons Ratio (x) = 0.08164 0.49636
# Poissons Ratio (y) = 0.33465 -0.21620
# Poissons Ratio (z) = 0.83022 -0.08822
#
# Static dielectric constant tensor:
#      x y z
#    x 1.796720 0.000000 0.000000 
#    y 0.000000 1.796510 0.000000 
#    z 0.000000 0.000000 1.986480 
# 
# From -- ./inp_files/25239.got.cif
#   From: 2010.05.17/outbox.cif.g08.bks.cpg/sg47_13_cif.got.tgz:25239.got - 2010.06.03 20:15:42.
