data_PCOD9384123
_publ_section_title
;
Structure prediction by ZEFSAII (Michael W. Deem and Ramdas Pophale) SiO2 
 PCOD9384123
Probable space group: P M M M
;
_chemical_formula_sum "Si O2"
_cell_formula_units_Z 64
_cell_length_a 9.139249
_cell_length_b 20.027928
_cell_length_c 19.908056
_cell_angle_alpha 90.000000
_cell_angle_beta 90.000000
_cell_angle_gamma 90.000000
_cell_volume 3643.974969
_symmetry_space_group_name_H-M "P M M M"
_symmetry_group_IT_number 47
_symmetry_cell_setting 'orthorhombic'
loop_
_space_group_symop_operation_xyz
x,y,z
-x,-y,z
x,-y,-z
-x,y,-z
-x,-y,-z
x,y,-z
-x,y,z
x,-y,z
loop_
_atom_site_type_symbol
_atom_site_label
_atom_site_fract_x
_atom_site_fract_y
_atom_site_fract_z
Si Si1 0.163231 0.425092 0.854826
Si Si2 0.325581 0.921646 0.657839
Si Si3 0.675698 0.715518 0.686479
Si Si4 0.174182 0.176176 0.924485
Si Si5 0.664181 0.314457 0.923622
Si Si6 0.674699 0.831269 0.213181
Si Si7 0.167925 0.425274 0.693733
Si Si8 0.826287 0.189086 0.421349
O O1 0.190376 0.500000 0.880202
O O2 0.283944 0.373495 0.877072
O O3 0.161175 0.428059 0.774547
O O4 0.000000 0.404165 0.877591
O O5 0.500000 0.912608 0.645878
O O6 0.292395 0.884735 0.728335
O O7 0.234974 0.882722 0.601524
O O8 0.294499 0.000000 0.660584
O O9 0.500000 0.715394 0.684120
O O10 0.716830 0.758537 0.754185
O O11 0.736938 0.640509 0.680388
O O12 0.741867 0.758122 0.625259
O O13 0.224698 0.253212 0.921355
O O14 0.248521 0.149305 0.856597
O O15 0.000000 0.169702 0.920233
O O16 0.219613 0.152040 0.000000
O O17 0.500000 0.290806 0.907164
O O18 0.663325 0.339497 0.000000
O O19 0.500000 0.830439 0.203167
O O20 0.218004 0.500000 0.671338
O O21 0.000000 0.415975 0.669569
O O22 0.800109 0.200495 0.500000
O O23 0.000000 0.193251 0.408607
#
# Coordination Sequence:
#
# PCOD9384123 Si02
#       8
#     8   8   8   8   8   8   8   8
#     4   9  18  31  45  61  82 112 151 193 240 297
#     4   9  19  36  57  82 112 144 176 209 247 294
#     4  10  20  33  52  78 105 135 173 216 261 309
#     4  10  20  32  47  68  93 123 162 208 257 306
#     4  10  20  31  42  58  82 113 150 194 246 302
#     4   9  18  32  51  76 103 132 169 212 257 305
#     4   9  18  32  49  70  97 128 163 207 259 311
#     4  10  21  36  55  81 112 145 179 211 245 291
#
# _framework density 17.563238999999999
#
# number of rings (size 3 to 8) (size 9 to 14) (size 15 to 20)
#    0.000    2.500    0.000    3.750    0.000    8.750 
#    0.000    3.750    0.000    0.750    0.000    5.250 
#    0.000    0.000    0.000    0.000    0.000    0.000 
#
# Total GULP energy -356553.621340 kJ/mol
# GULP energy per Si atom -5571.150333 kJ/mol
# Density = 1.752326 g / cm^3
# Si number density = 17.563239 Si / 1000 Ang^3
#
#
#
# Elastic Constant Matrix: (Units=GPa)
#
#
# Indices 1 2 3 4 5 6 
#
# 1 44.2053 25.4049 31.7933 0.0000 0.0000 0.0000
# 2 25.4049 74.8793 14.7867 0.0000 0.0000 0.0000
# 3 31.7933 14.7867 70.2422 0.0000 0.0000 0.0000
# 4 0.0000 0.0000 0.0000 12.8522 0.0000 0.0000
# 5 0.0000 0.0000 0.0000 0.0000 11.4964 0.0000
# 6 0.0000 0.0000 0.0000 0.0000 0.0000 22.4896
#
#
#
# Elastic Compliance Matrix: (Units=1/GPa)
#
#
# Indices 1 2 3 4 5 6 
#
# 1 0.040103 -0.010456 -0.015950 0.000000 0.000000 0.000000
# 2 -0.010456 0.016660 0.001226 0.000000 0.000000 0.000000
# 3 -0.015950 0.001226 0.021198 0.000000 0.000000 0.000000
# 4 0.000000 0.000000 0.000000 0.077808 0.000000 0.000000
# 5 0.000000 0.000000 0.000000 0.000000 0.086984 0.000000
# 6 0.000000 0.000000 0.000000 0.000000 0.000000 0.044465
#
#
# Mechanical properties :
#
#
# Convention : Reuss Voigt Hill
#
# Bulk Modulus (GPa) = 36.23304 37.03295 36.63299
# Shear Modulus (GPa) = 14.41840 17.19042 15.80441
#
# Velocity S-wave (km/s) = 2.86832 3.13193 3.00302
# Velocity P-wave (km/s) = 5.62534 5.84892 5.73822
#
# Compressibility (1/GPa) = 0.02759912
#
# Stress axis : x y z
#
# Youngs Moduli (GPa) = 24.93606 60.02274 47.17440
#
# Poissons Ratio (x) = 0.62761 0.75244
# Poissons Ratio (y) = 0.26073 -0.05781
# Poissons Ratio (z) = 0.39774 -0.07356
#
# Static dielectric constant tensor:
#      x y z
#    x 1.604480 0.000000 0.000000 
#    y 0.000000 1.599340 0.000000 
#    z 0.000000 0.000000 1.613650 
# 
# From -- ./inp_files/27062.got.cif
#   From: 2010.05.17/outbox.cif.g08.bks.cpg/sg47_14_cif.got.tgz:27062.got - 2010.06.03 20:15:42.
