data_PCOD9384157
_publ_section_title
;
Structure prediction by ZEFSAII (Michael W. Deem and Ramdas Pophale) SiO2 
 PCOD9384157
Probable space group: P M M M
;
_chemical_formula_sum "Si O2"
_cell_formula_units_Z 56
_cell_length_a 7.994601
_cell_length_b 19.539568
_cell_length_c 22.153823
_cell_angle_alpha 90.000000
_cell_angle_beta 90.000000
_cell_angle_gamma 90.000000
_cell_volume 3460.671950
_symmetry_space_group_name_H-M "P M M M"
_symmetry_group_IT_number 47
_symmetry_cell_setting 'orthorhombic'
loop_
_space_group_symop_operation_xyz
x,y,z
-x,-y,z
x,-y,-z
-x,y,-z
-x,-y,-z
x,y,-z
-x,y,z
x,-y,z
loop_
_atom_site_type_symbol
_atom_site_label
_atom_site_fract_x
_atom_site_fract_y
_atom_site_fract_z
Si Si1 0.797203 0.211834 0.433015
Si Si2 0.695971 0.710441 0.687223
Si Si3 0.190533 0.583195 0.500000
Si Si4 0.201690 0.923221 0.368746
Si Si5 0.297821 0.156855 0.751609
Si Si6 0.200370 0.422936 0.631807
Si Si7 0.299088 0.921156 0.130383
Si Si8 0.800564 0.078511 0.000000
O O1 0.743897 0.232429 0.500000
O O2 0.726669 0.255952 0.378409
O O3 0.748620 0.133369 0.418099
O O4 0.000000 0.216661 0.430350
O O5 0.500000 0.704554 0.698398
O O6 0.765752 0.767267 0.733725
O O7 0.765420 0.634168 0.681545
O O8 0.179806 0.500000 0.500000
O O9 0.267764 0.599313 0.434736
O O10 0.000000 0.611710 0.500000
O O11 0.253861 0.893235 0.303814
O O12 0.000000 0.925654 0.369747
O O13 0.265814 0.000000 0.378026
O O14 0.500000 0.160616 0.754292
O O15 0.236301 0.124634 0.814182
O O16 0.260449 0.500000 0.645309
O O17 0.000000 0.426649 0.624222
O O18 0.500000 0.924322 0.135054
O O19 0.256564 0.892408 0.064145
O O20 0.235711 0.000000 0.134820
O O21 0.000000 0.076754 0.000000
O O22 0.734122 0.000000 0.000000
#
# Coordination Sequence:
#
# PCOD9384157 Si02
#       8
#     8   8   4   8   8   8   8   4
#     4   9  18  31  44  56  73 102 135 165 206 259
#     4  10  20  31  43  61  85 107 131 169 211 248
#     4   7  12  24  41  59  75  93 122 157 192 237
#     4   9  17  28  42  60  78  96 128 176 219 251
#     4   9  18  31  44  59  81 112 144 170 202 245
#     4   9  17  30  47  64  81 104 134 165 201 251
#     4   9  16  27  44  62  81 111 150 181 201 232
#     4   9  17  27  39  61  91 115 136 169 214 249
#
# _framework density 16.181827999999999
#
# number of rings (size 3 to 8) (size 9 to 14) (size 15 to 20)
#    0.000    3.000    0.000    1.929    1.000    3.714 
#    0.000    2.857    0.000    1.286    0.000    4.000 
#    0.000    0.000    0.000    0.643    0.000   13.429 
#
# Total GULP energy -311917.235032 kJ/mol
# GULP energy per Si atom -5569.950626 kJ/mol
# Density = 1.614500 g / cm^3
# Si number density = 16.181828 Si / 1000 Ang^3
#
#
#
# Elastic Constant Matrix: (Units=GPa)
#
#
# Indices 1 2 3 4 5 6 
#
# 1 9.4566 6.2491 1.6779 0.0000 0.0000 0.0000
# 2 6.2491 92.4904 25.4598 0.0000 0.0000 0.0000
# 3 1.6779 25.4598 76.9916 0.0000 0.0000 0.0000
# 4 0.0000 0.0000 0.0000 15.7233 0.0000 0.0000
# 5 0.0000 0.0000 0.0000 0.0000 15.1907 0.0000
# 6 0.0000 0.0000 0.0000 0.0000 0.0000 9.4280
#
#
#
# Elastic Compliance Matrix: (Units=1/GPa)
#
#
# Indices 1 2 3 4 5 6 
#
# 1 0.110689 -0.007497 0.000067 0.000000 0.000000 0.000000
# 2 -0.007497 0.012402 -0.003938 0.000000 0.000000 0.000000
# 3 0.000067 -0.003938 0.014289 0.000000 0.000000 0.000000
# 4 0.000000 0.000000 0.000000 0.063600 0.000000 0.000000
# 5 0.000000 0.000000 0.000000 0.000000 0.065830 0.000000
# 6 0.000000 0.000000 0.000000 0.000000 0.000000 0.106067
#
#
# Mechanical properties :
#
#
# Convention : Reuss Voigt Hill
#
# Bulk Modulus (GPa) = 8.72266 27.30135 18.01200
# Shear Modulus (GPa) = 11.52533 17.77187 14.64860
#
# Velocity S-wave (km/s) = 2.67168 3.31760 3.01200
# Velocity P-wave (km/s) = 3.86254 5.61992 4.82197
#
# Compressibility (1/GPa) = 0.11464398
#
# Stress axis : x y z
#
# Youngs Moduli (GPa) = 9.03436 80.62920 69.98313
#
# Poissons Ratio (x) = 0.60449 -0.00468
# Poissons Ratio (y) = 0.06773 0.27559
# Poissons Ratio (z) = -0.00060 0.31751
#
# Static dielectric constant tensor:
#      x y z
#    x 1.587610 0.000000 0.000000 
#    y 0.000000 1.582250 0.000000 
#    z 0.000000 0.000000 1.542540 
# 
# From -- ./inp_files/30086.got.cif
#   From: 2010.05.17/outbox.cif.g08.bks.cpg/sg47_16_cif.got.tgz:30086.got - 2010.06.03 20:15:42.
