data_PCOD9384305
_publ_section_title
;
Structure prediction by ZEFSAII (Michael W. Deem and Ramdas Pophale) SiO2 
 PCOD9384305
Probable space group: P M M M
;
_chemical_formula_sum "Si O2"
_cell_formula_units_Z 52
_cell_length_a 15.447159
_cell_length_b 23.181633
_cell_length_c 9.169341
_cell_angle_alpha 90.000000
_cell_angle_beta 90.000000
_cell_angle_gamma 90.000000
_cell_volume 3283.452719
_symmetry_space_group_name_H-M "P M M M"
_symmetry_group_IT_number 47
_symmetry_cell_setting 'orthorhombic'
loop_
_space_group_symop_operation_xyz
x,y,z
-x,-y,z
x,-y,-z
-x,y,-z
-x,-y,-z
x,y,-z
-x,y,z
x,-y,z
loop_
_atom_site_type_symbol
_atom_site_label
_atom_site_fract_x
_atom_site_fract_y
_atom_site_fract_z
Si Si1 0.402933 0.690685 0.175521
Si Si2 0.895177 0.935767 0.331483
Si Si3 0.000000 0.569076 0.165849
Si Si4 0.233334 0.268260 0.331240
Si Si5 0.174231 0.401000 0.668113
Si Si6 0.102095 0.818369 0.825708
Si Si7 0.346269 0.437205 0.175338
O O1 0.500000 0.709885 0.213016
O O2 0.326509 0.725649 0.253301
O O3 0.394093 0.622376 0.215264
O O4 0.392271 0.694500 0.000000
O O5 0.868792 0.925886 0.500000
O O6 0.871960 0.882130 0.230456
O O7 0.000000 0.937523 0.330981
O O8 0.865345 0.000000 0.286651
O O9 0.914946 0.588435 0.250344
O O10 0.000000 0.500000 0.160928
O O11 0.000000 0.591374 0.000000
O O12 0.242714 0.250626 0.500000
O O13 0.195491 0.333092 0.328578
O O14 0.166048 0.227006 0.249276
O O15 0.169756 0.419832 0.500000
O O16 0.252366 0.432237 0.751333
O O17 0.000000 0.808786 0.786255
O O18 0.108403 0.814854 0.000000
O O19 0.385081 0.500000 0.214139
O O20 0.337636 0.436121 0.000000
#
# Coordination Sequence:
#
# PCOD9384305 Si02
#       7
#     8   8   4   8   8   8   8
#     4   9  18  33  52  72  94 120 150 189 238 289
#     4   8  14  26  44  66  95 133 171 202 234 272
#     4  11  23  35  47  63  83 111 148 189 234 283
#     4  10  21  35  50  68  93 124 158 197 238 283
#     4  10  21  34  47  64  85 114 151 191 234 277
#     4  10  20  31  46  71 100 132 168 204 241 278
#     4   9  17  30  48  69  92 116 143 178 226 285
#
# _framework density 15.836988
#
# number of rings (size 3 to 8) (size 9 to 14) (size 15 to 20)
#    0.000    2.538    0.000    2.538    1.077    6.462 
#    0.000    3.077    0.000    0.000    0.000    4.308 
#    0.000    0.615    0.000    6.462    0.000    3.077 
#
# Total GULP energy -289828.006453 kJ/mol
# GULP energy per Si atom -5573.615509 kJ/mol
# Density = 1.580094 g / cm^3
# Si number density = 15.836988 Si / 1000 Ang^3
#
#
#
# Elastic Constant Matrix: (Units=GPa)
#
#
# Indices 1 2 3 4 5 6 
#
# 1 99.8143 35.2381 44.6647 0.0000 0.0000 0.0000
# 2 35.2381 79.2490 37.8028 0.0000 0.0000 0.0000
# 3 44.6647 37.8028 50.9503 0.0000 0.0000 0.0000
# 4 0.0000 0.0000 0.0000 24.6459 0.0000 0.0000
# 5 0.0000 0.0000 0.0000 0.0000 217.0591 0.0000
# 6 0.0000 0.0000 0.0000 0.0000 0.0000 3.7200
#
#
#
# Elastic Compliance Matrix: (Units=1/GPa)
#
#
# Indices 1 2 3 4 5 6 
#
# 1 0.016509 -0.000677 -0.013970 0.000000 0.000000 0.000000
# 2 -0.000677 0.019559 -0.013918 0.000000 0.000000 0.000000
# 3 -0.013970 -0.013918 0.042200 0.000000 0.000000 0.000000
# 4 0.000000 0.000000 0.000000 0.040575 0.000000 0.000000
# 5 0.000000 0.000000 0.000000 0.000000 0.004607 0.000000
# 6 0.000000 0.000000 0.000000 0.000000 0.000000 0.268819
#
#
# Mechanical properties :
#
#
# Convention : Reuss Voigt Hill
#
# Bulk Modulus (GPa) = 47.30930 51.71387 49.51159
# Shear Modulus (GPa) = 10.95424 56.57219 33.76322
#
# Velocity S-wave (km/s) = 2.63285 5.98324 4.62228
# Velocity P-wave (km/s) = 6.25940 8.96978 7.73424
#
# Compressibility (1/GPa) = 0.02113749
#
# Stress axis : x y z
#
# Youngs Moduli (GPa) = 60.57376 51.12853 23.69658
#
# Poissons Ratio (x) = 0.03460 0.33104
# Poissons Ratio (y) = 0.04100 0.32981
# Poissons Ratio (z) = 0.84621 0.71162
#
# Static dielectric constant tensor:
#      x y z
#    x 1.540650 0.000000 0.000000 
#    y 0.000000 1.536970 0.000000 
#    z 0.000000 0.000000 1.533480 
# 
# From -- ./inp_files/7016.got.cif
#   From: 2010.05.17/outbox.cif.g08.bks.cpg/sg47_4_cif.got.tgz:7016.got - 2010.06.03 20:15:42.
