data_PCOD9384998
_publ_section_title
;
Structure prediction by ZEFSAII (Michael W. Deem and Ramdas Pophale) SiO2 
 PCOD9384998
Probable space group: P M M M
;
_chemical_formula_sum "Si O2"
_cell_formula_units_Z 56
_cell_length_a 8.805616
_cell_length_b 23.243479
_cell_length_c 15.835458
_cell_angle_alpha 90.000000
_cell_angle_beta 90.000000
_cell_angle_gamma 90.000000
_cell_volume 3241.093080
_symmetry_space_group_name_H-M "P M M M"
_symmetry_group_IT_number 47
_symmetry_cell_setting 'orthorhombic'
loop_
_space_group_symop_operation_xyz
x,y,z
-x,-y,z
x,-y,-z
-x,y,-z
-x,-y,-z
x,y,-z
-x,y,z
x,-y,z
loop_
_atom_site_type_symbol
_atom_site_label
_atom_site_fract_x
_atom_site_fract_y
_atom_site_fract_z
Si Si1 0.184343 0.249490 0.593842
Si Si2 0.830056 0.330984 0.176338
Si Si3 0.320172 0.215287 0.227426
Si Si4 0.826544 0.375432 0.633682
Si Si5 0.327633 0.562467 0.100567
Si Si6 0.817882 0.122334 0.099143
Si Si7 0.826303 0.500000 0.600657
Si Si8 0.326981 0.000000 0.898169
O O1 0.219104 0.225693 0.500000
O O2 0.250868 0.218862 0.677242
O O3 0.238098 0.316519 0.595055
O O4 0.000000 0.250602 0.603296
O O5 0.722316 0.276167 0.184007
O O6 0.834848 0.359740 0.268476
O O7 0.771426 0.382325 0.119391
O O8 0.000000 0.311630 0.153617
O O9 0.500000 0.208167 0.233432
O O10 0.250210 0.167021 0.166201
O O11 0.754105 0.438362 0.623938
O O12 0.000000 0.381059 0.600057
O O13 0.500000 0.570332 0.133442
O O14 0.270077 0.500000 0.132384
O O15 0.337080 0.558375 0.000000
O O16 0.759451 0.058676 0.123482
O O17 0.000000 0.124259 0.102205
O O18 0.773103 0.133454 0.000000
O O19 0.835853 0.500000 0.500000
O O20 0.000000 0.500000 0.636929
O O21 0.500000 0.000000 0.865812
O O22 0.334059 0.000000 0.000000
#
# Coordination Sequence:
#
# PCOD9384998 Si02
#       8
#     8   8   8   8   8   8   4   4
#     4   9  17  32  52  72  99 135 174 220 271 320
#     4  10  20  33  49  68  93 122 160 209 257 308
#     4  11  22  35  52  76 107 140 179 222 268 322
#     4   8  15  25  39  63  91 117 148 190 244 304
#     4   9  19  35  51  66  87 118 157 201 253 316
#     4  10  20  35  56  82 114 150 186 222 259 303
#     4   9  14  20  34  58  86 111 136 172 225 291
#     4   9  17  31  53  83 118 153 186 215 251 301
#
# _framework density 17.278122
#
# number of rings (size 3 to 8) (size 9 to 14) (size 15 to 20)
#    0.000    2.571    0.000    4.071    1.000    4.857 
#    0.000    0.714    0.000    0.000    0.000    0.500 
#    0.000   10.000    0.000    0.000    0.000    0.000 
#
# Total GULP energy -311764.389685 kJ/mol
# GULP energy per Si atom -5567.221244 kJ/mol
# Density = 1.723880 g / cm^3
# Si number density = 17.278122 Si / 1000 Ang^3
#
#
#
# Elastic Constant Matrix: (Units=GPa)
#
#
# Indices 1 2 3 4 5 6 
#
# 1 65.1741 38.5003 37.4392 0.0000 0.0000 0.0000
# 2 38.5003 118.9253 62.4912 0.0000 0.0000 0.0000
# 3 37.4392 62.4912 80.5408 0.0000 0.0000 0.0000
# 4 0.0000 0.0000 0.0000 -11.1389 0.0000 0.0000
# 5 0.0000 0.0000 0.0000 0.0000 14.5197 0.0000
# 6 0.0000 0.0000 0.0000 0.0000 0.0000 19.8753
#
#
#
# Elastic Compliance Matrix: (Units=1/GPa)
#
#
# Indices 1 2 3 4 5 6 
#
# 1 0.021504 -0.002885 -0.007757 0.000000 0.000000 0.000000
# 2 -0.002885 0.014584 -0.009974 0.000000 0.000000 0.000000
# 3 -0.007757 -0.009974 0.023761 0.000000 0.000000 0.000000
# 4 0.000000 0.000000 0.000000 -0.089776 0.000000 0.000000
# 5 0.000000 0.000000 0.000000 0.000000 0.068872 0.000000
# 6 0.000000 0.000000 0.000000 0.000000 0.000000 0.050314
#
#
# Mechanical properties :
#
#
# Convention : Reuss Voigt Hill
#
# Bulk Modulus (GPa) = 53.72018 60.16686 56.94352
# Shear Modulus (GPa) = 36.57678 13.06518 24.82098
#
# Velocity S-wave (km/s) = 4.60601 2.75284 3.79430
# Velocity P-wave (km/s) = 7.71013 6.70838 7.22663
#
# Compressibility (1/GPa) = 0.01861498
#
# Stress axis : x y z
#
# Youngs Moduli (GPa) = 46.50232 68.56867 42.08559
#
# Poissons Ratio (x) = 0.19785 0.32648
# Poissons Ratio (y) = 0.13418 0.41977
# Poissons Ratio (z) = 0.36074 0.68392
#
# Static dielectric constant tensor:
#      x y z
#    x 1.611460 0.000000 0.000000 
#    y 0.000000 1.594950 0.000000 
#    z 0.000000 0.000000 1.621500 
# 
# From -- ./inp_files/21679.got.cif
#   From: 2010.05.17/outbox.cif.g08.bks.cpg/sg47_11_cif.got.tgz:21679.got - 2010.06.03 20:15:42.
