data_PCOD9384596
_publ_section_title
;
Structure prediction by ZEFSAII (Michael W. Deem and Ramdas Pophale) SiO2 
 PCOD9384596
Probable space group: P M M M
;
_chemical_formula_sum "Si O2"
_cell_formula_units_Z 48
_cell_length_a 31.610533
_cell_length_b 7.522730
_cell_length_c 9.498239
_cell_angle_alpha 90.000000
_cell_angle_beta 90.000000
_cell_angle_gamma 90.000000
_cell_volume 2258.657535
_symmetry_space_group_name_H-M "P M M M"
_symmetry_group_IT_number 47
_symmetry_cell_setting 'orthorhombic'
loop_
_space_group_symop_operation_xyz
x,y,z
-x,-y,z
x,-y,-z
-x,y,-z
-x,-y,-z
x,y,-z
-x,y,z
x,-y,z
loop_
_atom_site_type_symbol
_atom_site_label
_atom_site_fract_x
_atom_site_fract_y
_atom_site_fract_z
Si Si1 0.743627 0.285818 0.839951
Si Si2 0.838932 0.285882 0.159833
Si Si3 0.000000 0.781936 0.161562
Si Si4 0.500000 0.216933 0.337482
Si Si5 0.582546 0.782420 0.837807
Si Si6 0.337747 0.789259 0.341358
Si Si7 0.920293 0.789198 0.341790
O O1 0.744459 0.500000 0.842996
O O2 0.791292 0.225381 0.803936
O O3 0.707522 0.233605 0.731766
O O4 0.733914 0.225253 0.000000
O O5 0.837947 0.500000 0.156633
O O6 0.875292 0.234287 0.267113
O O7 0.848599 0.224950 0.000000
O O8 0.958190 0.720839 0.244003
O O9 0.000000 0.000000 0.159624
O O10 0.000000 0.724020 0.000000
O O11 0.500000 0.275342 0.500000
O O12 0.541781 0.271939 0.252654
O O13 0.500000 0.000000 0.339668
O O14 0.625075 0.720410 0.759625
O O15 0.582698 0.000000 0.840257
O O16 0.580553 0.724496 0.000000
O O17 0.338911 0.716079 0.500000
O O18 0.345305 0.000000 0.352228
O O19 0.920899 0.715530 0.500000
O O20 0.927568 0.000000 0.352679
#
# Coordination Sequence:
#
# PCOD9384596 Si02
#       7
#     8   8   4   4   8   8   8
#     4   9  19  36  55  73  95 127 167 207 247 294
#     4   9  19  36  55  74  98 129 166 207 248 291
#     4   9  17  31  52  75 100 133 170 204 240 285
#     4   9  15  23  37  59  90 125 158 195 242 293
#     4   9  16  26  41  62  90 125 163 200 240 288
#     4  10  20  32  47  71 102 131 161 202 250 295
#     4  10  20  33  51  77 107 135 164 201 245 292
#
# _framework density 21.251562
#
# number of rings (size 3 to 8) (size 9 to 14) (size 15 to 20)
#    0.000    2.667    0.000    3.000    0.000    8.000 
#    0.000    5.417    0.000    2.500    0.000    0.583 
#    0.000    4.667    0.000    0.000    0.000    0.000 
#
# Total GULP energy -268072.336954 kJ/mol
# GULP energy per Si atom -5584.840353 kJ/mol
# Density = 2.120319 g / cm^3
# Si number density = 21.251562 Si / 1000 Ang^3
#
#
#
# Elastic Constant Matrix: (Units=GPa)
#
#
# Indices 1 2 3 4 5 6 
#
# 1 176.0293 -2.5775 147.7561 0.0000 0.0000 0.0000
# 2 -2.5775 51.7416 6.5199 0.0000 0.0000 0.0000
# 3 147.7561 6.5199 235.9516 0.0000 0.0000 0.0000
# 4 0.0000 0.0000 0.0000 2.1887 0.0000 0.0000
# 5 0.0000 0.0000 0.0000 0.0000 -73.9844 0.0000
# 6 0.0000 0.0000 0.0000 0.0000 0.0000 37.7808
#
#
#
# Elastic Compliance Matrix: (Units=1/GPa)
#
#
# Indices 1 2 3 4 5 6 
#
# 1 0.012100 0.001563 -0.007621 0.000000 0.000000 0.000000
# 2 0.001563 0.019596 -0.001520 0.000000 0.000000 0.000000
# 3 -0.007621 -0.001520 0.009052 0.000000 0.000000 0.000000
# 4 0.000000 0.000000 0.000000 0.456896 0.000000 0.000000
# 5 0.000000 0.000000 0.000000 0.000000 -0.013516 0.000000
# 6 0.000000 0.000000 0.000000 0.000000 0.000000 0.026468
#
#
# Mechanical properties :
#
#
# Convention : Reuss Voigt Hill
#
# Bulk Modulus (GPa) = 39.07292 85.23549 62.15421
# Shear Modulus (GPa) = 9.35833 13.99864 11.67848
#
# Velocity S-wave (km/s) = 2.10075 2.56932 2.34676
# Velocity P-wave (km/s) = 4.93052 6.99977 6.05421
#
# Compressibility (1/GPa) = 0.02559318
#
# Stress axis : x y z
#
# Youngs Moduli (GPa) = 82.64217 51.03024 110.46930
#
# Poissons Ratio (x) = -0.07976 0.84184
# Poissons Ratio (y) = -0.12917 0.16794
# Poissons Ratio (z) = 0.62978 0.07758
#
# Static dielectric constant tensor:
#      x y z
#    x 1.726640 0.000000 0.000000 
#    y 0.000000 1.816660 0.000000 
#    z 0.000000 0.000000 1.736000 
# 
# From -- ./inp_files/13841.got.cif
#   From: 2010.05.17/outbox.cif.g08.bks.cpg/sg47_7_cif.got.tgz:13841.got - 2010.06.03 20:15:42.
