data_PCOD9384491
_publ_section_title
;
Structure prediction by ZEFSAII (Michael W. Deem and Ramdas Pophale) SiO2 
 PCOD9384491
Probable space group: P M M M
;
_chemical_formula_sum "Si O2"
_cell_formula_units_Z 44
_cell_length_a 7.362066
_cell_length_b 8.616608
_cell_length_c 30.709356
_cell_angle_alpha 90.000000
_cell_angle_beta 90.000000
_cell_angle_gamma 90.000000
_cell_volume 1948.079837
_symmetry_space_group_name_H-M "P M M M"
_symmetry_group_IT_number 47
_symmetry_cell_setting 'orthorhombic'
loop_
_space_group_symop_operation_xyz
x,y,z
-x,-y,z
x,-y,-z
-x,y,-z
-x,-y,-z
x,y,-z
-x,y,z
x,-y,z
loop_
_atom_site_type_symbol
_atom_site_label
_atom_site_fract_x
_atom_site_fract_y
_atom_site_fract_z
Si Si1 0.715064 0.327976 0.139889
Si Si2 0.720393 0.500000 0.449132
Si Si3 0.781876 0.821629 0.047122
Si Si4 0.721245 0.174542 0.595846
Si Si5 0.720914 0.325821 0.316363
Si Si6 0.721838 0.174929 0.772152
O O1 0.500000 0.337813 0.147217
O O2 0.792332 0.500000 0.142235
O O3 0.735082 0.263541 0.091394
O O4 0.784805 0.226374 0.180013
O O5 0.500000 0.500000 0.444295
O O6 0.765287 0.500000 0.500000
O O7 0.779862 0.666401 0.428759
O O8 0.000000 0.823871 0.045690
O O9 0.719332 0.000000 0.049984
O O10 0.719830 0.757469 0.000000
O O11 0.500000 0.173202 0.593135
O O12 0.773306 0.205566 0.646165
O O13 0.779808 0.000000 0.581903
O O14 0.500000 0.325841 0.316022
O O15 0.778183 0.500000 0.328090
O O16 0.780062 0.282055 0.267841
O O17 0.500000 0.176994 0.772289
O O18 0.778103 0.000000 0.763265
#
# Coordination Sequence:
#
# PCOD9384491 Si02
#       6
#     8   4   8   8   8   8
#     4  10  20  32  46  68  97 123 147 180 225 274
#     4   9  16  24  30  38  54  76 108 154 204 249
#     4   9  19  36  55  72  90 116 152 190 226 267
#     4   9  15  22  31  42  56  78 111 150 196 251
#     4   9  14  21  33  48  68  92 119 154 197 248
#     4   9  16  25  38  57  80 107 136 165 204 256
#
# _framework density 22.586344
#
# number of rings (size 3 to 8) (size 9 to 14) (size 15 to 20)
#    0.000    2.818    0.909    2.182    0.000    6.909 
#    0.000    4.545    0.000    0.000    0.000    0.000 
#    0.000    0.000    0.000    0.000    0.000    0.000 
#
# Total GULP energy -245477.302890 kJ/mol
# GULP energy per Si atom -5579.029611 kJ/mol
# Density = 2.253494 g / cm^3
# Si number density = 22.586344 Si / 1000 Ang^3
#
#
#
# Elastic Constant Matrix: (Units=GPa)
#
#
# Indices 1 2 3 4 5 6 
#
# 1 78.8980 1.8418 -2.7073 0.0000 0.0000 0.0000
# 2 1.8418 154.2377 68.5761 0.0000 0.0000 0.0000
# 3 -2.7073 68.5761 129.5030 0.0000 0.0000 0.0000
# 4 0.0000 0.0000 0.0000 33.9111 0.0000 0.0000
# 5 0.0000 0.0000 0.0000 0.0000 3.3198 0.0000
# 6 0.0000 0.0000 0.0000 0.0000 0.0000 0.1950
#
#
#
# Elastic Compliance Matrix: (Units=1/GPa)
#
#
# Indices 1 2 3 4 5 6 
#
# 1 0.012698 -0.000353 0.000452 0.000000 0.000000 0.000000
# 2 -0.000353 0.008490 -0.004503 0.000000 0.000000 0.000000
# 3 0.000452 -0.004503 0.010116 0.000000 0.000000 0.000000
# 4 0.000000 0.000000 0.000000 0.029489 0.000000 0.000000
# 5 0.000000 0.000000 0.000000 0.000000 0.301223 0.000000
# 6 0.000000 0.000000 0.000000 0.000000 0.000000 5.127871
#
#
# Mechanical properties :
#
#
# Convention : Reuss Voigt Hill
#
# Bulk Modulus (GPa) = 44.45044 55.33999 49.89522
# Shear Modulus (GPa) = 0.90807 27.14706 14.02756
#
# Velocity S-wave (km/s) = 0.63476 3.47064 2.49482
# Velocity P-wave (km/s) = 4.50113 6.37300 5.51703
#
# Compressibility (1/GPa) = 0.02249697
#
# Stress axis : x y z
#
# Youngs Moduli (GPa) = 78.75046 117.78837 98.85557
#
# Poissons Ratio (x) = 0.04154 -0.04471
# Poissons Ratio (y) = 0.02778 0.44515
# Poissons Ratio (z) = -0.03561 0.53040
#
# Static dielectric constant tensor:
#      x y z
#    x 1.895920 0.000000 0.000000 
#    y 0.000000 1.817510 0.000000 
#    z 0.000000 0.000000 1.811800 
# 
# From -- ./inp_files/2325.got.cif
#   From: 2010.05.17/outbox.cif.g08.bks.cpg/sg47_2_cif.got.tgz:2325.got - 2010.06.03 20:15:42.
