data_PCOD9384831
_publ_section_title
;
Structure prediction by ZEFSAII (Michael W. Deem and Ramdas Pophale) SiO2 
 PCOD9384831
Probable space group: P M M M
;
_chemical_formula_sum "Si O2"
_cell_formula_units_Z 48
_cell_length_a 9.822551
_cell_length_b 31.324870
_cell_length_c 8.293957
_cell_angle_alpha 90.000000
_cell_angle_beta 90.000000
_cell_angle_gamma 90.000000
_cell_volume 2551.968734
_symmetry_space_group_name_H-M "P M M M"
_symmetry_group_IT_number 47
_symmetry_cell_setting 'orthorhombic'
loop_
_space_group_symop_operation_xyz
x,y,z
-x,-y,z
x,-y,-z
-x,y,-z
-x,-y,-z
x,y,-z
-x,y,z
x,-y,z
loop_
_atom_site_type_symbol
_atom_site_label
_atom_site_fract_x
_atom_site_fract_y
_atom_site_fract_z
Si Si1 0.844947 0.048757 0.305339
Si Si2 0.844822 0.451076 0.805304
Si Si3 0.654607 0.124718 0.192265
Si Si4 0.844551 0.701846 0.696650
Si Si5 0.155517 0.200914 0.694682
Si Si6 0.344837 0.624959 0.305511
O O1 0.844561 0.049379 0.500000
O O2 0.737507 0.083025 0.246024
O O3 0.000000 0.059373 0.253523
O O4 0.815514 0.000000 0.254145
O O5 0.816114 0.500000 0.755614
O O6 0.738011 0.417206 0.740910
O O7 0.000000 0.440553 0.753875
O O8 0.842507 0.450065 0.000000
O O9 0.500000 0.124838 0.256316
O O10 0.738331 0.166214 0.246325
O O11 0.648789 0.124755 0.000000
O O12 0.843270 0.701558 0.500000
O O13 0.812961 0.750458 0.746280
O O14 0.739064 0.666290 0.753392
O O15 0.000000 0.691821 0.745914
O O16 0.155908 0.200313 0.500000
O O17 0.000000 0.190914 0.746342
O O18 0.348753 0.627357 0.500000
O O19 0.500000 0.624222 0.246104
#
# Coordination Sequence:
#
# PCOD9384831 Si02
#       6
#     8   8   8   8   8   8
#     4   9  19  37  60  83 104 129 168 216 259 302
#     4   9  19  36  55  73  95 128 172 216 254 297
#     4  11  24  37  49  73 110 145 174 207 250 301
#     4   8  15  30  52  76 101 130 166 209 254 298
#     4   9  18  34  57  81 101 127 170 218 257 298
#     4  10  20  32  49  77 109 136 164 202 250 305
#
# _framework density 18.809007999999999
#
# number of rings (size 3 to 8) (size 9 to 14) (size 15 to 20)
#    0.000    2.667    0.000    3.500    0.000    7.333 
#    0.000    7.500    0.000    1.000    0.000    0.000 
#    0.000    0.000    0.000    0.000    0.000    0.000 
#
# Total GULP energy -267825.293558 kJ/mol
# GULP energy per Si atom -5579.693616 kJ/mol
# Density = 1.876620 g / cm^3
# Si number density = 18.809008 Si / 1000 Ang^3
#
#
#
# Elastic Constant Matrix: (Units=GPa)
#
#
# Indices 1 2 3 4 5 6 
#
# 1 194.1901 148.0916 22.4848 0.0000 0.0000 0.0000
# 2 148.0916 161.9905 18.6820 0.0000 0.0000 0.0000
# 3 22.4848 18.6820 9.0822 0.0000 0.0000 0.0000
# 4 0.0000 0.0000 0.0000 221.4986 0.0000 0.0000
# 5 0.0000 0.0000 0.0000 0.0000 28.6522 0.0000
# 6 0.0000 0.0000 0.0000 0.0000 0.0000 -13.0294
#
#
#
# Elastic Compliance Matrix: (Units=1/GPa)
#
#
# Indices 1 2 3 4 5 6 
#
# 1 0.018320 -0.015099 -0.014295 0.000000 0.000000 0.000000
# 2 -0.015099 0.020538 -0.004865 0.000000 0.000000 0.000000
# 3 -0.014295 -0.004865 0.155504 0.000000 0.000000 0.000000
# 4 0.000000 0.000000 0.000000 0.004515 0.000000 0.000000
# 5 0.000000 0.000000 0.000000 0.000000 0.034901 0.000000
# 6 0.000000 0.000000 0.000000 0.000000 0.000000 -0.076749
#
#
# Mechanical properties :
#
#
# Convention : Reuss Voigt Hill
#
# Bulk Modulus (GPa) = 7.94644 82.64218 45.29431
# Shear Modulus (GPa) = 18.69194 59.15789 38.92491
#
# Velocity S-wave (km/s) = 3.15584 5.61428 4.55409
# Velocity P-wave (km/s) = 4.18486 9.27684 7.19628
#
# Compressibility (1/GPa) = 0.12584248
#
# Stress axis : x y z
#
# Youngs Moduli (GPa) = 54.58659 48.69049 6.43070
#
# Poissons Ratio (x) = 0.73518 0.09193
# Poissons Ratio (y) = 0.82421 0.03129
# Poissons Ratio (z) = 0.78032 0.23690
#
# Static dielectric constant tensor:
#      x y z
#    x 1.641570 0.000000 0.000000 
#    y 0.000000 1.635310 0.000000 
#    z 0.000000 0.000000 1.659030 
# 
# From -- ./inp_files/2487.got.cif
#   From: 2010.05.17/outbox.cif.g08.bks.cpg/sg47_2_cif.got.tgz:2487.got - 2010.06.03 20:15:42.
