data_PCOD9384702
_publ_section_title
;
Structure prediction by ZEFSAII (Michael W. Deem and Ramdas Pophale) SiO2 
 PCOD9384702
Probable space group: P M M M
;
_chemical_formula_sum "Si O2"
_cell_formula_units_Z 48
_cell_length_a 31.798668
_cell_length_b 9.732716
_cell_length_c 7.595537
_cell_angle_alpha 90.000000
_cell_angle_beta 90.000000
_cell_angle_gamma 90.000000
_cell_volume 2350.723034
_symmetry_space_group_name_H-M "P M M M"
_symmetry_group_IT_number 47
_symmetry_cell_setting 'orthorhombic'
loop_
_space_group_symop_operation_xyz
x,y,z
-x,-y,z
x,-y,-z
-x,y,-z
-x,-y,-z
x,y,-z
-x,y,z
x,-y,z
loop_
_atom_site_type_symbol
_atom_site_label
_atom_site_fract_x
_atom_site_fract_y
_atom_site_fract_z
Si Si1 0.718734 0.840823 0.285338
Si Si2 0.797183 0.341688 0.284156
Si Si3 0.453857 0.656305 0.788759
Si Si4 0.952107 0.654966 0.212294
Si Si5 0.375006 0.154378 0.289446
Si Si6 0.874404 0.844652 0.709005
O O1 0.719475 0.839378 0.500000
O O2 0.755006 0.737607 0.227496
O O3 0.671491 0.801578 0.227020
O O4 0.726490 0.000000 0.233748
O O5 0.797498 0.343131 0.500000
O O6 0.798805 0.500000 0.227228
O O7 0.837273 0.253456 0.222839
O O8 0.500000 0.706671 0.726800
O O9 0.448387 0.500000 0.724093
O O10 0.413999 0.748270 0.746623
O O11 0.455819 0.650642 0.000000
O O12 0.940298 0.500000 0.271803
O O13 0.918584 0.768015 0.266435
O O14 0.000000 0.682395 0.271434
O O15 0.952670 0.652589 0.000000
O O16 0.371517 0.146168 0.500000
O O17 0.382944 0.000000 0.222131
O O18 0.867186 0.855558 0.500000
O O19 0.873979 0.000000 0.780816
#
# Coordination Sequence:
#
# PCOD9384702 Si02
#       6
#     8   8   8   8   8   8
#     4   8  14  26  43  64  94 127 154 186 233 285
#     4   9  16  26  43  68  96 126 161 198 235 278
#     4   9  19  35  51  67  91 125 163 200 239 285
#     4   9  19  36  55  73  95 126 163 201 243 291
#     4   9  18  31  48  73 101 126 155 194 239 285
#     4  10  20  32  48  73 103 132 162 198 240 284
#
# _framework density 20.419249000000001
#
# number of rings (size 3 to 8) (size 9 to 14) (size 15 to 20)
#    0.000    3.000    0.000    3.000    0.000    6.000 
#    0.000    6.667    0.000    1.000    0.000    4.667 
#    0.000    0.000    0.000    0.000    0.000    0.000 
#
# Total GULP energy -267741.310451 kJ/mol
# GULP energy per Si atom -5577.943968 kJ/mol
# Density = 2.037277 g / cm^3
# Si number density = 20.419249 Si / 1000 Ang^3
#
#
#
# Elastic Constant Matrix: (Units=GPa)
#
#
# Indices 1 2 3 4 5 6 
#
# 1 189.9881 144.4924 2.2603 0.0000 0.0000 0.0000
# 2 144.4924 177.1706 5.9212 0.0000 0.0000 0.0000
# 3 2.2603 5.9212 39.7169 0.0000 0.0000 0.0000
# 4 0.0000 0.0000 0.0000 16.1308 0.0000 0.0000
# 5 0.0000 0.0000 0.0000 0.0000 45.0921 0.0000
# 6 0.0000 0.0000 0.0000 0.0000 0.0000 41.6981
#
#
#
# Elastic Compliance Matrix: (Units=1/GPa)
#
#
# Indices 1 2 3 4 5 6 
#
# 1 0.013893 -0.011361 0.000903 0.000000 0.000000 0.000000
# 2 -0.011361 0.014962 -0.001584 0.000000 0.000000 0.000000
# 3 0.000903 -0.001584 0.025363 0.000000 0.000000 0.000000
# 4 0.000000 0.000000 0.000000 0.061993 0.000000 0.000000
# 5 0.000000 0.000000 0.000000 0.000000 0.022177 0.000000
# 6 0.000000 0.000000 0.000000 0.000000 0.000000 0.023982
#
#
# Mechanical properties :
#
#
# Convention : Reuss Voigt Hill
#
# Bulk Modulus (GPa) = 33.18409 79.13593 56.16001
# Shear Modulus (GPa) = 25.44548 37.53097 31.48823
#
# Velocity S-wave (km/s) = 3.53392 4.29186 3.93120
# Velocity P-wave (km/s) = 5.73917 7.96240 6.94039
#
# Compressibility (1/GPa) = 0.03013493
#
# Stress axis : x y z
#
# Youngs Moduli (GPa) = 71.97948 66.83421 39.42750
#
# Poissons Ratio (x) = 0.75927 -0.03561
# Poissons Ratio (y) = 0.81773 0.06246
# Poissons Ratio (z) = -0.06500 0.10588
#
# Static dielectric constant tensor:
#      x y z
#    x 1.717850 0.000000 0.000000 
#    y 0.000000 1.703650 0.000000 
#    z 0.000000 0.000000 1.777710 
# 
# From -- ./inp_files/2499.got.cif
#   From: 2010.05.17/outbox.cif.g08.bks.cpg/sg47_2_cif.got.tgz:2499.got - 2010.06.03 20:15:42.
