data_PCOD9384472
_publ_section_title
;
Structure prediction by ZEFSAII (Michael W. Deem and Ramdas Pophale) SiO2 
 PCOD9384472
Probable space group: P M M M
;
_chemical_formula_sum "Si O2"
_cell_formula_units_Z 40
_cell_length_a 26.881649
_cell_length_b 7.373971
_cell_length_c 9.339280
_cell_angle_alpha 90.000000
_cell_angle_beta 90.000000
_cell_angle_gamma 90.000000
_cell_volume 1851.274110
_symmetry_space_group_name_H-M "P M M M"
_symmetry_group_IT_number 47
_symmetry_cell_setting 'orthorhombic'
loop_
_space_group_symop_operation_xyz
x,y,z
-x,-y,z
x,-y,-z
-x,y,-z
-x,-y,-z
x,y,-z
-x,y,z
x,-y,z
loop_
_atom_site_type_symbol
_atom_site_label
_atom_site_fract_x
_atom_site_fract_y
_atom_site_fract_z
Si Si1 0.304837 0.283753 0.837790
Si Si2 0.891433 0.777948 0.166287
Si Si3 0.401367 0.278361 0.334918
Si Si4 0.204787 0.782825 0.661809
Si Si5 0.500000 0.278821 0.834904
Si Si6 0.000000 0.211426 0.825853
O O1 0.311408 0.500000 0.847614
O O2 0.351619 0.216332 0.745932
O O3 0.253253 0.253291 0.756422
O O4 0.303741 0.212426 0.000000
O O5 0.845326 0.716509 0.261328
O O6 0.946095 0.714717 0.217203
O O7 0.892534 0.000000 0.167779
O O8 0.884395 0.725920 0.000000
O O9 0.402388 0.220652 0.500000
O O10 0.401156 0.500000 0.335773
O O11 0.450470 0.222165 0.248844
O O12 0.210564 0.713907 0.500000
O O13 0.200010 0.000000 0.653866
O O14 0.500000 0.500000 0.835805
O O15 0.500000 0.220475 0.000000
O O16 0.000000 0.000000 0.783498
O O17 0.000000 0.217671 0.000000
#
# Coordination Sequence:
#
# PCOD9384472 Si02
#       6
#     8   8   8   8   4   4
#     4  10  20  33  49  69  92 120 156 195 233 274
#     4   8  13  23  40  61  86 116 149 185 224 266
#     4   9  16  26  41  62  89 119 149 184 229 276
#     4  10  20  32  46  67  95 125 156 189 227 273
#     4   9  15  23  37  59  88 119 150 185 224 267
#     4   7  10  18  35  59  84 111 144 181 222 266
#
# _framework density 21.606739999999999
#
# number of rings (size 3 to 8) (size 9 to 14) (size 15 to 20)
#    0.000    3.000    0.000    3.300    0.000    6.000 
#    0.000    0.500    0.000    3.000    0.000    1.400 
#    0.000   11.200    0.000    0.000    0.000    0.000 
#
# Total GULP energy -223342.629410 kJ/mol
# GULP energy per Si atom -5583.565735 kJ/mol
# Density = 2.155756 g / cm^3
# Si number density = 21.606740 Si / 1000 Ang^3
#
#
#
# Elastic Constant Matrix: (Units=GPa)
#
#
# Indices 1 2 3 4 5 6 
#
# 1 258.7124 4.0402 147.7803 0.0000 0.0000 0.0000
# 2 4.0402 76.9529 7.1174 0.0000 0.0000 0.0000
# 3 147.7803 7.1174 208.5480 0.0000 0.0000 0.0000
# 4 0.0000 0.0000 0.0000 0.7861 0.0000 0.0000
# 5 0.0000 0.0000 0.0000 0.0000 55.9933 0.0000
# 6 0.0000 0.0000 0.0000 0.0000 0.0000 11.4352
#
#
#
# Elastic Compliance Matrix: (Units=1/GPa)
#
#
# Indices 1 2 3 4 5 6 
#
# 1 0.006494 0.000085 -0.004605 0.000000 0.000000 0.000000
# 2 0.000085 0.013037 -0.000505 0.000000 0.000000 0.000000
# 3 -0.004605 -0.000505 0.008075 0.000000 0.000000 0.000000
# 4 0.000000 0.000000 0.000000 1.272087 0.000000 0.000000
# 5 0.000000 0.000000 0.000000 0.000000 0.017859 0.000000
# 6 0.000000 0.000000 0.000000 0.000000 0.000000 0.087449
#
#
# Mechanical properties :
#
#
# Convention : Reuss Voigt Hill
#
# Bulk Modulus (GPa) = 56.95801 95.78769 76.37285
# Shear Modulus (GPa) = 3.51889 39.32796 21.42342
#
# Velocity S-wave (km/s) = 1.27755 4.27097 3.15225
# Velocity P-wave (km/s) = 5.34740 8.29157 6.97656
#
# Compressibility (1/GPa) = 0.01755679
#
# Stress axis : x y z
#
# Youngs Moduli (GPa) = 153.97984 76.70350 123.83282
#
# Poissons Ratio (x) = -0.00651 0.57024
# Poissons Ratio (y) = -0.01308 0.06255
# Poissons Ratio (z) = 0.70906 0.03875
#
# Static dielectric constant tensor:
#      x y z
#    x 1.752310 0.000000 0.000000 
#    y 0.000000 1.909060 0.000000 
#    z 0.000000 0.000000 1.767130 
# 
# From -- ./inp_files/13081.got.cif
#   From: 2010.05.17/outbox.cif.g08.bks.cpg/sg47_7_cif.got.tgz:13081.got - 2010.06.03 20:15:42.
