data_PCOD9384434
_publ_section_title
;
Structure prediction by ZEFSAII (Michael W. Deem and Ramdas Pophale) SiO2 
 PCOD9384434
Probable space group: P M M M
;
_chemical_formula_sum "Si O2"
_cell_formula_units_Z 52
_cell_length_a 9.164757
_cell_length_b 18.812257
_cell_length_c 18.898534
_cell_angle_alpha 90.000000
_cell_angle_beta 90.000000
_cell_angle_gamma 90.000000
_cell_volume 3258.291787
_symmetry_space_group_name_H-M "P M M M"
_symmetry_group_IT_number 47
_symmetry_cell_setting 'orthorhombic'
loop_
_space_group_symop_operation_xyz
x,y,z
-x,-y,z
x,-y,-z
-x,y,-z
-x,-y,-z
x,y,-z
-x,y,z
x,-y,z
loop_
_atom_site_type_symbol
_atom_site_label
_atom_site_fract_x
_atom_site_fract_y
_atom_site_fract_z
Si Si1 0.326527 0.919369 0.341658
Si Si2 0.833267 0.706745 0.714516
Si Si3 0.675243 0.206595 0.917631
Si Si4 0.167537 0.861601 0.790839
Si Si5 0.675021 0.355431 0.157190
Si Si6 0.321741 0.500000 0.081638
Si Si7 0.824022 0.211266 0.581724
O O1 0.500000 0.906847 0.338675
O O2 0.258314 0.909458 0.263495
O O3 0.251571 0.860909 0.391551
O O4 0.300521 0.000000 0.366143
O O5 0.833394 0.783892 0.753125
O O6 0.739336 0.656963 0.764947
O O7 0.780096 0.725759 0.635698
O O8 0.000000 0.681271 0.711544
O O9 0.500000 0.198786 0.909919
O O10 0.756210 0.151775 0.865952
O O11 0.712796 0.286416 0.890618
O O12 0.712511 0.198573 0.000000
O O13 0.000000 0.885185 0.797427
O O14 0.500000 0.357163 0.161500
O O15 0.725517 0.428252 0.121057
O O16 0.500000 0.500000 0.081580
O O17 0.275280 0.500000 0.000000
O O18 0.790847 0.225172 0.500000
O O19 0.000000 0.203245 0.589409
#
# Coordination Sequence:
#
# PCOD9384434 Si02
#       7
#     8   8   8   8   8   4   8
#     4  10  20  32  46  65  90 119 147 175 212 260
#     4   8  15  28  44  62  85 112 143 180 219 256
#     4   9  16  26  42  64  88 113 143 182 228 271
#     4   9  17  29  45  63  83 111 148 186 221 259
#     4   9  16  26  42  63  87 118 153 183 213 257
#     4   9  16  26  41  63  92 123 154 186 217 253
#     4   9  18  32  49  69  92 117 145 178 217 260
#
# _framework density 15.959282999999999
#
# number of rings (size 3 to 8) (size 9 to 14) (size 15 to 20)
#    0.000    3.000    0.000    2.308    0.000    7.692 
#    0.000    1.923    0.000    2.308    0.000    3.769 
#    0.000    4.308    0.000    0.000    0.000    0.000 
#
# Total GULP energy -289580.276264 kJ/mol
# GULP energy per Si atom -5568.851467 kJ/mol
# Density = 1.592296 g / cm^3
# Si number density = 15.959283 Si / 1000 Ang^3
#
#
#
# Elastic Constant Matrix: (Units=GPa)
#
#
# Indices 1 2 3 4 5 6 
#
# 1 24.0645 13.6062 33.9521 0.0000 0.0000 0.0000
# 2 13.6062 38.1396 33.9039 0.0000 0.0000 0.0000
# 3 33.9521 33.9039 145.0116 0.0000 0.0000 0.0000
# 4 0.0000 0.0000 0.0000 17.7615 0.0000 0.0000
# 5 0.0000 0.0000 0.0000 0.0000 26.1278 0.0000
# 6 0.0000 0.0000 0.0000 0.0000 0.0000 11.9571
#
#
#
# Elastic Compliance Matrix: (Units=1/GPa)
#
#
# Indices 1 2 3 4 5 6 
#
# 1 0.066438 -0.012464 -0.012641 0.000000 0.000000 0.000000
# 2 -0.012464 0.035437 -0.005367 0.000000 0.000000 0.000000
# 3 -0.012641 -0.005367 0.011110 0.000000 0.000000 0.000000
# 4 0.000000 0.000000 0.000000 0.056302 0.000000 0.000000
# 5 0.000000 0.000000 0.000000 0.000000 0.038273 0.000000
# 6 0.000000 0.000000 0.000000 0.000000 0.000000 0.083632
#
#
# Mechanical properties :
#
#
# Convention : Reuss Voigt Hill
#
# Bulk Modulus (GPa) = 19.21583 41.12668 30.17125
# Shear Modulus (GPa) = 13.53242 19.55286 16.54264
#
# Velocity S-wave (km/s) = 2.91509 3.50404 3.22305
# Velocity P-wave (km/s) = 4.83704 6.49590 5.72686
#
# Compressibility (1/GPa) = 0.05204043
#
# Stress axis : x y z
#
# Youngs Moduli (GPa) = 15.05174 28.21920 90.00503
#
# Poissons Ratio (x) = 0.35173 1.13776
# Poissons Ratio (y) = 0.18761 0.48305
# Poissons Ratio (z) = 0.19027 0.15145
#
# Static dielectric constant tensor:
#      x y z
#    x 1.540710 0.000000 0.000000 
#    y 0.000000 1.521870 0.000000 
#    z 0.000000 0.000000 1.541720 
# 
# From -- ./inp_files/9537.got.cif
#   From: 2010.05.17/outbox.cif.g08.bks.cpg/sg47_5_cif.got.tgz:9537.got - 2010.06.03 20:15:42.
