data_PCOD9384884
_publ_section_title
;
Structure prediction by ZEFSAII (Michael W. Deem and Ramdas Pophale) SiO2 
 PCOD9384884
Probable space group: P M M M
;
_chemical_formula_sum "Si O2"
_cell_formula_units_Z 48
_cell_length_a 15.437411
_cell_length_b 9.287075
_cell_length_c 19.845909
_cell_angle_alpha 90.000000
_cell_angle_beta 90.000000
_cell_angle_gamma 90.000000
_cell_volume 2845.276096
_symmetry_space_group_name_H-M "P M M M"
_symmetry_group_IT_number 47
_symmetry_cell_setting 'orthorhombic'
loop_
_space_group_symop_operation_xyz
x,y,z
-x,-y,z
x,-y,-z
-x,y,-z
-x,-y,-z
x,y,-z
-x,y,z
x,-y,z
loop_
_atom_site_type_symbol
_atom_site_label
_atom_site_fract_x
_atom_site_fract_y
_atom_site_fract_z
Si Si1 0.398354 0.657857 0.500000
Si Si2 0.099984 0.828297 0.079838
Si Si3 0.598025 0.827778 0.220644
Si Si4 0.341787 0.830497 0.629606
Si Si5 0.168395 0.671256 0.334086
Si Si6 0.000000 0.325952 0.578325
Si Si7 0.224391 0.329297 0.817107
O O1 0.355279 0.500000 0.500000
O O2 0.500000 0.639984 0.500000
O O3 0.376446 0.745293 0.566360
O O4 0.168458 0.742206 0.124056
O O5 0.000000 0.790207 0.096678
O O6 0.109820 0.000000 0.091162
O O7 0.111723 0.802548 0.000000
O O8 0.500000 0.786617 0.198930
O O9 0.606143 0.803957 0.301205
O O10 0.680637 0.744316 0.190025
O O11 0.608204 0.000000 0.209106
O O12 0.246158 0.770055 0.641255
O O13 0.342366 0.000000 0.616927
O O14 0.185050 0.500000 0.345713
O O15 0.170750 0.690598 0.253073
O O16 0.083597 0.712100 0.376611
O O17 0.000000 0.500000 0.574214
O O18 0.000000 0.273686 0.500000
O O19 0.235256 0.500000 0.827030
#
# Coordination Sequence:
#
# PCOD9384884 Si02
#       7
#     4   8   8   8   8   4   8
#     4  11  23  35  49  70  95 126 163 205 260 325
#     4   9  19  36  57  81 110 145 183 220 260 312
#     4   9  18  34  55  76 102 139 180 219 261 314
#     4  10  20  34  52  73  99 128 165 215 267 314
#     4   9  19  34  51  74 102 136 177 216 259 311
#     4   9  18  32  51  71  94 135 183 221 258 304
#     4  10  20  32  52  82 114 143 173 219 269 318
#
# _framework density 16.870068
#
# number of rings (size 3 to 8) (size 9 to 14) (size 15 to 20)
#    0.000    2.500    0.000    2.250    2.333    3.667 
#    0.000    1.250    0.000    1.000    0.000    3.500 
#    0.000    0.000    0.000    0.000    0.000    0.000 
#
# Total GULP energy -267479.940367 kJ/mol
# GULP energy per Si atom -5572.498758 kJ/mol
# Density = 1.683167 g / cm^3
# Si number density = 16.870068 Si / 1000 Ang^3
#
#
#
# Elastic Constant Matrix: (Units=GPa)
#
#
# Indices 1 2 3 4 5 6 
#
# 1 133.1666 61.3324 73.4019 0.0000 0.0000 0.0000
# 2 61.3324 73.3434 60.6543 0.0000 0.0000 0.0000
# 3 73.4019 60.6543 83.4456 0.0000 0.0000 0.0000
# 4 0.0000 0.0000 0.0000 27.4372 0.0000 0.0000
# 5 0.0000 0.0000 0.0000 0.0000 0.6102 0.0000
# 6 0.0000 0.0000 0.0000 0.0000 0.0000 43.5536
#
#
#
# Elastic Compliance Matrix: (Units=1/GPa)
#
#
# Indices 1 2 3 4 5 6 
#
# 1 0.015055 -0.004106 -0.010258 0.000000 0.000000 0.000000
# 2 -0.004106 0.035301 -0.022048 0.000000 0.000000 0.000000
# 3 -0.010258 -0.022048 0.037034 0.000000 0.000000 0.000000
# 4 0.000000 0.000000 0.000000 0.036447 0.000000 0.000000
# 5 0.000000 0.000000 0.000000 0.000000 1.638714 0.000000
# 6 0.000000 0.000000 0.000000 0.000000 0.000000 0.022960
#
#
# Mechanical properties :
#
#
# Convention : Reuss Voigt Hill
#
# Bulk Modulus (GPa) = 68.65563 75.63697 72.14630
# Shear Modulus (GPa) = 2.68357 20.62468 11.65412
#
# Velocity S-wave (km/s) = 1.26261 3.50031 2.63119
# Velocity P-wave (km/s) = 6.55062 7.82742 7.21731
#
# Compressibility (1/GPa) = 0.01456545
#
# Stress axis : x y z
#
# Youngs Moduli (GPa) = 66.42366 28.32747 27.00249
#
# Poissons Ratio (x) = 0.11631 0.27700
# Poissons Ratio (y) = 0.27272 0.59535
# Poissons Ratio (z) = 0.68140 0.62456
#
# Static dielectric constant tensor:
#      x y z
#    x 1.574060 0.000000 0.000000 
#    y 0.000000 1.580860 0.000000 
#    z 0.000000 0.000000 1.541950 
# 
# From -- ./inp_files/9172.got.cif
#   From: 2010.05.17/outbox.cif.g08.bks.cpg/sg47_5_cif.got.tgz:9172.got - 2010.06.03 20:15:42.
