data_PCOD9384492
_publ_section_title
;
Structure prediction by ZEFSAII (Michael W. Deem and Ramdas Pophale) SiO2 
 PCOD9384492
Probable space group: P M M M
;
_chemical_formula_sum "Si O2"
_cell_formula_units_Z 40
_cell_length_a 7.828448
_cell_length_b 20.901443
_cell_length_c 13.006935
_cell_angle_alpha 90.000000
_cell_angle_beta 90.000000
_cell_angle_gamma 90.000000
_cell_volume 2128.270921
_symmetry_space_group_name_H-M "P M M M"
_symmetry_group_IT_number 47
_symmetry_cell_setting 'orthorhombic'
loop_
_space_group_symop_operation_xyz
x,y,z
-x,-y,z
x,-y,-z
-x,y,-z
-x,-y,-z
x,y,-z
-x,y,z
x,-y,z
loop_
_atom_site_type_symbol
_atom_site_label
_atom_site_fract_x
_atom_site_fract_y
_atom_site_fract_z
Si Si1 0.202303 0.638561 0.883116
Si Si2 0.302935 0.740815 0.500000
Si Si3 0.303252 0.103370 0.500000
Si Si4 0.703215 0.500000 0.882852
Si Si5 0.295488 0.254367 0.721556
Si Si6 0.291134 0.000000 0.117711
Si Si7 0.709841 0.108524 0.274564
O O1 0.243182 0.568220 0.838162
O O2 0.262867 0.695596 0.811049
O O3 0.000000 0.643619 0.890449
O O4 0.274588 0.642123 0.000000
O O5 0.500000 0.717938 0.500000
O O6 0.306148 0.818715 0.500000
O O7 0.225371 0.723131 0.389772
O O8 0.500000 0.080865 0.500000
O O9 0.230357 0.086075 0.611706
O O10 0.500000 0.500000 0.887536
O O11 0.775016 0.500000 0.000000
O O12 0.500000 0.248988 0.708997
O O13 0.235084 0.181929 0.742642
O O14 0.237662 0.061754 0.183531
O O15 0.500000 0.000000 0.115697
O O16 0.232635 0.000000 0.000000
O O17 0.500000 0.107752 0.278182
#
# Coordination Sequence:
#
# PCOD9384492 Si02
#       7
#     8   4   4   4   8   4   8
#     4  10  20  32  46  68  98 126 150 183 228 269
#     4   7  12  24  42  64  89 114 143 188 238 273
#     4   7  10  19  34  52  74 101 137 180 227 272
#     4   9  17  31  51  72  93 120 155 189 221 265
#     4   9  16  28  47  68  89 117 155 193 229 274
#     4   9  16  23  29  45  80 119 147 178 228 277
#     4   8  14  23  36  55  79 108 143 185 228 269
#
# _framework density 18.794599999999999
#
# number of rings (size 3 to 8) (size 9 to 14) (size 15 to 20)
#    0.000    3.400    0.000    3.300    0.000    3.600 
#    0.000    4.500    0.000    0.600    0.000    4.900 
#    0.000    2.400    0.000    7.200    0.000    8.000 
#
# Total GULP energy -222678.450020 kJ/mol
# GULP energy per Si atom -5566.961250 kJ/mol
# Density = 1.875182 g / cm^3
# Si number density = 18.794600 Si / 1000 Ang^3
#
#
#
# Elastic Constant Matrix: (Units=GPa)
#
#
# Indices 1 2 3 4 5 6 
#
# 1 21.6330 3.6150 5.1716 0.0000 0.0000 0.0000
# 2 3.6150 125.8329 93.1791 0.0000 0.0000 0.0000
# 3 5.1716 93.1791 161.4407 0.0000 0.0000 0.0000
# 4 0.0000 0.0000 0.0000 -24.7222 0.0000 0.0000
# 5 0.0000 0.0000 0.0000 0.0000 -3.8698 0.0000
# 6 0.0000 0.0000 0.0000 0.0000 0.0000 -200.7565
#
#
#
# Elastic Compliance Matrix: (Units=1/GPa)
#
#
# Indices 1 2 3 4 5 6 
#
# 1 0.046594 -0.000407 -0.001257 0.000000 0.000000 0.000000
# 2 -0.000407 0.013882 -0.007999 0.000000 0.000000 0.000000
# 3 -0.001257 -0.007999 0.010852 0.000000 0.000000 0.000000
# 4 0.000000 0.000000 0.000000 -0.040449 0.000000 0.000000
# 5 0.000000 0.000000 0.000000 0.000000 -0.258413 0.000000
# 6 0.000000 0.000000 0.000000 0.000000 0.000000 -0.004981
#
#
# Mechanical properties :
#
#
# Convention : Reuss Voigt Hill
#
# Bulk Modulus (GPa) = 19.23093 56.98201 38.10647
# Shear Modulus (GPa) = -25.52932 -32.07363 -28.80147
#
# Velocity S-wave (km/s) = -3.68955 -4.13550 -3.91888
# Velocity P-wave (km/s) = 2.80999 2.75335 0.39694
#
# Compressibility (1/GPa) = 0.05199956
#
# Stress axis : x y z
#
# Youngs Moduli (GPa) = 21.46184 72.03399 92.15253
#
# Poissons Ratio (x) = 0.02935 0.11588
# Poissons Ratio (y) = 0.00874 0.73717
# Poissons Ratio (z) = 0.02699 0.57623
#
# Static dielectric constant tensor:
#      x y z
#    x 1.680950 0.000000 0.000000 
#    y 0.000000 1.644650 0.000000 
#    z 0.000000 0.000000 1.700150 
# 
# From -- ./inp_files/15184.got.cif
#   From: 2010.05.17/outbox.cif.g08.bks.cpg/sg47_8_cif.got.tgz:15184.got - 2010.06.03 20:15:42.
