data_PCOD9384275
_publ_section_title
;
Structure prediction by ZEFSAII (Michael W. Deem and Ramdas Pophale) SiO2 
 PCOD9384275
Probable space group: P M M M
;
_chemical_formula_sum "Si O2"
_cell_formula_units_Z 48
_cell_length_a 9.771806
_cell_length_b 7.556359
_cell_length_c 32.372351
_cell_angle_alpha 90.000000
_cell_angle_beta 90.000000
_cell_angle_gamma 90.000000
_cell_volume 2390.350902
_symmetry_space_group_name_H-M "P M M M"
_symmetry_group_IT_number 47
_symmetry_cell_setting 'orthorhombic'
loop_
_space_group_symop_operation_xyz
x,y,z
-x,-y,z
x,-y,-z
-x,y,-z
-x,-y,-z
x,y,-z
-x,y,z
x,-y,z
loop_
_atom_site_type_symbol
_atom_site_label
_atom_site_fract_x
_atom_site_fract_y
_atom_site_fract_z
Si Si1 0.656556 0.783924 0.953044
Si Si2 0.344428 0.789712 0.620650
Si Si3 0.342053 0.286663 0.199047
Si Si4 0.154337 0.789257 0.120867
Si Si5 0.157882 0.216165 0.453781
Si Si6 0.658770 0.287507 0.710588
O O1 0.500000 0.730256 0.943791
O O2 0.761122 0.719408 0.918454
O O3 0.657398 0.000000 0.952568
O O4 0.689800 0.730224 0.000000
O O5 0.500000 0.717090 0.620307
O O6 0.253109 0.719612 0.583280
O O7 0.281397 0.764889 0.666389
O O8 0.354816 0.000000 0.614606
O O9 0.500000 0.225582 0.193001
O O10 0.347478 0.500000 0.199997
O O11 0.243270 0.236735 0.161981
O O12 0.290038 0.226880 0.244484
O O13 0.000000 0.718485 0.124279
O O14 0.143827 0.000000 0.114779
O O15 0.202261 0.269360 0.500000
O O16 0.000000 0.269647 0.448108
O O17 0.159124 0.000000 0.453168
O O18 0.500000 0.227974 0.709446
O O19 0.660056 0.500000 0.711168
#
# Coordination Sequence:
#
# PCOD9384275 Si02
#       6
#     8   8   8   8   8   8
#     4   8  14  26  45  68  93 122 156 191 226 267
#     4   9  16  25  41  67  91 108 135 178 220 254
#     4   9  18  33  52  70  88 118 160 197 230 273
#     4  10  20  31  45  70 101 128 154 187 230 276
#     4   8  14  25  40  58  83 115 145 171 206 254
#     4   8  15  29  47  65  86 113 144 178 219 268
#
# _framework density 20.080732999999999
#
# number of rings (size 3 to 8) (size 9 to 14) (size 15 to 20)
#    0.000    3.333    0.000    2.500    0.000    2.667 
#    0.000    5.833    0.000    4.500    0.000    7.000 
#    0.000    0.000    0.000    0.000    0.000    0.000 
#
# Total GULP energy -267442.389442 kJ/mol
# GULP energy per Si atom -5571.716447 kJ/mol
# Density = 2.003503 g / cm^3
# Si number density = 20.080733 Si / 1000 Ang^3
#
#
#
# Elastic Constant Matrix: (Units=GPa)
#
#
# Indices 1 2 3 4 5 6 
#
# 1 106.8396 5.5258 120.6430 0.0000 0.0000 0.0000
# 2 5.5258 44.7276 2.7332 0.0000 0.0000 0.0000
# 3 120.6430 2.7332 224.6331 0.0000 0.0000 0.0000
# 4 0.0000 0.0000 0.0000 40.2697 0.0000 0.0000
# 5 0.0000 0.0000 0.0000 0.0000 -12.3820 0.0000
# 6 0.0000 0.0000 0.0000 0.0000 0.0000 4.2386
#
#
#
# Elastic Compliance Matrix: (Units=1/GPa)
#
#
# Indices 1 2 3 4 5 6 
#
# 1 0.023994 -0.002178 -0.012860 0.000000 0.000000 0.000000
# 2 -0.002178 0.022572 0.000895 0.000000 0.000000 0.000000
# 3 -0.012860 0.000895 0.011347 0.000000 0.000000 0.000000
# 4 0.000000 0.000000 0.000000 0.024833 0.000000 0.000000
# 5 0.000000 0.000000 0.000000 0.000000 -0.080763 0.000000
# 6 0.000000 0.000000 0.000000 0.000000 0.000000 0.235929
#
#
# Mechanical properties :
#
#
# Convention : Reuss Voigt Hill
#
# Bulk Modulus (GPa) = 33.75263 70.44494 52.09878
# Shear Modulus (GPa) = 18.11112 22.91181 20.51147
#
# Velocity S-wave (km/s) = 3.00645 3.38151 3.19948
# Velocity P-wave (km/s) = 5.37556 7.09952 6.29682
#
# Compressibility (1/GPa) = 0.02962732
#
# Stress axis : x y z
#
# Youngs Moduli (GPa) = 41.67787 44.30277 88.12678
#
# Poissons Ratio (x) = 0.09651 1.13328
# Poissons Ratio (y) = 0.09079 -0.07890
# Poissons Ratio (z) = 0.53596 -0.03966
#
# Static dielectric constant tensor:
#      x y z
#    x 1.687170 0.000000 0.000000 
#    y 0.000000 1.765270 0.000000 
#    z 0.000000 0.000000 1.727850 
# 
# From -- ./inp_files/4339.got.cif
#   From: 2010.05.17/outbox.cif.g08.bks.cpg/sg47_3_cif.got.tgz:4339.got - 2010.06.03 20:15:42.
