data_PCOD9384411
_publ_section_title
;
Structure prediction by ZEFSAII (Michael W. Deem and Ramdas Pophale) SiO2 
 PCOD9384411
Probable space group: P M M M
;
_chemical_formula_sum "Si O2"
_cell_formula_units_Z 52
_cell_length_a 24.000785
_cell_length_b 14.200977
_cell_length_c 9.094026
_cell_angle_alpha 90.000000
_cell_angle_beta 90.000000
_cell_angle_gamma 90.000000
_cell_volume 3099.558676
_symmetry_space_group_name_H-M "P M M M"
_symmetry_group_IT_number 47
_symmetry_cell_setting 'orthorhombic'
loop_
_space_group_symop_operation_xyz
x,y,z
-x,-y,z
x,-y,-z
-x,y,-z
-x,-y,-z
x,y,-z
-x,y,z
x,-y,z
loop_
_atom_site_type_symbol
_atom_site_label
_atom_site_fract_x
_atom_site_fract_y
_atom_site_fract_z
Si Si1 0.567095 0.000000 0.835583
Si Si2 0.846989 0.260621 0.673317
Si Si3 0.236122 0.610704 0.165812
Si Si4 0.769294 0.889341 0.822527
Si Si5 0.436150 0.193105 0.674964
Si Si6 0.933797 0.607202 0.824069
Si Si7 0.332429 0.752395 0.169240
O O1 0.580451 0.093124 0.746119
O O2 0.500000 0.000000 0.847877
O O3 0.591200 0.000000 0.000000
O O4 0.853432 0.246527 0.500000
O O5 0.801139 0.339828 0.712625
O O6 0.820639 0.167189 0.748712
O O7 0.901757 0.308137 0.744306
O O8 0.237267 0.500000 0.181123
O O9 0.296382 0.657721 0.172593
O O10 0.213953 0.633638 0.000000
O O11 0.711803 0.834019 0.783276
O O12 0.767402 0.000000 0.784049
O O13 0.774311 0.881558 0.000000
O O14 0.435452 0.186685 0.500000
O O15 0.500000 0.215529 0.720171
O O16 0.387386 0.258316 0.734595
O O17 0.915123 0.500000 0.781097
O O18 0.000000 0.612185 0.796564
O O19 0.925333 0.614250 0.000000
O O20 0.348365 0.772813 0.000000
#
# Coordination Sequence:
#
# PCOD9384411 Si02
#       7
#     4   8   8   8   8   8   8
#     4   9  17  29  45  63  83 113 153 191 226 269
#     4  11  21  31  48  77 109 137 165 200 248 300
#     4   9  18  34  54  73  96 128 165 205 246 290
#     4   9  19  36  55  73  96 130 170 210 248 289
#     4  10  20  32  45  65  95 127 157 191 238 297
#     4   9  18  33  53  76 103 138 177 212 247 290
#     4   9  18  31  50  75  96 120 159 204 248 290
#
# _framework density 16.776582000000001
#
# number of rings (size 3 to 8) (size 9 to 14) (size 15 to 20)
#    0.000    2.538    0.000    3.923    1.077    7.385 
#    0.000    0.769    0.000    0.923    0.000    6.462 
#    0.000    0.000    0.000    0.000    0.000    0.000 
#
# Total GULP energy -289719.330172 kJ/mol
# GULP energy per Si atom -5571.525580 kJ/mol
# Density = 1.673840 g / cm^3
# Si number density = 16.776582 Si / 1000 Ang^3
#
#
#
# Elastic Constant Matrix: (Units=GPa)
#
#
# Indices 1 2 3 4 5 6 
#
# 1 80.0936 21.0379 33.4505 0.0000 0.0000 0.0000
# 2 21.0379 63.3991 16.5016 0.0000 0.0000 0.0000
# 3 33.4505 16.5016 54.3508 0.0000 0.0000 0.0000
# 4 0.0000 0.0000 0.0000 15.0203 0.0000 0.0000
# 5 0.0000 0.0000 0.0000 0.0000 -7.7372 0.0000
# 6 0.0000 0.0000 0.0000 0.0000 0.0000 14.1788
#
#
#
# Elastic Compliance Matrix: (Units=1/GPa)
#
#
# Indices 1 2 3 4 5 6 
#
# 1 0.017398 -0.003242 -0.009723 0.000000 0.000000 0.000000
# 2 -0.003242 0.017731 -0.003388 0.000000 0.000000 0.000000
# 3 -0.009723 -0.003388 0.025412 0.000000 0.000000 0.000000
# 4 0.000000 0.000000 0.000000 0.066576 0.000000 0.000000
# 5 0.000000 0.000000 0.000000 0.000000 -0.129246 0.000000
# 6 0.000000 0.000000 0.000000 0.000000 0.000000 0.070528
#
#
# Mechanical properties :
#
#
# Convention : Reuss Voigt Hill
#
# Bulk Modulus (GPa) = 35.92761 37.75817 36.84289
# Shear Modulus (GPa) = 45.29698 12.74930 29.02314
#
# Velocity S-wave (km/s) = 5.20180 2.75970 4.16381
# Velocity P-wave (km/s) = 7.58552 5.71926 6.71752
#
# Compressibility (1/GPa) = 0.02783374
#
# Stress axis : x y z
#
# Youngs Moduli (GPa) = 57.47831 56.39899 39.35188
#
# Poissons Ratio (x) = 0.18287 0.38263
# Poissons Ratio (y) = 0.18637 0.13331
# Poissons Ratio (z) = 0.55887 0.19107
#
# Static dielectric constant tensor:
#      x y z
#    x 1.594580 0.000000 0.000000 
#    y 0.000000 1.571230 0.000000 
#    z 0.000000 0.000000 1.571580 
# 
# From -- ./inp_files/12495.got.cif
#   From: 2010.05.17/outbox.cif.g08.bks.cpg/sg47_7_cif.got.tgz:12495.got - 2010.06.03 20:15:42.
