data_PCOD9384863
_publ_section_title
;
Structure prediction by ZEFSAII (Michael W. Deem and Ramdas Pophale) SiO2 
 PCOD9384863
Probable space group: P M M M
;
_chemical_formula_sum "Si O2"
_cell_formula_units_Z 64
_cell_length_a 14.872807
_cell_length_b 7.754052
_cell_length_c 24.800803
_cell_angle_alpha 90.000000
_cell_angle_beta 90.000000
_cell_angle_gamma 90.000000
_cell_volume 2860.140673
_symmetry_space_group_name_H-M "P M M M"
_symmetry_group_IT_number 47
_symmetry_cell_setting 'orthorhombic'
loop_
_space_group_symop_operation_xyz
x,y,z
-x,-y,z
x,-y,-z
-x,y,-z
-x,-y,-z
x,y,-z
-x,y,z
x,-y,z
loop_
_atom_site_type_symbol
_atom_site_label
_atom_site_fract_x
_atom_site_fract_y
_atom_site_fract_z
Si Si1 0.291399 0.702962 0.175704
Si Si2 0.705025 0.712092 0.060240
Si Si3 0.094373 0.302259 0.935462
Si Si4 0.213584 0.799035 0.558516
Si Si5 0.897269 0.791149 0.781842
Si Si6 0.602020 0.301789 0.601041
Si Si7 0.398203 0.799957 0.280323
Si Si8 0.895296 0.209282 0.659896
O O1 0.307160 0.500000 0.178610
O O2 0.334385 0.762926 0.118511
O O3 0.183675 0.732076 0.180225
O O4 0.335349 0.781250 0.228863
O O5 0.706807 0.500000 0.059068
O O6 0.807378 0.777235 0.068158
O O7 0.672830 0.764232 0.000000
O O8 0.097766 0.500000 0.914814
O O9 0.000000 0.221068 0.916011
O O10 0.086599 0.315646 0.000000
O O11 0.191815 0.722120 0.500000
O O12 0.319961 0.790996 0.568766
O O13 0.164676 0.722924 0.611009
O O14 0.186667 0.000000 0.556748
O O15 0.874284 0.732188 0.720699
O O16 0.000000 0.734080 0.793359
O O17 0.897936 0.000000 0.782774
O O18 0.500000 0.233198 0.596036
O O19 0.601403 0.500000 0.583421
O O20 0.626405 0.295865 0.664690
O O21 0.500000 0.747619 0.265441
O O22 0.398149 0.000000 0.296079
O O23 0.000000 0.246364 0.649736
O O24 0.885410 0.000000 0.661948
#
# Coordination Sequence:
#
# PCOD9384863 Si02
#       8
#     8   8   8   8   8   8   8   8
#     4  11  21  31  51  82 110 136 169 217 271 317
#     4   8  15  27  41  62  96 135 171 206 250 306
#     4   7   9  15  29  48  73 111 157 197 229 266
#     4  10  20  32  50  79 111 144 183 222 259 307
#     4   9  18  33  52  73 102 144 188 226 268 320
#     4  10  21  37  57  80 106 136 171 215 267 317
#     4  10  21  38  60  82 104 133 169 211 264 327
#     4   8  15  30  51  72  96 132 179 225 263 299
#
# _framework density 22.376521
#
# number of rings (size 3 to 8) (size 9 to 14) (size 15 to 20)
#    0.000    2.875    0.000    3.750    0.000    4.000 
#    0.000    3.750    0.000    3.000    0.000    4.375 
#    0.000    0.000    0.000    0.000    0.000    0.000 
#
# Total GULP energy -356642.085417 kJ/mol
# GULP energy per Si atom -5572.532585 kJ/mol
# Density = 2.232559 g / cm^3
# Si number density = 22.376521 Si / 1000 Ang^3
#
#
#
# Elastic Constant Matrix: (Units=GPa)
#
#
# Indices 1 2 3 4 5 6 
#
# 1 25.7291 -5.1657 34.0231 0.0000 0.0000 0.0000
# 2 -5.1657 36.7507 -1.2778 0.0000 0.0000 0.0000
# 3 34.0231 -1.2778 131.2283 0.0000 0.0000 0.0000
# 4 0.0000 0.0000 0.0000 12.3866 0.0000 0.0000
# 5 0.0000 0.0000 0.0000 0.0000 2.7423 0.0000
# 6 0.0000 0.0000 0.0000 0.0000 0.0000 -15.5662
#
#
#
# Elastic Compliance Matrix: (Units=1/GPa)
#
#
# Indices 1 2 3 4 5 6 
#
# 1 0.061456 0.008087 -0.015855 0.000000 0.000000 0.000000
# 2 0.008087 0.028284 -0.001821 0.000000 0.000000 0.000000
# 3 -0.015855 -0.001821 0.011713 0.000000 0.000000 0.000000
# 4 0.000000 0.000000 0.000000 0.080733 0.000000 0.000000
# 5 0.000000 0.000000 0.000000 0.000000 0.364652 0.000000
# 6 0.000000 0.000000 0.000000 0.000000 0.000000 -0.064242
#
#
# Mechanical properties :
#
#
# Convention : Reuss Voigt Hill
#
# Bulk Modulus (GPa) = 12.15440 27.65192 19.90316
# Shear Modulus (GPa) = 9.44825 10.98778 10.21802
#
# Velocity S-wave (km/s) = 2.05708 2.21835 2.13923
# Velocity P-wave (km/s) = 3.32951 4.35268 3.87501
#
# Compressibility (1/GPa) = 0.08227476
#
# Stress axis : x y z
#
# Youngs Moduli (GPa) = 16.27184 35.35601 85.37396
#
# Poissons Ratio (x) = -0.28592 1.35358
# Poissons Ratio (y) = -0.13159 0.15549
# Poissons Ratio (z) = 0.25799 0.06439
#
# Static dielectric constant tensor:
#      x y z
#    x 1.923750 0.000000 0.000000 
#    y 0.000000 1.834100 0.000000 
#    z 0.000000 0.000000 1.876190 
# 
# From -- ./inp_files/32764.got.cif
#   From: 2010.05.17/outbox.cif.g08.bks.cpg/sg47_17_cif.got.tgz:32764.got - 2010.06.03 20:15:42.
