data_PCOD9384111
_publ_section_title
;
Structure prediction by ZEFSAII (Michael W. Deem and Ramdas Pophale) SiO2 
 PCOD9384111
Probable space group: P M M M
;
_chemical_formula_sum "Si O2"
_cell_formula_units_Z 40
_cell_length_a 17.672699
_cell_length_b 18.740973
_cell_length_c 8.735767
_cell_angle_alpha 90.000000
_cell_angle_beta 90.000000
_cell_angle_gamma 90.000000
_cell_volume 2893.317259
_symmetry_space_group_name_H-M "P M M M"
_symmetry_group_IT_number 47
_symmetry_cell_setting 'orthorhombic'
loop_
_space_group_symop_operation_xyz
x,y,z
-x,-y,z
x,-y,-z
-x,y,-z
-x,-y,-z
x,y,-z
-x,y,z
x,-y,z
loop_
_atom_site_type_symbol
_atom_site_label
_atom_site_fract_x
_atom_site_fract_y
_atom_site_fract_z
Si Si1 0.908424 0.921669 0.679958
Si Si2 0.088983 0.500000 0.183527
Si Si3 0.825366 0.637396 0.316212
Si Si4 0.664545 0.416977 0.686824
Si Si5 0.500000 0.413154 0.678024
Si Si6 0.088747 0.227916 0.817589
O O1 0.889957 0.914889 0.500000
O O2 0.884243 0.850914 0.768213
O O3 0.000000 0.923036 0.691109
O O4 0.881637 0.000000 0.733989
O O5 0.128511 0.429764 0.250503
O O6 0.000000 0.500000 0.221895
O O7 0.096213 0.500000 0.000000
O O8 0.828123 0.634449 0.500000
O O9 0.737785 0.627706 0.267349
O O10 0.862699 0.710036 0.258619
O O11 0.661225 0.416601 0.500000
O O12 0.676074 0.500000 0.731192
O O13 0.581798 0.392257 0.744024
O O14 0.500000 0.500000 0.678174
O O15 0.500000 0.390464 0.500000
O O16 0.000000 0.235365 0.771246
O O17 0.092017 0.234762 0.000000
#
# Coordination Sequence:
#
# PCOD9384111 Si02
#       6
#     8   4   8   8   4   8
#     4   8  14  26  44  63  80  99 127 164 204 243
#     4  11  23  35  43  52  71 102 140 177 211 243
#     4  11  20  30  44  60  78 101 135 174 206 237
#     4   8  13  23  38  59  80  97 123 160 201 244
#     4   7  10  18  36  58  80  98 113 148 201 246
#     4  10  20  31  41  56  80 109 140 170 202 240
#
# _framework density 13.824961999999999
#
# number of rings (size 3 to 8) (size 9 to 14) (size 15 to 20)
#    0.000    2.800    1.000    3.900    0.000    4.800 
#    0.000    2.000    0.000    0.000    0.000    3.500 
#    0.000    0.000    0.000    0.900    0.000   20.600 
#
# Total GULP energy -222684.251191 kJ/mol
# GULP energy per Si atom -5567.106280 kJ/mol
# Density = 1.379350 g / cm^3
# Si number density = 13.824962 Si / 1000 Ang^3
#
#
#
# Elastic Constant Matrix: (Units=GPa)
#
#
# Indices 1 2 3 4 5 6 
#
# 1 107.2615 58.0962 28.6879 0.0000 0.0000 0.0000
# 2 58.0962 99.8318 28.0807 0.0000 0.0000 0.0000
# 3 28.6879 28.0807 22.5666 0.0000 0.0000 0.0000
# 4 0.0000 0.0000 0.0000 -6.6251 0.0000 0.0000
# 5 0.0000 0.0000 0.0000 0.0000 0.8495 0.0000
# 6 0.0000 0.0000 0.0000 0.0000 0.0000 1.7640
#
#
#
# Elastic Compliance Matrix: (Units=1/GPa)
#
#
# Indices 1 2 3 4 5 6 
#
# 1 0.015858 -0.005474 -0.013348 0.000000 0.000000 0.000000
# 2 -0.005474 0.017300 -0.014569 0.000000 0.000000 0.000000
# 3 -0.013348 -0.014569 0.079411 0.000000 0.000000 0.000000
# 4 0.000000 0.000000 0.000000 -0.150940 0.000000 0.000000
# 5 0.000000 0.000000 0.000000 0.000000 1.177119 0.000000
# 6 0.000000 0.000000 0.000000 0.000000 0.000000 0.566892
#
#
# Mechanical properties :
#
#
# Convention : Reuss Voigt Hill
#
# Bulk Modulus (GPa) = 21.84008 51.04327 36.44168
# Shear Modulus (GPa) = 2.79692 6.85069 4.82380
#
# Velocity S-wave (km/s) = 1.42390 2.22847 1.86997
# Velocity P-wave (km/s) = 4.30525 6.60475 5.57485
#
# Compressibility (1/GPa) = 0.04578737
#
# Stress axis : x y z
#
# Youngs Moduli (GPa) = 63.06040 57.80291 12.59276
#
# Poissons Ratio (x) = 0.31640 0.16809
# Poissons Ratio (y) = 0.34518 0.18346
# Poissons Ratio (z) = 0.84173 0.84212
#
# Static dielectric constant tensor:
#      x y z
#    x 1.470230 0.000000 0.000000 
#    y 0.000000 1.442800 0.000000 
#    z 0.000000 0.000000 1.464690 
# 
# From -- ./inp_files/9369.got.cif
#   From: 2010.05.17/outbox.cif.g08.bks.cpg/sg47_5_cif.got.tgz:9369.got - 2010.06.03 20:15:42.
