data_PCOD9384419
_publ_section_title
;
Structure prediction by ZEFSAII (Michael W. Deem and Ramdas Pophale) SiO2 
 PCOD9384419
Probable space group: P M M M
;
_chemical_formula_sum "Si O2"
_cell_formula_units_Z 48
_cell_length_a 9.451826
_cell_length_b 7.343948
_cell_length_c 32.946613
_cell_angle_alpha 90.000000
_cell_angle_beta 90.000000
_cell_angle_gamma 90.000000
_cell_volume 2286.946925
_symmetry_space_group_name_H-M "P M M M"
_symmetry_group_IT_number 47
_symmetry_cell_setting 'orthorhombic'
loop_
_space_group_symop_operation_xyz
x,y,z
-x,-y,z
x,-y,-z
-x,y,-z
-x,-y,-z
x,y,-z
-x,y,z
x,-y,z
loop_
_atom_site_type_symbol
_atom_site_label
_atom_site_fract_x
_atom_site_fract_y
_atom_site_fract_z
Si Si1 0.835274 0.722526 0.719768
Si Si2 0.830604 0.281021 0.368897
Si Si3 0.340211 0.717454 0.202822
Si Si4 0.831471 0.279190 0.456259
Si Si5 0.336686 0.778160 0.954459
Si Si6 0.840507 0.782333 0.122236
O O1 0.834571 0.500000 0.719545
O O2 0.780541 0.782433 0.675287
O O3 0.742704 0.785729 0.757553
O O4 0.000000 0.775712 0.724462
O O5 0.812812 0.500000 0.369221
O O6 0.774584 0.214500 0.412563
O O7 0.000000 0.247273 0.368793
O O8 0.500000 0.788004 0.199496
O O9 0.349061 0.500000 0.207644
O O10 0.251841 0.749415 0.162134
O O11 0.773864 0.216302 0.500000
O O12 0.820632 0.500000 0.456162
O O13 0.000000 0.238422 0.456342
O O14 0.500000 0.724116 0.947792
O O15 0.237822 0.713712 0.918128
O O16 0.335169 0.000000 0.954136
O O17 0.294211 0.722247 0.000000
O O18 0.000000 0.712160 0.126733
O O19 0.849395 0.000000 0.117749
#
# Coordination Sequence:
#
# PCOD9384419 Si02
#       6
#     8   8   8   8   8   8
#     4   8  13  22  36  52  71  97 130 169 210 249
#     4   7   9  13  22  37  57  83 116 153 194 238
#     4  10  20  32  46  64  86 114 148 183 219 259
#     4   7   8   9  14  27  50  79 109 143 185 232
#     4   8  14  26  45  68  93 120 147 174 206 245
#     4  10  20  32  48  71  95 118 145 177 214 255
#
# _framework density 20.988679999999999
#
# number of rings (size 3 to 8) (size 9 to 14) (size 15 to 20)
#    0.000    3.667    0.000    4.000    0.000    2.333 
#    0.000    1.667    0.000    0.500    0.000    3.500 
#    0.000    0.667    0.000    9.333    0.000    9.167 
#
# Total GULP energy -267425.487588 kJ/mol
# GULP energy per Si atom -5571.364325 kJ/mol
# Density = 2.094091 g / cm^3
# Si number density = 20.988680 Si / 1000 Ang^3
#
#
#
# Elastic Constant Matrix: (Units=GPa)
#
#
# Indices 1 2 3 4 5 6 
#
# 1 101.4895 4.5523 115.5183 0.0000 0.0000 0.0000
# 2 4.5523 77.2233 5.2419 0.0000 0.0000 0.0000
# 3 115.5183 5.2419 276.1752 0.0000 0.0000 0.0000
# 4 0.0000 0.0000 0.0000 8.4316 0.0000 0.0000
# 5 0.0000 0.0000 0.0000 0.0000 36.1269 0.0000
# 6 0.0000 0.0000 0.0000 0.0000 0.0000 9.7574
#
#
#
# Elastic Compliance Matrix: (Units=1/GPa)
#
#
# Indices 1 2 3 4 5 6 
#
# 1 0.018833 -0.000576 -0.007866 0.000000 0.000000 0.000000
# 2 -0.000576 0.012984 -0.000005 0.000000 0.000000 0.000000
# 3 -0.007866 -0.000005 0.006911 0.000000 0.000000 0.000000
# 4 0.000000 0.000000 0.000000 0.118601 0.000000 0.000000
# 5 0.000000 0.000000 0.000000 0.000000 0.027680 0.000000
# 6 0.000000 0.000000 0.000000 0.000000 0.000000 0.102486
#
#
# Mechanical properties :
#
#
# Convention : Reuss Voigt Hill
#
# Bulk Modulus (GPa) = 45.80463 78.39036 62.09749
# Shear Modulus (GPa) = 16.04264 32.83489 24.43877
#
# Velocity S-wave (km/s) = 2.76768 3.95955 3.41600
# Velocity P-wave (km/s) = 5.66430 7.63767 6.72378
#
# Compressibility (1/GPa) = 0.02183186
#
# Stress axis : x y z
#
# Youngs Moduli (GPa) = 53.09840 77.01913 144.68885
#
# Poissons Ratio (x) = 0.04438 1.13819
# Poissons Ratio (y) = 0.03060 0.00078
# Poissons Ratio (z) = 0.41770 0.00042
#
# Static dielectric constant tensor:
#      x y z
#    x 1.903570 0.000000 0.000000 
#    y 0.000000 1.912750 0.000000 
#    z 0.000000 0.000000 1.788990 
# 
# From -- ./inp_files/34256.got.cif
#   From: 2010.05.17/outbox.cif.g08.bks.cpg/sg47_18_cif.got.tgz:34256.got - 2010.06.03 20:15:42.
