data_PCOD9384464
_publ_section_title
;
Structure prediction by ZEFSAII (Michael W. Deem and Ramdas Pophale) SiO2 
 PCOD9384464
Probable space group: P M M M
;
_chemical_formula_sum "Si O2"
_cell_formula_units_Z 36
_cell_length_a 7.865362
_cell_length_b 24.715564
_cell_length_c 9.459411
_cell_angle_alpha 90.000000
_cell_angle_beta 90.000000
_cell_angle_gamma 90.000000
_cell_volume 1838.879776
_symmetry_space_group_name_H-M "P M M M"
_symmetry_group_IT_number 47
_symmetry_cell_setting 'orthorhombic'
loop_
_space_group_symop_operation_xyz
x,y,z
-x,-y,z
x,-y,-z
-x,y,-z
-x,-y,-z
x,y,-z
-x,y,z
x,-y,z
loop_
_atom_site_type_symbol
_atom_site_label
_atom_site_fract_x
_atom_site_fract_y
_atom_site_fract_z
Si Si1 0.791478 0.323838 0.835531
Si Si2 0.202412 0.000000 0.161630
Si Si3 0.796879 0.441851 0.829185
Si Si4 0.701671 0.116907 0.838468
Si Si5 0.796706 0.779018 0.340752
O O1 0.732983 0.383061 0.781749
O O2 0.731325 0.273340 0.743766
O O3 0.000000 0.324629 0.833934
O O4 0.742337 0.317181 0.000000
O O5 0.257251 0.057526 0.223356
O O6 0.000000 0.000000 0.156054
O O7 0.272573 0.000000 0.000000
O O8 0.727091 0.500000 0.778549
O O9 0.000000 0.442634 0.801375
O O10 0.778178 0.441210 0.000000
O O11 0.500000 0.121534 0.847058
O O12 0.765710 0.166267 0.745449
O O13 0.771871 0.119645 0.000000
O O14 0.728609 0.782303 0.500000
O O15 0.000000 0.772220 0.349443
#
# Coordination Sequence:
#
# PCOD9384464 Si02
#       5
#     8   4   8   8   8
#     4   8  13  22  38  59  83 115 155 196 236 278
#     4   9  17  31  54  81 104 125 150 184 228 277
#     4   7   9  14  27  50  79 109 143 185 232 279
#     4  10  20  34  53  76 100 125 155 192 233 277
#     4  10  20  32  46  66  94 128 164 200 237 278
#
# _framework density 19.577134000000001
#
# number of rings (size 3 to 8) (size 9 to 14) (size 15 to 20)
#    0.000    3.222    0.000    3.667    0.000    4.000 
#    0.000    0.556    0.000    4.000    0.000    4.667 
#    0.000    0.889    0.000   10.222    0.000   11.778 
#
# Total GULP energy -200465.540607 kJ/mol
# GULP energy per Si atom -5568.487239 kJ/mol
# Density = 1.953258 g / cm^3
# Si number density = 19.577134 Si / 1000 Ang^3
#
#
#
# Elastic Constant Matrix: (Units=GPa)
#
#
# Indices 1 2 3 4 5 6 
#
# 1 21.3344 2.3360 5.5287 0.0000 0.0000 0.0000
# 2 2.3360 242.2880 85.1253 0.0000 0.0000 0.0000
# 3 5.5287 85.1253 72.0805 0.0000 0.0000 0.0000
# 4 0.0000 0.0000 0.0000 -4.1702 0.0000 0.0000
# 5 0.0000 0.0000 0.0000 0.0000 5.3691 0.0000
# 6 0.0000 0.0000 0.0000 0.0000 0.0000 -36.4361
#
#
#
# Elastic Compliance Matrix: (Units=1/GPa)
#
#
# Indices 1 2 3 4 5 6 
#
# 1 0.048109 0.001423 -0.005371 0.000000 0.000000 0.000000
# 2 0.001423 0.007096 -0.008490 0.000000 0.000000 0.000000
# 3 -0.005371 -0.008490 0.024312 0.000000 0.000000 0.000000
# 4 0.000000 0.000000 0.000000 -0.239798 0.000000 0.000000
# 5 0.000000 0.000000 0.000000 0.000000 0.186251 0.000000
# 6 0.000000 0.000000 0.000000 0.000000 0.000000 -0.027445
#
#
# Mechanical properties :
#
#
# Convention : Reuss Voigt Hill
#
# Bulk Modulus (GPa) = 18.30101 57.96475 38.13288
# Shear Modulus (GPa) = 120.15421 9.13343 64.64382
#
# Velocity S-wave (km/s) = 7.84270 2.16229 5.75254
# Velocity P-wave (km/s) = 9.55924 5.99222 7.97765
#
# Compressibility (1/GPa) = 0.05464180
#
# Stress axis : x y z
#
# Youngs Moduli (GPa) = 20.78634 140.91631 41.13264
#
# Poissons Ratio (x) = -0.20053 0.22091
# Poissons Ratio (y) = -0.02958 0.34921
# Poissons Ratio (z) = 0.11163 1.19636
#
# Static dielectric constant tensor:
#      x y z
#    x 1.706770 0.000000 0.000000 
#    y 0.000000 1.731660 0.000000 
#    z 0.000000 0.000000 1.665270 
# 
# From -- ./inp_files/1359.got.cif
#   From: 2010.05.17/outbox.cif.g08.bks.cpg/sg47_1_cif.got.tgz:1359.got - 2010.06.03 20:15:42.
