data_PCOD9384741
_publ_section_title
;
Structure prediction by ZEFSAII (Michael W. Deem and Ramdas Pophale) SiO2 
 PCOD9384741
Probable space group: P M M M
;
_chemical_formula_sum "Si O2"
_cell_formula_units_Z 48
_cell_length_a 8.986756
_cell_length_b 29.937223
_cell_length_c 10.296219
_cell_angle_alpha 90.000000
_cell_angle_beta 90.000000
_cell_angle_gamma 90.000000
_cell_volume 2770.079505
_symmetry_space_group_name_H-M "P M M M"
_symmetry_group_IT_number 47
_symmetry_cell_setting 'orthorhombic'
loop_
_space_group_symop_operation_xyz
x,y,z
-x,-y,z
x,-y,-z
-x,y,-z
-x,-y,-z
x,y,-z
-x,y,z
x,-y,z
loop_
_atom_site_type_symbol
_atom_site_label
_atom_site_fract_x
_atom_site_fract_y
_atom_site_fract_z
Si Si1 0.677723 0.641574 0.652090
Si Si2 0.176359 0.814838 0.845725
Si Si3 0.822157 0.053175 0.500000
Si Si4 0.173205 0.450689 0.657413
Si Si5 0.322519 0.098418 0.249678
Si Si6 0.825875 0.946439 0.000000
Si Si7 0.179163 0.711085 0.849755
O O1 0.722942 0.647970 0.500000
O O2 0.500000 0.643382 0.657179
O O3 0.733482 0.592493 0.695612
O O4 0.747100 0.678386 0.746508
O O5 0.270471 0.850336 0.765714
O O6 0.214434 0.763071 0.821479
O O7 0.000000 0.820971 0.820372
O O8 0.199437 0.822949 0.000000
O O9 0.749354 0.075754 0.625085
O O10 0.000000 0.059947 0.500000
O O11 0.794576 0.000000 0.500000
O O12 0.177527 0.451737 0.500000
O O13 0.223987 0.500000 0.702211
O O14 0.000000 0.445142 0.694687
O O15 0.500000 0.095198 0.252129
O O16 0.255035 0.072954 0.125644
O O17 0.000000 0.932900 0.000000
O O18 0.819611 0.000000 0.000000
O O19 0.000000 0.706790 0.843307
O O20 0.223048 0.701800 0.000000
#
# Coordination Sequence:
#
# PCOD9384741 Si02
#       7
#     8   8   4   8   8   4   8
#     4  10  20  32  48  76 112 146 178 219 272 327
#     4   9  18  36  61  84 109 143 185 229 271 326
#     4  11  25  45  65  83 111 155 195 223 266 333
#     4   8  14  26  46  71  99 135 179 225 270 317
#     4  12  24  38  60  90 119 146 180 230 284 327
#     4  11  23  39  61  87 115 151 191 227 266 321
#     4   9  19  36  58  81 103 138 186 229 269 319
#
# _framework density 17.328022000000001
#
# number of rings (size 3 to 8) (size 9 to 14) (size 15 to 20)
#    0.000    2.167    0.833    4.500    0.000    5.667 
#    1.500    3.333    0.000    0.500    0.000    3.500 
#    0.000    0.000    0.000    0.000    0.000    0.000 
#
# Total GULP energy -267850.895885 kJ/mol
# GULP energy per Si atom -5580.226998 kJ/mol
# Density = 1.728858 g / cm^3
# Si number density = 17.328022 Si / 1000 Ang^3
#
#
#
# Elastic Constant Matrix: (Units=GPa)
#
#
# Indices 1 2 3 4 5 6 
#
# 1 95.5639 85.1029 65.6038 0.0000 0.0000 0.0000
# 2 85.1029 153.6015 86.3410 0.0000 0.0000 0.0000
# 3 65.6038 86.3410 115.8624 0.0000 0.0000 0.0000
# 4 0.0000 0.0000 0.0000 31.7907 0.0000 0.0000
# 5 0.0000 0.0000 0.0000 0.0000 27.2710 0.0000
# 6 0.0000 0.0000 0.0000 0.0000 0.0000 -27.3613
#
#
#
# Elastic Compliance Matrix: (Units=1/GPa)
#
#
# Indices 1 2 3 4 5 6 
#
# 1 0.022870 -0.009279 -0.006035 0.000000 0.000000 0.000000
# 2 -0.009279 0.014968 -0.005900 0.000000 0.000000 0.000000
# 3 -0.006035 -0.005900 0.016445 0.000000 0.000000 0.000000
# 4 0.000000 0.000000 0.000000 0.031456 0.000000 0.000000
# 5 0.000000 0.000000 0.000000 0.000000 0.036669 0.000000
# 6 0.000000 0.000000 0.000000 0.000000 0.000000 -0.036548
#
#
# Mechanical properties :
#
#
# Convention : Reuss Voigt Hill
#
# Bulk Modulus (GPa) = 84.35317 93.23590 88.79454
# Shear Modulus (GPa) = 37.81001 14.87209 26.34105
#
# Velocity S-wave (km/s) = 4.67627 2.93280 3.90313
# Velocity P-wave (km/s) = 8.82851 8.08651 8.46564
#
# Compressibility (1/GPa) = 0.01185492
#
# Stress axis : x y z
#
# Youngs Moduli (GPa) = 43.72448 66.80942 60.80922
#
# Poissons Ratio (x) = 0.61993 0.36698
# Poissons Ratio (y) = 0.40572 0.35878
# Poissons Ratio (z) = 0.26388 0.39419
#
# Static dielectric constant tensor:
#      x y z
#    x 1.571450 0.000000 0.000000 
#    y 0.000000 1.595480 0.000000 
#    z 0.000000 0.000000 1.538410 
# 
# From -- ./inp_files/2741.got.cif
#   From: 2010.05.17/outbox.cif.g08.bks.cpg/sg47_2_cif.got.tgz:2741.got - 2010.06.03 20:15:42.
