data_PCOD9384318
_publ_section_title
;
Structure prediction by ZEFSAII (Michael W. Deem and Ramdas Pophale) SiO2 
 PCOD9384318
Probable space group: P M M M
;
_chemical_formula_sum "Si O2"
_cell_formula_units_Z 64
_cell_length_a 15.106461
_cell_length_b 24.924769
_cell_length_c 7.621087
_cell_angle_alpha 90.000000
_cell_angle_beta 90.000000
_cell_angle_gamma 90.000000
_cell_volume 2869.530170
_symmetry_space_group_name_H-M "P M M M"
_symmetry_group_IT_number 47
_symmetry_cell_setting 'orthorhombic'
loop_
_space_group_symop_operation_xyz
x,y,z
-x,-y,z
x,-y,-z
-x,y,-z
-x,-y,-z
x,y,-z
-x,y,z
x,-y,z
loop_
_atom_site_type_symbol
_atom_site_label
_atom_site_fract_x
_atom_site_fract_y
_atom_site_fract_z
Si Si1 0.092870 0.564650 0.203269
Si Si2 0.721320 0.329019 0.705080
Si Si3 0.100845 0.279277 0.285227
Si Si4 0.600660 0.107247 0.212210
Si Si5 0.399520 0.771480 0.788750
Si Si6 0.897982 0.843086 0.286537
Si Si7 0.217741 0.941572 0.707127
Si Si8 0.712794 0.559279 0.209201
O O1 0.087506 0.500000 0.197439
O O2 0.189125 0.571397 0.285807
O O3 0.000000 0.584179 0.284542
O O4 0.094438 0.582615 0.000000
O O5 0.731944 0.335501 0.500000
O O6 0.820168 0.317326 0.780070
O O7 0.665900 0.275191 0.734832
O O8 0.669431 0.382639 0.765579
O O9 0.100366 0.280747 0.500000
O O10 0.122584 0.217909 0.231584
O O11 0.000000 0.291245 0.228653
O O12 0.500000 0.095000 0.268703
O O13 0.623267 0.168181 0.271013
O O14 0.677841 0.068570 0.273583
O O15 0.600597 0.106602 0.000000
O O16 0.500000 0.760248 0.729873
O O17 0.400072 0.773029 0.000000
O O18 0.893374 0.842141 0.500000
O O19 0.834118 0.889916 0.220015
O O20 0.000000 0.854222 0.239443
O O21 0.197114 0.942975 0.500000
O O22 0.193947 0.000000 0.781340
O O23 0.681714 0.500000 0.272095
O O24 0.721834 0.553795 0.000000
#
# Coordination Sequence:
#
# PCOD9384318 Si02
#       8
#     8   8   8   8   8   8   8   8
#     4   7  10  19  37  59  81 110 155 206 243 270
#     4  11  21  31  50  79 107 134 163 203 254 302
#     4   8  15  28  45  68 100 136 171 206 250 304
#     4   9  19  36  56  76  99 131 169 206 249 305
#     4   9  19  37  59  80 101 126 160 205 256 309
#     4   8  14  27  47  68  94 132 175 216 255 296
#     4  10  20  31  46  74 108 138 173 217 259 299
#     4   9  18  32  48  66  93 133 175 208 242 290
#
# _framework density 22.303301999999999
#
# number of rings (size 3 to 8) (size 9 to 14) (size 15 to 20)
#    0.000    3.125    0.000    3.750    0.000    3.500 
#    0.000    3.750    0.000    1.875    0.000   12.250 
#    0.000    0.000    0.000    0.000    0.000    0.000 
#
# Total GULP energy -356667.657161 kJ/mol
# GULP energy per Si atom -5572.932143 kJ/mol
# Density = 2.225254 g / cm^3
# Si number density = 22.303302 Si / 1000 Ang^3
#
#
#
# Elastic Constant Matrix: (Units=GPa)
#
#
# Indices 1 2 3 4 5 6 
#
# 1 36.3883 45.7392 -0.8300 0.0000 0.0000 0.0000
# 2 45.7392 147.0869 4.8725 0.0000 0.0000 0.0000
# 3 -0.8300 4.8725 48.5166 0.0000 0.0000 0.0000
# 4 0.0000 0.0000 0.0000 14.3447 0.0000 0.0000
# 5 0.0000 0.0000 0.0000 0.0000 20.4598 0.0000
# 6 0.0000 0.0000 0.0000 0.0000 0.0000 2.2134
#
#
#
# Elastic Compliance Matrix: (Units=1/GPa)
#
#
# Indices 1 2 3 4 5 6 
#
# 1 0.045349 -0.014175 0.002199 0.000000 0.000000 0.000000
# 2 -0.014175 0.011252 -0.001373 0.000000 0.000000 0.000000
# 3 0.002199 -0.001373 0.020787 0.000000 0.000000 0.000000
# 4 0.000000 0.000000 0.000000 0.069712 0.000000 0.000000
# 5 0.000000 0.000000 0.000000 0.000000 0.048876 0.000000
# 6 0.000000 0.000000 0.000000 0.000000 0.000000 0.451790
#
#
# Mechanical properties :
#
#
# Convention : Reuss Voigt Hill
#
# Bulk Modulus (GPa) = 19.72700 36.83948 28.28324
# Shear Modulus (GPa) = 7.23212 19.55093 13.39153
#
# Velocity S-wave (km/s) = 1.80268 2.96394 2.45302
# Velocity P-wave (km/s) = 3.63276 5.31664 4.55322
#
# Compressibility (1/GPa) = 0.05069195
#
# Stress axis : x y z
#
# Youngs Moduli (GPa) = 22.05122 88.87237 48.10707
#
# Poissons Ratio (x) = 1.25976 -0.10581
# Poissons Ratio (y) = 0.31257 0.06603
# Poissons Ratio (z) = -0.04850 0.12198
#
# Static dielectric constant tensor:
#      x y z
#    x 1.876280 0.000000 0.000000 
#    y 0.000000 1.875690 0.000000 
#    z 0.000000 0.000000 1.838780 
# 
# From -- ./inp_files/7790.got.cif
#   From: 2010.05.17/outbox.cif.g08.bks.cpg/sg47_4_cif.got.tgz:7790.got - 2010.06.03 20:15:42.
