data_PCOD9384735
_publ_section_title
;
Structure prediction by ZEFSAII (Michael W. Deem and Ramdas Pophale) SiO2 
 PCOD9384735
Probable space group: P M M M
;
_chemical_formula_sum "Si O2"
_cell_formula_units_Z 41
_cell_length_a 7.611980
_cell_length_b 30.422952
_cell_length_c 8.424336
_cell_angle_alpha 90.000000
_cell_angle_beta 90.000000
_cell_angle_gamma 90.000000
_cell_volume 1950.898482
_symmetry_space_group_name_H-M "P M M M"
_symmetry_group_IT_number 47
_symmetry_cell_setting 'orthorhombic'
loop_
_space_group_symop_operation_xyz
x,y,z
-x,-y,z
x,-y,-z
-x,y,-z
-x,-y,-z
x,y,-z
-x,y,z
x,-y,z
loop_
_atom_site_type_symbol
_atom_site_label
_atom_site_fract_x
_atom_site_fract_y
_atom_site_fract_z
Si Si1 0.792447 0.094222 0.321228
Si Si2 0.292416 0.000000 0.680988
Si Si3 0.000000 0.500000 0.500000
Si Si4 0.712983 0.633373 0.175685
Si Si5 0.291192 0.187613 0.175787
Si Si6 0.715392 0.420141 0.500000
Si Si7 0.285241 0.722636 0.677859
O O1 0.715769 0.092810 0.500000
O O2 0.731866 0.138582 0.239453
O O3 0.000000 0.097801 0.332679
O O4 0.756109 0.046745 0.243686
O O5 0.500000 0.000000 0.668279
O O6 0.214426 0.000000 0.500000
O O7 0.156868 0.538183 0.500000
O O8 0.500000 0.633015 0.170807
O O9 0.755961 0.606350 0.335767
O O10 0.769325 0.683855 0.204604
O O11 0.773395 0.617923 0.000000
O O12 0.500000 0.194407 0.166651
O O13 0.224049 0.228391 0.278857
O O14 0.215726 0.190537 0.000000
O O15 0.500000 0.428277 0.500000
O O16 0.230194 0.711275 0.500000
O O17 0.500000 0.722713 0.678498
#
# Coordination Sequence:
#
# PCOD9384735 Si02
#       7
#     8   4   1   8   8   4   8
#     4  10  20  34  52  73 100 134 174 219 275 338
#     4   9  17  31  54  79  98 121 164 222 280 337
#     4  12  26  44  70  94 132 174 218 268 322 364
#     4   9  16  30  57  90 123 160 204 254 307 366
#     4  10  20  32  48  74 108 144 182 226 277 334
#     4  10  21  41  65  94 129 169 216 264 318 373
#     4   9  15  26  49  83 116 147 189 239 289 347
#
# _framework density 21.015958000000001
#
# number of rings (size 3 to 8) (size 9 to 14) (size 15 to 20)
#    0.000    2.439    0.976    2.195    0.000    5.854 
#    0.000    1.951    2.146    5.268    0.000    0.000 
#    0.000    0.000    0.000    0.000    0.000    0.000 
#
# Total GULP energy -228244.929247 kJ/mol
# GULP energy per Si atom -5566.949494 kJ/mol
# Density = 2.096812 g / cm^3
# Si number density = 21.015958 Si / 1000 Ang^3
#
#
#
# Elastic Constant Matrix: (Units=GPa)
#
#
# Indices 1 2 3 4 5 6 
#
# 1 55.7846 16.3683 10.7578 0.0000 0.0000 0.0000
# 2 16.3683 153.4565 67.6329 0.0000 0.0000 0.0000
# 3 10.7578 67.6329 125.5408 0.0000 0.0000 0.0000
# 4 0.0000 0.0000 0.0000 -17.1824 0.0000 0.0000
# 5 0.0000 0.0000 0.0000 0.0000 -6.1363 0.0000
# 6 0.0000 0.0000 0.0000 0.0000 0.0000 435.8125
#
#
#
# Elastic Compliance Matrix: (Units=1/GPa)
#
#
# Indices 1 2 3 4 5 6 
#
# 1 0.018550 -0.001676 -0.000687 0.000000 0.000000 0.000000
# 2 -0.001676 0.008697 -0.004542 0.000000 0.000000 0.000000
# 3 -0.000687 -0.004542 0.010471 0.000000 0.000000 0.000000
# 4 0.000000 0.000000 0.000000 -0.058199 0.000000 0.000000
# 5 0.000000 0.000000 0.000000 0.000000 -0.162964 0.000000
# 6 0.000000 0.000000 0.000000 0.000000 0.000000 0.002295
#
#
# Mechanical properties :
#
#
# Convention : Reuss Voigt Hill
#
# Bulk Modulus (GPa) = 41.82424 58.25555 50.03989
# Shear Modulus (GPa) = -31.37329 98.50027 33.56349
#
# Velocity S-wave (km/s) = -3.86791 6.85354 4.00064
# Velocity P-wave (km/s) = 0.05696 9.50831 6.72327
#
# Compressibility (1/GPa) = 0.02390958
#
# Stress axis : x y z
#
# Youngs Moduli (GPa) = 53.90753 114.98295 95.50053
#
# Poissons Ratio (x) = 0.19271 0.06558
# Poissons Ratio (y) = 0.09035 0.43374
# Poissons Ratio (z) = 0.03702 0.52222
#
# Static dielectric constant tensor:
#      x y z
#    x 1.773610 0.000000 0.000000 
#    y 0.000000 1.779950 0.000000 
#    z 0.000000 0.000000 1.800740 
# 
# From -- ./inp_files/1906.got.cif
#   From: 2010.05.17/outbox.cif.g08.bks.cpg/sg47_1_cif.got.tgz:1906.got - 2010.06.03 20:15:42.
