data_PCOD9384795
_publ_section_title
;
Structure prediction by ZEFSAII (Michael W. Deem and Ramdas Pophale) SiO2 
 PCOD9384795
Probable space group: P M M M
;
_chemical_formula_sum "Si O2"
_cell_formula_units_Z 64
_cell_length_a 20.858656
_cell_length_b 9.249419
_cell_length_c 17.690390
_cell_angle_alpha 90.000000
_cell_angle_beta 90.000000
_cell_angle_gamma 90.000000
_cell_volume 3413.014888
_symmetry_space_group_name_H-M "P M M M"
_symmetry_group_IT_number 47
_symmetry_cell_setting 'orthorhombic'
loop_
_space_group_symop_operation_xyz
x,y,z
-x,-y,z
x,-y,-z
-x,y,-z
-x,-y,-z
x,y,-z
-x,y,z
x,-y,z
loop_
_atom_site_type_symbol
_atom_site_label
_atom_site_fract_x
_atom_site_fract_y
_atom_site_fract_z
Si Si1 0.072958 0.672545 0.128405
Si Si2 0.301242 0.330265 0.372508
Si Si3 0.571080 0.832216 0.622632
Si Si4 0.199544 0.829299 0.915115
Si Si5 0.571559 0.167771 0.806508
Si Si6 0.073022 0.830194 0.287635
Si Si7 0.300449 0.329792 0.809543
Si Si8 0.826805 0.827987 0.416481
O O1 0.082074 0.500000 0.124240
O O2 0.129788 0.755685 0.087115
O O3 0.077783 0.729758 0.214465
O O4 0.000000 0.704700 0.102381
O O5 0.300779 0.500000 0.388077
O O6 0.367877 0.260892 0.400117
O O7 0.295661 0.309910 0.281263
O O8 0.240117 0.252709 0.407456
O O9 0.500000 0.783521 0.597810
O O10 0.570714 0.828405 0.714649
O O11 0.578969 0.000000 0.600496
O O12 0.244971 0.754667 0.853502
O O13 0.193932 0.000000 0.899580
O O14 0.226287 0.810933 0.000000
O O15 0.500000 0.211522 0.831619
O O16 0.630230 0.266001 0.832330
O O17 0.582171 0.000000 0.827774
O O18 0.123908 0.787276 0.350813
O O19 0.000000 0.820873 0.316559
O O20 0.083842 0.000000 0.266813
O O21 0.296064 0.500000 0.825335
O O22 0.853763 0.799817 0.500000
O O23 0.815515 0.000000 0.409805
#
# Coordination Sequence:
#
# PCOD9384795 Si02
#       8
#     8   8   8   8   8   8   8   8
#     4  10  21  37  58  83 109 136 167 206 253 306
#     4  10  20  32  49  75 104 135 171 210 254 304
#     4   8  14  26  46  72 100 130 165 206 253 303
#     4  11  24  39  55  76 103 137 176 216 257 303
#     4   8  14  26  46  73 104 136 170 210 256 305
#     4   9  18  34  57  82 106 134 169 210 255 302
#     4  10  20  33  52  78 106 137 173 214 260 310
#     4  10  21  35  51  73 102 137 175 214 256 301
#
# _framework density 18.751750000000001
#
# number of rings (size 3 to 8) (size 9 to 14) (size 15 to 20)
#    0.000    2.500    0.000    3.000    0.000    7.000 
#    0.000    5.000    0.000    0.750    0.000    7.875 
#    0.000    0.000    0.000    0.000    0.000    0.000 
#
# Total GULP energy -357122.379591 kJ/mol
# GULP energy per Si atom -5580.037181 kJ/mol
# Density = 1.870907 g / cm^3
# Si number density = 18.751750 Si / 1000 Ang^3
#
#
#
# Elastic Constant Matrix: (Units=GPa)
#
#
# Indices 1 2 3 4 5 6 
#
# 1 92.8044 37.7443 32.9607 0.0000 0.0000 0.0000
# 2 37.7443 56.0831 28.5627 0.0000 0.0000 0.0000
# 3 32.9607 28.5627 39.2807 0.0000 0.0000 0.0000
# 4 0.0000 0.0000 0.0000 7.7043 0.0000 0.0000
# 5 0.0000 0.0000 0.0000 0.0000 -21.4832 0.0000
# 6 0.0000 0.0000 0.0000 0.0000 0.0000 25.7277
#
#
#
# Elastic Compliance Matrix: (Units=1/GPa)
#
#
# Indices 1 2 3 4 5 6 
#
# 1 0.016730 -0.006527 -0.009292 0.000000 0.000000 0.000000
# 2 -0.006527 0.030864 -0.016966 0.000000 0.000000 0.000000
# 3 -0.009292 -0.016966 0.045591 0.000000 0.000000 0.000000
# 4 0.000000 0.000000 0.000000 0.129798 0.000000 0.000000
# 5 0.000000 0.000000 0.000000 0.000000 -0.046548 0.000000
# 6 0.000000 0.000000 0.000000 0.000000 0.000000 0.038869
#
#
# Mechanical properties :
#
#
# Convention : Reuss Voigt Hill
#
# Bulk Modulus (GPa) = 36.21136 42.96707 39.58921
# Shear Modulus (GPa) = 17.23666 8.31645 12.77656
#
# Velocity S-wave (km/s) = 3.03512 2.10824 2.61311
# Velocity P-wave (km/s) = 5.62454 5.37490 5.50114
#
# Compressibility (1/GPa) = 0.02761565
#
# Stress axis : x y z
#
# Youngs Moduli (GPa) = 59.77194 32.40036 21.93394
#
# Poissons Ratio (x) = 0.21148 0.20382
# Poissons Ratio (y) = 0.39013 0.37212
# Poissons Ratio (z) = 0.55542 0.54969
#
# Static dielectric constant tensor:
#      x y z
#    x 1.641970 0.000000 0.000000 
#    y 0.000000 1.619550 0.000000 
#    z 0.000000 0.000000 1.647930 
# 
# From -- ./inp_files/10054.got.cif
#   From: 2010.05.17/outbox.cif.g08.bks.cpg/sg47_6_cif.got.tgz:10054.got - 2010.06.03 20:15:42.
