data_PCOD9384666
_publ_section_title
;
Structure prediction by ZEFSAII (Michael W. Deem and Ramdas Pophale) SiO2 
 PCOD9384666
Probable space group: P M M M
;
_chemical_formula_sum "Si O2"
_cell_formula_units_Z 44
_cell_length_a 31.482861
_cell_length_b 8.980401
_cell_length_c 8.110456
_cell_angle_alpha 90.000000
_cell_angle_beta 90.000000
_cell_angle_gamma 90.000000
_cell_volume 2293.058814
_symmetry_space_group_name_H-M "P M M M"
_symmetry_group_IT_number 47
_symmetry_cell_setting 'orthorhombic'
loop_
_space_group_symop_operation_xyz
x,y,z
-x,-y,z
x,-y,-z
-x,y,-z
-x,-y,-z
x,y,-z
-x,y,z
x,-y,z
loop_
_atom_site_type_symbol
_atom_site_label
_atom_site_fract_x
_atom_site_fract_y
_atom_site_fract_z
Si Si1 0.949238 0.824202 0.500000
Si Si2 0.188504 0.829328 0.802667
Si Si3 0.900452 0.678466 0.194482
Si Si4 0.279426 0.831324 0.696090
Si Si5 0.364360 0.331708 0.195779
Si Si6 0.545807 0.325433 0.698165
O O1 0.930535 0.750710 0.332981
O O2 0.000000 0.807742 0.500000
O O3 0.938650 0.000000 0.500000
O O4 0.147083 0.734159 0.761754
O O5 0.233760 0.765641 0.745731
O O6 0.184221 0.000000 0.738322
O O7 0.190038 0.836945 0.000000
O O8 0.903018 0.500000 0.203549
O O9 0.908811 0.720573 0.000000
O O10 0.280512 0.837710 0.500000
O O11 0.321544 0.749204 0.753025
O O12 0.279975 0.000000 0.764310
O O13 0.363335 0.500000 0.266368
O O14 0.409277 0.259191 0.247215
O O15 0.364887 0.340650 0.000000
O O16 0.545550 0.323707 0.500000
O O17 0.500000 0.262760 0.754469
O O18 0.546335 0.500000 0.751325
#
# Coordination Sequence:
#
# PCOD9384666 Si02
#       6
#     4   8   8   8   8   8
#     4  11  25  43  65  93 125 165 213 259 298 349
#     4   9  18  34  56  81 110 146 187 230 278 336
#     4  10  22  40  63  93 128 163 200 249 309 365
#     4  10  21  35  52  76 105 140 181 222 267 321
#     4  10  20  32  48  72 101 133 170 214 264 319
#     4   8  14  26  45  68  94 125 162 207 261 320
#
# _framework density 19.188341999999999
#
# number of rings (size 3 to 8) (size 9 to 14) (size 15 to 20)
#    0.000    2.455    0.000    2.455    1.273    5.455 
#    0.000    5.455    0.000    0.545    0.000    3.818 
#    0.000    0.000    0.000    0.000    0.000    0.000 
#
# Total GULP energy -245215.291994 kJ/mol
# GULP energy per Si atom -5573.074818 kJ/mol
# Density = 1.914467 g / cm^3
# Si number density = 19.188342 Si / 1000 Ang^3
#
#
#
# Elastic Constant Matrix: (Units=GPa)
#
#
# Indices 1 2 3 4 5 6 
#
# 1 168.5729 57.4491 64.6159 0.0000 0.0000 0.0000
# 2 57.4491 51.1984 32.2004 0.0000 0.0000 0.0000
# 3 64.6159 32.2004 64.0561 0.0000 0.0000 0.0000
# 4 0.0000 0.0000 0.0000 20.7577 0.0000 0.0000
# 5 0.0000 0.0000 0.0000 0.0000 50.7082 0.0000
# 6 0.0000 0.0000 0.0000 0.0000 0.0000 -0.3726
#
#
#
# Elastic Compliance Matrix: (Units=1/GPa)
#
#
# Indices 1 2 3 4 5 6 
#
# 1 0.011684 -0.008332 -0.007598 0.000000 0.000000 0.000000
# 2 -0.008332 0.034504 -0.008940 0.000000 0.000000 0.000000
# 3 -0.007598 -0.008940 0.027769 0.000000 0.000000 0.000000
# 4 0.000000 0.000000 0.000000 0.048175 0.000000 0.000000
# 5 0.000000 0.000000 0.000000 0.000000 0.019721 0.000000
# 6 0.000000 0.000000 0.000000 0.000000 0.000000 -2.684203
#
#
# Mechanical properties :
#
#
# Convention : Reuss Voigt Hill
#
# Bulk Modulus (GPa) = 41.29165 65.81758 53.55462
# Shear Modulus (GPa) = -2.01245 22.85614 10.42185
#
# Velocity S-wave (km/s) = -1.02521 3.45504 2.33305
# Velocity P-wave (km/s) = 4.49048 7.09167 5.93532
#
# Compressibility (1/GPa) = 0.02421797
#
# Stress axis : x y z
#
# Youngs Moduli (GPa) = 85.58775 28.98240 36.01098
#
# Poissons Ratio (x) = 0.24148 0.27360
# Poissons Ratio (y) = 0.71312 0.32193
# Poissons Ratio (z) = 0.65026 0.25910
#
# Static dielectric constant tensor:
#      x y z
#    x 1.693750 0.000000 0.000000 
#    y 0.000000 1.774470 0.000000 
#    z 0.000000 0.000000 1.666640 
# 
# From -- ./inp_files/13684.got.cif
#   From: 2010.05.17/outbox.cif.g08.bks.cpg/sg47_7_cif.got.tgz:13684.got - 2010.06.03 20:15:42.
