data_PCOD9384199
_publ_section_title
;
Structure prediction by ZEFSAII (Michael W. Deem and Ramdas Pophale) SiO2 
 PCOD9384199
Probable space group: P M M M
;
_chemical_formula_sum "Si O2"
_cell_formula_units_Z 52
_cell_length_a 13.734395
_cell_length_b 9.946065
_cell_length_c 22.393222
_cell_angle_alpha 90.000000
_cell_angle_beta 90.000000
_cell_angle_gamma 90.000000
_cell_volume 3058.985457
_symmetry_space_group_name_H-M "P M M M"
_symmetry_group_IT_number 47
_symmetry_cell_setting 'orthorhombic'
loop_
_space_group_symop_operation_xyz
x,y,z
-x,-y,z
x,-y,-z
-x,y,-z
-x,-y,-z
x,y,-z
-x,y,z
x,-y,z
loop_
_atom_site_type_symbol
_atom_site_label
_atom_site_fract_x
_atom_site_fract_y
_atom_site_fract_z
Si Si1 0.383695 0.149641 0.332909
Si Si2 0.384157 0.656970 0.111006
Si Si3 0.381696 0.646726 0.431188
Si Si4 0.112890 0.657720 0.320489
Si Si5 0.706012 0.656371 0.761120
Si Si6 0.617883 0.154712 0.000000
Si Si7 0.118298 0.845126 0.567341
O O1 0.500000 0.139784 0.336822
O O2 0.350172 0.228901 0.391667
O O3 0.358377 0.242760 0.277360
O O4 0.342958 0.000000 0.327715
O O5 0.500000 0.676542 0.125242
O O6 0.374620 0.500000 0.092276
O O7 0.318418 0.677936 0.169590
O O8 0.355877 0.759277 0.058606
O O9 0.353838 0.658394 0.500000
O O10 0.500000 0.644775 0.429645
O O11 0.348763 0.500000 0.408119
O O12 0.118899 0.500000 0.336845
O O13 0.185192 0.678376 0.264563
O O14 0.141796 0.747662 0.377510
O O15 0.000000 0.687167 0.305564
O O16 0.680677 0.500000 0.748733
O O17 0.500000 0.149942 0.000000
O O18 0.652799 0.000000 0.000000
O O19 0.149375 0.803681 0.500000
O O20 0.000000 0.846353 0.565951
O O21 0.149674 0.000000 0.577021
#
# Coordination Sequence:
#
# PCOD9384199 Si02
#       7
#     8   8   8   8   8   4   8
#     4  10  20  31  44  65  92 119 148 188 235 278
#     4   9  17  30  49  72  98 129 163 193 220 261
#     4   8  14  26  44  62  80 109 150 191 230 274
#     4   9  18  32  49  70  95 121 154 200 248 289
#     4  10  20  33  49  69  94 127 162 192 228 278
#     4   9  17  29  47  73 104 133 156 184 227 271
#     4   8  14  26  45  67  89 115 149 191 243 301
#
# _framework density 16.999099999999999
#
# number of rings (size 3 to 8) (size 9 to 14) (size 15 to 20)
#    0.000    3.000    0.000    2.077    0.000    4.308 
#    0.000    5.385    0.000    0.923    0.000    0.538 
#    0.000    4.308    0.000    0.000    0.000    0.000 
#
# Total GULP energy -289806.601574 kJ/mol
# GULP energy per Si atom -5573.203876 kJ/mol
# Density = 1.696041 g / cm^3
# Si number density = 16.999100 Si / 1000 Ang^3
#
#
#
# Elastic Constant Matrix: (Units=GPa)
#
#
# Indices 1 2 3 4 5 6 
#
# 1 67.2462 34.9730 33.1343 0.0000 0.0000 0.0000
# 2 34.9730 120.6497 92.2336 0.0000 0.0000 0.0000
# 3 33.1343 92.2336 131.1841 0.0000 0.0000 0.0000
# 4 0.0000 0.0000 0.0000 155.6495 0.0000 0.0000
# 5 0.0000 0.0000 0.0000 0.0000 36.8567 0.0000
# 6 0.0000 0.0000 0.0000 0.0000 0.0000 10.9029
#
#
#
# Elastic Compliance Matrix: (Units=1/GPa)
#
#
# Indices 1 2 3 4 5 6 
#
# 1 0.017720 -0.003708 -0.001869 0.000000 0.000000 0.000000
# 2 -0.003708 0.018697 -0.012209 0.000000 0.000000 0.000000
# 3 -0.001869 -0.012209 0.016679 0.000000 0.000000 0.000000
# 4 0.000000 0.000000 0.000000 0.006425 0.000000 0.000000
# 5 0.000000 0.000000 0.000000 0.000000 0.027132 0.000000
# 6 0.000000 0.000000 0.000000 0.000000 0.000000 0.091719
#
#
# Mechanical properties :
#
#
# Convention : Reuss Voigt Hill
#
# Bulk Modulus (GPa) = 57.06332 71.08464 64.07398
# Shear Modulus (GPa) = 22.74971 51.26442 37.00707
#
# Velocity S-wave (km/s) = 3.66223 5.49751 4.67090
# Velocity P-wave (km/s) = 7.17802 9.06666 8.17705
#
# Compressibility (1/GPa) = 0.01752439
#
# Stress axis : x y z
#
# Youngs Moduli (GPa) = 56.43381 53.48588 59.95700
#
# Poissons Ratio (x) = 0.19832 0.11204
# Poissons Ratio (y) = 0.20925 0.73200
# Poissons Ratio (z) = 0.10546 0.65299
#
# Static dielectric constant tensor:
#      x y z
#    x 1.617130 0.000000 0.000000 
#    y 0.000000 1.591740 0.000000 
#    z 0.000000 0.000000 1.554520 
# 
# From -- ./inp_files/30838.got.cif
#   From: 2010.05.17/outbox.cif.g08.bks.cpg/sg47_16_cif.got.tgz:30838.got - 2010.06.03 20:15:42.
