data_PCOD9384895
_publ_section_title
;
Structure prediction by ZEFSAII (Michael W. Deem and Ramdas Pophale) SiO2 
 PCOD9384895
Probable space group: P M M M
;
_chemical_formula_sum "Si O2"
_cell_formula_units_Z 52
_cell_length_a 14.121026
_cell_length_b 25.736449
_cell_length_c 8.940013
_cell_angle_alpha 90.000000
_cell_angle_beta 90.000000
_cell_angle_gamma 90.000000
_cell_volume 3249.024810
_symmetry_space_group_name_H-M "P M M M"
_symmetry_group_IT_number 47
_symmetry_cell_setting 'orthorhombic'
loop_
_space_group_symop_operation_xyz
x,y,z
-x,-y,z
x,-y,-z
-x,y,-z
-x,-y,-z
x,y,-z
-x,y,z
x,-y,z
loop_
_atom_site_type_symbol
_atom_site_label
_atom_site_fract_x
_atom_site_fract_y
_atom_site_fract_z
Si Si1 0.385336 0.500000 0.828012
Si Si2 0.385384 0.893810 0.829404
Si Si3 0.615561 0.000000 0.327010
Si Si4 0.114578 0.500000 0.825599
Si Si5 0.610645 0.215729 0.679020
Si Si6 0.275215 0.692108 0.822990
Si Si7 0.109738 0.384522 0.817432
Si Si8 0.613448 0.605218 0.330433
O O1 0.500000 0.500000 0.831168
O O2 0.355521 0.550602 0.738090
O O3 0.353932 0.500000 0.000000
O O4 0.500000 0.897022 0.833633
O O5 0.364887 0.841945 0.736476
O O6 0.352391 0.947320 0.754124
O O7 0.351799 0.889199 0.000000
O O8 0.500000 0.000000 0.323425
O O9 0.643654 0.000000 0.500000
O O10 0.140197 0.442652 0.763890
O O11 0.000000 0.500000 0.823678
O O12 0.143298 0.500000 0.000000
O O13 0.612128 0.217759 0.500000
O O14 0.500000 0.227077 0.725427
O O15 0.686287 0.256249 0.744076
O O16 0.178843 0.662540 0.771972
O O17 0.353728 0.649456 0.781433
O O18 0.268924 0.701034 0.000000
O O19 0.000000 0.376078 0.775233
O O20 0.113138 0.386568 0.000000
O O21 0.648523 0.613807 0.500000
O O22 0.500000 0.604793 0.337276
#
# Coordination Sequence:
#
# PCOD9384895 Si02
#       8
#     4   8   4   4   8   8   8   8
#     4   9  17  30  47  64  81 103 136 178 215 247
#     4   9  16  26  41  61  85 114 151 194 231 260
#     4   9  15  23  37  59  87 119 154 187 222 265
#     4   7  10  21  42  63  83 105 126 155 203 264
#     4  10  20  33  46  60  84 120 157 191 228 268
#     4  11  21  30  45  67  87 111 145 183 218 256
#     4   8  15  28  45  66  90 112 136 172 221 274
#     4  10  20  33  46  60  83 114 142 170 210 259
#
# _framework density 16.004802000000002
#
# number of rings (size 3 to 8) (size 9 to 14) (size 15 to 20)
#    0.000    2.692    0.000    3.692    0.000    8.000 
#    0.000    1.538    0.000    1.846    0.000    0.000 
#    0.000    8.615    0.000    0.692    0.000   14.385 
#
# Total GULP energy -289651.935856 kJ/mol
# GULP energy per Si atom -5570.229536 kJ/mol
# Density = 1.596837 g / cm^3
# Si number density = 16.004802 Si / 1000 Ang^3
#
#
#
# Elastic Constant Matrix: (Units=GPa)
#
#
# Indices 1 2 3 4 5 6 
#
# 1 70.4154 44.0366 23.3539 0.0000 0.0000 0.0000
# 2 44.0366 138.8760 35.4507 0.0000 0.0000 0.0000
# 3 23.3539 35.4507 48.5737 0.0000 0.0000 0.0000
# 4 0.0000 0.0000 0.0000 32.8977 0.0000 0.0000
# 5 0.0000 0.0000 0.0000 0.0000 7.0883 0.0000
# 6 0.0000 0.0000 0.0000 0.0000 0.0000 -45.0877
#
#
#
# Elastic Compliance Matrix: (Units=1/GPa)
#
#
# Indices 1 2 3 4 5 6 
#
# 1 0.018961 -0.004529 -0.005811 0.000000 0.000000 0.000000
# 2 -0.004529 0.009931 -0.005071 0.000000 0.000000 0.000000
# 3 -0.005811 -0.005071 0.027082 0.000000 0.000000 0.000000
# 4 0.000000 0.000000 0.000000 0.030397 0.000000 0.000000
# 5 0.000000 0.000000 0.000000 0.000000 0.141078 0.000000
# 6 0.000000 0.000000 0.000000 0.000000 0.000000 -0.022179
#
#
# Mechanical properties :
#
#
# Convention : Reuss Voigt Hill
#
# Bulk Modulus (GPa) = 39.75674 51.50528 45.63101
# Shear Modulus (GPa) = 20.45197 9.31459 14.88328
#
# Velocity S-wave (km/s) = 3.57860 2.41506 3.05278
# Velocity P-wave (km/s) = 6.47840 6.32674 6.40302
#
# Compressibility (1/GPa) = 0.02515297
#
# Stress axis : x y z
#
# Youngs Moduli (GPa) = 52.73954 100.69316 36.92526
#
# Poissons Ratio (x) = 0.45605 0.21457
# Poissons Ratio (y) = 0.23886 0.18723
# Poissons Ratio (z) = 0.30646 0.51057
#
# Static dielectric constant tensor:
#      x y z
#    x 1.553810 0.000000 0.000000 
#    y 0.000000 1.532610 0.000000 
#    z 0.000000 0.000000 1.565590 
# 
# From -- ./inp_files/7724.got.cif
#   From: 2010.05.17/outbox.cif.g08.bks.cpg/sg47_4_cif.got.tgz:7724.got - 2010.06.03 20:15:42.
