data_PCOD9384449
_publ_section_title
;
Structure prediction by ZEFSAII (Michael W. Deem and Ramdas Pophale) SiO2 
 PCOD9384449
Probable space group: P M M M
;
_chemical_formula_sum "Si O2"
_cell_formula_units_Z 64
_cell_length_a 21.073478
_cell_length_b 18.324596
_cell_length_c 7.667046
_cell_angle_alpha 90.000000
_cell_angle_beta 90.000000
_cell_angle_gamma 90.000000
_cell_volume 2960.729260
_symmetry_space_group_name_H-M "P M M M"
_symmetry_group_IT_number 47
_symmetry_cell_setting 'orthorhombic'
loop_
_space_group_symop_operation_xyz
x,y,z
-x,-y,z
x,-y,-z
-x,y,-z
-x,-y,-z
x,y,-z
-x,y,z
x,-y,z
loop_
_atom_site_type_symbol
_atom_site_label
_atom_site_fract_x
_atom_site_fract_y
_atom_site_fract_z
Si Si1 0.790331 0.420658 0.289271
Si Si2 0.736796 0.883833 0.701868
Si Si3 0.070826 0.388368 0.299145
Si Si4 0.291991 0.721776 0.793173
Si Si5 0.873252 0.077781 0.201828
Si Si6 0.431492 0.758639 0.213175
Si Si7 0.595647 0.079257 0.796450
Si Si8 0.925477 0.775194 0.198611
O O1 0.794204 0.418649 0.500000
O O2 0.763535 0.500000 0.237643
O O3 0.863234 0.416988 0.222043
O O4 0.748213 0.351051 0.239199
O O5 0.738091 0.905002 0.500000
O O6 0.737628 0.795577 0.714625
O O7 0.797646 0.916757 0.793885
O O8 0.671459 0.911780 0.782861
O O9 0.067812 0.412765 0.500000
O O10 0.080848 0.301142 0.294584
O O11 0.000000 0.403028 0.222299
O O12 0.365876 0.719919 0.732515
O O13 0.292819 0.734441 0.000000
O O14 0.895914 0.153343 0.283472
O O15 0.893430 0.000000 0.278097
O O16 0.895371 0.079365 0.000000
O O17 0.500000 0.727600 0.266509
O O18 0.428523 0.843291 0.274528
O O19 0.430542 0.759622 0.000000
O O20 0.577638 0.000000 0.721041
O O21 0.577462 0.077959 0.000000
O O22 0.000000 0.789491 0.185817
O O23 0.899834 0.764991 0.000000
#
# Coordination Sequence:
#
# PCOD9384449 Si02
#       8
#     8   8   8   8   8   8   8   8
#     4  10  21  36  55  81 111 139 166 200 244 294
#     4  11  21  32  48  69  95 129 169 209 250 299
#     4   9  18  33  53  76 102 134 170 204 240 288
#     4  10  20  35  56  79 103 133 169 209 252 300
#     4  10  20  32  46  65  91 124 164 213 263 305
#     4   8  15  29  50  76 102 130 170 218 262 301
#     4   9  17  29  46  70 101 134 167 207 255 303
#     4   9  18  32  49  68  90 120 160 204 250 300
#
# _framework density 21.616295000000001
#
# number of rings (size 3 to 8) (size 9 to 14) (size 15 to 20)
#    0.000    2.500    0.000    3.375    0.000    6.000 
#    0.000    3.750    0.000    9.750    0.000   11.375 
#    0.000    0.000    0.000    0.000    0.000    0.000 
#
# Total GULP energy -357002.872361 kJ/mol
# GULP energy per Si atom -5578.169881 kJ/mol
# Density = 2.156710 g / cm^3
# Si number density = 21.616295 Si / 1000 Ang^3
#
#
#
# Elastic Constant Matrix: (Units=GPa)
#
#
# Indices 1 2 3 4 5 6 
#
# 1 78.0091 62.9178 -1.8288 0.0000 0.0000 0.0000
# 2 62.9178 124.5185 3.2925 0.0000 0.0000 0.0000
# 3 -1.8288 3.2925 54.8513 0.0000 0.0000 0.0000
# 4 0.0000 0.0000 0.0000 5.3471 0.0000 0.0000
# 5 0.0000 0.0000 0.0000 0.0000 -212.1636 0.0000
# 6 0.0000 0.0000 0.0000 0.0000 0.0000 9.6755
#
#
#
# Elastic Compliance Matrix: (Units=1/GPa)
#
#
# Indices 1 2 3 4 5 6 
#
# 1 0.021742 -0.011022 0.001387 0.000000 0.000000 0.000000
# 2 -0.011022 0.013632 -0.001186 0.000000 0.000000 0.000000
# 3 0.001387 -0.001186 0.018349 0.000000 0.000000 0.000000
# 4 0.000000 0.000000 0.000000 0.187018 0.000000 0.000000
# 5 0.000000 0.000000 0.000000 0.000000 -0.004713 0.000000
# 6 0.000000 0.000000 0.000000 0.000000 0.000000 0.103354
#
#
# Mechanical properties :
#
#
# Convention : Reuss Voigt Hill
#
# Bulk Modulus (GPa) = 31.17350 42.90466 37.03908
# Shear Modulus (GPa) = 13.45109 -26.56172 -6.55531
#
# Velocity S-wave (km/s) = 2.49723 -3.50920 -1.74332
# Velocity P-wave (km/s) = 4.77153 1.86334 3.62212
#
# Compressibility (1/GPa) = 0.03207853
#
# Stress axis : x y z
#
# Youngs Moduli (GPa) = 45.99478 73.35787 54.50033
#
# Poissons Ratio (x) = 0.80858 -0.07556
# Poissons Ratio (y) = 0.50697 0.06462
# Poissons Ratio (z) = -0.06377 0.08698
#
# Static dielectric constant tensor:
#      x y z
#    x 1.801660 0.000000 0.000000 
#    y 0.000000 1.797490 0.000000 
#    z 0.000000 0.000000 1.828150 
# 
# From -- ./inp_files/11620.got.cif
#   From: 2010.05.17/outbox.cif.g08.bks.cpg/sg47_6_cif.got.tgz:11620.got - 2010.06.03 20:15:42.
