data_PCOD9384105
_publ_section_title
;
Structure prediction by ZEFSAII (Michael W. Deem and Ramdas Pophale) SiO2 
 PCOD9384105
Probable space group: P M M M
;
_chemical_formula_sum "Si O2"
_cell_formula_units_Z 37
_cell_length_a 12.289729
_cell_length_b 19.848512
_cell_length_c 9.572558
_cell_angle_alpha 90.000000
_cell_angle_beta 90.000000
_cell_angle_gamma 90.000000
_cell_volume 2335.061197
_symmetry_space_group_name_H-M "P M M M"
_symmetry_group_IT_number 47
_symmetry_cell_setting 'orthorhombic'
loop_
_space_group_symop_operation_xyz
x,y,z
-x,-y,z
x,-y,-z
-x,y,-z
-x,-y,-z
x,y,-z
-x,y,z
x,-y,z
loop_
_atom_site_type_symbol
_atom_site_label
_atom_site_fract_x
_atom_site_fract_y
_atom_site_fract_z
Si Si1 0.368206 0.705414 0.663466
Si Si2 0.130531 0.921957 0.338017
Si Si3 0.500000 0.000000 0.500000
Si Si4 0.500000 0.074902 0.211490
Si Si5 0.632111 0.423902 0.160923
Si Si6 0.709758 0.166791 0.837973
O O1 0.339690 0.708445 0.500000
O O2 0.500000 0.710373 0.673858
O O3 0.334143 0.634745 0.734019
O O4 0.317927 0.766520 0.750631
O O5 0.160667 0.908014 0.500000
O O6 0.191359 0.872641 0.234287
O O7 0.000000 0.917283 0.327195
O O8 0.161610 0.000000 0.310233
O O9 0.500000 0.941834 0.376581
O O10 0.394263 0.117381 0.172268
O O11 0.500000 0.000000 0.148250
O O12 0.500000 0.424549 0.162471
O O13 0.667669 0.500000 0.197264
O O14 0.664168 0.409685 0.000000
O O15 0.730333 0.182259 0.000000
#
# Coordination Sequence:
#
# PCOD9384105 Si02
#       6
#     8   8   1   4   8   8
#     4  10  20  30  45  66  94 130 168 203 239 284
#     4   9  20  38  58  75  92 121 162 205 249 297
#     4   8  24  36  50  68  90 132 164 204 232 294
#     4  10  23  34  50  69  94 127 163 199 241 289
#     4   8  14  26  43  62  89 125 161 197 238 284
#     4  12  23  33  49  71 101 130 159 201 247 296
#
# _framework density 15.845408000000001
#
# number of rings (size 3 to 8) (size 9 to 14) (size 15 to 20)
#    0.324    1.946    1.081    3.568    3.027    3.892 
#    0.000    3.243    0.000    0.000    0.000    0.000 
#    0.000    0.865    0.000    9.081    0.000    4.324 
#
# Total GULP energy -206028.580375 kJ/mol
# GULP energy per Si atom -5568.340010 kJ/mol
# Density = 1.580934 g / cm^3
# Si number density = 15.845408 Si / 1000 Ang^3
#
#
#
# Elastic Constant Matrix: (Units=GPa)
#
#
# Indices 1 2 3 4 5 6 
#
# 1 22.7292 27.8089 31.3554 0.0000 0.0000 0.0000
# 2 27.8089 136.6109 98.5877 0.0000 0.0000 0.0000
# 3 31.3554 98.5877 164.2428 0.0000 0.0000 0.0000
# 4 0.0000 0.0000 0.0000 33.6812 0.0000 0.0000
# 5 0.0000 0.0000 0.0000 0.0000 -1.8137 0.0000
# 6 0.0000 0.0000 0.0000 0.0000 0.0000 24.1578
#
#
#
# Elastic Compliance Matrix: (Units=1/GPa)
#
#
# Indices 1 2 3 4 5 6 
#
# 1 0.063695 -0.007393 -0.007722 0.000000 0.000000 0.000000
# 2 -0.007393 0.013772 -0.006856 0.000000 0.000000 0.000000
# 3 -0.007722 -0.006856 0.011678 0.000000 0.000000 0.000000
# 4 0.000000 0.000000 0.000000 0.029690 0.000000 0.000000
# 5 0.000000 0.000000 0.000000 0.000000 -0.551346 0.000000
# 6 0.000000 0.000000 0.000000 0.000000 0.000000 0.041394
#
#
# Mechanical properties :
#
#
# Convention : Reuss Voigt Hill
#
# Bulk Modulus (GPa) = 22.12225 71.00966 46.56596
# Shear Modulus (GPa) = -15.05539 22.26044 3.60252
#
# Velocity S-wave (km/s) = -3.08578 3.75220 1.50946
# Velocity P-wave (km/s) = 1.13822 7.98018 5.69995
#
# Compressibility (1/GPa) = 0.04520335
#
# Stress axis : x y z
#
# Youngs Moduli (GPa) = 15.69993 72.60858 85.63186
#
# Poissons Ratio (x) = 0.53680 0.66126
# Poissons Ratio (y) = 0.11607 0.58706
# Poissons Ratio (z) = 0.12124 0.49778
#
# Static dielectric constant tensor:
#      x y z
#    x 1.507600 0.000000 0.000000 
#    y 0.000000 1.530320 0.000000 
#    z 0.000000 0.000000 1.535830 
# 
# From -- ./inp_files/3763.got.cif
#   From: 2010.05.17/outbox.cif.g08.bks.cpg/sg47_2_cif.got.tgz:3763.got - 2010.06.03 20:15:42.
