data_PCOD9384601
_publ_section_title
;
Structure prediction by ZEFSAII (Michael W. Deem and Ramdas Pophale) SiO2 
 PCOD9384601
Probable space group: P M M M
;
_chemical_formula_sum "Si O2"
_cell_formula_units_Z 64
_cell_length_a 17.822974
_cell_length_b 13.908681
_cell_length_c 13.445953
_cell_angle_alpha 90.000000
_cell_angle_beta 90.000000
_cell_angle_gamma 90.000000
_cell_volume 3333.171878
_symmetry_space_group_name_H-M "P M M M"
_symmetry_group_IT_number 47
_symmetry_cell_setting 'orthorhombic'
loop_
_space_group_symop_operation_xyz
x,y,z
-x,-y,z
x,-y,-z
-x,y,-z
-x,-y,-z
x,y,-z
-x,y,z
x,-y,z
loop_
_atom_site_type_symbol
_atom_site_label
_atom_site_fract_x
_atom_site_fract_y
_atom_site_fract_z
Si Si1 0.590990 0.691345 0.113198
Si Si2 0.649443 0.393853 0.688188
Si Si3 0.086909 0.116540 0.114176
Si Si4 0.182023 0.606584 0.381792
Si Si5 0.649221 0.813474 0.616502
Si Si6 0.587713 0.104272 0.193283
Si Si7 0.916911 0.783192 0.383080
Si Si8 0.800386 0.888989 0.715489
O O1 0.500000 0.689122 0.122593
O O2 0.625077 0.624540 0.198443
O O3 0.617394 0.800722 0.138210
O O4 0.609936 0.666154 0.000000
O O5 0.622960 0.500000 0.654914
O O6 0.739081 0.393291 0.674223
O O7 0.624759 0.297988 0.629077
O O8 0.155482 0.147314 0.185867
O O9 0.000000 0.145719 0.136234
O O10 0.086753 0.000000 0.121171
O O11 0.101793 0.143234 0.000000
O O12 0.198950 0.622352 0.500000
O O13 0.148076 0.500000 0.373449
O O14 0.127926 0.690192 0.345011
O O15 0.651901 0.838694 0.500000
O O16 0.596975 0.876352 0.688851
O O17 0.730361 0.830989 0.669575
O O18 0.500000 0.100832 0.168901
O O19 0.620702 0.000000 0.166756
O O20 0.922073 0.768404 0.500000
O O21 0.867582 0.876407 0.362803
O O22 0.000000 0.790984 0.342511
O O23 0.778228 0.000000 0.727131
#
# Coordination Sequence:
#
# PCOD9384601 Si02
#       8
#     8   8   8   8   8   8   8   8
#     4   9  19  36  58  86 118 148 179 219 269 324
#     4  10  20  35  57  80 103 137 180 224 273 330
#     4   8  15  30  51  71  92 125 170 215 259 308
#     4   9  17  32  54  75  97 131 175 224 276 321
#     4  11  22  36  54  77 108 146 185 227 277 329
#     4   9  19  36  57  82 111 146 190 232 265 305
#     4  10  20  32  47  71 102 136 175 217 263 320
#     4  11  21  32  48  73 105 140 175 215 267 326
#
# _framework density 19.20093
#
# number of rings (size 3 to 8) (size 9 to 14) (size 15 to 20)
#    0.000    2.375    1.250    1.875    0.000    4.500 
#    0.000    6.875    0.000    4.125    0.000    7.000 
#    0.000    0.000    0.000    6.750    0.000    0.500 
#
# Total GULP energy -356317.898826 kJ/mol
# GULP energy per Si atom -5567.467169 kJ/mol
# Density = 1.915723 g / cm^3
# Si number density = 19.200930 Si / 1000 Ang^3
#
#
#
# Elastic Constant Matrix: (Units=GPa)
#
#
# Indices 1 2 3 4 5 6 
#
# 1 32.4925 5.4252 9.2738 0.0000 0.0000 0.0000
# 2 5.4252 64.3906 0.2275 0.0000 0.0000 0.0000
# 3 9.2738 0.2275 81.5014 0.0000 0.0000 0.0000
# 4 0.0000 0.0000 0.0000 12.5302 0.0000 0.0000
# 5 0.0000 0.0000 0.0000 0.0000 34.6077 0.0000
# 6 0.0000 0.0000 0.0000 0.0000 0.0000 -2.8956
#
#
#
# Elastic Compliance Matrix: (Units=1/GPa)
#
#
# Indices 1 2 3 4 5 6 
#
# 1 0.032274 -0.002706 -0.003665 0.000000 0.000000 0.000000
# 2 -0.002706 0.015757 0.000264 0.000000 0.000000 0.000000
# 3 -0.003665 0.000264 0.012686 0.000000 0.000000 0.000000
# 4 0.000000 0.000000 0.000000 0.079807 0.000000 0.000000
# 5 0.000000 0.000000 0.000000 0.000000 0.028895 0.000000
# 6 0.000000 0.000000 0.000000 0.000000 0.000000 -0.345349
#
#
# Mechanical properties :
#
#
# Convention : Reuss Voigt Hill
#
# Bulk Modulus (GPa) = 20.61722 23.13751 21.87737
# Shear Modulus (GPa) = -33.88748 19.74564 -7.07092
#
# Velocity S-wave (km/s) = -4.20561 3.21030 -1.92109
# Velocity P-wave (km/s) = 3.58078 5.08111 2.54909
#
# Compressibility (1/GPa) = 0.04850314
#
# Stress axis : x y z
#
# Youngs Moduli (GPa) = 30.98448 63.46267 78.82705
#
# Poissons Ratio (x) = 0.17175 0.28889
# Poissons Ratio (y) = 0.08385 -0.02081
# Poissons Ratio (z) = 0.11355 -0.01675
#
# Static dielectric constant tensor:
#      x y z
#    x 1.692480 0.000000 0.000000 
#    y 0.000000 1.714180 0.000000 
#    z 0.000000 0.000000 1.689750 
# 
# From -- ./inp_files/18666.got.cif
#   From: 2010.05.17/outbox.cif.g08.bks.cpg/sg47_10_cif.got.tgz:18666.got - 2010.06.03 20:15:42.
