data_PCOD9384716
_publ_section_title
;
Structure prediction by ZEFSAII (Michael W. Deem and Ramdas Pophale) SiO2 
 PCOD9384716
Probable space group: P M M M
;
_chemical_formula_sum "Si O2"
_cell_formula_units_Z 44
_cell_length_a 8.022347
_cell_length_b 31.341018
_cell_length_c 9.196211
_cell_angle_alpha 90.000000
_cell_angle_beta 90.000000
_cell_angle_gamma 90.000000
_cell_volume 2312.189737
_symmetry_space_group_name_H-M "P M M M"
_symmetry_group_IT_number 47
_symmetry_cell_setting 'orthorhombic'
loop_
_space_group_symop_operation_xyz
x,y,z
-x,-y,z
x,-y,-z
-x,y,-z
-x,-y,-z
x,y,-z
-x,y,z
x,-y,z
loop_
_atom_site_type_symbol
_atom_site_label
_atom_site_fract_x
_atom_site_fract_y
_atom_site_fract_z
Si Si1 0.302099 0.862195 0.333761
Si Si2 0.688704 0.392830 0.825164
Si Si3 0.200587 0.953975 0.329065
Si Si4 0.202344 0.693231 0.669894
Si Si5 0.000000 0.548849 0.822977
Si Si6 0.199969 0.221898 0.164339
O O1 0.233875 0.860107 0.500000
O O2 0.500000 0.858990 0.341889
O O3 0.260148 0.908796 0.268952
O O4 0.238375 0.822571 0.241922
O O5 0.500000 0.407418 0.792849
O O6 0.722479 0.347527 0.750451
O O7 0.833830 0.425522 0.778779
O O8 0.702101 0.387663 0.000000
O O9 0.250680 0.953786 0.500000
O O10 0.000000 0.953738 0.324192
O O11 0.257275 0.000000 0.267862
O O12 0.245212 0.693138 0.500000
O O13 0.259167 0.737287 0.744197
O O14 0.000000 0.690606 0.681708
O O15 0.000000 0.500000 0.772419
O O16 0.000000 0.548045 0.000000
O O17 0.000000 0.225629 0.157478
O O18 0.266060 0.222761 0.000000
#
# Coordination Sequence:
#
# PCOD9384716 Si02
#       6
#     8   8   8   8   4   8
#     4  10  20  32  48  73 105 138 171 211 260 314
#     4  10  20  34  56  85 116 152 191 232 280 331
#     4   8  14  26  46  71  97 127 165 209 256 307
#     4  10  20  35  57  82 108 141 181 226 277 330
#     4   9  18  34  57  85 119 155 191 237 282 323
#     4  10  21  36  55  77 102 137 179 221 266 317
#
# _framework density 19.029578000000001
#
# number of rings (size 3 to 8) (size 9 to 14) (size 15 to 20)
#    0.000    2.455    0.909    2.182    0.000    4.727 
#    0.000    3.636    0.000    1.636    0.000    5.091 
#    0.000    0.000    0.000    0.000    0.000    0.000 
#
# Total GULP energy -245391.648962 kJ/mol
# GULP energy per Si atom -5577.082931 kJ/mol
# Density = 1.898627 g / cm^3
# Si number density = 19.029578 Si / 1000 Ang^3
#
#
#
# Elastic Constant Matrix: (Units=GPa)
#
#
# Indices 1 2 3 4 5 6 
#
# 1 63.2611 58.4827 33.9248 0.0000 0.0000 0.0000
# 2 58.4827 193.9036 55.4917 0.0000 0.0000 0.0000
# 3 33.9248 55.4917 52.4537 0.0000 0.0000 0.0000
# 4 0.0000 0.0000 0.0000 23.8991 0.0000 0.0000
# 5 0.0000 0.0000 0.0000 0.0000 15.0275 0.0000
# 6 0.0000 0.0000 0.0000 0.0000 0.0000 -10.4315
#
#
#
# Elastic Compliance Matrix: (Units=1/GPa)
#
#
# Indices 1 2 3 4 5 6 
#
# 1 0.026635 -0.004451 -0.012518 0.000000 0.000000 0.000000
# 2 -0.004451 0.008140 -0.005733 0.000000 0.000000 0.000000
# 3 -0.012518 -0.005733 0.033225 0.000000 0.000000 0.000000
# 4 0.000000 0.000000 0.000000 0.041843 0.000000 0.000000
# 5 0.000000 0.000000 0.000000 0.000000 0.066545 0.000000
# 6 0.000000 0.000000 0.000000 0.000000 0.000000 -0.095863
#
#
# Mechanical properties :
#
#
# Convention : Reuss Voigt Hill
#
# Bulk Modulus (GPa) = 44.25283 67.26851 55.76067
# Shear Modulus (GPa) = 37.46412 16.48029 26.97220
#
# Velocity S-wave (km/s) = 4.44185 2.94604 3.76890
# Velocity P-wave (km/s) = 7.04358 6.85554 6.95019
#
# Compressibility (1/GPa) = 0.02259743
#
# Stress axis : x y z
#
# Youngs Moduli (GPa) = 37.54447 122.84444 30.09740
#
# Poissons Ratio (x) = 0.54678 0.37675
# Poissons Ratio (y) = 0.16711 0.17255
# Poissons Ratio (z) = 0.46997 0.70428
#
# Static dielectric constant tensor:
#      x y z
#    x 1.678340 0.000000 0.000000 
#    y 0.000000 1.652710 0.000000 
#    z 0.000000 0.000000 1.659300 
# 
# From -- ./inp_files/2313.got.cif
#   From: 2010.05.17/outbox.cif.g08.bks.cpg/sg47_2_cif.got.tgz:2313.got - 2010.06.03 20:15:42.
