data_PCOD9384357
_publ_section_title
;
Structure prediction by ZEFSAII (Michael W. Deem and Ramdas Pophale) SiO2 
 PCOD9384357
Probable space group: P M M M
;
_chemical_formula_sum "Si O2"
_cell_formula_units_Z 60
_cell_length_a 9.258624
_cell_length_b 23.353233
_cell_length_c 26.154787
_cell_angle_alpha 90.000000
_cell_angle_beta 90.000000
_cell_angle_gamma 90.000000
_cell_volume 5655.156752
_symmetry_space_group_name_H-M "P M M M"
_symmetry_group_IT_number 47
_symmetry_cell_setting 'orthorhombic'
loop_
_space_group_symop_operation_xyz
x,y,z
-x,-y,z
x,-y,-z
-x,y,-z
-x,-y,-z
x,y,-z
-x,y,z
x,-y,z
loop_
_atom_site_type_symbol
_atom_site_label
_atom_site_fract_x
_atom_site_fract_y
_atom_site_fract_z
Si Si1 0.831698 0.569576 0.556995
Si Si2 0.828862 0.346599 0.938858
Si Si3 0.834063 0.569604 0.240197
Si Si4 0.832806 0.115059 0.937669
Si Si5 0.333591 0.569870 0.341872
Si Si6 0.671044 0.568476 0.863897
Si Si7 0.667078 0.000000 0.937712
Si Si8 0.666567 0.229623 0.062158
O O1 0.785165 0.588061 0.500000
O O2 0.826718 0.500000 0.557022
O O3 0.736628 0.589076 0.604699
O O4 0.000000 0.585104 0.564067
O O5 0.751552 0.397098 0.908209
O O6 0.754203 0.286587 0.923727
O O7 0.000000 0.345251 0.928455
O O8 0.809869 0.353737 0.000000
O O9 0.835942 0.500000 0.241441
O O10 0.758775 0.588442 0.292773
O O11 0.741846 0.585346 0.190366
O O12 0.000000 0.588837 0.236471
O O13 0.750597 0.057367 0.921589
O O14 0.747935 0.171971 0.921067
O O15 0.000000 0.115513 0.921629
O O16 0.832624 0.115257 0.000000
O O17 0.500000 0.587293 0.337396
O O18 0.331081 0.500000 0.342048
O O19 0.500000 0.580214 0.864101
O O20 0.690460 0.500000 0.870141
O O21 0.500000 0.000000 0.921517
O O22 0.666985 0.000000 0.000000
O O23 0.500000 0.231524 0.079208
O O24 0.664675 0.228209 0.000000
#
# Coordination Sequence:
#
# PCOD9384357 Si02
#       8
#     8   8   8   8   8   8   4   8
#     4   8  13  20  28  38  54  76  99 119 137 157
#     4  10  20  32  44  56  68  81  97 116 140 175
#     4   9  16  26  39  51  62  76  93 112 136 168
#     4   9  15  22  32  46  64  84 104 124 144 164
#     4   9  15  21  30  44  60  76  94 115 137 161
#     4  10  20  32  44  56  68  79  92 114 145 180
#     4   9  15  21  29  43  63  85 107 127 145 163
#     4   9  16  26  39  52  65  81 100 120 141 166
#
# _framework density 10.609786
#
# number of rings (size 3 to 8) (size 9 to 14) (size 15 to 20)
#    0.000    2.867    0.000    3.000    0.000    9.333 
#    0.000    2.667    0.000    0.000    0.000    0.000 
#    0.000    0.000    0.000    0.000    0.000    0.000 
#
# Total GULP energy -334029.163108 kJ/mol
# GULP energy per Si atom -5567.152718 kJ/mol
# Density = 1.058564 g / cm^3
# Si number density = 10.609786 Si / 1000 Ang^3
#
#
#
# Elastic Constant Matrix: (Units=GPa)
#
#
# Indices 1 2 3 4 5 6 
#
# 1 110.9030 42.5584 45.5047 0.0000 0.0000 0.0000
# 2 42.5584 39.6663 26.1753 0.0000 0.0000 0.0000
# 3 45.5047 26.1753 45.0766 0.0000 0.0000 0.0000
# 4 0.0000 0.0000 0.0000 -0.2299 0.0000 0.0000
# 5 0.0000 0.0000 0.0000 0.0000 14.4808 0.0000
# 6 0.0000 0.0000 0.0000 0.0000 0.0000 14.7958
#
#
#
# Elastic Compliance Matrix: (Units=1/GPa)
#
#
# Indices 1 2 3 4 5 6 
#
# 1 0.018407 -0.012139 -0.011533 0.000000 0.000000 0.000000
# 2 -0.012139 0.048877 -0.016128 0.000000 0.000000 0.000000
# 3 -0.011533 -0.016128 0.043193 0.000000 0.000000 0.000000
# 4 0.000000 0.000000 0.000000 -4.350350 0.000000 0.000000
# 5 0.000000 0.000000 0.000000 0.000000 0.069057 0.000000
# 6 0.000000 0.000000 0.000000 0.000000 0.000000 0.067587
#
#
# Mechanical properties :
#
#
# Convention : Reuss Voigt Hill
#
# Bulk Modulus (GPa) = 32.38703 47.12476 39.75589
# Shear Modulus (GPa) = -1.24585 11.23650 4.99533
#
# Velocity S-wave (km/s) = -1.08480 3.25786 2.17220
# Velocity P-wave (km/s) = 5.38728 7.65926 6.62145
#
# Compressibility (1/GPa) = 0.03087656
#
# Stress axis : x y z
#
# Youngs Moduli (GPa) = 54.32622 20.45962 23.15200
#
# Poissons Ratio (x) = 0.24835 0.26702
# Poissons Ratio (y) = 0.65945 0.37340
# Poissons Ratio (z) = 0.62657 0.32997
#
# Static dielectric constant tensor:
#      x y z
#    x 1.355590 0.000000 0.000000 
#    y 0.000000 1.319680 0.000000 
#    z 0.000000 0.000000 1.328630 
# 
# From -- ./inp_files/33507.got.cif
#   From: 2010.05.17/outbox.cif.g08.bks.cpg/sg47_17_cif.got.tgz:33507.got - 2010.06.03 20:15:42.
