data_PCOD9384891
_publ_section_title
;
Structure prediction by ZEFSAII (Michael W. Deem and Ramdas Pophale) SiO2 
 PCOD9384891
Probable space group: P M M M
;
_chemical_formula_sum "Si O2"
_cell_formula_units_Z 40
_cell_length_a 21.884185
_cell_length_b 11.671906
_cell_length_c 10.117422
_cell_angle_alpha 90.000000
_cell_angle_beta 90.000000
_cell_angle_gamma 90.000000
_cell_volume 2584.294621
_symmetry_space_group_name_H-M "P M M M"
_symmetry_group_IT_number 47
_symmetry_cell_setting 'orthorhombic'
loop_
_space_group_symop_operation_xyz
x,y,z
-x,-y,z
x,-y,-z
-x,y,-z
-x,-y,-z
x,y,-z
-x,y,z
x,-y,z
loop_
_atom_site_type_symbol
_atom_site_label
_atom_site_fract_x
_atom_site_fract_y
_atom_site_fract_z
Si Si1 0.426844 0.367335 0.500000
Si Si2 0.133814 0.860565 0.847279
Si Si3 0.572531 0.362538 0.000000
Si Si4 0.626498 0.764342 0.250874
Si Si5 0.572823 0.000000 0.847250
Si Si6 0.753736 0.862036 0.657777
Si Si7 0.000000 0.869168 0.839710
O O1 0.407226 0.500000 0.500000
O O2 0.500000 0.365259 0.500000
O O3 0.401978 0.301040 0.374030
O O4 0.186107 0.831748 0.742510
O O5 0.066094 0.817746 0.805956
O O6 0.130157 0.000000 0.850189
O O7 0.146917 0.825626 0.000000
O O8 0.607984 0.311551 0.125149
O O9 0.573364 0.500000 0.000000
O O10 0.500000 0.326925 0.000000
O O11 0.595865 0.887277 0.225413
O O12 0.696963 0.792400 0.281735
O O13 0.500000 0.000000 0.850489
O O14 0.595263 0.000000 0.000000
O O15 0.759610 0.840969 0.500000
O O16 0.743252 0.000000 0.673515
O O17 0.000000 0.000000 0.788492
O O18 0.000000 0.875006 0.000000
#
# Coordination Sequence:
#
# PCOD9384891 Si02
#       7
#     4   8   4   8   4   8   4
#     4  11  24  41  59  77  97 129 175 220 264 315
#     4   8  14  24  43  64  91 129 172 207 239 284
#     4  11  24  41  59  77  97 127 169 218 268 313
#     4  12  22  37  56  77 104 134 166 212 261 314
#     4  11  22  35  53  79 105 128 161 210 265 317
#     4  10  20  33  44  67 103 138 167 201 248 303
#     4   7  10  20  37  63  89 121 168 213 238 267
#
# _framework density 15.478111
#
# number of rings (size 3 to 8) (size 9 to 14) (size 15 to 20)
#    0.000    2.000    3.000    3.600    1.400    2.000 
#    0.000    1.500    0.000    3.000    0.000    0.000 
#    0.000    0.000    0.000    5.400    0.000    0.700 
#
# Total GULP energy -222852.618980 kJ/mol
# GULP energy per Si atom -5571.315474 kJ/mol
# Density = 1.544288 g / cm^3
# Si number density = 15.478111 Si / 1000 Ang^3
#
#
#
# Elastic Constant Matrix: (Units=GPa)
#
#
# Indices 1 2 3 4 5 6 
#
# 1 148.7609 41.5814 79.7039 0.0000 0.0000 0.0000
# 2 41.5814 74.1035 49.2222 0.0000 0.0000 0.0000
# 3 79.7039 49.2222 135.5469 0.0000 0.0000 0.0000
# 4 0.0000 0.0000 0.0000 17.7490 0.0000 0.0000
# 5 0.0000 0.0000 0.0000 0.0000 28.7157 0.0000
# 6 0.0000 0.0000 0.0000 0.0000 0.0000 9.6648
#
#
#
# Elastic Compliance Matrix: (Units=1/GPa)
#
#
# Indices 1 2 3 4 5 6 
#
# 1 0.010096 -0.002269 -0.005112 0.000000 0.000000 0.000000
# 2 -0.002269 0.018294 -0.005309 0.000000 0.000000 0.000000
# 3 -0.005112 -0.005309 0.012312 0.000000 0.000000 0.000000
# 4 0.000000 0.000000 0.000000 0.056341 0.000000 0.000000
# 5 0.000000 0.000000 0.000000 0.000000 0.034824 0.000000
# 6 0.000000 0.000000 0.000000 0.000000 0.000000 0.103469
#
#
# Mechanical properties :
#
#
# Convention : Reuss Voigt Hill
#
# Bulk Modulus (GPa) = 65.27231 77.71403 71.49317
# Shear Modulus (GPa) = 18.80946 23.75281 21.28113
#
# Velocity S-wave (km/s) = 3.48980 3.92166 3.71201
# Velocity P-wave (km/s) = 7.64856 8.41569 8.04128
#
# Compressibility (1/GPa) = 0.01532043
#
# Stress axis : x y z
#
# Youngs Moduli (GPa) = 99.05319 54.66164 81.22387
#
# Poissons Ratio (x) = 0.12403 0.41525
# Poissons Ratio (y) = 0.22476 0.43123
# Poissons Ratio (z) = 0.50640 0.29021
#
# Static dielectric constant tensor:
#      x y z
#    x 1.535550 0.000000 0.000000 
#    y 0.000000 1.489380 0.000000 
#    z 0.000000 0.000000 1.474250 
# 
# From -- ./inp_files/10758.got.cif
#   From: 2010.05.17/outbox.cif.g08.bks.cpg/sg47_6_cif.got.tgz:10758.got - 2010.06.03 20:15:42.
