data_PCOD9384704
_publ_section_title
;
Structure prediction by ZEFSAII (Michael W. Deem and Ramdas Pophale) SiO2 
 PCOD9384704
Probable space group: P M M M
;
_chemical_formula_sum "Si O2"
_cell_formula_units_Z 48
_cell_length_a 7.503928
_cell_length_b 9.478451
_cell_length_c 31.689150
_cell_angle_alpha 90.000000
_cell_angle_beta 90.000000
_cell_angle_gamma 90.000000
_cell_volume 2253.910246
_symmetry_space_group_name_H-M "P M M M"
_symmetry_group_IT_number 47
_symmetry_cell_setting 'orthorhombic'
loop_
_space_group_symop_operation_xyz
x,y,z
-x,-y,z
x,-y,-z
-x,y,-z
-x,-y,-z
x,y,-z
-x,y,z
x,-y,z
loop_
_atom_site_type_symbol
_atom_site_label
_atom_site_fract_x
_atom_site_fract_y
_atom_site_fract_z
Si Si1 0.285358 0.339697 0.047502
Si Si2 0.213183 0.839748 0.710440
Si Si3 0.714000 0.659686 0.627101
Si Si4 0.717382 0.162533 0.452422
Si Si5 0.211170 0.158720 0.871082
Si Si6 0.218419 0.337623 0.791359
O O1 0.500000 0.342956 0.046553
O O2 0.224380 0.500000 0.057083
O O3 0.233842 0.232051 0.083771
O O4 0.224661 0.303127 0.000000
O O5 0.247804 0.755896 0.667481
O O6 0.278018 0.750312 0.750523
O O7 0.000000 0.849012 0.715168
O O8 0.282793 0.000000 0.709215
O O9 0.500000 0.651883 0.623504
O O10 0.781479 0.500000 0.632262
O O11 0.780126 0.735106 0.584516
O O12 0.772744 0.201363 0.500000
O O13 0.500000 0.164220 0.452140
O O14 0.770324 0.000000 0.444419
O O15 0.279806 0.258877 0.833759
O O16 0.000000 0.147716 0.863589
O O17 0.284908 0.000000 0.870048
O O18 0.276000 0.500000 0.789881
O O19 0.000000 0.339408 0.791284
#
# Coordination Sequence:
#
# PCOD9384704 Si02
#       6
#     8   8   8   8   8   8
#     4   9  19  36  55  74  99 133 171 208 247 293
#     4  10  20  34  53  75  99 130 167 204 245 295
#     4  10  20  32  48  73 103 132 163 202 247 292
#     4   8  14  26  45  68  94 126 163 201 243 292
#     4  10  20  33  51  77 106 132 162 203 247 291
#     4   9  17  31  52  75  99 129 164 202 245 292
#
# _framework density 21.296322
#
# number of rings (size 3 to 8) (size 9 to 14) (size 15 to 20)
#    0.000    2.667    0.000    3.000    0.000    6.333 
#    0.000    5.000    0.000    5.500    0.000    3.500 
#    0.000    0.000    0.000    0.000    0.000    0.000 
#
# Total GULP energy -268088.202626 kJ/mol
# GULP energy per Si atom -5585.170888 kJ/mol
# Density = 2.124785 g / cm^3
# Si number density = 21.296322 Si / 1000 Ang^3
#
#
#
# Elastic Constant Matrix: (Units=GPa)
#
#
# Indices 1 2 3 4 5 6 
#
# 1 55.9415 7.3594 -1.2117 0.0000 0.0000 0.0000
# 2 7.3594 231.2983 150.6646 0.0000 0.0000 0.0000
# 3 -1.2117 150.6646 190.6021 0.0000 0.0000 0.0000
# 4 0.0000 0.0000 0.0000 42.1013 0.0000 0.0000
# 5 0.0000 0.0000 0.0000 0.0000 19.6436 0.0000
# 6 0.0000 0.0000 0.0000 0.0000 0.0000 8.6342
#
#
#
# Elastic Compliance Matrix: (Units=1/GPa)
#
#
# Indices 1 2 3 4 5 6 
#
# 1 0.018078 -0.001340 0.001174 0.000000 0.000000 0.000000
# 2 -0.001340 0.009012 -0.007132 0.000000 0.000000 0.000000
# 3 0.001174 -0.007132 0.010892 0.000000 0.000000 0.000000
# 4 0.000000 0.000000 0.000000 0.023752 0.000000 0.000000
# 5 0.000000 0.000000 0.000000 0.000000 0.050907 0.000000
# 6 0.000000 0.000000 0.000000 0.000000 0.000000 0.115819
#
#
# Mechanical properties :
#
#
# Convention : Reuss Voigt Hill
#
# Bulk Modulus (GPa) = 42.76214 87.94073 65.35144
# Shear Modulus (GPa) = 19.93226 35.47780 27.70503
#
# Velocity S-wave (km/s) = 3.06265 4.08599 3.61075
# Velocity P-wave (km/s) = 5.71223 7.97771 6.93806
#
# Compressibility (1/GPa) = 0.02338517
#
# Stress axis : x y z
#
# Youngs Moduli (GPa) = 55.31726 110.96617 91.81374
#
# Poissons Ratio (x) = 0.14870 -0.10781
# Poissons Ratio (y) = 0.07413 0.65482
# Poissons Ratio (z) = -0.06495 0.79141
#
# Static dielectric constant tensor:
#      x y z
#    x 1.839410 0.000000 0.000000 
#    y 0.000000 1.748200 0.000000 
#    z 0.000000 0.000000 1.725890 
# 
# From -- ./inp_files/2422.got.cif
#   From: 2010.05.17/outbox.cif.g08.bks.cpg/sg47_2_cif.got.tgz:2422.got - 2010.06.03 20:15:42.
