data_PCOD9384315
_publ_section_title
;
Structure prediction by ZEFSAII (Michael W. Deem and Ramdas Pophale) SiO2 
 PCOD9384315
Probable space group: P M M M
;
_chemical_formula_sum "Si O2"
_cell_formula_units_Z 48
_cell_length_a 8.302460
_cell_length_b 31.325611
_cell_length_c 9.821228
_cell_angle_alpha 90.000000
_cell_angle_beta 90.000000
_cell_angle_gamma 90.000000
_cell_volume 2554.301367
_symmetry_space_group_name_H-M "P M M M"
_symmetry_group_IT_number 47
_symmetry_cell_setting 'orthorhombic'
loop_
_space_group_symop_operation_xyz
x,y,z
-x,-y,z
x,-y,-z
-x,y,-z
-x,-y,-z
x,y,-z
-x,y,z
x,-y,z
loop_
_atom_site_type_symbol
_atom_site_label
_atom_site_fract_x
_atom_site_fract_y
_atom_site_fract_z
Si Si1 0.694437 0.200565 0.845053
Si Si2 0.196464 0.451472 0.155855
Si Si3 0.192082 0.875301 0.654587
Si Si4 0.194322 0.374356 0.655301
Si Si5 0.694522 0.298246 0.155414
Si Si6 0.694460 0.048731 0.844839
O O1 0.500000 0.199825 0.844805
O O2 0.754021 0.166344 0.737594
O O3 0.744803 0.249366 0.815676
O O4 0.746558 0.189952 0.000000
O O5 0.246263 0.500000 0.188893
O O6 0.253003 0.415660 0.260539
O O7 0.000000 0.451154 0.157208
O O8 0.245482 0.441889 0.000000
O O9 0.256013 0.875337 0.500000
O O10 0.246121 0.916876 0.737876
O O11 0.000000 0.875327 0.648860
O O12 0.253434 0.373701 0.500000
O O13 0.241026 0.332187 0.738030
O O14 0.000000 0.376701 0.651464
O O15 0.500000 0.299193 0.158054
O O16 0.745354 0.308693 0.000000
O O17 0.500000 0.049373 0.844394
O O18 0.745550 0.000000 0.814886
O O19 0.746192 0.059175 0.000000
#
# Coordination Sequence:
#
# PCOD9384315 Si02
#       6
#     8   8   8   8   8   8
#     4   9  19  37  59  79  98 126 170 218 257 299
#     4   8  14  26  45  68  94 127 168 210 249 292
#     4  11  24  37  50  76 113 145 171 205 252 304
#     4  10  20  31  46  73 106 136 165 201 249 303
#     4   9  19  36  56  76  98 128 168 212 256 301
#     4   9  19  37  60  83 105 133 174 220 259 298
#
# _framework density 18.791831999999999
#
# number of rings (size 3 to 8) (size 9 to 14) (size 15 to 20)
#    0.000    2.667    0.000    3.500    0.000    7.667 
#    0.000    9.167    0.000    0.500    0.000    3.500 
#    0.000    0.000    0.000    0.000    0.000    0.000 
#
# Total GULP energy -267824.563343 kJ/mol
# GULP energy per Si atom -5579.678403 kJ/mol
# Density = 1.874906 g / cm^3
# Si number density = 18.791832 Si / 1000 Ang^3
#
#
#
# Elastic Constant Matrix: (Units=GPa)
#
#
# Indices 1 2 3 4 5 6 
#
# 1 8.8962 19.3249 22.6274 0.0000 0.0000 0.0000
# 2 19.3249 162.0653 147.8677 0.0000 0.0000 0.0000
# 3 22.6274 147.8677 193.6437 0.0000 0.0000 0.0000
# 4 0.0000 0.0000 0.0000 -12.9995 0.0000 0.0000
# 5 0.0000 0.0000 0.0000 0.0000 24.6485 0.0000
# 6 0.0000 0.0000 0.0000 0.0000 0.0000 24.7182
#
#
#
# Elastic Compliance Matrix: (Units=1/GPa)
#
#
# Indices 1 2 3 4 5 6 
#
# 1 0.162154 -0.006751 -0.013793 0.000000 0.000000 0.000000
# 2 -0.006751 0.020626 -0.014961 0.000000 0.000000 0.000000
# 3 -0.013793 -0.014961 0.018200 0.000000 0.000000 0.000000
# 4 0.000000 0.000000 0.000000 -0.076926 0.000000 0.000000
# 5 0.000000 0.000000 0.000000 0.000000 0.040570 0.000000
# 6 0.000000 0.000000 0.000000 0.000000 0.000000 0.040456
#
#
# Mechanical properties :
#
#
# Convention : Reuss Voigt Hill
#
# Bulk Modulus (GPa) = 7.69407 82.69394 45.19401
# Shear Modulus (GPa) = 15.65366 18.92579 17.28972
#
# Velocity S-wave (km/s) = 2.88931 3.17697 3.03655
# Velocity P-wave (km/s) = 3.90309 7.58672 6.03293
#
# Compressibility (1/GPa) = 0.12997017
#
# Stress axis : x y z
#
# Youngs Moduli (GPa) = 6.16698 48.48261 54.94409
#
# Poissons Ratio (x) = 0.32731 0.75782
# Poissons Ratio (y) = 0.04163 0.82203
# Poissons Ratio (z) = 0.08506 0.72536
#
# Static dielectric constant tensor:
#      x y z
#    x 1.663630 0.000000 0.000000 
#    y 0.000000 1.634690 0.000000 
#    z 0.000000 0.000000 1.640580 
# 
# From -- ./inp_files/2468.got.cif
#   From: 2010.05.17/outbox.cif.g08.bks.cpg/sg47_2_cif.got.tgz:2468.got - 2010.06.03 20:15:42.
