data_PCOD9384414
_publ_section_title
;
Structure prediction by ZEFSAII (Michael W. Deem and Ramdas Pophale) SiO2 
 PCOD9384414
Probable space group: P M M M
;
_chemical_formula_sum "Si O2"
_cell_formula_units_Z 48
_cell_length_a 23.190980
_cell_length_b 15.475994
_cell_length_c 7.649400
_cell_angle_alpha 90.000000
_cell_angle_beta 90.000000
_cell_angle_gamma 90.000000
_cell_volume 2745.396183
_symmetry_space_group_name_H-M "P M M M"
_symmetry_group_IT_number 47
_symmetry_cell_setting 'orthorhombic'
loop_
_space_group_symop_operation_xyz
x,y,z
-x,-y,z
x,-y,-z
-x,y,-z
-x,-y,-z
x,y,-z
-x,y,z
x,-y,z
loop_
_atom_site_type_symbol
_atom_site_label
_atom_site_fract_x
_atom_site_fract_y
_atom_site_fract_z
Si Si1 0.111526 0.814772 0.204933
Si Si2 0.237593 0.775770 0.206716
Si Si3 0.434952 0.104055 0.500000
Si Si4 0.342423 0.897455 0.209476
Si Si5 0.065669 0.000000 0.290477
Si Si6 0.808380 0.595817 0.711244
Si Si7 0.062889 0.358759 0.297982
O O1 0.175722 0.804447 0.280538
O O2 0.069531 0.745203 0.291918
O O3 0.093889 0.912761 0.224951
O O4 0.111876 0.791854 0.000000
O O5 0.290812 0.833657 0.268771
O O6 0.234250 0.672504 0.232005
O O7 0.236108 0.793108 0.000000
O O8 0.500000 0.139220 0.500000
O O9 0.397820 0.125022 0.672823
O O10 0.439166 0.000000 0.500000
O O11 0.328499 0.000000 0.237733
O O12 0.352176 0.887223 0.000000
O O13 0.067613 0.000000 0.500000
O O14 0.000000 0.000000 0.231565
O O15 0.810703 0.599423 0.500000
O O16 0.790102 0.500000 0.764717
O O17 0.874931 0.610407 0.774858
O O18 0.061969 0.387355 0.500000
O O19 0.000000 0.382813 0.221460
#
# Coordination Sequence:
#
# PCOD9384414 Si02
#       7
#     8   8   4   8   4   8   8
#     4  10  20  32  46  63  83 112 151 197 245 291
#     4   9  19  33  49  69  95 126 159 200 247 292
#     4   9  18  32  50  78 111 145 183 210 236 280
#     4   9  18  32  50  75 108 143 176 212 247 285
#     4  11  23  35  43  57  83 113 151 196 243 298
#     4   9  18  31  47  68  92 120 156 200 251 303
#     4   9  17  30  46  62  84 113 147 191 244 303
#
# _framework density 17.483816999999998
#
# number of rings (size 3 to 8) (size 9 to 14) (size 15 to 20)
#    0.000    2.667    0.000    1.250    2.333    4.667 
#    0.000    3.333    0.000    0.000    0.000    4.667 
#    0.000    1.333    0.000    3.667    0.000    0.167 
#
# Total GULP energy -267406.266973 kJ/mol
# GULP energy per Si atom -5570.963895 kJ/mol
# Density = 1.744402 g / cm^3
# Si number density = 17.483817 Si / 1000 Ang^3
#
#
#
# Elastic Constant Matrix: (Units=GPa)
#
#
# Indices 1 2 3 4 5 6 
#
# 1 115.3848 45.8549 27.4118 0.0000 0.0000 0.0000
# 2 45.8549 92.8205 5.2200 0.0000 0.0000 0.0000
# 3 27.4118 5.2200 51.0279 0.0000 0.0000 0.0000
# 4 0.0000 0.0000 0.0000 16.2217 0.0000 0.0000
# 5 0.0000 0.0000 0.0000 0.0000 32.7622 0.0000
# 6 0.0000 0.0000 0.0000 0.0000 0.0000 -49.2761
#
#
#
# Elastic Compliance Matrix: (Units=1/GPa)
#
#
# Indices 1 2 3 4 5 6 
#
# 1 0.012411 -0.005789 -0.006075 0.000000 0.000000 0.000000
# 2 -0.005789 0.013537 0.001725 0.000000 0.000000 0.000000
# 3 -0.006075 0.001725 0.022684 0.000000 0.000000 0.000000
# 4 0.000000 0.000000 0.000000 0.061646 0.000000 0.000000
# 5 0.000000 0.000000 0.000000 0.000000 0.030523 0.000000
# 6 0.000000 0.000000 0.000000 0.000000 0.000000 -0.020294
#
#
# Mechanical properties :
#
#
# Convention : Reuss Voigt Hill
#
# Bulk Modulus (GPa) = 35.26903 46.24515 40.75709
# Shear Modulus (GPa) = 33.28131 11.99134 22.63632
#
# Velocity S-wave (km/s) = 4.36770 2.62172 3.60210
# Velocity P-wave (km/s) = 6.75662 5.97262 6.37668
#
# Compressibility (1/GPa) = 0.02835349
#
# Stress axis : x y z
#
# Youngs Moduli (GPa) = 80.57661 73.87424 44.08416
#
# Poissons Ratio (x) = 0.42769 0.26779
# Poissons Ratio (y) = 0.46649 -0.07606
# Poissons Ratio (z) = 0.48947 -0.12745
#
# Static dielectric constant tensor:
#      x y z
#    x 1.595510 0.000000 0.000000 
#    y 0.000000 1.567430 0.000000 
#    z 0.000000 0.000000 1.652900 
# 
# From -- ./inp_files/9224.got.cif
#   From: 2010.05.17/outbox.cif.g08.bks.cpg/sg47_5_cif.got.tgz:9224.got - 2010.06.03 20:15:42.
