data_PCOD9384355
_publ_section_title
;
Structure prediction by ZEFSAII (Michael W. Deem and Ramdas Pophale) SiO2 
 PCOD9384355
Probable space group: P M M M
;
_chemical_formula_sum "Si O2"
_cell_formula_units_Z 52
_cell_length_a 20.778132
_cell_length_b 23.382595
_cell_length_c 9.253796
_cell_angle_alpha 90.000000
_cell_angle_beta 90.000000
_cell_angle_gamma 90.000000
_cell_volume 4495.925744
_symmetry_space_group_name_H-M "P M M M"
_symmetry_group_IT_number 47
_symmetry_cell_setting 'orthorhombic'
loop_
_space_group_symop_operation_xyz
x,y,z
-x,-y,z
x,-y,-z
-x,y,-z
-x,-y,-z
x,y,-z
-x,y,z
x,-y,z
loop_
_atom_site_type_symbol
_atom_site_label
_atom_site_fract_x
_atom_site_fract_y
_atom_site_fract_z
Si Si1 0.576901 0.346234 0.671302
Si Si2 0.421753 0.770617 0.833381
Si Si3 0.578407 0.000000 0.832868
Si Si4 0.421539 0.114938 0.332757
Si Si5 0.329219 0.568318 0.828893
Si Si6 0.801451 0.430434 0.334466
Si Si7 0.071873 0.569524 0.168329
O O1 0.589516 0.344475 0.500000
O O2 0.500000 0.353504 0.691321
O O3 0.596067 0.286399 0.746316
O O4 0.615740 0.396873 0.747062
O O5 0.500000 0.772020 0.835093
O O6 0.400626 0.828160 0.751845
O O7 0.400317 0.768880 0.000000
O O8 0.598721 0.057321 0.749467
O O9 0.500000 0.000000 0.832877
O O10 0.598783 0.000000 0.000000
O O11 0.401359 0.115332 0.500000
O O12 0.500000 0.115127 0.332485
O O13 0.337164 0.500000 0.807992
O O14 0.260246 0.585115 0.761324
O O15 0.330654 0.579685 0.000000
O O16 0.794219 0.411581 0.500000
O O17 0.803406 0.500000 0.335149
O O18 0.868562 0.410590 0.264590
O O19 0.072073 0.500000 0.173125
O O20 0.000000 0.587813 0.214191
O O21 0.081066 0.585063 0.000000
#
# Coordination Sequence:
#
# PCOD9384355 Si02
#       7
#     8   8   4   8   8   8   8
#     4  10  20  32  44  56  68  81 100 130 168 208
#     4   9  16  26  39  52  65  81 101 125 154 190
#     4   9  15  21  29  43  63  85 107 127 147 175
#     4   9  15  22  32  46  64  84 104 125 150 180
#     4  10  20  32  44  55  67  84 105 130 163 205
#     4   9  16  25  37  52  69  87 106 128 154 186
#     4   8  13  21  33  49  69  91 111 128 146 172
#
# _framework density 11.566027999999999
#
# number of rings (size 3 to 8) (size 9 to 14) (size 15 to 20)
#    0.000    2.846    0.000    3.000    0.000    8.923 
#    0.000    3.077    0.000    0.000    0.000    0.000 
#    0.000    0.000    0.000    0.000    0.000    0.000 
#
# Total GULP energy -289522.322166 kJ/mol
# GULP energy per Si atom -5567.736965 kJ/mol
# Density = 1.153970 g / cm^3
# Si number density = 11.566028 Si / 1000 Ang^3
#
#
#
# Elastic Constant Matrix: (Units=GPa)
#
#
# Indices 1 2 3 4 5 6 
#
# 1 40.5279 30.3298 44.9103 0.0000 0.0000 0.0000
# 2 30.3298 53.8695 53.7488 0.0000 0.0000 0.0000
# 3 44.9103 53.7488 117.5310 0.0000 0.0000 0.0000
# 4 0.0000 0.0000 0.0000 18.7205 0.0000 0.0000
# 5 0.0000 0.0000 0.0000 0.0000 15.2890 0.0000
# 6 0.0000 0.0000 0.0000 0.0000 0.0000 -0.3372
#
#
#
# Elastic Compliance Matrix: (Units=1/GPa)
#
#
# Indices 1 2 3 4 5 6 
#
# 1 0.049767 -0.016637 -0.011408 0.000000 0.000000 0.000000
# 2 -0.016637 0.039704 -0.011800 0.000000 0.000000 0.000000
# 3 -0.011408 -0.011800 0.018264 0.000000 0.000000 0.000000
# 4 0.000000 0.000000 0.000000 0.053417 0.000000 0.000000
# 5 0.000000 0.000000 0.000000 0.000000 0.065407 0.000000
# 6 0.000000 0.000000 0.000000 0.000000 0.000000 -2.965863
#
#
# Mechanical properties :
#
#
# Convention : Reuss Voigt Hill
#
# Bulk Modulus (GPa) = 35.65813 52.21180 43.93496
# Shear Modulus (GPa) = -1.88660 12.26377 5.18858
#
# Velocity S-wave (km/s) = -1.27855 3.25980 2.12033
# Velocity P-wave (km/s) = 5.35886 7.70771 6.63800
#
# Compressibility (1/GPa) = 0.02804410
#
# Stress axis : x y z
#
# Youngs Moduli (GPa) = 20.09364 25.18637 54.75276
#
# Poissons Ratio (x) = 0.41903 0.62463
# Poissons Ratio (y) = 0.33430 0.64608
# Poissons Ratio (z) = 0.22923 0.29720
#
# Static dielectric constant tensor:
#      x y z
#    x 1.355930 0.000000 0.000000 
#    y 0.000000 1.359180 0.000000 
#    z 0.000000 0.000000 1.387630 
# 
# From -- ./inp_files/10117.got.cif
#   From: 2010.05.17/outbox.cif.g08.bks.cpg/sg47_6_cif.got.tgz:10117.got - 2010.06.03 20:15:42.
