data_PCOD9384009
_publ_section_title
;
Structure prediction by ZEFSAII (Michael W. Deem and Ramdas Pophale) SiO2 
 PCOD9384009
Probable space group: P M M M
;
_chemical_formula_sum "Si O2"
_cell_formula_units_Z 56
_cell_length_a 22.526751
_cell_length_b 8.839030
_cell_length_c 15.371710
_cell_angle_alpha 90.000000
_cell_angle_beta 90.000000
_cell_angle_gamma 90.000000
_cell_volume 3060.732317
_symmetry_space_group_name_H-M "P M M M"
_symmetry_group_IT_number 47
_symmetry_cell_setting 'orthorhombic'
loop_
_space_group_symop_operation_xyz
x,y,z
-x,-y,z
x,-y,-z
-x,y,-z
-x,-y,-z
x,y,-z
-x,y,z
x,-y,z
loop_
_atom_site_type_symbol
_atom_site_label
_atom_site_fract_x
_atom_site_fract_y
_atom_site_fract_z
Si Si1 0.570598 0.180204 0.099223
Si Si2 0.334973 0.320263 0.773371
Si Si3 0.123747 0.320402 0.839382
Si Si4 0.709356 0.818335 0.598964
Si Si5 0.067477 0.816470 0.500000
Si Si6 0.000000 0.823446 0.895481
Si Si7 0.759721 0.179412 0.902875
Si Si8 0.844873 0.182122 0.345062
O O1 0.500000 0.201325 0.110283
O O2 0.608126 0.262741 0.172857
O O3 0.582893 0.000000 0.104356
O O4 0.585569 0.228796 0.000000
O O5 0.333679 0.500000 0.770571
O O6 0.328548 0.255290 0.676107
O O7 0.279479 0.259090 0.829833
O O8 0.125139 0.500000 0.850183
O O9 0.059040 0.256182 0.860603
O O10 0.173780 0.242112 0.898351
O O11 0.142208 0.271352 0.742493
O O12 0.695521 0.769737 0.500000
O O13 0.778942 0.786871 0.618792
O O14 0.702318 0.000000 0.603220
O O15 0.105669 0.774813 0.415768
O O16 0.000000 0.759809 0.500000
O O17 0.065172 0.000000 0.500000
O O18 0.000000 0.000000 0.869626
O O19 0.000000 0.815129 0.000000
O O20 0.759945 0.000000 0.886483
O O21 0.735326 0.205556 0.000000
O O22 0.848345 0.000000 0.329335
#
# Coordination Sequence:
#
# PCOD9384009 Si02
#       8
#     8   8   8   8   4   4   8   8
#     4   9  19  38  64  92 124 166 212 252 292 346
#     4  12  24  36  56  90 128 162 197 244 304 358
#     4  12  25  39  57  84 115 144 180 233 297 354
#     4  10  20  37  61  85 113 155 206 252 294 351
#     4   9  18  32  55  87 111 137 185 240 289 344
#     4  11  25  45  65  80  99 140 193 235 280 347
#     4  11  23  39  59  82 112 153 199 243 287 344
#     4  10  19  35  58  82 110 146 188 233 285 350
#
# _framework density 18.296275000000001
#
# number of rings (size 3 to 8) (size 9 to 14) (size 15 to 20)
#    0.000    1.429    2.143    4.500    1.000    6.000 
#    0.000    1.071    0.000    0.857    0.000    3.000 
#    0.000    0.000    0.000    0.000    0.000    0.000 
#
# Total GULP energy -312966.457576 kJ/mol
# GULP energy per Si atom -5588.686742 kJ/mol
# Density = 1.825463 g / cm^3
# Si number density = 18.296275 Si / 1000 Ang^3
#
#
#
# Elastic Constant Matrix: (Units=GPa)
#
#
# Indices 1 2 3 4 5 6 
#
# 1 81.5985 44.6293 59.3568 0.0000 0.0000 0.0000
# 2 44.6293 74.1422 66.5579 0.0000 0.0000 0.0000
# 3 59.3568 66.5579 153.0386 0.0000 0.0000 0.0000
# 4 0.0000 0.0000 0.0000 -190.3194 0.0000 0.0000
# 5 0.0000 0.0000 0.0000 0.0000 4.4636 0.0000
# 6 0.0000 0.0000 0.0000 0.0000 0.0000 -4.6740
#
#
#
# Elastic Compliance Matrix: (Units=1/GPa)
#
#
# Indices 1 2 3 4 5 6 
#
# 1 0.019707 -0.008204 -0.004075 0.000000 0.000000 0.000000
# 2 -0.008204 0.025541 -0.007926 0.000000 0.000000 0.000000
# 3 -0.004075 -0.007926 0.011562 0.000000 0.000000 0.000000
# 4 0.000000 0.000000 0.000000 -0.005254 0.000000 0.000000
# 5 0.000000 0.000000 0.000000 0.000000 0.224036 0.000000
# 6 0.000000 0.000000 0.000000 0.000000 0.000000 -0.213948
#
#
# Mechanical properties :
#
#
# Convention : Reuss Voigt Hill
#
# Bulk Modulus (GPa) = 60.97855 72.20747 66.59301
# Shear Modulus (GPa) = 46.50251 -28.89028 8.80611
#
# Velocity S-wave (km/s) = 5.04694 -3.97801 2.19625
# Velocity P-wave (km/s) = 8.20749 4.29558 6.55037
#
# Compressibility (1/GPa) = 0.01639921
#
# Stress axis : x y z
#
# Youngs Moduli (GPa) = 50.74433 39.15250 86.48888
#
# Poissons Ratio (x) = 0.32119 0.35248
# Poissons Ratio (y) = 0.41629 0.68553
# Poissons Ratio (z) = 0.20681 0.31033
#
# Static dielectric constant tensor:
#      x y z
#    x 1.621760 0.000000 0.000000 
#    y 0.000000 1.604840 0.000000 
#    z 0.000000 0.000000 1.640200 
# 
# From -- ./inp_files/25180.got.cif
#   From: 2010.05.17/outbox.cif.g08.bks.cpg/sg47_13_cif.got.tgz:25180.got - 2010.06.03 20:15:42.
