data_PCOD9384918
_publ_section_title
;
Structure prediction by ZEFSAII (Michael W. Deem and Ramdas Pophale) SiO2 
 PCOD9384918
Probable space group: P M M M
;
_chemical_formula_sum "Si O2"
_cell_formula_units_Z 52
_cell_length_a 23.834839
_cell_length_b 9.370604
_cell_length_c 15.452902
_cell_angle_alpha 90.000000
_cell_angle_beta 90.000000
_cell_angle_gamma 90.000000
_cell_volume 3451.356795
_symmetry_space_group_name_H-M "P M M M"
_symmetry_group_IT_number 47
_symmetry_cell_setting 'orthorhombic'
loop_
_space_group_symop_operation_xyz
x,y,z
-x,-y,z
x,-y,-z
-x,y,-z
-x,-y,-z
x,y,-z
-x,y,z
x,-y,z
loop_
_atom_site_type_symbol
_atom_site_label
_atom_site_fract_x
_atom_site_fract_y
_atom_site_fract_z
Si Si1 0.562000 0.665747 0.104883
Si Si2 0.066406 0.160110 0.000000
Si Si3 0.325810 0.828912 0.101144
Si Si4 0.108937 0.332317 0.163502
Si Si5 0.175736 0.170129 0.404725
Si Si6 0.779768 0.828537 0.779095
Si Si7 0.063075 0.331648 0.353684
O O1 0.500000 0.715075 0.134249
O O2 0.568729 0.500000 0.130045
O O3 0.615842 0.757462 0.129628
O O4 0.560940 0.669388 0.000000
O O5 0.083651 0.247442 0.084051
O O6 0.000000 0.147726 0.000000
O O7 0.091274 0.000000 0.000000
O O8 0.275907 0.791250 0.167176
O O9 0.331794 0.000000 0.102044
O O10 0.313779 0.788061 0.000000
O O11 0.114687 0.500000 0.144766
O O12 0.168534 0.260099 0.183126
O O13 0.071445 0.318274 0.250031
O O14 0.198233 0.206557 0.500000
O O15 0.216589 0.203123 0.323939
O O16 0.115696 0.247182 0.392589
O O17 0.165892 0.000000 0.401501
O O18 0.788521 0.000000 0.789489
O O19 0.067969 0.500000 0.375154
O O20 0.000000 0.284367 0.378009
#
# Coordination Sequence:
#
# PCOD9384918 Si02
#       7
#     8   4   8   8   8   8   8
#     4   8  14  25  40  59  86 120 153 182 211 244
#     4  11  23  35  47  63  83 111 146 181 220 265
#     4   9  17  27  41  63  89 119 150 180 214 253
#     4  10  20  33  48  65  84 110 144 182 221 261
#     4   9  18  32  48  65  85 111 143 178 218 265
#     4   9  18  32  47  64  89 118 146 181 222 264
#     4   9  18  32  48  65  86 109 133 169 220 273
#
# _framework density 15.066538
#
# number of rings (size 3 to 8) (size 9 to 14) (size 15 to 20)
#    0.000    2.846    0.000    1.615    1.077    3.692 
#    0.000    3.077    0.000    0.000    0.000    0.000 
#    0.000    0.615    0.000    7.692    0.000    1.538 
#
# Total GULP energy -289543.023814 kJ/mol
# GULP energy per Si atom -5568.135073 kJ/mol
# Density = 1.503225 g / cm^3
# Si number density = 15.066538 Si / 1000 Ang^3
#
#
#
# Elastic Constant Matrix: (Units=GPa)
#
#
# Indices 1 2 3 4 5 6 
#
# 1 107.4453 32.0538 46.8909 0.0000 0.0000 0.0000
# 2 32.0538 34.1097 34.5163 0.0000 0.0000 0.0000
# 3 46.8909 34.5163 86.6470 0.0000 0.0000 0.0000
# 4 0.0000 0.0000 0.0000 14.2234 0.0000 0.0000
# 5 0.0000 0.0000 0.0000 0.0000 -10.0292 0.0000
# 6 0.0000 0.0000 0.0000 0.0000 0.0000 22.7304
#
#
#
# Elastic Compliance Matrix: (Units=1/GPa)
#
#
# Indices 1 2 3 4 5 6 
#
# 1 0.013646 -0.008964 -0.003814 0.000000 0.000000 0.000000
# 2 -0.008964 0.055004 -0.017060 0.000000 0.000000 0.000000
# 3 -0.003814 -0.017060 0.020401 0.000000 0.000000 0.000000
# 4 0.000000 0.000000 0.000000 0.070306 0.000000 0.000000
# 5 0.000000 0.000000 0.000000 0.000000 -0.099709 0.000000
# 6 0.000000 0.000000 0.000000 0.000000 0.000000 0.043994
#
#
# Mechanical properties :
#
#
# Convention : Reuss Voigt Hill
#
# Bulk Modulus (GPa) = 34.04240 50.56932 42.30586
# Shear Modulus (GPa) = 28.88340 13.03434 20.95887
#
# Velocity S-wave (km/s) = 4.38317 2.94448 3.73377
# Velocity P-wave (km/s) = 6.94694 6.72286 6.83582
#
# Compressibility (1/GPa) = 0.02937513
#
# Stress axis : x y z
#
# Youngs Moduli (GPa) = 73.28353 18.18037 49.01709
#
# Poissons Ratio (x) = 0.16297 0.18694
# Poissons Ratio (y) = 0.65690 0.83625
# Poissons Ratio (z) = 0.27949 0.31016
#
# Static dielectric constant tensor:
#      x y z
#    x 1.483770 0.000000 0.000000 
#    y 0.000000 1.503840 0.000000 
#    z 0.000000 0.000000 1.510610 
# 
# From -- ./inp_files/12479.got.cif
#   From: 2010.05.17/outbox.cif.g08.bks.cpg/sg47_7_cif.got.tgz:12479.got - 2010.06.03 20:15:42.
