data_PCOD9384070
_publ_section_title
;
Structure prediction by ZEFSAII (Michael W. Deem and Ramdas Pophale) SiO2 
 PCOD9384070
Probable space group: P M M M
;
_chemical_formula_sum "Si O2"
_cell_formula_units_Z 41
_cell_length_a 29.945334
_cell_length_b 10.402047
_cell_length_c 7.726366
_cell_angle_alpha 90.000000
_cell_angle_beta 90.000000
_cell_angle_gamma 90.000000
_cell_volume 2406.707160
_symmetry_space_group_name_H-M "P M M M"
_symmetry_group_IT_number 47
_symmetry_cell_setting 'orthorhombic'
loop_
_space_group_symop_operation_xyz
x,y,z
-x,-y,z
x,-y,-z
-x,y,-z
-x,-y,-z
x,y,-z
-x,y,z
x,-y,z
loop_
_atom_site_type_symbol
_atom_site_label
_atom_site_fract_x
_atom_site_fract_y
_atom_site_fract_z
Si Si1 0.883748 0.342880 0.500000
Si Si2 0.715359 0.344789 0.801877
Si Si3 0.500000 0.000000 0.000000
Si Si4 0.781184 0.656920 0.500000
Si Si5 0.448305 0.500000 0.211364
Si Si6 0.615352 0.264972 0.210037
Si Si7 0.949422 0.656355 0.198194
Si Si8 0.573278 0.000000 0.692290
O O1 0.883304 0.500000 0.500000
O O2 0.832473 0.300429 0.500000
O O3 0.911863 0.301310 0.667879
O O4 0.715309 0.500000 0.803425
O O5 0.753360 0.302187 0.668969
O O6 0.665817 0.303412 0.745101
O O7 0.722825 0.301514 0.000000
O O8 0.538279 0.000000 0.847785
O O9 0.781615 0.500000 0.500000
O O10 0.500000 0.500000 0.268650
O O11 0.420330 0.625848 0.264418
O O12 0.449097 0.500000 0.000000
O O13 0.602238 0.128440 0.285615
O O14 0.613150 0.259230 0.000000
O O15 0.949168 0.500000 0.199822
O O16 0.000000 0.694745 0.248185
O O17 0.941289 0.696129 0.000000
O O18 0.553333 0.000000 0.500000
#
# Coordination Sequence:
#
# PCOD9384070 Si02
#       8
#     4   8   1   4   4   8   8   4
#     4   9  15  22  31  48  75 103 140 187 247 301
#     4   9  17  31  50  71  94 124 162 200 244 296
#     4  12  26  52  60  76 120 148 158 206 256 302
#     4   9  18  27  40  64  87 116 150 199 258 300
#     4   9  18  30  57  85 107 135 170 200 244 296
#     4  10  19  37  58  83 109 139 169 208 250 300
#     4   8  13  20  30  44  65 100 144 189 237 289
#     4  12  27  41  63  88 109 141 172 199 251 306
#
# _framework density 17.035724999999999
#
# number of rings (size 3 to 8) (size 9 to 14) (size 15 to 20)
#    0.000    2.634    1.951    1.024    2.732    1.951 
#    0.000    4.390    0.000    0.585    0.000    0.000 
#    0.000    0.000    0.000    0.000    0.000    0.000 
#
# Total GULP energy -228236.823867 kJ/mol
# GULP energy per Si atom -5566.751802 kJ/mol
# Density = 1.699695 g / cm^3
# Si number density = 17.035725 Si / 1000 Ang^3
#
#
#
# Elastic Constant Matrix: (Units=GPa)
#
#
# Indices 1 2 3 4 5 6 
#
# 1 185.5164 32.5191 94.7592 0.0000 0.0000 0.0000
# 2 32.5191 51.6431 16.2547 0.0000 0.0000 0.0000
# 3 94.7592 16.2547 107.0837 0.0000 0.0000 0.0000
# 4 0.0000 0.0000 0.0000 -1.1045 0.0000 0.0000
# 5 0.0000 0.0000 0.0000 0.0000 12.6978 0.0000
# 6 0.0000 0.0000 0.0000 0.0000 0.0000 10.6503
#
#
#
# Elastic Compliance Matrix: (Units=1/GPa)
#
#
# Indices 1 2 3 4 5 6 
#
# 1 0.010529 -0.003883 -0.008728 0.000000 0.000000 0.000000
# 2 -0.003883 0.021767 0.000132 0.000000 0.000000 0.000000
# 3 -0.008728 0.000132 0.017042 0.000000 0.000000 0.000000
# 4 0.000000 0.000000 0.000000 -0.905375 0.000000 0.000000
# 5 0.000000 0.000000 0.000000 0.000000 0.078754 0.000000
# 6 0.000000 0.000000 0.000000 0.000000 0.000000 0.093894
#
#
# Mechanical properties :
#
#
# Convention : Reuss Voigt Hill
#
# Bulk Modulus (GPa) = 41.01667 70.14547 55.58107
# Shear Modulus (GPa) = -7.68870 17.82939 5.07035
#
# Velocity S-wave (km/s) = -2.12675 3.23861 1.72707
# Velocity P-wave (km/s) = 4.25422 7.43301 6.05591
#
# Compressibility (1/GPa) = 0.02438033
#
# Stress axis : x y z
#
# Youngs Moduli (GPa) = 94.97529 45.94063 58.67927
#
# Poissons Ratio (x) = 0.17839 0.51214
# Poissons Ratio (y) = 0.36878 -0.00774
# Poissons Ratio (z) = 0.82893 -0.00606
#
# Static dielectric constant tensor:
#      x y z
#    x 1.561390 0.000000 0.000000 
#    y 0.000000 1.543230 0.000000 
#    z 0.000000 0.000000 1.609800 
# 
# From -- ./inp_files/13138.got.cif
#   From: 2010.05.17/outbox.cif.g08.bks.cpg/sg47_7_cif.got.tgz:13138.got - 2010.06.03 20:15:42.
