data_PCOD9384131
_publ_section_title
;
Structure prediction by ZEFSAII (Michael W. Deem and Ramdas Pophale) SiO2 
 PCOD9384131
Probable space group: P M M M
;
_chemical_formula_sum "Si O2"
_cell_formula_units_Z 64
_cell_length_a 9.402766
_cell_length_b 22.019225
_cell_length_c 14.934760
_cell_angle_alpha 90.000000
_cell_angle_beta 90.000000
_cell_angle_gamma 90.000000
_cell_volume 3092.116907
_symmetry_space_group_name_H-M "P M M M"
_symmetry_group_IT_number 47
_symmetry_cell_setting 'orthorhombic'
loop_
_space_group_symop_operation_xyz
x,y,z
-x,-y,z
x,-y,-z
-x,y,-z
-x,-y,-z
x,y,-z
-x,y,z
x,-y,z
loop_
_atom_site_type_symbol
_atom_site_label
_atom_site_fract_x
_atom_site_fract_y
_atom_site_fract_z
Si Si1 0.336858 0.567777 0.107677
Si Si2 0.843206 0.322914 0.354223
Si Si3 0.329311 0.067133 0.216989
Si Si4 0.159923 0.689838 0.856558
Si Si5 0.339340 0.785473 0.369971
Si Si6 0.655614 0.569749 0.392085
Si Si7 0.338636 0.804421 0.844989
Si Si8 0.829986 0.904645 0.400153
O O1 0.500000 0.576077 0.139612
O O2 0.287939 0.500000 0.138079
O O3 0.243941 0.626900 0.128902
O O4 0.341337 0.565207 0.000000
O O5 0.852634 0.304865 0.250616
O O6 0.724185 0.279391 0.395432
O O7 0.784341 0.390524 0.358331
O O8 0.000000 0.316633 0.393819
O O9 0.500000 0.074093 0.232342
O O10 0.286283 0.125340 0.156614
O O11 0.250554 0.069099 0.313325
O O12 0.305165 0.000000 0.177663
O O13 0.243680 0.750676 0.886059
O O14 0.000000 0.686749 0.893400
O O15 0.500000 0.795770 0.401496
O O16 0.345954 0.790810 0.261910
O O17 0.228092 0.835916 0.400840
O O18 0.658044 0.571037 0.500000
O O19 0.500000 0.593481 0.363023
O O20 0.665930 0.500000 0.364097
O O21 0.500000 0.801798 0.880443
O O22 0.798650 0.929949 0.500000
O O23 0.000000 0.907745 0.387213
#
# Coordination Sequence:
#
# PCOD9384131 Si02
#       8
#     8   8   8   8   8   8   8   8
#     4   9  19  36  56  78 106 141 178 210 240 280
#     4  10  20  32  47  69  94 118 149 192 242 296
#     4   9  18  32  49  68  90 120 160 205 253 303
#     4  10  20  32  49  75 105 135 166 202 243 288
#     4   9  17  30  47  63  80 107 144 186 234 284
#     4   9  19  35  50  62  79 107 146 192 241 293
#     4   8  15  29  48  68  91 120 155 197 241 283
#     4  10  20  31  42  59  85 116 151 193 243 300
#
# _framework density 20.697793999999998
#
# number of rings (size 3 to 8) (size 9 to 14) (size 15 to 20)
#    0.000    2.750    0.000    3.000    0.000    8.000 
#    0.000    5.000    0.000    0.000    0.000    0.000 
#    0.000    0.500    0.000    5.750    0.000    1.625 
#
# Total GULP energy -356699.467178 kJ/mol
# GULP energy per Si atom -5573.429175 kJ/mol
# Density = 2.065068 g / cm^3
# Si number density = 20.697794 Si / 1000 Ang^3
#
#
#
# Elastic Constant Matrix: (Units=GPa)
#
#
# Indices 1 2 3 4 5 6 
#
# 1 84.4107 71.7424 3.2999 0.0000 0.0000 0.0000
# 2 71.7424 164.6326 0.8947 0.0000 0.0000 0.0000
# 3 3.2999 0.8947 35.4218 0.0000 0.0000 0.0000
# 4 0.0000 0.0000 0.0000 67.0100 0.0000 0.0000
# 5 0.0000 0.0000 0.0000 0.0000 8.2714 0.0000
# 6 0.0000 0.0000 0.0000 0.0000 0.0000 5.0266
#
#
#
# Elastic Compliance Matrix: (Units=1/GPa)
#
#
# Indices 1 2 3 4 5 6 
#
# 1 0.018901 -0.008228 -0.001553 0.000000 0.000000 0.000000
# 2 -0.008228 0.009657 0.000523 0.000000 0.000000 0.000000
# 3 -0.001553 0.000523 0.028363 0.000000 0.000000 0.000000
# 4 0.000000 0.000000 0.000000 0.014923 0.000000 0.000000
# 5 0.000000 0.000000 0.000000 0.000000 0.120898 0.000000
# 6 0.000000 0.000000 0.000000 0.000000 0.000000 0.198944
#
#
# Mechanical properties :
#
#
# Convention : Reuss Voigt Hill
#
# Bulk Modulus (GPa) = 26.03926 48.48211 37.26068
# Shear Modulus (GPa) = 11.82026 29.96347 20.89186
#
# Velocity S-wave (km/s) = 2.39234 3.80895 3.18051
# Velocity P-wave (km/s) = 4.49878 6.54360 5.61506
#
# Compressibility (1/GPa) = 0.03840356
#
# Stress axis : x y z
#
# Youngs Moduli (GPa) = 52.90815 103.55375 35.25757
#
# Poissons Ratio (x) = 0.85204 0.05475
# Poissons Ratio (y) = 0.43533 -0.01843
# Poissons Ratio (z) = 0.08216 -0.05412
#
# Static dielectric constant tensor:
#      x y z
#    x 1.727030 0.000000 0.000000 
#    y 0.000000 1.777860 0.000000 
#    z 0.000000 0.000000 1.769650 
# 
# From -- ./inp_files/27042.got.cif
#   From: 2010.05.17/outbox.cif.g08.bks.cpg/sg47_14_cif.got.tgz:27042.got - 2010.06.03 20:15:42.
