data_PCOD9384665
_publ_section_title
;
Structure prediction by ZEFSAII (Michael W. Deem and Ramdas Pophale) SiO2 
 PCOD9384665
Probable space group: P M M M
;
_chemical_formula_sum "Si O2"
_cell_formula_units_Z 52
_cell_length_a 22.932490
_cell_length_b 16.118256
_cell_length_c 8.807798
_cell_angle_alpha 90.000000
_cell_angle_beta 90.000000
_cell_angle_gamma 90.000000
_cell_volume 3255.641740
_symmetry_space_group_name_H-M "P M M M"
_symmetry_group_IT_number 47
_symmetry_cell_setting 'orthorhombic'
loop_
_space_group_symop_operation_xyz
x,y,z
-x,-y,z
x,-y,-z
-x,y,-z
-x,-y,-z
x,y,-z
-x,y,z
x,-y,z
loop_
_atom_site_type_symbol
_atom_site_label
_atom_site_fract_x
_atom_site_fract_y
_atom_site_fract_z
Si Si1 0.195335 0.908629 0.316349
Si Si2 0.091695 0.294968 0.821400
Si Si3 0.686942 0.403070 0.318963
Si Si4 0.000000 0.402619 0.328512
Si Si5 0.226863 0.266336 0.179581
Si Si6 0.435786 0.399668 0.823851
Si Si7 0.063391 0.122246 0.318616
O O1 0.195590 0.901190 0.500000
O O2 0.226312 0.826951 0.249325
O O3 0.126909 0.908899 0.265271
O O4 0.219694 0.000000 0.276804
O O5 0.056645 0.373060 0.762050
O O6 0.160723 0.298480 0.796769
O O7 0.066874 0.218296 0.725859
O O8 0.081209 0.280772 0.000000
O O9 0.692486 0.402705 0.500000
O O10 0.696906 0.500000 0.267743
O O11 0.730080 0.334513 0.249912
O O12 0.621095 0.378251 0.271701
O O13 0.000000 0.500000 0.338691
O O14 0.000000 0.367643 0.500000
O O15 0.237662 0.260030 0.000000
O O16 0.500000 0.370650 0.771112
O O17 0.437828 0.500000 0.822515
O O18 0.428304 0.374418 0.000000
O O19 0.063136 0.109946 0.500000
O O20 0.000000 0.091439 0.261886
#
# Coordination Sequence:
#
# PCOD9384665 Si02
#       7
#     8   8   8   4   8   8   8
#     4   9  18  32  49  70  96 124 155 194 240 292
#     4  10  20  33  48  64  83 110 146 188 234 283
#     4  10  20  32  48  72 101 133 169 207 243 282
#     4  11  23  35  47  63  82 107 142 187 239 292
#     4  10  21  35  51  70  94 127 162 200 245 291
#     4   8  14  26  45  69  99 135 169 199 234 277
#     4   9  16  27  46  68  89 114 141 173 221 283
#
# _framework density 15.972275
#
# number of rings (size 3 to 8) (size 9 to 14) (size 15 to 20)
#    0.000    2.538    0.769    2.077    0.000    4.923 
#    0.000    6.154    0.000    0.000    0.000    4.308 
#    0.000    0.615    0.000    6.462    0.000    3.077 
#
# Total GULP energy -289493.874915 kJ/mol
# GULP energy per Si atom -5567.189902 kJ/mol
# Density = 1.593592 g / cm^3
# Si number density = 15.972275 Si / 1000 Ang^3
#
#
#
# Elastic Constant Matrix: (Units=GPa)
#
#
# Indices 1 2 3 4 5 6 
#
# 1 89.1855 57.1998 37.7446 0.0000 0.0000 0.0000
# 2 57.1998 107.0217 36.2685 0.0000 0.0000 0.0000
# 3 37.7446 36.2685 36.1133 0.0000 0.0000 0.0000
# 4 0.0000 0.0000 0.0000 8.6063 0.0000 0.0000
# 5 0.0000 0.0000 0.0000 0.0000 21.9842 0.0000
# 6 0.0000 0.0000 0.0000 0.0000 0.0000 14.6849
#
#
#
# Elastic Compliance Matrix: (Units=1/GPa)
#
#
# Indices 1 2 3 4 5 6 
#
# 1 0.022490 -0.006146 -0.017334 0.000000 0.000000 0.000000
# 2 -0.006146 0.015844 -0.009489 0.000000 0.000000 0.000000
# 3 -0.017334 -0.009489 0.055337 0.000000 0.000000 0.000000
# 4 0.000000 0.000000 0.000000 0.116194 0.000000 0.000000
# 5 0.000000 0.000000 0.000000 0.000000 0.045487 0.000000
# 6 0.000000 0.000000 0.000000 0.000000 0.000000 0.068097
#
#
# Mechanical properties :
#
#
# Convention : Reuss Voigt Hill
#
# Bulk Modulus (GPa) = 36.05626 54.97181 45.51404
# Shear Modulus (GPa) = 12.54289 15.79558 14.16923
#
# Velocity S-wave (km/s) = 2.80535 3.14815 2.98168
# Velocity P-wave (km/s) = 5.75470 6.90697 6.35699
#
# Compressibility (1/GPa) = 0.02773443
#
# Stress axis : x y z
#
# Youngs Moduli (GPa) = 44.46333 63.11342 18.07114
#
# Poissons Ratio (x) = 0.38791 0.31324
# Poissons Ratio (y) = 0.27328 0.17147
# Poissons Ratio (z) = 0.77072 0.59886
#
# Static dielectric constant tensor:
#      x y z
#    x 1.541960 0.000000 0.000000 
#    y 0.000000 1.547720 0.000000 
#    z 0.000000 0.000000 1.544480 
# 
# From -- ./inp_files/11043.got.cif
#   From: 2010.05.17/outbox.cif.g08.bks.cpg/sg47_6_cif.got.tgz:11043.got - 2010.06.03 20:15:42.
