data_PCOD9384676
_publ_section_title
;
Structure prediction by ZEFSAII (Michael W. Deem and Ramdas Pophale) SiO2 
 PCOD9384676
Probable space group: P M M M
;
_chemical_formula_sum "Si O2"
_cell_formula_units_Z 52
_cell_length_a 9.951190
_cell_length_b 34.140720
_cell_length_c 7.559382
_cell_angle_alpha 90.000000
_cell_angle_beta 90.000000
_cell_angle_gamma 90.000000
_cell_volume 2568.230424
_symmetry_space_group_name_H-M "P M M M"
_symmetry_group_IT_number 47
_symmetry_cell_setting 'orthorhombic'
loop_
_space_group_symop_operation_xyz
x,y,z
-x,-y,z
x,-y,-z
-x,y,-z
-x,-y,-z
x,y,-z
-x,y,z
x,-y,z
loop_
_atom_site_type_symbol
_atom_site_label
_atom_site_fract_x
_atom_site_fract_y
_atom_site_fract_z
Si Si1 0.848833 0.841040 0.213126
Si Si2 0.845150 0.702083 0.716189
Si Si3 0.347627 0.543283 0.212104
Si Si4 0.348125 0.770616 0.289709
Si Si5 0.847388 0.930418 0.784293
Si Si6 0.654488 0.000000 0.783369
Si Si7 0.150575 0.385774 0.288595
O O1 0.736172 0.810254 0.265152
O O2 0.821745 0.885653 0.272116
O O3 0.000000 0.829829 0.274082
O O4 0.852446 0.841735 0.000000
O O5 0.843798 0.702970 0.500000
O O6 0.741796 0.734743 0.781011
O O7 0.809480 0.657809 0.773496
O O8 0.000000 0.710013 0.768641
O O9 0.500000 0.549774 0.277302
O O10 0.302440 0.500000 0.275037
O O11 0.251271 0.579136 0.252775
O O12 0.354046 0.541290 0.000000
O O13 0.358868 0.764367 0.500000
O O14 0.500000 0.772579 0.218470
O O15 0.000000 0.941110 0.731635
O O16 0.737620 0.961733 0.726054
O O17 0.846107 0.930593 0.000000
O O18 0.500000 0.000000 0.725991
O O19 0.654028 0.000000 0.000000
O O20 0.141959 0.382613 0.500000
O O21 0.000000 0.394227 0.221082
#
# Coordination Sequence:
#
# PCOD9384676 Si02
#       7
#     8   8   8   8   8   4   8
#     4   9  18  32  49  69  93 123 159 196 235 278
#     4   8  15  30  50  69  92 123 156 191 232 276
#     4   9  19  35  51  68  95 131 166 196 228 272
#     4  10  20  32  48  72  98 124 157 194 232 279
#     4   8  14  25  40  58  83 115 149 186 227 270
#     4   9  15  21  33  57  86 115 148 183 222 272
#     4   9  18  32  51  76 100 120 150 195 241 281
#
# _framework density 20.247404
#
# number of rings (size 3 to 8) (size 9 to 14) (size 15 to 20)
#    0.000    3.154    0.000    3.000    0.000    4.615 
#    0.000    6.154    0.000    0.923    0.000    0.538 
#    0.000    4.308    0.000    0.000    0.000    0.000 
#
# Total GULP energy -290013.605474 kJ/mol
# GULP energy per Si atom -5577.184721 kJ/mol
# Density = 2.020132 g / cm^3
# Si number density = 20.247404 Si / 1000 Ang^3
#
#
#
# Elastic Constant Matrix: (Units=GPa)
#
#
# Indices 1 2 3 4 5 6 
#
# 1 188.3112 155.1700 5.7784 0.0000 0.0000 0.0000
# 2 155.1700 184.2186 3.2086 0.0000 0.0000 0.0000
# 3 5.7784 3.2086 44.2614 0.0000 0.0000 0.0000
# 4 0.0000 0.0000 0.0000 13.3380 0.0000 0.0000
# 5 0.0000 0.0000 0.0000 0.0000 15.2392 0.0000
# 6 0.0000 0.0000 0.0000 0.0000 0.0000 -54.7128
#
#
#
# Elastic Compliance Matrix: (Units=1/GPa)
#
#
# Indices 1 2 3 4 5 6 
#
# 1 0.017423 -0.014655 -0.001212 0.000000 0.000000 0.000000
# 2 -0.014655 0.017761 0.000626 0.000000 0.000000 0.000000
# 3 -0.001212 0.000626 0.022706 0.000000 0.000000 0.000000
# 4 0.000000 0.000000 0.000000 0.074974 0.000000 0.000000
# 5 0.000000 0.000000 0.000000 0.000000 0.065620 0.000000
# 6 0.000000 0.000000 0.000000 0.000000 0.000000 -0.018277
#
#
# Mechanical properties :
#
#
# Convention : Reuss Voigt Hill
#
# Bulk Modulus (GPa) = 36.48600 82.78948 59.63774
# Shear Modulus (GPa) = 22.74533 11.61516 17.18025
#
# Velocity S-wave (km/s) = 3.35531 2.39772 2.91609
# Velocity P-wave (km/s) = 5.75065 6.97446 6.39191
#
# Compressibility (1/GPa) = 0.02740777
#
# Stress axis : x y z
#
# Youngs Moduli (GPa) = 57.39518 56.30248 44.04134
#
# Poissons Ratio (x) = 0.82509 0.05339
# Poissons Ratio (y) = 0.84110 -0.02755
# Poissons Ratio (z) = 0.06958 -0.03523
#
# Static dielectric constant tensor:
#      x y z
#    x 1.700670 0.000000 0.000000 
#    y 0.000000 1.706870 0.000000 
#    z 0.000000 0.000000 1.792000 
# 
# From -- ./inp_files/15471.got.cif
#   From: 2010.05.17/outbox.cif.g08.bks.cpg/sg47_8_cif.got.tgz:15471.got - 2010.06.03 20:15:42.
