data_PCOD9384925
_publ_section_title
;
Structure prediction by ZEFSAII (Michael W. Deem and Ramdas Pophale) SiO2 
 PCOD9384925
Probable space group: P M M M
;
_chemical_formula_sum "Si O2"
_cell_formula_units_Z 52
_cell_length_a 9.168571
_cell_length_b 28.169371
_cell_length_c 15.722868
_cell_angle_alpha 90.000000
_cell_angle_beta 90.000000
_cell_angle_gamma 90.000000
_cell_volume 4060.790369
_symmetry_space_group_name_H-M "P M M M"
_symmetry_group_IT_number 47
_symmetry_cell_setting 'orthorhombic'
loop_
_space_group_symop_operation_xyz
x,y,z
-x,-y,z
x,-y,-z
-x,y,-z
-x,-y,-z
x,y,-z
-x,y,z
x,-y,z
loop_
_atom_site_type_symbol
_atom_site_label
_atom_site_fract_x
_atom_site_fract_y
_atom_site_fract_z
Si Si1 0.323971 0.111459 0.669453
Si Si2 0.174046 0.943160 0.824504
Si Si3 0.331955 0.942496 0.000000
Si Si4 0.831916 0.689526 0.603357
Si Si5 0.832385 0.500000 0.396344
Si Si6 0.676683 0.946103 0.500000
Si Si7 0.332517 0.595247 0.396302
Si Si8 0.824193 0.203500 0.398901
O O1 0.500000 0.112046 0.676278
O O2 0.252281 0.085740 0.749870
O O3 0.281314 0.081616 0.585056
O O4 0.260176 0.163789 0.653586
O O5 0.000000 0.935189 0.825029
O O6 0.197856 0.000000 0.812426
O O7 0.245680 0.929145 0.914654
O O8 0.500000 0.925814 0.000000
O O9 0.336041 0.000000 0.000000
O O10 0.830382 0.689380 0.500000
O O11 0.738149 0.644773 0.632340
O O12 0.783926 0.742651 0.627273
O O13 0.000000 0.683029 0.629248
O O14 0.828987 0.500000 0.500000
O O15 0.753596 0.451703 0.368723
O O16 0.000000 0.500000 0.370113
O O17 0.500000 0.947750 0.500000
O O18 0.731563 0.000000 0.500000
O O19 0.327951 0.595579 0.500000
O O20 0.500000 0.592073 0.370664
O O21 0.791395 0.197866 0.500000
O O22 0.000000 0.198783 0.389989
#
# Coordination Sequence:
#
# PCOD9384925 Si02
#       8
#     8   8   4   8   4   4   8   8
#     4  11  20  30  44  61  81 105 132 162 194 230
#     4  10  20  33  48  66  86 106 127 153 187 229
#     4   9  17  31  51  71  87 103 123 149 183 224
#     4   8  14  24  36  47  60  83 113 143 179 222
#     4   9  15  21  29  39  55  79 103 129 167 220
#     4   9  18  30  41  55  77 103 129 158 191 226
#     4   9  15  21  29  43  60  77 100 136 177 216
#     4   9  17  29  42  54  72  97 125 159 194 229
#
# _framework density 12.805388000000001
#
# number of rings (size 3 to 8) (size 9 to 14) (size 15 to 20)
#    0.000    2.692    0.769    3.231    0.000    5.846 
#    0.000    1.538    0.000    1.846    0.000    0.000 
#    0.000    0.000    0.000    0.000    0.000    0.000 
#
# Total GULP energy -289618.059069 kJ/mol
# GULP energy per Si atom -5569.578059 kJ/mol
# Density = 1.277624 g / cm^3
# Si number density = 12.805388 Si / 1000 Ang^3
#
#
#
# Elastic Constant Matrix: (Units=GPa)
#
#
# Indices 1 2 3 4 5 6 
#
# 1 88.0780 70.1565 39.1965 0.0000 0.0000 0.0000
# 2 70.1565 120.2193 40.3136 0.0000 0.0000 0.0000
# 3 39.1965 40.3136 65.5090 0.0000 0.0000 0.0000
# 4 0.0000 0.0000 0.0000 2.6301 0.0000 0.0000
# 5 0.0000 0.0000 0.0000 0.0000 14.3391 0.0000
# 6 0.0000 0.0000 0.0000 0.0000 0.0000 20.9007
#
#
#
# Elastic Compliance Matrix: (Units=1/GPa)
#
#
# Indices 1 2 3 4 5 6 
#
# 1 0.023577 -0.011376 -0.007107 0.000000 0.000000 0.000000
# 2 -0.011376 0.015970 -0.003021 0.000000 0.000000 0.000000
# 3 -0.007107 -0.003021 0.021376 0.000000 0.000000 0.000000
# 4 0.000000 0.000000 0.000000 0.380214 0.000000 0.000000
# 5 0.000000 0.000000 0.000000 0.000000 0.069739 0.000000
# 6 0.000000 0.000000 0.000000 0.000000 0.000000 0.047845
#
#
# Mechanical properties :
#
#
# Convention : Reuss Voigt Hill
#
# Bulk Modulus (GPa) = 55.81473 63.68215 59.74844
# Shear Modulus (GPa) = 8.22772 15.84998 12.03885
#
# Velocity S-wave (km/s) = 2.53755 3.52200 3.06950
# Velocity P-wave (km/s) = 7.22960 8.14727 7.70211
#
# Compressibility (1/GPa) = 0.01791642
#
# Stress axis : x y z
#
# Youngs Moduli (GPa) = 42.41334 62.61776 46.78077
#
# Poissons Ratio (x) = 0.71234 0.33245
# Poissons Ratio (y) = 0.48250 0.14132
# Poissons Ratio (z) = 0.30141 0.18917
#
# Static dielectric constant tensor:
#      x y z
#    x 1.427100 0.000000 0.000000 
#    y 0.000000 1.423500 0.000000 
#    z 0.000000 0.000000 1.383500 
# 
# From -- ./inp_files/22042.got.cif
#   From: 2010.05.17/outbox.cif.g08.bks.cpg/sg47_12_cif.got.tgz:22042.got - 2010.06.03 20:15:42.
