data_PCOD9384694
_publ_section_title
;
Structure prediction by ZEFSAII (Michael W. Deem and Ramdas Pophale) SiO2 
 PCOD9384694
Probable space group: P M M M
;
_chemical_formula_sum "Si O2"
_cell_formula_units_Z 48
_cell_length_a 9.722039
_cell_length_b 32.142138
_cell_length_c 9.279724
_cell_angle_alpha 90.000000
_cell_angle_beta 90.000000
_cell_angle_gamma 90.000000
_cell_volume 2899.794220
_symmetry_space_group_name_H-M "P M M M"
_symmetry_group_IT_number 47
_symmetry_cell_setting 'orthorhombic'
loop_
_space_group_symop_operation_xyz
x,y,z
-x,-y,z
x,-y,-z
-x,y,-z
-x,-y,-z
x,y,-z
-x,y,z
x,-y,z
loop_
_atom_site_type_symbol
_atom_site_label
_atom_site_fract_x
_atom_site_fract_y
_atom_site_fract_z
Si Si1 0.663902 0.381722 0.329067
Si Si2 0.667735 0.215703 0.333218
Si Si3 0.667482 0.702400 0.165206
Si Si4 0.341209 0.876331 0.675936
Si Si5 0.162744 0.451810 0.171513
Si Si6 0.840307 0.953677 0.324535
O O1 0.685717 0.379551 0.500000
O O2 0.500000 0.387023 0.303628
O O3 0.707185 0.338334 0.255066
O O4 0.746624 0.419580 0.259587
O O5 0.709253 0.221340 0.500000
O O6 0.500000 0.215031 0.332351
O O7 0.713726 0.254663 0.238737
O O8 0.709922 0.169693 0.281162
O O9 0.500000 0.703398 0.166058
O O10 0.712584 0.699236 0.000000
O O11 0.340048 0.875886 0.500000
O O12 0.500000 0.881346 0.720130
O O13 0.250764 0.915107 0.725765
O O14 0.195063 0.500000 0.206284
O O15 0.000000 0.445552 0.198557
O O16 0.185277 0.446183 0.000000
O O17 0.835788 0.953312 0.500000
O O18 0.000000 0.948747 0.283868
O O19 0.793724 0.000000 0.279356
#
# Coordination Sequence:
#
# PCOD9384694 Si02
#       6
#     8   8   8   8   8   8
#     4  10  20  32  48  73 102 128 156 193 234 273
#     4   8  13  22  36  54  78 107 138 173 213 256
#     4   9  16  26  42  64  89 117 149 183 220 265
#     4   8  13  20  31  48  69  96 130 164 199 242
#     4   9  19  36  55  73  95 126 162 196 232 276
#     4   8  13  20  29  43  67  99 130 159 196 243
#
# _framework density 16.552897999999999
#
# number of rings (size 3 to 8) (size 9 to 14) (size 15 to 20)
#    0.000    3.333    0.000    3.000    0.000    4.333 
#    0.000    4.167    0.000    1.000    0.000    2.333 
#    0.000    0.667    0.000    8.333    0.000    9.667 
#
# Total GULP energy -267208.546884 kJ/mol
# GULP energy per Si atom -5566.844727 kJ/mol
# Density = 1.651522 g / cm^3
# Si number density = 16.552898 Si / 1000 Ang^3
#
#
#
# Elastic Constant Matrix: (Units=GPa)
#
#
# Indices 1 2 3 4 5 6 
#
# 1 33.4213 69.9104 33.8654 0.0000 0.0000 0.0000
# 2 69.9104 202.7371 80.1828 0.0000 0.0000 0.0000
# 3 33.8654 80.1828 57.2993 0.0000 0.0000 0.0000
# 4 0.0000 0.0000 0.0000 -11.4998 0.0000 0.0000
# 5 0.0000 0.0000 0.0000 0.0000 13.3044 0.0000
# 6 0.0000 0.0000 0.0000 0.0000 0.0000 -11.3210
#
#
#
# Elastic Compliance Matrix: (Units=1/GPa)
#
#
# Indices 1 2 3 4 5 6 
#
# 1 0.128141 -0.031876 -0.031129 0.000000 0.000000 0.000000
# 2 -0.031876 0.018975 -0.007714 0.000000 0.000000 0.000000
# 3 -0.031129 -0.007714 0.046645 0.000000 0.000000 0.000000
# 4 0.000000 0.000000 0.000000 -0.086958 0.000000 0.000000
# 5 0.000000 0.000000 0.000000 0.000000 0.075163 0.000000
# 6 0.000000 0.000000 0.000000 0.000000 0.000000 -0.088331
#
#
# Mechanical properties :
#
#
# Convention : Reuss Voigt Hill
#
# Bulk Modulus (GPa) = 19.11170 73.48611 46.29890
# Shear Modulus (GPa) = 19.80102 5.39665 12.59883
#
# Velocity S-wave (km/s) = 3.46240 1.80757 2.76184
# Velocity P-wave (km/s) = 5.24931 6.98910 6.18072
#
# Compressibility (1/GPa) = 0.05232397
#
# Stress axis : x y z
#
# Youngs Moduli (GPa) = 7.80392 52.70066 21.43871
#
# Poissons Ratio (x) = 1.67987 0.66736
# Poissons Ratio (y) = 0.24876 0.16537
# Poissons Ratio (z) = 0.24293 0.40652
#
# Static dielectric constant tensor:
#      x y z
#    x 1.540960 0.000000 0.000000 
#    y 0.000000 1.567330 0.000000 
#    z 0.000000 0.000000 1.548260 
# 
# From -- ./inp_files/2441.got.cif
#   From: 2010.05.17/outbox.cif.g08.bks.cpg/sg47_2_cif.got.tgz:2441.got - 2010.06.03 20:15:42.
