data_PCOD9384714
_publ_section_title
;
Structure prediction by ZEFSAII (Michael W. Deem and Ramdas Pophale) SiO2 
 PCOD9384714
Probable space group: P M M M
;
_chemical_formula_sum "Si O2"
_cell_formula_units_Z 52
_cell_length_a 9.032874
_cell_length_b 24.756344
_cell_length_c 13.360869
_cell_angle_alpha 90.000000
_cell_angle_beta 90.000000
_cell_angle_gamma 90.000000
_cell_volume 2987.770032
_symmetry_space_group_name_H-M "P M M M"
_symmetry_group_IT_number 47
_symmetry_cell_setting 'orthorhombic'
loop_
_space_group_symop_operation_xyz
x,y,z
-x,-y,z
x,-y,-z
-x,y,-z
-x,-y,-z
x,y,-z
-x,y,z
x,-y,z
loop_
_atom_site_type_symbol
_atom_site_label
_atom_site_fract_x
_atom_site_fract_y
_atom_site_fract_z
Si Si1 0.331917 0.934775 0.111236
Si Si2 0.677004 0.380980 0.307203
Si Si3 0.172188 0.435286 0.500000
Si Si4 0.173634 0.726342 0.378798
Si Si5 0.825950 0.062823 0.689107
Si Si6 0.335099 0.833914 0.382238
Si Si7 0.177057 0.435586 0.884777
O O1 0.500000 0.917774 0.138150
O O2 0.213753 0.922818 0.196087
O O3 0.335944 0.000000 0.105904
O O4 0.297142 0.914518 0.000000
O O5 0.500000 0.384523 0.310856
O O6 0.748146 0.413786 0.400290
O O7 0.731848 0.319924 0.325668
O O8 0.737920 0.404200 0.202387
O O9 0.174388 0.500000 0.500000
O O10 0.000000 0.417019 0.500000
O O11 0.191085 0.720700 0.500000
O O12 0.230671 0.785431 0.345914
O O13 0.000000 0.720034 0.357148
O O14 0.734847 0.107124 0.629579
O O15 0.000000 0.067281 0.669563
O O16 0.782591 0.000000 0.671333
O O17 0.348091 0.824137 0.500000
O O18 0.500000 0.831528 0.337848
O O19 0.203439 0.500000 0.873647
O O20 0.000000 0.427088 0.873382
O O21 0.216608 0.420978 0.000000
#
# Coordination Sequence:
#
# PCOD9384714 Si02
#       7
#     8   8   4   8   8   8   8
#     4   8  14  26  45  68  94 125 160 198 243 297
#     4  12  23  34  54  83 115 146 181 229 280 330
#     4  11  23  37  53  77 113 153 188 223 270 327
#     4  10  20  36  58  79 103 137 178 219 264 323
#     4  10  20  32  48  73 104 136 171 211 257 314
#     4  10  21  36  54  75 101 133 173 220 267 315
#     4   9  19  37  59  81 109 150 197 237 274 325
#
# _framework density 17.404285000000002
#
# number of rings (size 3 to 8) (size 9 to 14) (size 15 to 20)
#    0.000    2.077    0.769    4.385    0.000    6.154 
#    0.000    3.846    0.000    0.923    0.000    0.000 
#    0.000    0.000    0.000    0.000    0.000    0.000 
#
# Total GULP energy -289918.790600 kJ/mol
# GULP energy per Si atom -5575.361358 kJ/mol
# Density = 1.736467 g / cm^3
# Si number density = 17.404285 Si / 1000 Ang^3
#
#
#
# Elastic Constant Matrix: (Units=GPa)
#
#
# Indices 1 2 3 4 5 6 
#
# 1 115.9019 53.7777 50.2100 0.0000 0.0000 0.0000
# 2 53.7777 82.6109 33.8647 0.0000 0.0000 0.0000
# 3 50.2100 33.8647 72.2690 0.0000 0.0000 0.0000
# 4 0.0000 0.0000 0.0000 17.6252 0.0000 0.0000
# 5 0.0000 0.0000 0.0000 0.0000 23.6427 0.0000
# 6 0.0000 0.0000 0.0000 0.0000 0.0000 10.3519
#
#
#
# Elastic Compliance Matrix: (Units=1/GPa)
#
#
# Indices 1 2 3 4 5 6 
#
# 1 0.014857 -0.006734 -0.007167 0.000000 0.000000 0.000000
# 2 -0.006734 0.018035 -0.003773 0.000000 0.000000 0.000000
# 3 -0.007167 -0.003773 0.020584 0.000000 0.000000 0.000000
# 4 0.000000 0.000000 0.000000 0.056737 0.000000 0.000000
# 5 0.000000 0.000000 0.000000 0.000000 0.042296 0.000000
# 6 0.000000 0.000000 0.000000 0.000000 0.000000 0.096601
#
#
# Mechanical properties :
#
#
# Convention : Reuss Voigt Hill
#
# Bulk Modulus (GPa) = 55.15751 60.72073 57.93912
# Shear Modulus (GPa) = 17.21168 19.18592 18.19880
#
# Velocity S-wave (km/s) = 3.14814 3.32379 3.23716
# Velocity P-wave (km/s) = 6.70635 7.04942 6.88002
#
# Compressibility (1/GPa) = 0.01812990
#
# Stress axis : x y z
#
# Youngs Moduli (GPa) = 67.30756 55.44777 48.58067
#
# Poissons Ratio (x) = 0.37337 0.34817
# Poissons Ratio (y) = 0.45323 0.18328
# Poissons Ratio (z) = 0.48238 0.20919
#
# Static dielectric constant tensor:
#      x y z
#    x 1.595200 0.000000 0.000000 
#    y 0.000000 1.585920 0.000000 
#    z 0.000000 0.000000 1.603640 
# 
# From -- ./inp_files/21999.got.cif
#   From: 2010.05.17/outbox.cif.g08.bks.cpg/sg47_11_cif.got.tgz:21999.got - 2010.06.03 20:15:42.
