data_PCOD9384090
_publ_section_title
;
Structure prediction by ZEFSAII (Michael W. Deem and Ramdas Pophale) SiO2 
 PCOD9384090
Probable space group: P M M M
;
_chemical_formula_sum "Si O2"
_cell_formula_units_Z 52
_cell_length_a 14.669322
_cell_length_b 11.462485
_cell_length_c 17.320417
_cell_angle_alpha 90.000000
_cell_angle_beta 90.000000
_cell_angle_gamma 90.000000
_cell_volume 2912.374137
_symmetry_space_group_name_H-M "P M M M"
_symmetry_group_IT_number 47
_symmetry_cell_setting 'orthorhombic'
loop_
_space_group_symop_operation_xyz
x,y,z
-x,-y,z
x,-y,-z
-x,y,-z
-x,-y,-z
x,y,-z
-x,y,z
x,-y,z
loop_
_atom_site_type_symbol
_atom_site_label
_atom_site_fract_x
_atom_site_fract_y
_atom_site_fract_z
Si Si1 0.782088 0.300376 0.322681
Si Si2 0.000000 0.624711 0.808796
Si Si3 0.172174 0.871976 0.912107
Si Si4 0.201698 0.631330 0.144714
Si Si5 0.105338 0.860835 0.414081
Si Si6 0.000000 0.874620 0.203476
Si Si7 0.108899 0.500000 0.589396
Si Si8 0.604170 0.640394 0.590425
O O1 0.779452 0.341903 0.234742
O O2 0.831910 0.180334 0.343737
O O3 0.845806 0.390441 0.368915
O O4 0.681502 0.302594 0.358022
O O5 0.908754 0.625399 0.859376
O O6 0.000000 0.500000 0.765524
O O7 0.000000 0.744570 0.760367
O O8 0.227378 0.751485 0.898429
O O9 0.088901 0.873936 0.851464
O O10 0.218821 0.000000 0.903477
O O11 0.137101 0.867274 0.000000
O O12 0.235369 0.500000 0.124082
O O13 0.137361 0.819450 0.500000
O O14 0.000000 0.822762 0.406883
O O15 0.105744 0.000000 0.416287
O O16 0.000000 0.000000 0.246648
O O17 0.136665 0.500000 0.500000
O O18 0.000000 0.500000 0.592255
O O19 0.618071 0.667692 0.500000
O O20 0.500000 0.671389 0.610751
O O21 0.612962 0.500000 0.598321
#
# Coordination Sequence:
#
# PCOD9384090 Si02
#       8
#     8   4   8   8   8   4   4   8
#     4  12  20  30  49  68  96 128 160 203 249 298
#     4   8  16  27  37  51  82 121 148 178 229 285
#     4   9  17  30  47  64  85 117 161 205 238 282
#     4  10  20  30  42  63  94 127 155 195 249 297
#     4   9  19  34  48  64  90 126 167 205 241 286
#     4   8  13  24  42  60  76 102 148 200 232 256
#     4  11  22  30  43  69  96 128 167 202 237 283
#     4   9  17  30  48  70  95 123 160 206 252 297
#
# _framework density 17.854849000000002
#
# number of rings (size 3 to 8) (size 9 to 14) (size 15 to 20)
#    0.000    2.385    1.538    3.000    2.154    3.077 
#    0.000    0.000    0.000    5.077    0.000    2.154 
#    0.000    0.615    0.000    4.923    0.000    0.615 
#
# Total GULP energy -289703.078350 kJ/mol
# GULP energy per Si atom -5571.213045 kJ/mol
# Density = 1.781421 g / cm^3
# Si number density = 17.854849 Si / 1000 Ang^3
#
#
#
# Elastic Constant Matrix: (Units=GPa)
#
#
# Indices 1 2 3 4 5 6 
#
# 1 56.6875 8.5550 6.3511 0.0000 0.0000 0.0000
# 2 8.5550 138.4445 21.8765 0.0000 0.0000 0.0000
# 3 6.3511 21.8765 46.0061 0.0000 0.0000 0.0000
# 4 0.0000 0.0000 0.0000 18.9596 0.0000 0.0000
# 5 0.0000 0.0000 0.0000 0.0000 5.7218 0.0000
# 6 0.0000 0.0000 0.0000 0.0000 0.0000 9.2991
#
#
#
# Elastic Compliance Matrix: (Units=1/GPa)
#
#
# Indices 1 2 3 4 5 6 
#
# 1 0.017995 -0.000778 -0.002114 0.000000 0.000000 0.000000
# 2 -0.000778 0.007844 -0.003622 0.000000 0.000000 0.000000
# 3 -0.002114 -0.003622 0.023751 0.000000 0.000000 0.000000
# 4 0.000000 0.000000 0.000000 0.052744 0.000000 0.000000
# 5 0.000000 0.000000 0.000000 0.000000 0.174771 0.000000
# 6 0.000000 0.000000 0.000000 0.000000 0.000000 0.107537
#
#
# Mechanical properties :
#
#
# Convention : Reuss Voigt Hill
#
# Bulk Modulus (GPa) = 27.35228 34.96702 31.15965
# Shear Modulus (GPa) = 12.19939 20.41979 16.30959
#
# Velocity S-wave (km/s) = 2.61675 3.38547 3.02562
# Velocity P-wave (km/s) = 4.94796 5.90833 5.44935
#
# Compressibility (1/GPa) = 0.03656002
#
# Stress axis : x y z
#
# Youngs Moduli (GPa) = 55.57148 127.49299 42.10424
#
# Poissons Ratio (x) = 0.09917 0.08902
# Poissons Ratio (y) = 0.04323 0.15252
# Poissons Ratio (z) = 0.11749 0.46182
#
# Static dielectric constant tensor:
#      x y z
#    x 1.577890 0.000000 0.000000 
#    y 0.000000 1.752320 0.000000 
#    z 0.000000 0.000000 1.635940 
# 
# From -- ./inp_files/28187.got.cif
#   From: 2010.05.17/outbox.cif.g08.bks.cpg/sg47_15_cif.got.tgz:28187.got - 2010.06.03 20:15:42.
