data_PCOD9384219
_publ_section_title
;
Structure prediction by ZEFSAII (Michael W. Deem and Ramdas Pophale) SiO2 
 PCOD9384219
Probable space group: P M M M
;
_chemical_formula_sum "Si O2"
_cell_formula_units_Z 52
_cell_length_a 13.343967
_cell_length_b 9.173472
_cell_length_c 25.266183
_cell_angle_alpha 90.000000
_cell_angle_beta 90.000000
_cell_angle_gamma 90.000000
_cell_volume 3092.846287
_symmetry_space_group_name_H-M "P M M M"
_symmetry_group_IT_number 47
_symmetry_cell_setting 'orthorhombic'
loop_
_space_group_symop_operation_xyz
x,y,z
-x,-y,z
x,-y,-z
-x,y,-z
-x,-y,-z
x,y,-z
-x,y,z
x,-y,z
loop_
_atom_site_type_symbol
_atom_site_label
_atom_site_fract_x
_atom_site_fract_y
_atom_site_fract_z
Si Si1 0.206637 0.671439 0.563794
Si Si2 0.000000 0.830674 0.564357
Si Si3 0.690086 0.671970 0.938158
Si Si4 0.617805 0.174714 0.372120
Si Si5 0.111609 0.834301 0.936040
Si Si6 0.617770 0.836954 0.160947
Si Si7 0.621390 0.665402 0.262561
O O1 0.212299 0.682212 0.500000
O O2 0.205095 0.500000 0.577702
O O3 0.303162 0.749737 0.588878
O O4 0.102375 0.748895 0.580671
O O5 0.000000 0.829065 0.500000
O O6 0.000000 0.000000 0.581099
O O7 0.673827 0.500000 0.932719
O O8 0.803784 0.717597 0.923868
O O9 0.627421 0.761902 0.895936
O O10 0.672046 0.710858 0.000000
O O11 0.500000 0.210229 0.383436
O O12 0.641676 0.235311 0.313494
O O13 0.627521 0.000000 0.373900
O O14 0.000000 0.800191 0.916464
O O15 0.138223 0.000000 0.919568
O O16 0.106811 0.837608 0.000000
O O17 0.500000 0.849891 0.172164
O O18 0.659808 0.737786 0.208320
O O19 0.660835 0.000000 0.160766
O O20 0.500000 0.656960 0.259078
O O21 0.658271 0.500000 0.269351
#
# Coordination Sequence:
#
# PCOD9384219 Si02
#       7
#     8   4   8   8   8   8   8
#     4  10  20  33  50  74 105 140 177 216 258 303
#     4   9  17  31  51  73  99 133 175 219 258 299
#     4  10  20  31  44  66  95 124 154 190 234 284
#     4  10  20  33  50  74 104 136 171 211 255 304
#     4   8  14  26  44  64  86 113 145 181 221 267
#     4  10  20  33  49  68  91 122 160 199 238 282
#     4   9  17  31  51  72  94 121 157 201 245 289
#
# _framework density 16.812991
#
# number of rings (size 3 to 8) (size 9 to 14) (size 15 to 20)
#    0.000    2.538    0.000    3.000    0.000    7.385 
#    0.000    4.615    0.000    0.000    2.000    0.000 
#    0.000    0.000    0.000    0.000    0.000    0.000 
#
# Total GULP energy -289594.770846 kJ/mol
# GULP energy per Si atom -5569.130209 kJ/mol
# Density = 1.677472 g / cm^3
# Si number density = 16.812991 Si / 1000 Ang^3
#
#
#
# Elastic Constant Matrix: (Units=GPa)
#
#
# Indices 1 2 3 4 5 6 
#
# 1 67.6740 49.4394 30.6503 0.0000 0.0000 0.0000
# 2 49.4394 122.5554 47.8836 0.0000 0.0000 0.0000
# 3 30.6503 47.8836 53.0696 0.0000 0.0000 0.0000
# 4 0.0000 0.0000 0.0000 22.5877 0.0000 0.0000
# 5 0.0000 0.0000 0.0000 0.0000 -2.5051 0.0000
# 6 0.0000 0.0000 0.0000 0.0000 0.0000 26.7142
#
#
#
# Elastic Compliance Matrix: (Units=1/GPa)
#
#
# Indices 1 2 3 4 5 6 
#
# 1 0.022732 -0.006241 -0.007498 0.000000 0.000000 0.000000
# 2 -0.006241 0.014315 -0.009312 0.000000 0.000000 0.000000
# 3 -0.007498 -0.009312 0.031576 0.000000 0.000000 0.000000
# 4 0.000000 0.000000 0.000000 0.044272 0.000000 0.000000
# 5 0.000000 0.000000 0.000000 0.000000 -0.399182 0.000000
# 6 0.000000 0.000000 0.000000 0.000000 0.000000 0.037433
#
#
# Mechanical properties :
#
#
# Convention : Reuss Voigt Hill
#
# Bulk Modulus (GPa) = 44.40215 55.47172 49.93694
# Shear Modulus (GPa) = -25.60878 17.04774 -4.28052
#
# Velocity S-wave (km/s) = -3.90699 3.18773 -1.59734
# Velocity P-wave (km/s) = 2.47264 6.82743 5.13458
#
# Compressibility (1/GPa) = 0.02252143
#
# Stress axis : x y z
#
# Youngs Moduli (GPa) = 43.99149 69.85463 31.66974
#
# Poissons Ratio (x) = 0.43593 0.23746
# Poissons Ratio (y) = 0.27453 0.29492
# Poissons Ratio (z) = 0.32985 0.65051
#
# Static dielectric constant tensor:
#      x y z
#    x 1.585350 0.000000 0.000000 
#    y 0.000000 1.580300 0.000000 
#    z 0.000000 0.000000 1.554720 
# 
# From -- ./inp_files/33567.got.cif
#   From: 2010.05.17/outbox.cif.g08.bks.cpg/sg47_17_cif.got.tgz:33567.got - 2010.06.03 20:15:42.
