data_PCOD9384829
_publ_section_title
;
Structure prediction by ZEFSAII (Michael W. Deem and Ramdas Pophale) SiO2 
 PCOD9384829
Probable space group: P M M M
;
_chemical_formula_sum "Si O2"
_cell_formula_units_Z 44
_cell_length_a 9.032286
_cell_length_b 29.042011
_cell_length_c 9.664412
_cell_angle_alpha 90.000000
_cell_angle_beta 90.000000
_cell_angle_gamma 90.000000
_cell_volume 2535.127476
_symmetry_space_group_name_H-M "P M M M"
_symmetry_group_IT_number 47
_symmetry_cell_setting 'orthorhombic'
loop_
_space_group_symop_operation_xyz
x,y,z
-x,-y,z
x,-y,-z
-x,y,-z
-x,-y,-z
x,y,-z
-x,y,z
x,-y,z
loop_
_atom_site_type_symbol
_atom_site_label
_atom_site_fract_x
_atom_site_fract_y
_atom_site_fract_z
Si Si1 0.322003 0.053194 0.160819
Si Si2 0.820997 0.866989 0.660525
Si Si3 0.170445 0.500000 0.331788
Si Si4 0.176433 0.675967 0.835193
Si Si5 0.676311 0.405055 0.336526
Si Si6 0.180172 0.219870 0.841334
O O1 0.500000 0.057058 0.172362
O O2 0.244385 0.089209 0.260506
O O3 0.282632 0.000000 0.191333
O O4 0.282851 0.062376 0.000000
O O5 0.777451 0.866280 0.500000
O O6 0.771858 0.820577 0.739668
O O7 0.000000 0.868739 0.667126
O O8 0.173638 0.500000 0.500000
O O9 0.251241 0.546855 0.288611
O O10 0.000000 0.500000 0.287257
O O11 0.260093 0.637482 0.749010
O O12 0.224586 0.728310 0.800604
O O13 0.000000 0.672274 0.809249
O O14 0.198882 0.670086 0.000000
O O15 0.711096 0.399154 0.500000
O O16 0.500000 0.407978 0.322639
O O17 0.000000 0.220160 0.842327
O O18 0.227473 0.211037 0.000000
#
# Coordination Sequence:
#
# PCOD9384829 Si02
#       6
#     8   8   4   8   8   8
#     4   9  19  36  55  73  95 128 171 212 248 293
#     4  10  20  32  49  77 108 133 161 202 251 300
#     4   9  17  31  52  75  98 129 170 210 248 293
#     4   9  18  33  53  76 100 128 166 209 249 292
#     4  10  20  33  50  74 104 135 166 203 248 297
#     4   8  15  30  51  72  96 129 167 205 245 290
#
# _framework density 17.35613
#
# number of rings (size 3 to 8) (size 9 to 14) (size 15 to 20)
#    0.000    2.818    0.000    3.000    0.000    5.455 
#    0.000    5.909    0.000    3.818    0.000    0.000 
#    0.000    0.000    0.000    0.000    0.000    0.000 
#
# Total GULP energy -245345.544871 kJ/mol
# GULP energy per Si atom -5576.035111 kJ/mol
# Density = 1.731663 g / cm^3
# Si number density = 17.356130 Si / 1000 Ang^3
#
#
#
# Elastic Constant Matrix: (Units=GPa)
#
#
# Indices 1 2 3 4 5 6 
#
# 1 33.0025 55.3144 44.6370 0.0000 0.0000 0.0000
# 2 55.3144 187.7181 112.6082 0.0000 0.0000 0.0000
# 3 44.6370 112.6082 94.5022 0.0000 0.0000 0.0000
# 4 0.0000 0.0000 0.0000 42.1402 0.0000 0.0000
# 5 0.0000 0.0000 0.0000 0.0000 24.7544 0.0000
# 6 0.0000 0.0000 0.0000 0.0000 0.0000 -64.6339
#
#
#
# Elastic Compliance Matrix: (Units=1/GPa)
#
#
# Indices 1 2 3 4 5 6 
#
# 1 0.084500 -0.003355 -0.035915 0.000000 0.000000 0.000000
# 2 -0.003355 0.018813 -0.020833 0.000000 0.000000 0.000000
# 3 -0.035915 -0.020833 0.052370 0.000000 0.000000 0.000000
# 4 0.000000 0.000000 0.000000 0.023730 0.000000 0.000000
# 5 0.000000 0.000000 0.000000 0.000000 0.040397 0.000000
# 6 0.000000 0.000000 0.000000 0.000000 0.000000 -0.015472
#
#
# Mechanical properties :
#
#
# Convention : Reuss Voigt Hill
#
# Bulk Modulus (GPa) = 28.18679 82.26022 55.22350
# Shear Modulus (GPa) = 14.86469 7.29634 11.08052
#
# Velocity S-wave (km/s) = 2.92970 2.05257 2.52944
# Velocity P-wave (km/s) = 5.26495 7.28805 6.35749
#
# Compressibility (1/GPa) = 0.03547761
#
# Stress axis : x y z
#
# Youngs Moduli (GPa) = 11.83438 53.15584 19.09501
#
# Poissons Ratio (x) = 0.17831 0.68580
# Poissons Ratio (y) = 0.03970 0.39780
# Poissons Ratio (z) = 0.42503 1.10737
#
# Static dielectric constant tensor:
#      x y z
#    x 1.578800 0.000000 0.000000 
#    y 0.000000 1.575540 0.000000 
#    z 0.000000 0.000000 1.574850 
# 
# From -- ./inp_files/2297.got.cif
#   From: 2010.05.17/outbox.cif.g08.bks.cpg/sg47_2_cif.got.tgz:2297.got - 2010.06.03 20:15:42.
