data_PCOD9384214
_publ_section_title
;
Structure prediction by ZEFSAII (Michael W. Deem and Ramdas Pophale) SiO2 
 PCOD9384214
Probable space group: P M M M
;
_chemical_formula_sum "Si O2"
_cell_formula_units_Z 56
_cell_length_a 8.865107
_cell_length_b 20.717887
_cell_length_c 15.816646
_cell_angle_alpha 90.000000
_cell_angle_beta 90.000000
_cell_angle_gamma 90.000000
_cell_volume 2904.984613
_symmetry_space_group_name_H-M "P M M M"
_symmetry_group_IT_number 47
_symmetry_cell_setting 'orthorhombic'
loop_
_space_group_symop_operation_xyz
x,y,z
-x,-y,z
x,-y,-z
-x,y,-z
-x,-y,-z
x,y,-z
-x,y,z
x,-y,z
loop_
_atom_site_type_symbol
_atom_site_label
_atom_site_fract_x
_atom_site_fract_y
_atom_site_fract_z
Si Si1 0.680171 0.817879 0.216071
Si Si2 0.329877 0.571923 0.321206
Si Si3 0.821412 0.924575 0.099505
Si Si4 0.677934 0.183758 0.405775
Si Si5 0.180285 0.289252 0.095056
Si Si6 0.325755 0.428206 0.119045
Si Si7 0.833530 0.683829 0.404101
O O1 0.500000 0.808744 0.220373
O O2 0.725099 0.876820 0.155923
O O3 0.734537 0.835710 0.311896
O O4 0.748675 0.753960 0.170356
O O5 0.500000 0.589361 0.349823
O O6 0.295820 0.500000 0.353124
O O7 0.330745 0.569820 0.220390
O O8 0.211077 0.624785 0.347096
O O9 0.000000 0.911509 0.112606
O O10 0.794486 0.000000 0.118800
O O11 0.790875 0.915027 0.000000
O O12 0.739072 0.163215 0.500000
O O13 0.500000 0.169913 0.407948
O O14 0.711216 0.259985 0.400897
O O15 0.234916 0.363738 0.096768
O O16 0.000000 0.286831 0.103647
O O17 0.219368 0.263761 0.000000
O O18 0.500000 0.421459 0.091359
O O19 0.270517 0.500000 0.092581
O O20 0.836487 0.659945 0.500000
O O21 0.000000 0.710468 0.383698
#
# Coordination Sequence:
#
# PCOD9384214 Si02
#       7
#     8   8   8   8   8   8   8
#     4  11  22  35  57  87 114 143 183 230 274 316
#     4   9  18  32  48  65  86 116 157 203 255 320
#     4   9  19  37  60  86 119 158 192 220 260 318
#     4   9  19  36  55  75 103 139 176 215 263 318
#     4  11  24  38  52  75 109 146 181 220 271 331
#     4   9  19  36  55  73  95 127 171 224 276 322
#     4  10  20  31  44  66  94 122 158 208 263 316
#
# _framework density 19.277208999999999
#
# number of rings (size 3 to 8) (size 9 to 14) (size 15 to 20)
#    0.000    2.286    0.000    3.857    0.000   10.571 
#    0.000    5.000    0.000    0.429    0.000    3.000 
#    0.000    0.000    0.000    0.000    0.000    0.000 
#
# Total GULP energy -311998.663455 kJ/mol
# GULP energy per Si atom -5571.404705 kJ/mol
# Density = 1.923333 g / cm^3
# Si number density = 19.277209 Si / 1000 Ang^3
#
#
#
# Elastic Constant Matrix: (Units=GPa)
#
#
# Indices 1 2 3 4 5 6 
#
# 1 22.2577 18.5264 25.9636 0.0000 0.0000 0.0000
# 2 18.5264 52.5006 36.9253 0.0000 0.0000 0.0000
# 3 25.9636 36.9253 85.7669 0.0000 0.0000 0.0000
# 4 0.0000 0.0000 0.0000 4.1990 0.0000 0.0000
# 5 0.0000 0.0000 0.0000 0.0000 20.5314 0.0000
# 6 0.0000 0.0000 0.0000 0.0000 0.0000 37.0610
#
#
#
# Elastic Compliance Matrix: (Units=1/GPa)
#
#
# Indices 1 2 3 4 5 6 
#
# 1 0.077383 -0.015535 -0.016737 0.000000 0.000000 0.000000
# 2 -0.015535 0.030439 -0.008402 0.000000 0.000000 0.000000
# 3 -0.016737 -0.008402 0.020344 0.000000 0.000000 0.000000
# 4 0.000000 0.000000 0.000000 0.238154 0.000000 0.000000
# 5 0.000000 0.000000 0.000000 0.000000 0.048706 0.000000
# 6 0.000000 0.000000 0.000000 0.000000 0.000000 0.026983
#
#
# Mechanical properties :
#
#
# Convention : Reuss Voigt Hill
#
# Bulk Modulus (GPa) = 21.35992 35.92843 28.64417
# Shear Modulus (GPa) = 9.27710 17.63227 13.45468
#
# Velocity S-wave (km/s) = 2.19611 3.02763 2.64476
# Velocity P-wave (km/s) = 4.18748 5.55880 4.92114
#
# Compressibility (1/GPa) = 0.04681666
#
# Stress axis : x y z
#
# Youngs Moduli (GPa) = 12.92276 32.85277 49.15549
#
# Poissons Ratio (x) = 0.51037 0.82273
# Poissons Ratio (y) = 0.20076 0.41301
# Poissons Ratio (z) = 0.21629 0.27603
#
# Static dielectric constant tensor:
#      x y z
#    x 1.679670 0.000000 0.000000 
#    y 0.000000 1.645120 0.000000 
#    z 0.000000 0.000000 1.735560 
# 
# From -- ./inp_files/7347.got.cif
#   From: 2010.05.17/outbox.cif.g08.bks.cpg/sg47_4_cif.got.tgz:7347.got - 2010.06.03 20:15:42.
