data_PCOD9384327
_publ_section_title
;
Structure prediction by ZEFSAII (Michael W. Deem and Ramdas Pophale) SiO2 
 PCOD9384327
Probable space group: P M M M
;
_chemical_formula_sum "Si O2"
_cell_formula_units_Z 52
_cell_length_a 15.585525
_cell_length_b 8.696507
_cell_length_c 23.569106
_cell_angle_alpha 90.000000
_cell_angle_beta 90.000000
_cell_angle_gamma 90.000000
_cell_volume 3194.547842
_symmetry_space_group_name_H-M "P M M M"
_symmetry_group_IT_number 47
_symmetry_cell_setting 'orthorhombic'
loop_
_space_group_symop_operation_xyz
x,y,z
-x,-y,z
x,-y,-z
-x,y,-z
-x,-y,-z
x,y,-z
-x,y,z
x,-y,z
loop_
_atom_site_type_symbol
_atom_site_label
_atom_site_fract_x
_atom_site_fract_y
_atom_site_fract_z
Si Si1 0.328642 0.328907 0.398854
Si Si2 0.599112 0.182989 0.182090
Si Si3 0.601819 0.000000 0.436713
Si Si4 0.396181 0.679811 0.937939
Si Si5 0.733431 0.325598 0.730647
Si Si6 0.094611 0.183343 0.684518
Si Si7 0.134608 0.321451 0.437230
O O1 0.367659 0.500000 0.412459
O O2 0.373419 0.165383 0.410306
O O3 0.307745 0.329446 0.332107
O O4 0.237934 0.321931 0.431599
O O5 0.500000 0.240137 0.191204
O O6 0.628274 0.232190 0.118959
O O7 0.666924 0.243986 0.227592
O O8 0.596212 0.000000 0.185428
O O9 0.500000 0.000000 0.439291
O O10 0.639710 0.000000 0.500000
O O11 0.500000 0.687120 0.939360
O O12 0.372926 0.500000 0.932877
O O13 0.365966 0.736534 0.000000
O O14 0.745292 0.500000 0.750352
O O15 0.826429 0.250448 0.720342
O O16 0.103200 0.233743 0.618529
O O17 0.000000 0.233169 0.704441
O O18 0.099885 0.000000 0.686755
O O19 0.110167 0.263384 0.500000
O O20 0.107247 0.500000 0.432948
#
# Coordination Sequence:
#
# PCOD9384327 Si02
#       7
#     8   8   4   8   8   8   8
#     4   9  20  37  53  70  93 123 160 204 254 306
#     4  10  20  31  47  74 105 137 172 212 253 294
#     4  11  24  36  50  72  91 119 160 202 257 312
#     4   8  14  26  44  66  97 138 177 210 245 286
#     4  10  21  36  54  73  95 128 168 208 251 298
#     4  10  21  35  51  73 100 127 156 195 246 304
#     4   9  18  32  51  73  93 119 154 189 234 294
#
# _framework density 16.277735
#
# number of rings (size 3 to 8) (size 9 to 14) (size 15 to 20)
#    0.000    2.538    0.000    3.231    5.385    4.923 
#    0.000    5.385    0.000    0.000    0.000    0.000 
#    0.000    0.615    0.000    6.462    0.000    3.077 
#
# Total GULP energy -289537.093861 kJ/mol
# GULP energy per Si atom -5568.021036 kJ/mol
# Density = 1.624069 g / cm^3
# Si number density = 16.277735 Si / 1000 Ang^3
#
#
#
# Elastic Constant Matrix: (Units=GPa)
#
#
# Indices 1 2 3 4 5 6 
#
# 1 79.4440 48.3892 50.7773 0.0000 0.0000 0.0000
# 2 48.3892 94.5339 35.4062 0.0000 0.0000 0.0000
# 3 50.7773 35.4062 98.2128 0.0000 0.0000 0.0000
# 4 0.0000 0.0000 0.0000 36.5611 0.0000 0.0000
# 5 0.0000 0.0000 0.0000 0.0000 46.9335 0.0000
# 6 0.0000 0.0000 0.0000 0.0000 0.0000 -443.4096
#
#
#
# Elastic Compliance Matrix: (Units=1/GPa)
#
#
# Indices 1 2 3 4 5 6 
#
# 1 0.023740 -0.008734 -0.009125 0.000000 0.000000 0.000000
# 2 -0.008734 0.015443 -0.001052 0.000000 0.000000 0.000000
# 3 -0.009125 -0.001052 0.015279 0.000000 0.000000 0.000000
# 4 0.000000 0.000000 0.000000 0.027351 0.000000 0.000000
# 5 0.000000 0.000000 0.000000 0.000000 0.021307 0.000000
# 6 0.000000 0.000000 0.000000 0.000000 0.000000 -0.002255
#
#
# Mechanical properties :
#
#
# Convention : Reuss Voigt Hill
#
# Bulk Modulus (GPa) = 60.09632 60.14846 60.12239
# Shear Modulus (GPa) = 34.66626 -62.80846 -14.07110
#
# Velocity S-wave (km/s) = 4.61985 -6.21846 -2.94332
# Velocity P-wave (km/s) = 8.09054 3.81149 5.04625
#
# Compressibility (1/GPa) = 0.01663995
#
# Stress axis : x y z
#
# Youngs Moduli (GPa) = 42.12343 64.75524 65.44990
#
# Poissons Ratio (x) = 0.56557 0.59724
# Poissons Ratio (y) = 0.36791 0.06883
# Poissons Ratio (z) = 0.38438 0.06810
#
# Static dielectric constant tensor:
#      x y z
#    x 1.557240 0.000000 0.000000 
#    y 0.000000 1.588310 0.000000 
#    z 0.000000 0.000000 1.549530 
# 
# From -- ./inp_files/30892.got.cif
#   From: 2010.05.17/outbox.cif.g08.bks.cpg/sg47_16_cif.got.tgz:30892.got - 2010.06.03 20:15:42.
