data_PCOD9384812
_publ_section_title
;
Structure prediction by ZEFSAII (Michael W. Deem and Ramdas Pophale) SiO2 
 PCOD9384812
Probable space group: P M M M
;
_chemical_formula_sum "Si O2"
_cell_formula_units_Z 48
_cell_length_a 8.011693
_cell_length_b 9.791784
_cell_length_c 32.228704
_cell_angle_alpha 90.000000
_cell_angle_beta 90.000000
_cell_angle_gamma 90.000000
_cell_volume 2528.302101
_symmetry_space_group_name_H-M "P M M M"
_symmetry_group_IT_number 47
_symmetry_cell_setting 'orthorhombic'
loop_
_space_group_symop_operation_xyz
x,y,z
-x,-y,z
x,-y,-z
-x,y,-z
-x,-y,-z
x,y,-z
-x,y,z
x,-y,z
loop_
_atom_site_type_symbol
_atom_site_label
_atom_site_fract_x
_atom_site_fract_y
_atom_site_fract_z
Si Si1 0.198397 0.834510 0.044623
Si Si2 0.703854 0.343781 0.452784
Si Si3 0.798347 0.843075 0.865343
Si Si4 0.699264 0.655343 0.211056
Si Si5 0.300155 0.845543 0.378447
Si Si6 0.198092 0.655918 0.696827
O O1 0.264289 0.789758 0.089594
O O2 0.000000 0.803304 0.043820
O O3 0.211467 0.000000 0.045313
O O4 0.269210 0.787888 0.000000
O O5 0.754815 0.311202 0.500000
O O6 0.500000 0.342554 0.452328
O O7 0.754442 0.500000 0.443303
O O8 0.764541 0.238836 0.418162
O O9 0.750070 0.751075 0.826713
O O10 0.000000 0.846343 0.867799
O O11 0.741382 0.000000 0.859752
O O12 0.500000 0.652217 0.213185
O O13 0.761438 0.500000 0.204392
O O14 0.763495 0.700565 0.256147
O O15 0.500000 0.854289 0.383342
O O16 0.267483 0.758313 0.337271
O O17 0.234113 0.000000 0.375919
O O18 0.264502 0.500000 0.691799
O O19 0.000000 0.650914 0.691634
#
# Coordination Sequence:
#
# PCOD9384812 Si02
#       6
#     8   8   8   8   8   8
#     4   7  10  19  38  65  95 124 155 193 235 278
#     4   8  14  26  46  72 101 134 171 207 240 276
#     4   9  17  29  48  75 102 127 158 198 244 290
#     4  10  21  36  53  72  95 126 163 201 243 292
#     4  10  20  32  49  76 107 136 164 197 242 292
#     4  10  21  37  56  74  92 121 163 206 247 292
#
# _framework density 18.985071000000001
#
# number of rings (size 3 to 8) (size 9 to 14) (size 15 to 20)
#    0.000    3.000    0.000    3.500    0.000    4.333 
#    0.000    1.667    0.000    1.500    0.000    9.333 
#    0.000    0.000    0.000    0.000    0.000    0.000 
#
# Total GULP energy -267464.217574 kJ/mol
# GULP energy per Si atom -5572.171199 kJ/mol
# Density = 1.894186 g / cm^3
# Si number density = 18.985071 Si / 1000 Ang^3
#
#
#
# Elastic Constant Matrix: (Units=GPa)
#
#
# Indices 1 2 3 4 5 6 
#
# 1 15.1733 8.2560 3.7047 0.0000 0.0000 0.0000
# 2 8.2560 94.8189 110.7224 0.0000 0.0000 0.0000
# 3 3.7047 110.7224 190.0012 0.0000 0.0000 0.0000
# 4 0.0000 0.0000 0.0000 32.0043 0.0000 0.0000
# 5 0.0000 0.0000 0.0000 0.0000 17.7506 0.0000
# 6 0.0000 0.0000 0.0000 0.0000 0.0000 15.2952
#
#
#
# Elastic Compliance Matrix: (Units=1/GPa)
#
#
# Indices 1 2 3 4 5 6 
#
# 1 0.072077 -0.014506 0.007048 0.000000 0.000000 0.000000
# 2 -0.014506 0.035927 -0.020654 0.000000 0.000000 0.000000
# 3 0.007048 -0.020654 0.017161 0.000000 0.000000 0.000000
# 4 0.000000 0.000000 0.000000 0.031246 0.000000 0.000000
# 5 0.000000 0.000000 0.000000 0.000000 0.056336 0.000000
# 6 0.000000 0.000000 0.000000 0.000000 0.000000 0.065380
#
#
# Mechanical properties :
#
#
# Convention : Reuss Voigt Hill
#
# Bulk Modulus (GPa) = 14.50478 60.59552 37.55015
# Shear Modulus (GPa) = 13.99260 24.83070 19.41165
#
# Velocity S-wave (km/s) = 2.71778 3.62042 3.20108
# Velocity P-wave (km/s) = 4.18391 7.03302 5.78656
#
# Compressibility (1/GPa) = 0.06894278
#
# Stress axis : x y z
#
# Youngs Moduli (GPa) = 13.87402 27.83411 58.27004
#
# Poissons Ratio (x) = 0.40375 -0.41067
# Poissons Ratio (y) = 0.20125 1.20348
# Poissons Ratio (z) = -0.09778 0.57487
#
# Static dielectric constant tensor:
#      x y z
#    x 1.695710 0.000000 0.000000 
#    y 0.000000 1.654360 0.000000 
#    z 0.000000 0.000000 1.675160 
# 
# From -- ./inp_files/13798.got.cif
#   From: 2010.05.17/outbox.cif.g08.bks.cpg/sg47_7_cif.got.tgz:13798.got - 2010.06.03 20:15:42.
