data_PCOD9384245
_publ_section_title
;
Structure prediction by ZEFSAII (Michael W. Deem and Ramdas Pophale) SiO2 
 PCOD9384245
Probable space group: P M M M
;
_chemical_formula_sum "Si O2"
_cell_formula_units_Z 56
_cell_length_a 15.292978
_cell_length_b 24.119624
_cell_length_c 7.877354
_cell_angle_alpha 90.000000
_cell_angle_beta 90.000000
_cell_angle_gamma 90.000000
_cell_volume 2905.647722
_symmetry_space_group_name_H-M "P M M M"
_symmetry_group_IT_number 47
_symmetry_cell_setting 'orthorhombic'
loop_
_space_group_symop_operation_xyz
x,y,z
-x,-y,z
x,-y,-z
-x,y,-z
-x,-y,-z
x,y,-z
-x,y,z
x,-y,z
loop_
_atom_site_type_symbol
_atom_site_label
_atom_site_fract_x
_atom_site_fract_y
_atom_site_fract_z
Si Si1 0.270712 0.342120 0.697382
Si Si2 0.600368 0.754966 0.794787
Si Si3 0.771793 0.939013 0.795930
Si Si4 0.401948 0.882618 0.792725
Si Si5 0.099135 0.159714 0.704188
Si Si6 0.100375 0.285233 0.708008
Si Si7 0.597416 0.562685 0.203125
O O1 0.257159 0.352385 0.500000
O O2 0.331158 0.287946 0.721095
O O3 0.175360 0.326817 0.770914
O O4 0.326582 0.393867 0.761513
O O5 0.500000 0.741313 0.747285
O O6 0.616837 0.818733 0.744337
O O7 0.605333 0.751895 0.000000
O O8 0.675306 0.922094 0.733447
O O9 0.836851 0.889149 0.755281
O O10 0.798247 0.000000 0.732657
O O11 0.767300 0.941821 0.000000
O O12 0.500000 0.897092 0.736669
O O13 0.402765 0.883494 0.000000
O O14 0.097831 0.161446 0.500000
O O15 0.123319 0.222031 0.761330
O O16 0.000000 0.148776 0.763401
O O17 0.101258 0.285692 0.500000
O O18 0.000000 0.296757 0.758969
O O19 0.500000 0.580220 0.265125
O O20 0.614167 0.500000 0.266497
O O21 0.591539 0.559671 0.000000
#
# Coordination Sequence:
#
# PCOD9384245 Si02
#       7
#     8   8   8   8   8   8   8
#     4  11  20  28  47  77 101 122 152 195 242 277
#     4   9  17  29  45  65  92 126 157 185 226 283
#     4  10  20  31  45  68  94 118 148 192 243 284
#     4   8  15  29  47  65  87 119 158 193 225 272
#     4   9  18  34  54  70  87 119 159 192 227 279
#     4   8  16  32  51  71  96 124 154 190 234 284
#     4   9  19  36  54  70  95 136 175 196 218 262
#
# _framework density 19.272811999999998
#
# number of rings (size 3 to 8) (size 9 to 14) (size 15 to 20)
#    0.000    2.857    0.000    3.857    0.000    3.714 
#    0.000    4.286    0.000    5.143    0.000    4.000 
#    0.000    0.000    0.000    0.000    0.000    0.000 
#
# Total GULP energy -312269.561587 kJ/mol
# GULP energy per Si atom -5576.242171 kJ/mol
# Density = 1.922895 g / cm^3
# Si number density = 19.272812 Si / 1000 Ang^3
#
#
#
# Elastic Constant Matrix: (Units=GPa)
#
#
# Indices 1 2 3 4 5 6 
#
# 1 140.2544 102.5298 9.7880 0.0000 0.0000 0.0000
# 2 102.5298 107.7677 13.7164 0.0000 0.0000 0.0000
# 3 9.7880 13.7164 15.5871 0.0000 0.0000 0.0000
# 4 0.0000 0.0000 0.0000 56.0905 0.0000 0.0000
# 5 0.0000 0.0000 0.0000 0.0000 16.3174 0.0000
# 6 0.0000 0.0000 0.0000 0.0000 0.0000 16.3730
#
#
#
# Elastic Compliance Matrix: (Units=1/GPa)
#
#
# Indices 1 2 3 4 5 6 
#
# 1 0.023844 -0.023400 0.005619 0.000000 0.000000 0.000000
# 2 -0.023400 0.033414 -0.014710 0.000000 0.000000 0.000000
# 3 0.005619 -0.014710 0.073572 0.000000 0.000000 0.000000
# 4 0.000000 0.000000 0.000000 0.017828 0.000000 0.000000
# 5 0.000000 0.000000 0.000000 0.000000 0.061284 0.000000
# 6 0.000000 0.000000 0.000000 0.000000 0.000000 0.061076
#
#
# Mechanical properties :
#
#
# Convention : Reuss Voigt Hill
#
# Bulk Modulus (GPa) = 15.18654 57.29749 36.24201
# Shear Modulus (GPa) = 13.96843 26.92785 20.44814
#
# Velocity S-wave (km/s) = 2.69508 3.74196 3.26081
# Velocity P-wave (km/s) = 4.19303 6.96160 5.74654
#
# Compressibility (1/GPa) = 0.06584780
#
# Stress axis : x y z
#
# Youngs Moduli (GPa) = 41.93943 29.92736 13.59217
#
# Poissons Ratio (x) = 0.70030 -0.07637
# Poissons Ratio (y) = 0.98139 0.19994
# Poissons Ratio (z) = -0.23565 0.44022
#
# Static dielectric constant tensor:
#      x y z
#    x 1.689950 0.000000 0.000000 
#    y 0.000000 1.667170 0.000000 
#    z 0.000000 0.000000 1.715200 
# 
# From -- ./inp_files/7359.got.cif
#   From: 2010.05.17/outbox.cif.g08.bks.cpg/sg47_4_cif.got.tgz:7359.got - 2010.06.03 20:15:42.
