data_PCOD9384267
_publ_section_title
;
Structure prediction by ZEFSAII (Michael W. Deem and Ramdas Pophale) SiO2 
 PCOD9384267
Probable space group: P M M M
;
_chemical_formula_sum "Si O2"
_cell_formula_units_Z 36
_cell_length_a 23.446580
_cell_length_b 7.401048
_cell_length_c 9.904668
_cell_angle_alpha 90.000000
_cell_angle_beta 90.000000
_cell_angle_gamma 90.000000
_cell_volume 1718.749748
_symmetry_space_group_name_H-M "P M M M"
_symmetry_group_IT_number 47
_symmetry_cell_setting 'orthorhombic'
loop_
_space_group_symop_operation_xyz
x,y,z
-x,-y,z
x,-y,-z
-x,y,-z
-x,-y,-z
x,y,-z
-x,y,z
x,-y,z
loop_
_atom_site_type_symbol
_atom_site_label
_atom_site_fract_x
_atom_site_fract_y
_atom_site_fract_z
Si Si1 0.000000 0.279012 0.655261
Si Si2 0.897463 0.719984 0.153995
Si Si3 0.435202 0.782663 0.151618
Si Si4 0.767446 0.720480 0.846276
Si Si5 0.331642 0.713629 0.348296
O O1 0.944176 0.220860 0.738365
O O2 0.000000 0.500000 0.654904
O O3 0.000000 0.220916 0.500000
O O4 0.897996 0.500000 0.154276
O O5 0.832476 0.775224 0.184294
O O6 0.911366 0.774969 0.000000
O O7 0.500000 0.720925 0.179269
O O8 0.389564 0.732844 0.263670
O O9 0.436641 0.000000 0.147672
O O10 0.418947 0.720427 0.000000
O O11 0.766829 0.500000 0.845676
O O12 0.720695 0.786560 0.740718
O O13 0.753701 0.775534 0.000000
O O14 0.335569 0.787367 0.500000
O O15 0.321175 0.500000 0.360000
#
# Coordination Sequence:
#
# PCOD9384267 Si02
#       5
#     4   8   8   8   8
#     4   9  15  19  25  41  65  95 132 173 216 261
#     4   8  13  21  32  45  64  95 136 178 216 255
#     4   9  19  36  55  72  90 116 152 190 226 266
#     4   8  14  25  40  56  76 107 146 184 221 261
#     4  10  20  31  45  69  98 124 150 183 225 273
#
# _framework density 20.945457999999999
#
# number of rings (size 3 to 8) (size 9 to 14) (size 15 to 20)
#    0.000    3.222    0.000    3.000    0.000    4.889 
#    0.000    7.778    0.000    0.000    0.000    0.000 
#    0.000    0.000    0.000    1.000    0.000   20.444 
#
# Total GULP energy -200920.998659 kJ/mol
# GULP energy per Si atom -5581.138852 kJ/mol
# Density = 2.089779 g / cm^3
# Si number density = 20.945458 Si / 1000 Ang^3
#
#
#
# Elastic Constant Matrix: (Units=GPa)
#
#
# Indices 1 2 3 4 5 6 
#
# 1 170.3247 1.4783 164.5576 0.0000 0.0000 0.0000
# 2 1.4783 69.2938 6.9722 0.0000 0.0000 0.0000
# 3 164.5576 6.9722 225.5718 0.0000 0.0000 0.0000
# 4 0.0000 0.0000 0.0000 -7.1112 0.0000 0.0000
# 5 0.0000 0.0000 0.0000 0.0000 -11.3436 0.0000
# 6 0.0000 0.0000 0.0000 0.0000 0.0000 75.4467
#
#
#
# Elastic Compliance Matrix: (Units=1/GPa)
#
#
# Indices 1 2 3 4 5 6 
#
# 1 0.019964 0.001043 -0.014596 0.000000 0.000000 0.000000
# 2 0.001043 0.014531 -0.001210 0.000000 0.000000 0.000000
# 3 -0.014596 -0.001210 0.015119 0.000000 0.000000 0.000000
# 4 0.000000 0.000000 0.000000 -0.140623 0.000000 0.000000
# 5 0.000000 0.000000 0.000000 0.000000 -0.088156 0.000000
# 6 0.000000 0.000000 0.000000 0.000000 0.000000 0.013254
#
#
# Mechanical properties :
#
#
# Convention : Reuss Voigt Hill
#
# Bulk Modulus (GPa) = 49.78369 90.13404 69.95886
# Shear Modulus (GPa) = -38.55405 30.87721 -3.83842
#
# Velocity S-wave (km/s) = -4.29498 3.84366 -1.35520
# Velocity P-wave (km/s) = 0.88087 7.92619 5.56994
#
# Compressibility (1/GPa) = 0.02008690
#
# Stress axis : x y z
#
# Youngs Moduli (GPa) = 50.08931 68.81942 66.14239
#
# Poissons Ratio (x) = -0.07176 0.96545
# Poissons Ratio (y) = -0.05223 0.08002
# Poissons Ratio (z) = 0.73113 0.08326
#
# Static dielectric constant tensor:
#      x y z
#    x 1.719950 0.000000 0.000000 
#    y 0.000000 1.829290 0.000000 
#    z 0.000000 0.000000 1.722640 
# 
# From -- ./inp_files/10566.got.cif
#   From: 2010.05.17/outbox.cif.g08.bks.cpg/sg47_6_cif.got.tgz:10566.got - 2010.06.03 20:15:42.
