data_PCOD9384928
_publ_section_title
;
Structure prediction by ZEFSAII (Michael W. Deem and Ramdas Pophale) SiO2 
 PCOD9384928
Probable space group: P M M M
;
_chemical_formula_sum "Si O2"
_cell_formula_units_Z 52
_cell_length_a 14.814376
_cell_length_b 24.463652
_cell_length_c 7.410138
_cell_angle_alpha 90.000000
_cell_angle_beta 90.000000
_cell_angle_gamma 90.000000
_cell_volume 2685.535820
_symmetry_space_group_name_H-M "P M M M"
_symmetry_group_IT_number 47
_symmetry_cell_setting 'orthorhombic'
loop_
_space_group_symop_operation_xyz
x,y,z
-x,-y,z
x,-y,-z
-x,y,-z
-x,-y,-z
x,y,-z
-x,y,z
x,-y,z
loop_
_atom_site_type_symbol
_atom_site_label
_atom_site_fract_x
_atom_site_fract_y
_atom_site_fract_z
Si Si1 0.900146 0.272972 0.282153
Si Si2 0.390400 0.000000 0.290593
Si Si3 0.395276 0.119568 0.279033
Si Si4 0.899799 0.597985 0.211397
Si Si5 0.604279 0.666887 0.720547
Si Si6 0.295128 0.440698 0.291382
Si Si7 0.713574 0.774418 0.720488
O O1 0.900258 0.271339 0.500000
O O2 0.887120 0.336643 0.232613
O O3 0.815966 0.237018 0.220315
O O4 0.000000 0.256448 0.219002
O O5 0.364734 0.940709 0.215415
O O6 0.500000 0.000000 0.288209
O O7 0.361719 0.000000 0.500000
O O8 0.395027 0.118263 0.500000
O O9 0.500000 0.128578 0.226871
O O10 0.332365 0.169314 0.220937
O O11 0.812417 0.569024 0.289945
O O12 0.000000 0.584705 0.284332
O O13 0.900377 0.584964 0.000000
O O14 0.607432 0.667092 0.500000
O O15 0.500000 0.666396 0.773780
O O16 0.656396 0.612820 0.785603
O O17 0.654407 0.722163 0.777010
O O18 0.324051 0.442807 0.500000
O O19 0.315577 0.500000 0.209997
O O20 0.713396 0.775108 0.500000
#
# Coordination Sequence:
#
# PCOD9384928 Si02
#       7
#     8   4   8   8   8   8   8
#     4   9  16  27  44  64  86 109 134 169 211 255
#     4   7  10  16  24  38  69 111 144 167 197 239
#     4   8  12  17  27  47  76 108 140 172 204 240
#     4  10  20  33  49  67  86 109 137 171 212 257
#     4   9  16  26  41  62  85 105 131 172 213 244
#     4  10  20  33  48  66  87 111 139 170 208 253
#     4   9  14  21  36  58  80 103 134 172 211 245
#
# _framework density 19.362991000000001
#
# number of rings (size 3 to 8) (size 9 to 14) (size 15 to 20)
#    0.000    3.000    1.538    1.846    0.000    3.692 
#    0.000    3.077    0.000    0.462    0.000    1.615 
#    0.000    4.308    0.000    0.692    0.000   11.615 
#
# Total GULP energy -290028.787647 kJ/mol
# GULP energy per Si atom -5577.476686 kJ/mol
# Density = 1.931892 g / cm^3
# Si number density = 19.362991 Si / 1000 Ang^3
#
#
#
# Elastic Constant Matrix: (Units=GPa)
#
#
# Indices 1 2 3 4 5 6 
#
# 1 112.2618 80.7426 0.1092 0.0000 0.0000 0.0000
# 2 80.7426 170.5251 4.0984 0.0000 0.0000 0.0000
# 3 0.1092 4.0984 64.0369 0.0000 0.0000 0.0000
# 4 0.0000 0.0000 0.0000 -30.9656 0.0000 0.0000
# 5 0.0000 0.0000 0.0000 0.0000 -41.1252 0.0000
# 6 0.0000 0.0000 0.0000 0.0000 0.0000 17.6214
#
#
#
# Elastic Compliance Matrix: (Units=1/GPa)
#
#
# Indices 1 2 3 4 5 6 
#
# 1 0.013517 -0.006410 0.000387 0.000000 0.000000 0.000000
# 2 -0.006410 0.008913 -0.000559 0.000000 0.000000 0.000000
# 3 0.000387 -0.000559 0.015651 0.000000 0.000000 0.000000
# 4 0.000000 0.000000 0.000000 -0.032294 0.000000 0.000000
# 5 0.000000 0.000000 0.000000 0.000000 -0.024316 0.000000
# 6 0.000000 0.000000 0.000000 0.000000 0.000000 0.056749
#
#
# Mechanical properties :
#
#
# Convention : Reuss Voigt Hill
#
# Bulk Modulus (GPa) = 40.13299 57.41382 48.77340
# Shear Modulus (GPa) = 83.76578 6.56438 45.16508
#
# Velocity S-wave (km/s) = 6.58443 1.84324 4.83488
# Velocity P-wave (km/s) = 8.86442 5.85198 7.51078
#
# Compressibility (1/GPa) = 0.02491716
#
# Stress axis : x y z
#
# Youngs Moduli (GPa) = 73.97824 112.19991 63.89312
#
# Poissons Ratio (x) = 0.71917 -0.02474
# Poissons Ratio (y) = 0.47418 0.03575
# Poissons Ratio (z) = -0.02864 0.06277
#
# Static dielectric constant tensor:
#      x y z
#    x 1.661770 0.000000 0.000000 
#    y 0.000000 1.674170 0.000000 
#    z 0.000000 0.000000 1.727200 
# 
# From -- ./inp_files/7590.got.cif
#   From: 2010.05.17/outbox.cif.g08.bks.cpg/sg47_4_cif.got.tgz:7590.got - 2010.06.03 20:15:42.
