data_PCOD9385771
_publ_section_title
;
Structure prediction by ZEFSAII (Michael W. Deem and Ramdas Pophale) SiO2 
 PCOD9385771
Probable space group: P M M M
;
_chemical_formula_sum "Si O2"
_cell_formula_units_Z 44
_cell_length_a 31.036878
_cell_length_b 8.462927
_cell_length_c 7.460461
_cell_angle_alpha 90.000000
_cell_angle_beta 90.000000
_cell_angle_gamma 90.000000
_cell_volume 1959.585820
_symmetry_space_group_name_H-M "P M M M"
_symmetry_group_IT_number 47
_symmetry_cell_setting 'orthorhombic'
loop_
_space_group_symop_operation_xyz
x,y,z
-x,-y,z
x,-y,-z
-x,y,-z
-x,-y,-z
x,y,-z
-x,y,z
x,-y,z
loop_
_atom_site_type_symbol
_atom_site_label
_atom_site_fract_x
_atom_site_fract_y
_atom_site_fract_z
Si Si1 0.407711 0.325934 0.209597
Si Si2 0.770142 0.680669 0.714006
Si Si3 0.046337 0.814534 0.217606
Si Si4 0.550484 0.000000 0.217862
Si Si5 0.319419 0.178030 0.282864
Si Si6 0.863531 0.321197 0.785083
O O1 0.418522 0.500000 0.285189
O O2 0.356516 0.296770 0.222898
O O3 0.428671 0.164563 0.284633
O O4 0.419885 0.330640 0.000000
O O5 0.765951 0.671476 0.500000
O O6 0.769776 0.500000 0.784854
O O7 0.728192 0.772693 0.779155
O O8 0.817126 0.755480 0.748013
O O9 0.091626 0.747931 0.283979
O O10 0.000000 0.746549 0.278484
O O11 0.046039 0.000000 0.258113
O O12 0.046529 0.799097 0.000000
O O13 0.500000 0.000000 0.257816
O O14 0.555775 0.000000 0.000000
O O15 0.319538 0.178460 0.500000
O O16 0.329865 0.000000 0.222785
O O17 0.860210 0.500000 0.716611
O O18 0.867160 0.324803 0.000000
#
# Coordination Sequence:
#
# PCOD9385771 Si02
#       6
#     8   8   8   4   8   8
#     4  10  20  34  55  82 110 142 179 219 264 310
#     4   9  18  32  47  64  91 127 161 193 238 297
#     4   8  14  25  41  61  85 112 142 179 227 283
#     4   9  18  34  55  81 115 147 177 219 264 309
#     4  10  20  34  53  76 102 135 175 216 259 309
#     4   9  17  28  43  65  90 114 147 193 238 280
#
# _framework density 22.453724999999999
#
# number of rings (size 3 to 8) (size 9 to 14) (size 15 to 20)
#    0.000    2.818    0.909    1.091    0.000    3.273 
#    0.000    5.455    0.000    1.636    0.000    5.091 
#    0.000    0.000    0.000    0.000    0.000    0.000 
#
# Total GULP energy -245382.213360 kJ/mol
# GULP energy per Si atom -5576.868485 kJ/mol
# Density = 2.240262 g / cm^3
# Si number density = 22.453725 Si / 1000 Ang^3
#
#
#
# Elastic Constant Matrix: (Units=GPa)
#
#
# Indices 1 2 3 4 5 6 
#
# 1 148.3957 69.0551 -5.7810 0.0000 0.0000 0.0000
# 2 69.0551 123.6709 6.4599 0.0000 0.0000 0.0000
# 3 -5.7810 6.4599 66.3863 0.0000 0.0000 0.0000
# 4 0.0000 0.0000 0.0000 2.3790 0.0000 0.0000
# 5 0.0000 0.0000 0.0000 0.0000 26.9159 0.0000
# 6 0.0000 0.0000 0.0000 0.0000 0.0000 207.0681
#
#
#
# Elastic Compliance Matrix: (Units=1/GPa)
#
#
# Indices 1 2 3 4 5 6 
#
# 1 0.009216 -0.005215 0.001310 0.000000 0.000000 0.000000
# 2 -0.005215 0.011078 -0.001532 0.000000 0.000000 0.000000
# 3 0.001310 -0.001532 0.015326 0.000000 0.000000 0.000000
# 4 0.000000 0.000000 0.000000 0.420353 0.000000 0.000000
# 5 0.000000 0.000000 0.000000 0.000000 0.037153 0.000000
# 6 0.000000 0.000000 0.000000 0.000000 0.000000 0.004829
#
#
# Mechanical properties :
#
#
# Convention : Reuss Voigt Hill
#
# Bulk Modulus (GPa) = 40.40857 53.10233 46.75545
# Shear Modulus (GPa) = 9.66972 65.18718 37.42845
#
# Velocity S-wave (km/s) = 2.07746 5.39396 4.08722
# Velocity P-wave (km/s) = 4.87749 7.90532 6.56826
#
# Compressibility (1/GPa) = 0.02474723
#
# Stress axis : x y z
#
# Youngs Moduli (GPa) = 108.50242 90.27105 65.24648
#
# Poissons Ratio (x) = 0.47073 -0.08547
# Poissons Ratio (y) = 0.56580 0.09996
# Poissons Ratio (z) = -0.14214 0.13830
#
# Static dielectric constant tensor:
#      x y z
#    x 1.846040 0.000000 0.000000 
#    y 0.000000 1.824900 0.000000 
#    z 0.000000 0.000000 1.856120 
# 
# From -- ./inp_files/1964.got.cif
#   From: 2010.05.17/outbox.cif.g08.bks.cpg/sg47_1_cif.got.tgz:1964.got - 2010.06.03 20:15:42.
