data_PCOD9385001
_publ_section_title
;
Structure prediction by ZEFSAII (Michael W. Deem and Ramdas Pophale) SiO2 
 PCOD9385001
Probable space group: P M M M
;
_chemical_formula_sum "Si O2"
_cell_formula_units_Z 64
_cell_length_a 32.260978
_cell_length_b 9.207692
_cell_length_c 14.697896
_cell_angle_alpha 90.000000
_cell_angle_beta 90.000000
_cell_angle_gamma 90.000000
_cell_volume 4365.997500
_symmetry_space_group_name_H-M "P M M M"
_symmetry_group_IT_number 47
_symmetry_cell_setting 'orthorhombic'
loop_
_space_group_symop_operation_xyz
x,y,z
-x,-y,z
x,-y,-z
-x,y,-z
-x,-y,-z
x,y,-z
-x,y,z
x,-y,z
loop_
_atom_site_type_symbol
_atom_site_label
_atom_site_fract_x
_atom_site_fract_y
_atom_site_fract_z
Si Si1 0.872812 0.832331 0.110590
Si Si2 0.323068 0.172782 0.395530
Si Si3 0.546212 0.325052 0.780270
Si Si4 0.045285 0.329514 0.889653
Si Si5 0.293159 0.325391 0.218601
Si Si6 0.220095 0.824435 0.107664
Si Si7 0.422029 0.173109 0.603202
Si Si8 0.625202 0.323445 0.103858
O O1 0.913158 0.747441 0.143888
O O2 0.826755 0.779679 0.135423
O O3 0.876415 0.000000 0.137640
O O4 0.873253 0.828351 0.000000
O O5 0.311735 0.207477 0.500000
O O6 0.299196 0.263368 0.319771
O O7 0.372583 0.199506 0.386539
O O8 0.316676 0.000000 0.381827
O O9 0.500000 0.286734 0.812383
O O10 0.548607 0.500000 0.774072
O O11 0.554370 0.258025 0.681383
O O12 0.583047 0.275424 0.846775
O O13 0.047155 0.500000 0.868471
O O14 0.000000 0.272640 0.859282
O O15 0.045513 0.317339 0.000000
O O16 0.290156 0.500000 0.219181
O O17 0.254269 0.254835 0.167553
O O18 0.334612 0.282705 0.162316
O O19 0.222803 0.000000 0.116746
O O20 0.225813 0.791517 0.000000
O O21 0.433767 0.214435 0.500000
O O22 0.428599 0.000000 0.612470
O O23 0.624415 0.500000 0.101781
O O24 0.628038 0.272178 0.000000
#
# Coordination Sequence:
#
# PCOD9385001 Si02
#       8
#     8   8   8   8   8   8   8   8
#     4   8  14  24  36  50  71 102 141 183 222 258
#     4   9  18  33  52  71  90 113 140 169 205 254
#     4  10  20  33  49  69  91 115 143 174 209 248
#     4   8  13  20  30  46  69  98 134 178 226 269
#     4  11  20  30  48  71  92 113 139 177 220 260
#     4   9  18  31  44  60  86 119 152 186 224 264
#     4   9  18  33  52  71  91 115 139 165 202 249
#     4   9  18  32  47  65  89 113 140 175 210 246
#
# _framework density 14.658735
#
# number of rings (size 3 to 8) (size 9 to 14) (size 15 to 20)
#    0.000    2.875    1.250    2.625    0.000    2.750 
#    0.000    6.250    0.000    1.125    0.000    0.875 
#    0.000    0.000    0.000    0.000    0.000    0.625 
#
# Total GULP energy -356421.073689 kJ/mol
# GULP energy per Si atom -5569.079276 kJ/mol
# Density = 1.462537 g / cm^3
# Si number density = 14.658735 Si / 1000 Ang^3
#
#
#
# Elastic Constant Matrix: (Units=GPa)
#
#
# Indices 1 2 3 4 5 6 
#
# 1 136.2416 45.5437 51.3748 0.0000 0.0000 0.0000
# 2 45.5437 25.0196 25.8980 0.0000 0.0000 0.0000
# 3 51.3748 25.8980 69.2107 0.0000 0.0000 0.0000
# 4 0.0000 0.0000 0.0000 18.0120 0.0000 0.0000
# 5 0.0000 0.0000 0.0000 0.0000 4.0468 0.0000
# 6 0.0000 0.0000 0.0000 0.0000 0.0000 23.8035
#
#
#
# Elastic Compliance Matrix: (Units=1/GPa)
#
#
# Indices 1 2 3 4 5 6 
#
# 1 0.018898 -0.032448 -0.001886 0.000000 0.000000 0.000000
# 2 -0.032448 0.120950 -0.021172 0.000000 0.000000 0.000000
# 3 -0.001886 -0.021172 0.023771 0.000000 0.000000 0.000000
# 4 0.000000 0.000000 0.000000 0.055518 0.000000 0.000000
# 5 0.000000 0.000000 0.000000 0.000000 0.247111 0.000000
# 6 0.000000 0.000000 0.000000 0.000000 0.000000 0.042011
#
#
# Mechanical properties :
#
#
# Convention : Reuss Voigt Hill
#
# Bulk Modulus (GPa) = 19.00918 52.90055 35.95486
# Shear Modulus (GPa) = 7.85167 16.34949 12.10058
#
# Velocity S-wave (km/s) = 2.31688 3.34330 2.87624
# Velocity P-wave (km/s) = 4.48923 7.14632 5.96754
#
# Compressibility (1/GPa) = 0.05260616
#
# Stress axis : x y z
#
# Youngs Moduli (GPa) = 52.91536 8.26789 42.06775
#
# Poissons Ratio (x) = 0.26828 0.07935
# Poissons Ratio (y) = 1.71700 0.89066
# Poissons Ratio (z) = 0.09981 0.17505
#
# Static dielectric constant tensor:
#      x y z
#    x 1.501300 0.000000 0.000000 
#    y 0.000000 1.485800 0.000000 
#    z 0.000000 0.000000 1.462710 
# 
# From -- ./inp_files/8269.got.cif
#   From: 2010.05.17/outbox.cif.g08.bks.cpg/sg47_5_cif.got.tgz:8269.got - 2010.06.03 20:15:42.
