data_PCOD9385643
_publ_section_title
;
Structure prediction by ZEFSAII (Michael W. Deem and Ramdas Pophale) SiO2 
 PCOD9385643
Probable space group: P M M M
;
_chemical_formula_sum "Si O2"
_cell_formula_units_Z 52
_cell_length_a 7.706340
_cell_length_b 21.503400
_cell_length_c 15.464947
_cell_angle_alpha 90.000000
_cell_angle_beta 90.000000
_cell_angle_gamma 90.000000
_cell_volume 2562.735208
_symmetry_space_group_name_H-M "P M M M"
_symmetry_group_IT_number 47
_symmetry_cell_setting 'orthorhombic'
loop_
_space_group_symop_operation_xyz
x,y,z
-x,-y,z
x,-y,-z
-x,y,-z
-x,-y,-z
x,y,-z
-x,y,z
x,-y,z
loop_
_atom_site_type_symbol
_atom_site_label
_atom_site_fract_x
_atom_site_fract_y
_atom_site_fract_z
Si Si1 0.791684 0.928871 0.500000
Si Si2 0.295506 0.134427 0.321799
Si Si3 0.210028 0.201151 0.905360
Si Si4 0.301590 0.734641 0.733918
Si Si5 0.711634 0.500000 0.399798
Si Si6 0.797877 0.931433 0.850089
Si Si7 0.794594 0.500000 0.898964
Si Si8 0.290487 0.595883 0.746724
O O1 0.729295 0.893851 0.415151
O O2 0.000000 0.929359 0.500000
O O3 0.729799 0.000000 0.500000
O O4 0.500000 0.137378 0.300475
O O5 0.224452 0.205098 0.315023
O O6 0.212864 0.089189 0.250247
O O7 0.297144 0.241321 0.832015
O O8 0.271866 0.129580 0.897818
O O9 0.000000 0.201219 0.891413
O O10 0.245139 0.225744 0.000000
O O11 0.500000 0.727937 0.702281
O O12 0.222290 0.666082 0.736648
O O13 0.500000 0.500000 0.402823
O O14 0.770748 0.500000 0.500000
O O15 0.764822 0.557622 0.338605
O O16 0.000000 0.935508 0.874901
O O17 0.720668 0.000000 0.863540
O O18 0.750941 0.440985 0.836005
O O19 0.000000 0.500000 0.907698
O O20 0.725438 0.500000 0.000000
O O21 0.500000 0.598040 0.745763
#
# Coordination Sequence:
#
# PCOD9385643 Si02
#       8
#     4   8   8   8   4   8   4   8
#     4  11  23  37  53  73  99 132 171 214 259 311
#     4  10  20  34  51  73 100 128 163 208 257 306
#     4   9  18  31  47  69  96 128 166 207 251 298
#     4   9  19  35  52  73 101 134 169 205 249 301
#     4   8  14  28  52  81 102 121 157 202 242 284
#     4   9  17  30  48  68  92 125 163 204 252 304
#     4  10  21  35  52  79 112 143 177 218 262 304
#     4   9  18  34  55  78 105 138 174 209 252 305
#
# _framework density 20.290821000000001
#
# number of rings (size 3 to 8) (size 9 to 14) (size 15 to 20)
#    0.000    2.692    0.000    1.846    0.000    5.846 
#    1.385    4.615    0.000    3.692    0.000    4.308 
#    0.000    0.000    0.000    0.000    0.000    0.000 
#
# Total GULP energy -289698.607864 kJ/mol
# GULP energy per Si atom -5571.127074 kJ/mol
# Density = 2.024464 g / cm^3
# Si number density = 20.290821 Si / 1000 Ang^3
#
#
#
# Elastic Constant Matrix: (Units=GPa)
#
#
# Indices 1 2 3 4 5 6 
#
# 1 40.2243 5.9791 -2.6120 0.0000 0.0000 0.0000
# 2 5.9791 165.4146 45.1622 0.0000 0.0000 0.0000
# 3 -2.6120 45.1622 122.4833 0.0000 0.0000 0.0000
# 4 0.0000 0.0000 0.0000 -10.6836 0.0000 0.0000
# 5 0.0000 0.0000 0.0000 0.0000 -101.6009 0.0000
# 6 0.0000 0.0000 0.0000 0.0000 0.0000 -41.9039
#
#
#
# Elastic Compliance Matrix: (Units=1/GPa)
#
#
# Indices 1 2 3 4 5 6 
#
# 1 0.025097 -0.001171 0.000967 0.000000 0.000000 0.000000
# 2 -0.001171 0.006777 -0.002524 0.000000 0.000000 0.000000
# 3 0.000967 -0.002524 0.009116 0.000000 0.000000 0.000000
# 4 0.000000 0.000000 0.000000 -0.093602 0.000000 0.000000
# 5 0.000000 0.000000 0.000000 0.000000 -0.009842 0.000000
# 6 0.000000 0.000000 0.000000 0.000000 0.000000 -0.023864
#
#
# Mechanical properties :
#
#
# Convention : Reuss Voigt Hill
#
# Bulk Modulus (GPa) = 28.14198 47.24229 37.69213
# Shear Modulus (GPa) = -72.44495 -12.19815 -42.32155
#
# Velocity S-wave (km/s) = -5.98171 -2.45453 -4.57195
# Velocity P-wave (km/s) = 5.81449 3.91155 3.04205
#
# Compressibility (1/GPa) = 0.03553411
#
# Stress axis : x y z
#
# Youngs Moduli (GPa) = 39.84463 147.56257 109.70263
#
# Poissons Ratio (x) = 0.17283 -0.10609
# Poissons Ratio (y) = 0.04667 0.27686
# Poissons Ratio (z) = -0.03853 0.37241
#
# Static dielectric constant tensor:
#      x y z
#    x 1.784490 0.000000 0.000000 
#    y 0.000000 1.753250 0.000000 
#    z 0.000000 0.000000 1.693660 
# 
# From -- ./inp_files/21560.got.cif
#   From: 2010.05.17/outbox.cif.g08.bks.cpg/sg47_11_cif.got.tgz:21560.got - 2010.06.03 20:15:42.
