data_PCOD9385415
_publ_section_title
;
Structure prediction by ZEFSAII (Michael W. Deem and Ramdas Pophale) SiO2 
 PCOD9385415
Probable space group: P M M M
;
_chemical_formula_sum "Si O2"
_cell_formula_units_Z 52
_cell_length_a 14.572419
_cell_length_b 23.826487
_cell_length_c 8.889126
_cell_angle_alpha 90.000000
_cell_angle_beta 90.000000
_cell_angle_gamma 90.000000
_cell_volume 3086.389455
_symmetry_space_group_name_H-M "P M M M"
_symmetry_group_IT_number 47
_symmetry_cell_setting 'orthorhombic'
loop_
_space_group_symop_operation_xyz
x,y,z
-x,-y,z
x,-y,-z
-x,y,-z
-x,-y,-z
x,y,-z
-x,y,z
x,-y,z
loop_
_atom_site_type_symbol
_atom_site_label
_atom_site_fract_x
_atom_site_fract_y
_atom_site_fract_z
Si Si1 0.781755 0.721033 0.319392
Si Si2 0.605297 0.768652 0.178940
Si Si3 0.891234 0.382271 0.179682
Si Si4 0.214617 0.062555 0.179725
Si Si5 0.395415 0.892691 0.679909
Si Si6 0.893396 0.166367 0.319001
Si Si7 0.888667 0.500000 0.673258
O O1 0.777208 0.718400 0.500000
O O2 0.680985 0.728303 0.249743
O O3 0.834391 0.667365 0.255535
O O4 0.838177 0.777426 0.276910
O O5 0.500000 0.750326 0.203619
O O6 0.615391 0.829552 0.256742
O O7 0.619788 0.774648 0.000000
O O8 0.861450 0.442865 0.243282
O O9 0.000000 0.375087 0.213999
O O10 0.880794 0.381007 0.000000
O O11 0.316784 0.070648 0.244805
O O12 0.152776 0.111901 0.246946
O O13 0.180879 0.000000 0.218556
O O14 0.217342 0.067783 0.000000
O O15 0.383359 0.891898 0.500000
O O16 0.500000 0.910906 0.712917
O O17 0.888063 0.161243 0.500000
O O18 0.000000 0.171345 0.276250
O O19 0.858221 0.500000 0.500000
O O20 0.000000 0.500000 0.673790
#
# Coordination Sequence:
#
# PCOD9385415 Si02
#       7
#     8   8   8   8   8   8   4
#     4  11  21  34  55  82 110 141 179 220 264 316
#     4  10  20  34  54  80 109 139 171 211 262 318
#     4  10  20  33  51  78 113 152 190 226 267 315
#     4  11  24  39  55  76 102 134 173 216 265 322
#     4  10  20  35  56  80 104 132 167 208 259 319
#     4  10  22  39  57  77 102 135 175 219 266 315
#     4   9  17  31  51  75 108 149 190 231 271 311
#
# _framework density 16.848165000000002
#
# number of rings (size 3 to 8) (size 9 to 14) (size 15 to 20)
#    0.000    1.769    1.538    3.000    0.000    7.077 
#    0.000    3.077    0.000    0.000    0.000    0.538 
#    0.000    4.308    0.000    0.000    0.000    0.000 
#
# Total GULP energy -290413.982896 kJ/mol
# GULP energy per Si atom -5584.884286 kJ/mol
# Density = 1.680982 g / cm^3
# Si number density = 16.848165 Si / 1000 Ang^3
#
#
#
# Elastic Constant Matrix: (Units=GPa)
#
#
# Indices 1 2 3 4 5 6 
#
# 1 88.0914 59.2292 39.9341 0.0000 0.0000 0.0000
# 2 59.2292 130.6232 47.6133 0.0000 0.0000 0.0000
# 3 39.9341 47.6133 50.6431 0.0000 0.0000 0.0000
# 4 0.0000 0.0000 0.0000 31.2414 0.0000 0.0000
# 5 0.0000 0.0000 0.0000 0.0000 26.4130 0.0000
# 6 0.0000 0.0000 0.0000 0.0000 0.0000 21.8168
#
#
#
# Elastic Compliance Matrix: (Units=1/GPa)
#
#
# Indices 1 2 3 4 5 6 
#
# 1 0.019560 -0.004940 -0.010779 0.000000 0.000000 0.000000
# 2 -0.004940 0.012895 -0.008228 0.000000 0.000000 0.000000
# 3 -0.010779 -0.008228 0.035982 0.000000 0.000000 0.000000
# 4 0.000000 0.000000 0.000000 0.032009 0.000000 0.000000
# 5 0.000000 0.000000 0.000000 0.000000 0.037860 0.000000
# 6 0.000000 0.000000 0.000000 0.000000 0.000000 0.045836
#
#
# Mechanical properties :
#
#
# Convention : Reuss Voigt Hill
#
# Bulk Modulus (GPa) = 48.68120 62.54565 55.61343
# Shear Modulus (GPa) = 20.93078 24.06632 22.49855
#
# Velocity S-wave (km/s) = 3.52848 3.78355 3.65824
# Velocity P-wave (km/s) = 6.74959 7.50271 7.13609
#
# Compressibility (1/GPa) = 0.02054181
#
# Stress axis : x y z
#
# Youngs Moduli (GPa) = 51.12527 77.55126 27.79204
#
# Poissons Ratio (x) = 0.38310 0.29958
# Poissons Ratio (y) = 0.25256 0.22867
# Poissons Ratio (z) = 0.55109 0.63808
#
# Static dielectric constant tensor:
#      x y z
#    x 1.566430 0.000000 0.000000 
#    y 0.000000 1.547210 0.000000 
#    z 0.000000 0.000000 1.560170 
# 
# From -- ./inp_files/6933.got.cif
#   From: 2010.05.17/outbox.cif.g08.bks.cpg/sg47_4_cif.got.tgz:6933.got - 2010.06.03 20:15:42.
