data_PCOD9385602
_publ_section_title
;
Structure prediction by ZEFSAII (Michael W. Deem and Ramdas Pophale) SiO2 
 PCOD9385602
Probable space group: P M M M
;
_chemical_formula_sum "Si O2"
_cell_formula_units_Z 48
_cell_length_a 7.553400
_cell_length_b 16.015309
_cell_length_c 19.638557
_cell_angle_alpha 90.000000
_cell_angle_beta 90.000000
_cell_angle_gamma 90.000000
_cell_volume 2375.676928
_symmetry_space_group_name_H-M "P M M M"
_symmetry_group_IT_number 47
_symmetry_cell_setting 'orthorhombic'
loop_
_space_group_symop_operation_xyz
x,y,z
-x,-y,z
x,-y,-z
-x,y,-z
-x,-y,-z
x,y,-z
-x,y,z
x,-y,z
loop_
_atom_site_type_symbol
_atom_site_label
_atom_site_fract_x
_atom_site_fract_y
_atom_site_fract_z
Si Si1 0.288377 0.904844 0.808117
Si Si2 0.213092 0.228430 0.922269
Si Si3 0.789470 0.500000 0.577496
Si Si4 0.290067 0.682425 0.421895
Si Si5 0.788840 0.409917 0.917685
Si Si6 0.716765 0.161358 0.336085
Si Si7 0.284311 0.000000 0.577536
O O1 0.500000 0.911385 0.800409
O O2 0.255244 0.848205 0.873673
O O3 0.222106 0.857747 0.740402
O O4 0.219996 0.000000 0.812829
O O5 0.279264 0.319048 0.895147
O O6 0.000000 0.234956 0.925393
O O7 0.276276 0.216202 0.000000
O O8 0.715776 0.500000 0.500000
O O9 0.735722 0.589158 0.606867
O O10 0.000000 0.500000 0.574247
O O11 0.218352 0.686269 0.500000
O O12 0.500000 0.696051 0.427650
O O13 0.220479 0.754077 0.372239
O O14 0.716694 0.500000 0.893645
O O15 0.000000 0.411548 0.903965
O O16 0.769170 0.408704 0.000000
O O17 0.500000 0.163980 0.334705
O O18 0.768940 0.082743 0.382412
O O19 0.500000 0.000000 0.576575
O O20 0.223114 0.000000 0.500000
#
# Coordination Sequence:
#
# PCOD9385602 Si02
#       7
#     8   8   4   8   8   8   4
#     4  10  20  34  50  67  94 132 164 191 235 295
#     4   9  18  32  51  75  98 121 157 204 243 275
#     4   9  17  29  45  67  97 131 162 195 240 287
#     4   9  16  27  47  74  98 122 159 203 240 278
#     4   7  10  20  42  70  94 114 139 177 229 280
#     4   9  16  28  45  68  97 127 157 193 241 289
#     4   9  14  22  42  72 100 121 150 198 245 281
#
# _framework density 20.204767
#
# number of rings (size 3 to 8) (size 9 to 14) (size 15 to 20)
#    0.000    3.167    0.833    2.250    0.000    4.000 
#    0.000    2.500    1.833    0.500    0.000    2.333 
#    0.000    4.000    0.000    0.000    0.000    0.000 
#
# Total GULP energy -267427.650769 kJ/mol
# GULP energy per Si atom -5571.409391 kJ/mol
# Density = 2.015878 g / cm^3
# Si number density = 20.204767 Si / 1000 Ang^3
#
#
#
# Elastic Constant Matrix: (Units=GPa)
#
#
# Indices 1 2 3 4 5 6 
#
# 1 46.7803 3.8934 2.4182 0.0000 0.0000 0.0000
# 2 3.8934 229.2825 93.8190 0.0000 0.0000 0.0000
# 3 2.4182 93.8190 102.7798 0.0000 0.0000 0.0000
# 4 0.0000 0.0000 0.0000 11.0934 0.0000 0.0000
# 5 0.0000 0.0000 0.0000 0.0000 23.0627 0.0000
# 6 0.0000 0.0000 0.0000 0.0000 0.0000 6.7130
#
#
#
# Elastic Compliance Matrix: (Units=1/GPa)
#
#
# Indices 1 2 3 4 5 6 
#
# 1 0.021412 -0.000251 -0.000274 0.000000 0.000000 0.000000
# 2 -0.000251 0.006965 -0.006352 0.000000 0.000000 0.000000
# 3 -0.000274 -0.006352 0.015534 0.000000 0.000000 0.000000
# 4 0.000000 0.000000 0.000000 0.090144 0.000000 0.000000
# 5 0.000000 0.000000 0.000000 0.000000 0.043360 0.000000
# 6 0.000000 0.000000 0.000000 0.000000 0.000000 0.148965
#
#
# Mechanical properties :
#
#
# Convention : Reuss Voigt Hill
#
# Bulk Modulus (GPa) = 33.16130 64.34485 48.75307
# Shear Modulus (GPa) = 14.27817 26.75462 20.51639
#
# Velocity S-wave (km/s) = 2.66122 3.64287 3.19003
# Velocity P-wave (km/s) = 5.08832 7.04340 6.14412
#
# Compressibility (1/GPa) = 0.03015564
#
# Stress axis : x y z
#
# Youngs Moduli (GPa) = 46.70360 143.58218 64.37587
#
# Poissons Ratio (x) = 0.03609 0.01766
# Poissons Ratio (y) = 0.01174 0.40889
# Poissons Ratio (z) = 0.01281 0.91197
#
# Static dielectric constant tensor:
#      x y z
#    x 1.790940 0.000000 0.000000 
#    y 0.000000 1.751310 0.000000 
#    z 0.000000 0.000000 1.691250 
# 
# From -- ./inp_files/26551.got.cif
#   From: 2010.05.17/outbox.cif.g08.bks.cpg/sg47_14_cif.got.tgz:26551.got - 2010.06.03 20:15:42.
