data_PCOD9385863
_publ_section_title
;
Structure prediction by ZEFSAII (Michael W. Deem and Ramdas Pophale) SiO2 
 PCOD9385863
Probable space group: P M M M
;
_chemical_formula_sum "Si O2"
_cell_formula_units_Z 64
_cell_length_a 19.035240
_cell_length_b 20.050808
_cell_length_c 7.742569
_cell_angle_alpha 90.000000
_cell_angle_beta 90.000000
_cell_angle_gamma 90.000000
_cell_volume 2955.121350
_symmetry_space_group_name_H-M "P M M M"
_symmetry_group_IT_number 47
_symmetry_cell_setting 'orthorhombic'
loop_
_space_group_symop_operation_xyz
x,y,z
-x,-y,z
x,-y,-z
-x,y,-z
-x,-y,-z
x,y,-z
-x,y,z
x,-y,z
loop_
_atom_site_type_symbol
_atom_site_label
_atom_site_fract_x
_atom_site_fract_y
_atom_site_fract_z
Si Si1 0.918026 0.661208 0.708095
Si Si2 0.807828 0.075488 0.205851
Si Si3 0.420304 0.429323 0.790093
Si Si4 0.080420 0.189597 0.707542
Si Si5 0.352541 0.925720 0.294403
Si Si6 0.422003 0.204843 0.293024
Si Si7 0.793256 0.575544 0.202075
Si Si8 0.682728 0.317187 0.207863
O O1 0.910914 0.658690 0.500000
O O2 0.896436 0.736210 0.767514
O O3 0.872331 0.601631 0.783345
O O4 0.000000 0.654754 0.749948
O O5 0.865546 0.130998 0.250102
O O6 0.729606 0.092447 0.270186
O O7 0.825213 0.000000 0.269486
O O8 0.804076 0.072717 0.000000
O O9 0.500000 0.427769 0.731803
O O10 0.387693 0.500000 0.738512
O O11 0.379098 0.366271 0.731761
O O12 0.420551 0.428033 0.000000
O O13 0.076963 0.193653 0.500000
O O14 0.000000 0.177167 0.768926
O O15 0.364562 0.929037 0.500000
O O16 0.404078 0.869025 0.225961
O O17 0.362233 0.000000 0.221655
O O18 0.427107 0.203493 0.500000
O O19 0.500000 0.228138 0.228897
O O20 0.350956 0.246902 0.256986
O O21 0.784442 0.500000 0.273623
O O22 0.749527 0.639824 0.272949
O O23 0.772881 0.570567 0.000000
O O24 0.688971 0.314478 0.000000
#
# Coordination Sequence:
#
# PCOD9385863 Si02
#       8
#     8   8   8   8   8   8   8   8
#     4   9  20  39  60  82 109 144 188 235 281 331
#     4  10  21  35  53  81 117 152 187 232 284 335
#     4   8  13  23  43  69  94 126 170 213 249 291
#     4   9  19  36  57  81 111 150 195 237 276 327
#     4   9  19  37  59  80 105 144 190 231 276 331
#     4  10  22  38  56  82 113 143 179 228 282 330
#     4  10  22  38  56  83 116 147 183 229 279 331
#     4  10  20  34  53  78 109 143 178 218 265 324
#
# _framework density 21.657316999999999
#
# number of rings (size 3 to 8) (size 9 to 14) (size 15 to 20)
#    0.000    2.625    0.000    2.250    1.750    6.000 
#    0.000    5.000    0.000    1.125    0.000    7.000 
#    0.000    0.000    0.000    0.000    0.000    0.000 
#
# Total GULP energy -356553.368142 kJ/mol
# GULP energy per Si atom -5571.146377 kJ/mol
# Density = 2.160802 g / cm^3
# Si number density = 21.657317 Si / 1000 Ang^3
#
#
#
# Elastic Constant Matrix: (Units=GPa)
#
#
# Indices 1 2 3 4 5 6 
#
# 1 66.5129 57.0290 2.4003 0.0000 0.0000 0.0000
# 2 57.0290 115.6704 6.8966 0.0000 0.0000 0.0000
# 3 2.4003 6.8966 33.4219 0.0000 0.0000 0.0000
# 4 0.0000 0.0000 0.0000 16.7374 0.0000 0.0000
# 5 0.0000 0.0000 0.0000 0.0000 -7.1376 0.0000
# 6 0.0000 0.0000 0.0000 0.0000 0.0000 38.0549
#
#
#
# Elastic Compliance Matrix: (Units=1/GPa)
#
#
# Indices 1 2 3 4 5 6 
#
# 1 0.026065 -0.012898 0.000789 0.000000 0.000000 0.000000
# 2 -0.012898 0.015135 -0.002197 0.000000 0.000000 0.000000
# 3 0.000789 -0.002197 0.030317 0.000000 0.000000 0.000000
# 4 0.000000 0.000000 0.000000 0.059746 0.000000 0.000000
# 5 0.000000 0.000000 0.000000 0.000000 -0.140103 0.000000
# 6 0.000000 0.000000 0.000000 0.000000 0.000000 0.026278
#
#
# Mechanical properties :
#
#
# Convention : Reuss Voigt Hill
#
# Bulk Modulus (GPa) = 23.30627 38.69524 31.00076
# Shear Modulus (GPa) = 82.84851 19.48290 51.16570
#
# Velocity S-wave (km/s) = 6.19171 3.00259 4.86584
# Velocity P-wave (km/s) = 7.86773 5.47051 6.77598
#
# Compressibility (1/GPa) = 0.04290690
#
# Stress axis : x y z
#
# Youngs Moduli (GPa) = 38.36559 66.07073 32.98469
#
# Poissons Ratio (x) = 0.85217 -0.02604
# Poissons Ratio (y) = 0.49484 0.07246
# Poissons Ratio (z) = -0.03029 0.14515
#
# Static dielectric constant tensor:
#      x y z
#    x 1.809640 0.000000 0.000000 
#    y 0.000000 1.847420 0.000000 
#    z 0.000000 0.000000 1.824090 
# 
# From -- ./inp_files/11614.got.cif
#   From: 2010.05.17/outbox.cif.g08.bks.cpg/sg47_6_cif.got.tgz:11614.got - 2010.06.03 20:15:42.
