data_PCOD9385592
_publ_section_title
;
Structure prediction by ZEFSAII (Michael W. Deem and Ramdas Pophale) SiO2 
 PCOD9385592
Probable space group: P M M M
;
_chemical_formula_sum "Si O2"
_cell_formula_units_Z 44
_cell_length_a 33.415595
_cell_length_b 7.759295
_cell_length_c 8.993655
_cell_angle_alpha 90.000000
_cell_angle_beta 90.000000
_cell_angle_gamma 90.000000
_cell_volume 2331.887992
_symmetry_space_group_name_H-M "P M M M"
_symmetry_group_IT_number 47
_symmetry_cell_setting 'orthorhombic'
loop_
_space_group_symop_operation_xyz
x,y,z
-x,-y,z
x,-y,-z
-x,y,-z
-x,-y,-z
x,y,-z
-x,y,z
x,-y,z
loop_
_atom_site_type_symbol
_atom_site_label
_atom_site_fract_x
_atom_site_fract_y
_atom_site_fract_z
Si Si1 0.081286 0.789810 0.670352
Si Si2 0.543355 0.292737 0.677324
Si Si3 0.835563 0.199858 0.178848
Si Si4 0.687642 0.500000 0.680258
Si Si5 0.000000 0.788980 0.171088
Si Si6 0.630533 0.809956 0.681161
Si Si7 0.774902 0.500000 0.820556
O O1 0.082210 0.733507 0.500000
O O2 0.122073 0.742114 0.753406
O O3 0.040612 0.731246 0.749102
O O4 0.080311 0.000000 0.672193
O O5 0.542650 0.254951 0.500000
O O6 0.500000 0.234888 0.737821
O O7 0.545289 0.500000 0.691417
O O8 0.585052 0.219453 0.735840
O O9 0.800569 0.330993 0.222465
O O10 0.828052 0.000000 0.222861
O O11 0.838971 0.203799 0.000000
O O12 0.690252 0.500000 0.500000
O O13 0.661460 0.664654 0.728037
O O14 0.731547 0.500000 0.747670
O O15 0.000000 0.000000 0.174917
O O16 0.000000 0.736609 0.000000
O O17 0.628594 0.799803 0.500000
O O18 0.644152 0.000000 0.722685
O O19 0.771088 0.500000 0.000000
#
# Coordination Sequence:
#
# PCOD9385592 Si02
#       7
#     8   8   8   4   4   8   4
#     4   9  16  26  43  70 103 135 168 207 247 289
#     4   8  12  19  33  54  85 126 165 198 234 279
#     4   9  18  34  54  74  97 125 158 198 245 295
#     4  10  20  34  49  68  95 123 154 196 244 293
#     4   9  15  23  39  66 101 142 182 211 241 286
#     4   9  16  26  41  62  91 127 162 196 239 290
#     4  10  22  38  56  76  96 123 160 202 247 299
#
# _framework density 18.868829000000002
#
# number of rings (size 3 to 8) (size 9 to 14) (size 15 to 20)
#    0.000    3.000    0.909    1.364    0.000    5.091 
#    0.000    1.818    0.000    0.545    0.000    3.818 
#    0.000    1.455    0.000    1.636    0.000    1.818 
#
# Total GULP energy -245280.970435 kJ/mol
# GULP energy per Si atom -5574.567510 kJ/mol
# Density = 1.882588 g / cm^3
# Si number density = 18.868829 Si / 1000 Ang^3
#
#
#
# Elastic Constant Matrix: (Units=GPa)
#
#
# Indices 1 2 3 4 5 6 
#
# 1 206.0926 92.9434 42.0500 0.0000 0.0000 0.0000
# 2 92.9434 95.7569 25.0694 0.0000 0.0000 0.0000
# 3 42.0500 25.0694 21.6608 0.0000 0.0000 0.0000
# 4 0.0000 0.0000 0.0000 3.1083 0.0000 0.0000
# 5 0.0000 0.0000 0.0000 0.0000-1267.5760 0.0000
# 6 0.0000 0.0000 0.0000 0.0000 0.0000 -15.6715
#
#
#
# Elastic Compliance Matrix: (Units=1/GPa)
#
#
# Indices 1 2 3 4 5 6 
#
# 1 0.010517 -0.006977 -0.012341 0.000000 0.000000 0.000000
# 2 -0.006977 0.019611 -0.009154 0.000000 0.000000 0.000000
# 3 -0.012341 -0.009154 0.080718 0.000000 0.000000 0.000000
# 4 0.000000 0.000000 0.000000 0.321721 0.000000 0.000000
# 5 0.000000 0.000000 0.000000 0.000000 -0.000789 0.000000
# 6 0.000000 0.000000 0.000000 0.000000 0.000000 -0.063810
#
#
# Mechanical properties :
#
#
# Convention : Reuss Voigt Hill
#
# Bulk Modulus (GPa) = 18.55178 71.51509 45.03344
# Shear Modulus (GPa) = 11.28979 -245.13135 -116.92078
#
# Velocity S-wave (km/s) = 2.44873 -11.41032 -7.88033
# Velocity P-wave (km/s) = 4.22473 11.64519 7.67340
#
# Compressibility (1/GPa) = 0.05390319
#
# Stress axis : x y z
#
# Youngs Moduli (GPa) = 95.08866 50.99143 12.38875
#
# Poissons Ratio (x) = 0.35574 0.15289
# Poissons Ratio (y) = 0.66339 0.11340
# Poissons Ratio (z) = 1.17351 0.46676
#
# Static dielectric constant tensor:
#      x y z
#    x 1.634580 0.000000 0.000000 
#    y 0.000000 1.684860 0.000000 
#    z 0.000000 0.000000 1.634720 
# 
# From -- ./inp_files/13739.got.cif
#   From: 2010.05.17/outbox.cif.g08.bks.cpg/sg47_7_cif.got.tgz:13739.got - 2010.06.03 20:15:42.
