data_PCOD9385882
_publ_section_title
;
Structure prediction by ZEFSAII (Michael W. Deem and Ramdas Pophale) SiO2 
 PCOD9385882
Probable space group: P M M M
;
_chemical_formula_sum "Si O2"
_cell_formula_units_Z 52
_cell_length_a 8.690031
_cell_length_b 28.686977
_cell_length_c 12.060386
_cell_angle_alpha 90.000000
_cell_angle_beta 90.000000
_cell_angle_gamma 90.000000
_cell_volume 3006.542302
_symmetry_space_group_name_H-M "P M M M"
_symmetry_group_IT_number 47
_symmetry_cell_setting 'orthorhombic'
loop_
_space_group_symop_operation_xyz
x,y,z
-x,-y,z
x,-y,-z
-x,y,-z
-x,-y,-z
x,y,-z
-x,y,z
x,-y,z
loop_
_atom_site_type_symbol
_atom_site_label
_atom_site_fract_x
_atom_site_fract_y
_atom_site_fract_z
Si Si1 0.815024 0.315213 0.268086
Si Si2 0.184559 0.863648 0.270645
Si Si3 0.685452 0.945731 0.873202
Si Si4 0.684758 0.717826 0.500000
Si Si5 0.812792 0.225188 0.873778
Si Si6 0.684170 0.599203 0.129842
Si Si7 0.823477 0.500000 0.865699
Si Si8 0.315530 0.172738 0.500000
O O1 0.748115 0.306875 0.390049
O O2 0.765363 0.270849 0.193758
O O3 0.756494 0.361426 0.207178
O O4 0.000000 0.315779 0.273479
O O5 0.240675 0.911285 0.215071
O O6 0.235145 0.821295 0.190220
O O7 0.252901 0.852534 0.390708
O O8 0.000000 0.863326 0.277429
O O9 0.500000 0.942224 0.867465
O O10 0.725921 0.000000 0.855095
O O11 0.731584 0.933371 0.000000
O O12 0.500000 0.716574 0.500000
O O13 0.733573 0.772588 0.500000
O O14 0.000000 0.225198 0.876161
O O15 0.757542 0.226109 0.000000
O O16 0.500000 0.601466 0.134540
O O17 0.739765 0.547829 0.165853
O O18 0.730565 0.606230 0.000000
O O19 0.000000 0.500000 0.827543
O O20 0.823890 0.500000 0.000000
O O21 0.500000 0.171771 0.500000
#
# Coordination Sequence:
#
# PCOD9385882 Si02
#       8
#     8   8   8   4   8   8   4   4
#     4  11  21  35  56  79 109 146 188 230 272 327
#     4  11  21  35  57  83 112 143 184 233 277 323
#     4   9  19  37  59  83 114 150 184 220 270 333
#     4  11  23  39  57  77 107 145 189 233 277 328
#     4   9  18  31  49  77 111 142 172 215 272 326
#     4  10  20  34  53  81 117 151 184 228 282 332
#     4   9  17  31  53  80 109 146 191 231 274 331
#     4  11  23  39  58  78 108 148 189 228 275 334
#
# _framework density 17.295615000000002
#
# number of rings (size 3 to 8) (size 9 to 14) (size 15 to 20)
#    0.000    1.923    1.538    3.462    0.000    4.308 
#    0.000    1.154    0.000    6.462    0.000    3.231 
#    0.000    0.000    0.000    0.000    0.000    0.000 
#
# Total GULP energy -290341.286151 kJ/mol
# GULP energy per Si atom -5583.486272 kJ/mol
# Density = 1.725625 g / cm^3
# Si number density = 17.295615 Si / 1000 Ang^3
#
#
#
# Elastic Constant Matrix: (Units=GPa)
#
#
# Indices 1 2 3 4 5 6 
#
# 1 55.4055 45.8826 47.0247 0.0000 0.0000 0.0000
# 2 45.8826 137.5656 91.8170 0.0000 0.0000 0.0000
# 3 47.0247 91.8170 162.6567 0.0000 0.0000 0.0000
# 4 0.0000 0.0000 0.0000 3.1866 0.0000 0.0000
# 5 0.0000 0.0000 0.0000 0.0000 18.9804 0.0000
# 6 0.0000 0.0000 0.0000 0.0000 0.0000 27.6255
#
#
#
# Elastic Compliance Matrix: (Units=1/GPa)
#
#
# Indices 1 2 3 4 5 6 
#
# 1 0.026703 -0.006023 -0.004320 0.000000 0.000000 0.000000
# 2 -0.006023 0.013022 -0.005610 0.000000 0.000000 0.000000
# 3 -0.004320 -0.005610 0.010563 0.000000 0.000000 0.000000
# 4 0.000000 0.000000 0.000000 0.313814 0.000000 0.000000
# 5 0.000000 0.000000 0.000000 0.000000 0.052686 0.000000
# 6 0.000000 0.000000 0.000000 0.000000 0.000000 0.036198
#
#
# Mechanical properties :
#
#
# Convention : Reuss Voigt Hill
#
# Bulk Modulus (GPa) = 54.39670 80.56403 67.48036
# Shear Modulus (GPa) = 10.18288 21.35206 15.76747
#
# Velocity S-wave (km/s) = 2.42906 3.51741 3.02262
# Velocity P-wave (km/s) = 6.27587 7.94846 7.16116
#
# Compressibility (1/GPa) = 0.01838347
#
# Stress axis : x y z
#
# Youngs Moduli (GPa) = 37.44874 76.79244 94.66671
#
# Poissons Ratio (x) = 0.46251 0.40898
# Poissons Ratio (y) = 0.22555 0.53103
# Poissons Ratio (z) = 0.16178 0.43077
#
# Static dielectric constant tensor:
#      x y z
#    x 1.579530 0.000000 0.000000 
#    y 0.000000 1.568980 0.000000 
#    z 0.000000 0.000000 1.561940 
# 
# From -- ./inp_files/15511.got.cif
#   From: 2010.05.17/outbox.cif.g08.bks.cpg/sg47_8_cif.got.tgz:15511.got - 2010.06.03 20:15:42.
