data_PCOD9385587
_publ_section_title
;
Structure prediction by ZEFSAII (Michael W. Deem and Ramdas Pophale) SiO2 
 PCOD9385587
Probable space group: P M M M
;
_chemical_formula_sum "Si O2"
_cell_formula_units_Z 48
_cell_length_a 8.552611
_cell_length_b 20.872145
_cell_length_c 15.110908
_cell_angle_alpha 90.000000
_cell_angle_beta 90.000000
_cell_angle_gamma 90.000000
_cell_volume 2697.468389
_symmetry_space_group_name_H-M "P M M M"
_symmetry_group_IT_number 47
_symmetry_cell_setting 'orthorhombic'
loop_
_space_group_symop_operation_xyz
x,y,z
-x,-y,z
x,-y,-z
-x,y,-z
-x,-y,-z
x,y,-z
-x,y,z
x,-y,z
loop_
_atom_site_type_symbol
_atom_site_label
_atom_site_fract_x
_atom_site_fract_y
_atom_site_fract_z
Si Si1 0.313053 0.424649 0.500000
Si Si2 0.313304 0.232563 0.902175
Si Si3 0.314328 0.193318 0.704815
Si Si4 0.827142 0.363073 0.848342
Si Si5 0.811519 0.071786 0.397664
Si Si6 0.176494 0.327091 0.357149
Si Si7 0.500000 0.426496 0.104653
O O1 0.257179 0.500000 0.500000
O O2 0.500000 0.427357 0.500000
O O3 0.258683 0.381186 0.416675
O O4 0.500000 0.249951 0.896710
O O5 0.276401 0.196431 0.810272
O O6 0.207129 0.295625 0.896021
O O7 0.291411 0.202458 0.000000
O O8 0.500000 0.194106 0.697580
O O9 0.249493 0.129081 0.661780
O O10 0.253310 0.256793 0.653499
O O11 0.830758 0.351383 0.743468
O O12 0.666836 0.400535 0.863911
O O13 0.000000 0.388321 0.874847
O O14 0.763003 0.081166 0.500000
O O15 0.000000 0.072727 0.395964
O O16 0.760942 0.000000 0.370308
O O17 0.000000 0.318802 0.390696
O O18 0.500000 0.500000 0.128275
O O19 0.500000 0.416690 0.000000
#
# Coordination Sequence:
#
# PCOD9385587 Si02
#       7
#     4   8   8   8   8   8   4
#     4  11  25  41  59  83 110 145 188 235 287 343
#     4   9  17  32  55  81 111 145 180 225 283 338
#     4  10  20  33  55  86 116 145 184 235 283 331
#     4  10  21  37  58  82 106 139 184 231 282 340
#     4   9  19  36  56  78 109 151 193 231 277 333
#     4  10  22  39  59  82 111 146 186 233 282 338
#     4  11  24  38  54  77 107 143 178 224 287 347
#
# _framework density 17.794464000000001
#
# number of rings (size 3 to 8) (size 9 to 14) (size 15 to 20)
#    0.000    2.167    0.833    2.250    3.500    4.333 
#    0.000    3.333    0.000    0.500    0.000    3.500 
#    0.000    0.000    0.000    0.000    0.000    0.000 
#
# Total GULP energy -267312.976775 kJ/mol
# GULP energy per Si atom -5569.020349 kJ/mol
# Density = 1.775396 g / cm^3
# Si number density = 17.794464 Si / 1000 Ang^3
#
#
#
# Elastic Constant Matrix: (Units=GPa)
#
#
# Indices 1 2 3 4 5 6 
#
# 1 102.1889 64.8849 38.7848 0.0000 0.0000 0.0000
# 2 64.8849 139.2769 74.6811 0.0000 0.0000 0.0000
# 3 38.7848 74.6811 109.5609 0.0000 0.0000 0.0000
# 4 0.0000 0.0000 0.0000 22.3625 0.0000 0.0000
# 5 0.0000 0.0000 0.0000 0.0000 227.7276 0.0000
# 6 0.0000 0.0000 0.0000 0.0000 0.0000 31.2184
#
#
#
# Elastic Compliance Matrix: (Units=1/GPa)
#
#
# Indices 1 2 3 4 5 6 
#
# 1 0.013941 -0.006065 -0.000801 0.000000 0.000000 0.000000
# 2 -0.006065 0.013955 -0.007365 0.000000 0.000000 0.000000
# 3 -0.000801 -0.007365 0.014431 0.000000 0.000000 0.000000
# 4 0.000000 0.000000 0.000000 0.044718 0.000000 0.000000
# 5 0.000000 0.000000 0.000000 0.000000 0.004391 0.000000
# 6 0.000000 0.000000 0.000000 0.000000 0.000000 0.032032
#
#
# Mechanical properties :
#
#
# Convention : Reuss Voigt Hill
#
# Bulk Modulus (GPa) = 72.12592 78.63650 75.38121
# Shear Modulus (GPa) = 31.93838 67.77343 49.85591
#
# Velocity S-wave (km/s) = 4.24116 6.17815 5.29891
# Velocity P-wave (km/s) = 8.03767 9.75603 8.93824
#
# Compressibility (1/GPa) = 0.01386464
#
# Stress axis : x y z
#
# Youngs Moduli (GPa) = 71.73157 71.66047 69.29488
#
# Poissons Ratio (x) = 0.43464 0.05549
# Poissons Ratio (y) = 0.43507 0.51035
# Poissons Ratio (z) = 0.05744 0.52778
#
# Static dielectric constant tensor:
#      x y z
#    x 1.728400 0.000000 0.000000 
#    y 0.000000 1.599780 0.000000 
#    z 0.000000 0.000000 1.633040 
# 
# From -- ./inp_files/21154.got.cif
#   From: 2010.05.17/outbox.cif.g08.bks.cpg/sg47_11_cif.got.tgz:21154.got - 2010.06.03 20:15:42.
