data_PCOD9385833
_publ_section_title
;
Structure prediction by ZEFSAII (Michael W. Deem and Ramdas Pophale) SiO2 
 PCOD9385833
Probable space group: P M M M
;
_chemical_formula_sum "Si O2"
_cell_formula_units_Z 64
_cell_length_a 7.743345
_cell_length_b 15.213964
_cell_length_c 24.350045
_cell_angle_alpha 90.000000
_cell_angle_beta 90.000000
_cell_angle_gamma 90.000000
_cell_volume 2868.605071
_symmetry_space_group_name_H-M "P M M M"
_symmetry_group_IT_number 47
_symmetry_cell_setting 'orthorhombic'
loop_
_space_group_symop_operation_xyz
x,y,z
-x,-y,z
x,-y,-z
-x,y,-z
-x,-y,-z
x,y,-z
-x,y,z
x,-y,z
loop_
_atom_site_type_symbol
_atom_site_label
_atom_site_fract_x
_atom_site_fract_y
_atom_site_fract_z
Si Si1 0.299066 0.633847 0.059796
Si Si2 0.793078 0.162742 0.939571
Si Si3 0.705612 0.287068 0.437953
Si Si4 0.287924 0.399695 0.338078
Si Si5 0.207821 0.094926 0.435575
Si Si6 0.802096 0.594291 0.176769
Si Si7 0.291865 0.097514 0.818350
Si Si8 0.305173 0.259230 0.750434
O O1 0.500000 0.609307 0.063915
O O2 0.284276 0.739514 0.062669
O O3 0.201899 0.596124 0.111427
O O4 0.233236 0.607320 0.000000
O O5 0.746433 0.115784 0.882622
O O6 0.000000 0.170814 0.939716
O O7 0.743167 0.124387 0.000000
O O8 0.778363 0.290067 0.500000
O O9 0.500000 0.297272 0.442070
O O10 0.766563 0.363298 0.397555
O O11 0.735208 0.189236 0.413223
O O12 0.500000 0.400711 0.335280
O O13 0.230866 0.500000 0.328024
O O14 0.228142 0.323981 0.295657
O O15 0.261293 0.095698 0.500000
O O16 0.000000 0.094527 0.434149
O O17 0.267183 0.000000 0.412451
O O18 0.735513 0.500000 0.196619
O O19 0.691641 0.674790 0.197888
O O20 0.000000 0.605088 0.194759
O O21 0.500000 0.100562 0.813762
O O22 0.223264 0.171452 0.776060
O O23 0.230586 0.000000 0.804336
O O24 0.500000 0.237642 0.731907
#
# Coordination Sequence:
#
# PCOD9385833 Si02
#       8
#     8   8   8   8   8   8   8   8
#     4  10  20  34  53  77 106 141 180 220 264 316
#     4  10  20  34  54  80 110 143 178 219 271 328
#     4   9  17  29  48  78 113 145 179 224 277 326
#     4   9  18  33  54  80 108 140 181 226 271 323
#     4   8  14  26  45  69 100 141 183 217 254 305
#     4  11  23  36  53  79 108 138 174 220 274 324
#     4  10  21  36  55  80 107 137 177 225 276 328
#     4  10  20  37  59  78 100 136 180 225 267 316
#
# _framework density 22.310495
#
# number of rings (size 3 to 8) (size 9 to 14) (size 15 to 20)
#    0.000    2.375    1.250    1.875    0.000    4.250 
#    0.000    6.250    0.000    3.375    0.000    1.750 
#    0.000    0.000    0.000    0.000    0.000    0.000 
#
# Total GULP energy -356904.240556 kJ/mol
# GULP energy per Si atom -5576.628759 kJ/mol
# Density = 2.225972 g / cm^3
# Si number density = 22.310495 Si / 1000 Ang^3
#
#
#
# Elastic Constant Matrix: (Units=GPa)
#
#
# Indices 1 2 3 4 5 6 
#
# 1 40.5549 6.2014 4.1194 0.0000 0.0000 0.0000
# 2 6.2014 170.6663 68.9175 0.0000 0.0000 0.0000
# 3 4.1194 68.9175 100.0165 0.0000 0.0000 0.0000
# 4 0.0000 0.0000 0.0000 34.7518 0.0000 0.0000
# 5 0.0000 0.0000 0.0000 0.0000 0.9677 0.0000
# 6 0.0000 0.0000 0.0000 0.0000 0.0000 -14.7524
#
#
#
# Elastic Compliance Matrix: (Units=1/GPa)
#
#
# Indices 1 2 3 4 5 6 
#
# 1 0.024818 -0.000678 -0.000555 0.000000 0.000000 0.000000
# 2 -0.000678 0.008137 -0.005579 0.000000 0.000000 0.000000
# 3 -0.000555 -0.005579 0.013865 0.000000 0.000000 0.000000
# 4 0.000000 0.000000 0.000000 0.028775 0.000000 0.000000
# 5 0.000000 0.000000 0.000000 0.000000 1.033374 0.000000
# 6 0.000000 0.000000 0.000000 0.000000 0.000000 -0.067785
#
#
# Mechanical properties :
#
#
# Convention : Reuss Voigt Hill
#
# Bulk Modulus (GPa) = 30.12344 52.19046 41.15695
# Shear Modulus (GPa) = 4.69099 19.66004 12.17552
#
# Velocity S-wave (km/s) = 1.45161 2.97172 2.33862
# Velocity P-wave (km/s) = 4.04237 5.93451 5.07736
#
# Compressibility (1/GPa) = 0.03319674
#
# Stress axis : x y z
#
# Youngs Moduli (GPa) = 40.29342 122.89781 72.12187
#
# Poissons Ratio (x) = 0.08327 0.04005
# Poissons Ratio (y) = 0.02730 0.40236
# Poissons Ratio (z) = 0.02237 0.68563
#
# Static dielectric constant tensor:
#      x y z
#    x 1.821760 0.000000 0.000000 
#    y 0.000000 1.838430 0.000000 
#    z 0.000000 0.000000 1.859030 
# 
# From -- ./inp_files/32142.got.cif
#   From: 2010.05.17/outbox.cif.g08.bks.cpg/sg47_17_cif.got.tgz:32142.got - 2010.06.03 20:15:42.
