data_PCOD9385272
_publ_section_title
;
Structure prediction by ZEFSAII (Michael W. Deem and Ramdas Pophale) SiO2 
 PCOD9385272
Probable space group: P M M M
;
_chemical_formula_sum "Si O2"
_cell_formula_units_Z 40
_cell_length_a 17.635668
_cell_length_b 7.486310
_cell_length_c 14.667811
_cell_angle_alpha 90.000000
_cell_angle_beta 90.000000
_cell_angle_gamma 90.000000
_cell_volume 1936.533555
_symmetry_space_group_name_H-M "P M M M"
_symmetry_group_IT_number 47
_symmetry_cell_setting 'orthorhombic'
loop_
_space_group_symop_operation_xyz
x,y,z
-x,-y,z
x,-y,-z
-x,y,-z
-x,-y,-z
x,y,-z
-x,y,z
x,-y,z
loop_
_atom_site_type_symbol
_atom_site_label
_atom_site_fract_x
_atom_site_fract_y
_atom_site_fract_z
Si Si1 0.411733 0.000000 0.693580
Si Si2 0.916864 0.281745 0.201227
Si Si3 0.758018 0.701807 0.139361
Si Si4 0.295324 0.298724 0.650216
Si Si5 0.869223 0.282111 0.402342
Si Si6 0.360011 0.000000 0.903052
O O1 0.366657 0.169187 0.652870
O O2 0.500000 0.000000 0.672034
O O3 0.402064 0.000000 0.804953
O O4 0.914039 0.500000 0.201734
O O5 0.844183 0.226902 0.141998
O O6 0.905821 0.223767 0.306949
O O7 0.000000 0.227342 0.169100
O O8 0.756421 0.500000 0.103520
O O9 0.734440 0.692085 0.245667
O O10 0.696145 0.830684 0.097717
O O11 0.313613 0.500000 0.619859
O O12 0.219773 0.232388 0.599952
O O13 0.902206 0.225766 0.500000
O O14 0.871717 0.500000 0.400162
O O15 0.403196 0.000000 0.000000
#
# Coordination Sequence:
#
# PCOD9385272 Si02
#       6
#     4   8   8   8   8   4
#     4  10  20  33  51  73  92 112 140 176 224 278
#     4   8  13  22  39  64  93 125 159 194 231 265
#     4   8  15  29  47  66  90 122 158 187 211 254
#     4   8  15  29  47  66  90 122 158 187 211 254
#     4   8  13  22  39  64  93 125 159 194 231 265
#     4  10  20  33  51  73  92 112 140 176 224 278
#
# _framework density 20.655463000000001
#
# number of rings (size 3 to 8) (size 9 to 14) (size 15 to 20)
#    0.000    3.600    0.000    2.400    0.000    1.400 
#    0.000    3.000    0.000    2.400    0.000   11.200 
#    0.000    8.000    0.000    0.800    0.000    0.000 
#
# Total GULP energy -222826.941525 kJ/mol
# GULP energy per Si atom -5570.673538 kJ/mol
# Density = 2.060845 g / cm^3
# Si number density = 20.655463 Si / 1000 Ang^3
#
#
#
# Elastic Constant Matrix: (Units=GPa)
#
#
# Indices 1 2 3 4 5 6 
#
# 1 110.4404 27.9258 -25.7260 0.0000 0.0000 0.0000
# 2 27.9258 71.4264 -7.1441 0.0000 0.0000 0.0000
# 3 -25.7260 -7.1441 34.7536 0.0000 0.0000 0.0000
# 4 0.0000 0.0000 0.0000 -1.8551 0.0000 0.0000
# 5 0.0000 0.0000 0.0000 0.0000 18.6383 0.0000
# 6 0.0000 0.0000 0.0000 0.0000 0.0000 19.8911
#
#
#
# Elastic Compliance Matrix: (Units=1/GPa)
#
#
# Indices 1 2 3 4 5 6 
#
# 1 0.011895 -0.003849 0.008014 0.000000 0.000000 0.000000
# 2 -0.003849 0.015540 0.000345 0.000000 0.000000 0.000000
# 3 0.008014 0.000345 0.034777 0.000000 0.000000 0.000000
# 4 0.000000 0.000000 0.000000 -0.539042 0.000000 0.000000
# 5 0.000000 0.000000 0.000000 0.000000 0.053653 0.000000
# 6 0.000000 0.000000 0.000000 0.000000 0.000000 0.050274
#
#
# Mechanical properties :
#
#
# Convention : Reuss Voigt Hill
#
# Bulk Modulus (GPa) = 14.03877 22.97020 18.50449
# Shear Modulus (GPa) = -13.95944 22.10584 4.07320
#
# Velocity S-wave (km/s) = -2.60248 3.27497 1.40579
# Velocity P-wave (km/s) = 1.48968 5.04434 3.40780
#
# Compressibility (1/GPa) = 0.07123131
#
# Stress axis : x y z
#
# Youngs Moduli (GPa) = 84.07184 64.35091 28.75466
#
# Poissons Ratio (x) = 0.24768 -0.23043
# Poissons Ratio (y) = 0.32359 -0.00993
# Poissons Ratio (z) = -0.67372 -0.02222
#
# Static dielectric constant tensor:
#      x y z
#    x 1.705700 0.000000 0.000000 
#    y 0.000000 1.787840 0.000000 
#    z 0.000000 0.000000 1.785490 
# 
# From -- ./inp_files/28395.got.cif
#   From: 2010.05.17/outbox.cif.g08.bks.cpg/sg47_15_cif.got.tgz:28395.got - 2010.06.03 20:15:42.
