data_PCOD9385671
_publ_section_title
;
Structure prediction by ZEFSAII (Michael W. Deem and Ramdas Pophale) SiO2 
 PCOD9385671
Probable space group: P M M M
;
_chemical_formula_sum "Si O2"
_cell_formula_units_Z 48
_cell_length_a 8.393630
_cell_length_b 34.470267
_cell_length_c 7.467187
_cell_angle_alpha 90.000000
_cell_angle_beta 90.000000
_cell_angle_gamma 90.000000
_cell_volume 2160.486197
_symmetry_space_group_name_H-M "P M M M"
_symmetry_group_IT_number 47
_symmetry_cell_setting 'orthorhombic'
loop_
_space_group_symop_operation_xyz
x,y,z
-x,-y,z
x,-y,-z
-x,y,-z
-x,-y,-z
x,y,-z
-x,y,z
x,-y,z
loop_
_atom_site_type_symbol
_atom_site_label
_atom_site_fract_x
_atom_site_fract_y
_atom_site_fract_z
Si Si1 0.324003 0.625567 0.287250
Si Si2 0.183462 0.541902 0.784732
Si Si3 0.000000 0.821223 0.781126
Si Si4 0.000000 0.911486 0.781690
Si Si5 0.175922 0.295831 0.716778
Si Si6 0.326318 0.782589 0.790308
Si Si7 0.322120 0.954635 0.217983
O O1 0.332022 0.631367 0.500000
O O2 0.500000 0.630047 0.211094
O O3 0.267766 0.581649 0.263213
O O4 0.214106 0.660541 0.220942
O O5 0.250092 0.500000 0.723285
O O6 0.000000 0.544084 0.723742
O O7 0.182310 0.540734 0.000000
O O8 0.000000 0.866385 0.733766
O O9 0.164318 0.801552 0.716043
O O10 0.000000 0.818055 0.000000
O O11 0.164718 0.931781 0.721462
O O12 0.000000 0.913822 0.000000
O O13 0.174870 0.295467 0.500000
O O14 0.300811 0.263650 0.775955
O O15 0.000000 0.284337 0.779800
O O16 0.500000 0.793129 0.713907
O O17 0.330433 0.793112 0.000000
O O18 0.500000 0.941046 0.274956
O O19 0.307681 0.000000 0.266945
O O20 0.322119 0.952920 0.000000
#
# Coordination Sequence:
#
# PCOD9385671 Si02
#       7
#     8   8   4   4   8   8   8
#     4  10  21  35  51  75 104 129 157 196 241 289
#     4   9  19  36  55  74  98 130 167 202 236 280
#     4   9  18  31  43  62  91 121 161 209 248 296
#     4   9  15  22  35  51  73 109 150 195 247 292
#     4  10  20  35  56  78  99 126 162 204 249 296
#     4  10  20  34  52  72  97 130 164 202 251 301
#     4   8  13  20  30  47  72 103 145 197 246 291
#
# _framework density 22.217222
#
# number of rings (size 3 to 8) (size 9 to 14) (size 15 to 20)
#    0.000    2.667    0.833    2.250    0.000    5.333 
#    0.000    5.833    0.000    0.000    0.000    0.000 
#    0.000    0.000    0.000    0.000    0.000    6.667 
#
# Total GULP energy -267821.226078 kJ/mol
# GULP energy per Si atom -5579.608877 kJ/mol
# Density = 2.216665 g / cm^3
# Si number density = 22.217222 Si / 1000 Ang^3
#
#
#
# Elastic Constant Matrix: (Units=GPa)
#
#
# Indices 1 2 3 4 5 6 
#
# 1 193.4994 87.0086 7.0996 0.0000 0.0000 0.0000
# 2 87.0086 118.4463 -4.6182 0.0000 0.0000 0.0000
# 3 7.0996 -4.6182 62.7229 0.0000 0.0000 0.0000
# 4 0.0000 0.0000 0.0000 -1.0663 0.0000 0.0000
# 5 0.0000 0.0000 0.0000 0.0000 2.4713 0.0000
# 6 0.0000 0.0000 0.0000 0.0000 0.0000 -5.3566
#
#
#
# Elastic Compliance Matrix: (Units=1/GPa)
#
#
# Indices 1 2 3 4 5 6 
#
# 1 0.007823 -0.005798 -0.001312 0.000000 0.000000 0.000000
# 2 -0.005798 0.012764 0.001596 0.000000 0.000000 0.000000
# 3 -0.001312 0.001596 0.016209 0.000000 0.000000 0.000000
# 4 0.000000 0.000000 0.000000 -0.937790 0.000000 0.000000
# 5 0.000000 0.000000 0.000000 0.000000 0.404644 0.000000
# 6 0.000000 0.000000 0.000000 0.000000 0.000000 -0.186687
#
#
# Mechanical properties :
#
#
# Convention : Reuss Voigt Hill
#
# Bulk Modulus (GPa) = 38.80819 61.51651 50.16235
# Shear Modulus (GPa) = -7.53672 18.22159 5.34244
#
# Velocity S-wave (km/s) = -1.84381 2.86694 1.55237
# Velocity P-wave (km/s) = 3.60176 6.22157 5.08334
#
# Compressibility (1/GPa) = 0.02576776
#
# Stress axis : x y z
#
# Youngs Moduli (GPa) = 127.82431 78.34552 61.69336
#
# Poissons Ratio (x) = 0.45425 0.08097
# Poissons Ratio (y) = 0.74112 -0.09847
# Poissons Ratio (z) = 0.16776 -0.12505
#
# Static dielectric constant tensor:
#      x y z
#    x 1.827230 0.000000 0.000000 
#    y 0.000000 1.785980 0.000000 
#    z 0.000000 0.000000 1.861550 
# 
# From -- ./inp_files/2657.got.cif
#   From: 2010.05.17/outbox.cif.g08.bks.cpg/sg47_2_cif.got.tgz:2657.got - 2010.06.03 20:15:42.
