data_PCOD9385184
_publ_section_title
;
Structure prediction by ZEFSAII (Michael W. Deem and Ramdas Pophale) SiO2 
 PCOD9385184
Probable space group: P M M M
;
_chemical_formula_sum "Si O2"
_cell_formula_units_Z 40
_cell_length_a 9.332101
_cell_length_b 28.816747
_cell_length_c 7.569204
_cell_angle_alpha 90.000000
_cell_angle_beta 90.000000
_cell_angle_gamma 90.000000
_cell_volume 2035.516346
_symmetry_space_group_name_H-M "P M M M"
_symmetry_group_IT_number 47
_symmetry_cell_setting 'orthorhombic'
loop_
_space_group_symop_operation_xyz
x,y,z
-x,-y,z
x,-y,-z
-x,y,-z
-x,-y,-z
x,y,-z
-x,y,z
x,-y,z
loop_
_atom_site_type_symbol
_atom_site_label
_atom_site_fract_x
_atom_site_fract_y
_atom_site_fract_z
Si Si1 0.675028 0.946858 0.500000
Si Si2 0.665183 0.772762 0.215873
Si Si3 0.834922 0.500000 0.716463
Si Si4 0.837985 0.316734 0.212310
Si Si5 0.325323 0.875789 0.797765
Si Si6 0.662505 0.590440 0.711759
O O1 0.500000 0.947631 0.500000
O O2 0.720030 0.917104 0.329681
O O3 0.723650 0.000000 0.500000
O O4 0.500000 0.766197 0.271768
O O5 0.761711 0.730173 0.276991
O O6 0.716200 0.824271 0.267222
O O7 0.664360 0.773102 0.000000
O O8 0.835166 0.500000 0.500000
O O9 0.752201 0.546139 0.776044
O O10 0.000000 0.500000 0.772754
O O11 0.744070 0.361837 0.251703
O O12 0.000000 0.321831 0.279389
O O13 0.844821 0.312846 0.000000
O O14 0.500000 0.874955 0.798929
O O15 0.278322 0.882238 0.000000
O O16 0.654255 0.585647 0.500000
O O17 0.500000 0.591162 0.780624
#
# Coordination Sequence:
#
# PCOD9385184 Si02
#       6
#     4   8   4   8   8   8
#     4   9  16  24  36  60  93 125 159 202 249 298
#     4   8  14  27  46  64  87 123 161 194 235 292
#     4   9  17  31  52  73  96 129 164 204 254 299
#     4  10  20  33  50  73 101 130 159 199 253 305
#     4   8  14  25  40  58  84 122 163 201 246 299
#     4  10  20  34  52  74  98 127 166 206 245 296
#
# _framework density 19.651035
#
# number of rings (size 3 to 8) (size 9 to 14) (size 15 to 20)
#    0.000    3.000    0.000    2.700    0.000    4.000 
#    1.800    2.500    0.000    3.000    0.000    0.000 
#    0.000    1.600    0.000    7.800    0.000    8.000 
#
# Total GULP energy -223165.285845 kJ/mol
# GULP energy per Si atom -5579.132146 kJ/mol
# Density = 1.960631 g / cm^3
# Si number density = 19.651035 Si / 1000 Ang^3
#
#
#
# Elastic Constant Matrix: (Units=GPa)
#
#
# Indices 1 2 3 4 5 6 
#
# 1 118.0147 93.4622 20.7669 0.0000 0.0000 0.0000
# 2 93.4622 229.1050 43.8432 0.0000 0.0000 0.0000
# 3 20.7669 43.8432 60.6278 0.0000 0.0000 0.0000
# 4 0.0000 0.0000 0.0000 27.5681 0.0000 0.0000
# 5 0.0000 0.0000 0.0000 0.0000 8.0426 0.0000
# 6 0.0000 0.0000 0.0000 0.0000 0.0000 -21.5010
#
#
#
# Elastic Compliance Matrix: (Units=1/GPa)
#
#
# Indices 1 2 3 4 5 6 
#
# 1 0.012543 -0.004984 -0.000692 0.000000 0.000000 0.000000
# 2 -0.004984 0.007047 -0.003388 0.000000 0.000000 0.000000
# 3 -0.000692 -0.003388 0.019181 0.000000 0.000000 0.000000
# 4 0.000000 0.000000 0.000000 0.036274 0.000000 0.000000
# 5 0.000000 0.000000 0.000000 0.000000 0.124339 0.000000
# 6 0.000000 0.000000 0.000000 0.000000 0.000000 -0.046509
#
#
# Mechanical properties :
#
#
# Convention : Reuss Voigt Hill
#
# Bulk Modulus (GPa) = 48.44625 80.43244 64.43934
# Shear Modulus (GPa) = 28.10834 19.46695 23.78764
#
# Velocity S-wave (km/s) = 3.78613 3.15085 3.48300
# Velocity P-wave (km/s) = 6.61966 7.36589 7.00272
#
# Compressibility (1/GPa) = 0.02064143
#
# Stress axis : x y z
#
# Youngs Moduli (GPa) = 79.72838 141.91306 52.13373
#
# Poissons Ratio (x) = 0.70734 0.03607
# Poissons Ratio (y) = 0.39739 0.17665
# Poissons Ratio (z) = 0.05516 0.48087
#
# Static dielectric constant tensor:
#      x y z
#    x 1.668030 0.000000 0.000000 
#    y 0.000000 1.664450 0.000000 
#    z 0.000000 0.000000 1.748970 
# 
# From -- ./inp_files/1746.got.cif
#   From: 2010.05.17/outbox.cif.g08.bks.cpg/sg47_1_cif.got.tgz:1746.got - 2010.06.03 20:15:42.
