data_PCOD9385399
_publ_section_title
;
Structure prediction by ZEFSAII (Michael W. Deem and Ramdas Pophale) SiO2 
 PCOD9385399
Probable space group: P M M M
;
_chemical_formula_sum "Si O2"
_cell_formula_units_Z 48
_cell_length_a 9.468170
_cell_length_b 7.898906
_cell_length_c 31.582039
_cell_angle_alpha 90.000000
_cell_angle_beta 90.000000
_cell_angle_gamma 90.000000
_cell_volume 2361.963370
_symmetry_space_group_name_H-M "P M M M"
_symmetry_group_IT_number 47
_symmetry_cell_setting 'orthorhombic'
loop_
_space_group_symop_operation_xyz
x,y,z
-x,-y,z
x,-y,-z
-x,y,-z
-x,-y,-z
x,y,-z
-x,y,z
x,-y,z
loop_
_atom_site_type_symbol
_atom_site_label
_atom_site_fract_x
_atom_site_fract_y
_atom_site_fract_z
Si Si1 0.161563 0.795407 0.048031
Si Si2 0.338633 0.704347 0.547788
Si Si3 0.840231 0.798080 0.209512
Si Si4 0.159739 0.202744 0.371304
Si Si5 0.340229 0.299380 0.128665
Si Si6 0.337353 0.207714 0.290373
O O1 0.269210 0.735838 0.083455
O O2 0.000000 0.741047 0.057585
O O3 0.161816 0.000000 0.048333
O O4 0.195671 0.740571 0.000000
O O5 0.301676 0.760482 0.500000
O O6 0.500000 0.760578 0.556772
O O7 0.339409 0.500000 0.547568
O O8 0.233233 0.761614 0.584029
O O9 0.758711 0.769621 0.165803
O O10 0.748119 0.734038 0.248998
O O11 0.000000 0.729321 0.208570
O O12 0.851057 0.000000 0.215427
O O13 0.256775 0.264939 0.332687
O O14 0.000000 0.269992 0.369371
O O15 0.151867 0.000000 0.366470
O O16 0.500000 0.230176 0.131010
O O17 0.347123 0.500000 0.134495
O O18 0.500000 0.262489 0.289590
O O19 0.338456 0.000000 0.290258
#
# Coordination Sequence:
#
# PCOD9385399 Si02
#       6
#     8   8   8   8   8   8
#     4   9  19  37  60  84 108 136 175 221 265 312
#     4   9  19  36  55  74  99 134 176 219 262 310
#     4  10  20  35  57  82 106 135 174 218 262 310
#     4  10  20  33  51  78 110 139 170 212 260 310
#     4  11  24  38  52  76 111 146 179 217 261 309
#     4   9  17  31  53  79 106 137 172 211 258 310
#
# _framework density 20.322074000000001
#
# number of rings (size 3 to 8) (size 9 to 14) (size 15 to 20)
#    0.000    2.333    0.000    3.500    0.000    9.333 
#    0.000    5.833    0.000    5.000    0.000    0.000 
#    0.000    0.000    0.000    0.000    0.000    0.000 
#
# Total GULP energy -268064.278797 kJ/mol
# GULP energy per Si atom -5584.672475 kJ/mol
# Density = 2.027582 g / cm^3
# Si number density = 20.322074 Si / 1000 Ang^3
#
#
#
# Elastic Constant Matrix: (Units=GPa)
#
#
# Indices 1 2 3 4 5 6 
#
# 1 210.6337 8.0131 124.8555 0.0000 0.0000 0.0000
# 2 8.0131 16.6633 -2.0752 0.0000 0.0000 0.0000
# 3 124.8555 -2.0752 151.3916 0.0000 0.0000 0.0000
# 4 0.0000 0.0000 0.0000 108.0585 0.0000 0.0000
# 5 0.0000 0.0000 0.0000 0.0000 41.2828 0.0000
# 6 0.0000 0.0000 0.0000 0.0000 0.0000 1.3276
#
#
#
# Elastic Compliance Matrix: (Units=1/GPa)
#
#
# Indices 1 2 3 4 5 6 
#
# 1 0.009806 -0.005732 -0.008166 0.000000 0.000000 0.000000
# 2 -0.005732 0.063466 0.005598 0.000000 0.000000 0.000000
# 3 -0.008166 0.005598 0.013417 0.000000 0.000000 0.000000
# 4 0.000000 0.000000 0.000000 0.009254 0.000000 0.000000
# 5 0.000000 0.000000 0.000000 0.000000 0.024223 0.000000
# 6 0.000000 0.000000 0.000000 0.000000 0.000000 0.753262
#
#
# Mechanical properties :
#
#
# Convention : Reuss Voigt Hill
#
# Bulk Modulus (GPa) = 14.26794 71.14171 42.70483
# Shear Modulus (GPa) = 5.47410 46.66012 26.06711
#
# Velocity S-wave (km/s) = 1.64302 4.79689 3.58536
# Velocity P-wave (km/s) = 3.26121 8.10946 6.18057
#
# Compressibility (1/GPa) = 0.07008718
#
# Stress axis : x y z
#
# Youngs Moduli (GPa) = 101.97820 15.75651 74.53456
#
# Poissons Ratio (x) = 0.09032 0.60863
# Poissons Ratio (y) = 0.58459 -0.41722
# Poissons Ratio (z) = 0.83273 -0.08820
#
# Static dielectric constant tensor:
#      x y z
#    x 1.711870 0.000000 0.000000 
#    y 0.000000 1.741070 0.000000 
#    z 0.000000 0.000000 1.684670 
# 
# From -- ./inp_files/2452.got.cif
#   From: 2010.05.17/outbox.cif.g08.bks.cpg/sg47_2_cif.got.tgz:2452.got - 2010.06.03 20:15:42.
