data_PCOD9385982
_publ_section_title
;
Structure prediction by ZEFSAII (Michael W. Deem and Ramdas Pophale) SiO2 
 PCOD9385982
Probable space group: P M M M
;
_chemical_formula_sum "Si O2"
_cell_formula_units_Z 44
_cell_length_a 7.551286
_cell_length_b 29.696449
_cell_length_c 9.335504
_cell_angle_alpha 90.000000
_cell_angle_beta 90.000000
_cell_angle_gamma 90.000000
_cell_volume 2093.452974
_symmetry_space_group_name_H-M "P M M M"
_symmetry_group_IT_number 47
_symmetry_cell_setting 'orthorhombic'
loop_
_space_group_symop_operation_xyz
x,y,z
-x,-y,z
x,-y,-z
-x,y,-z
-x,-y,-z
x,y,-z
-x,y,z
x,-y,z
loop_
_atom_site_type_symbol
_atom_site_label
_atom_site_fract_x
_atom_site_fract_y
_atom_site_fract_z
Si Si1 0.711461 0.735915 0.161688
Si Si2 0.788876 0.451570 0.673260
Si Si3 0.216896 0.000000 0.334727
Si Si4 0.787471 0.911978 0.162936
Si Si5 0.786445 0.353814 0.664455
Si Si6 0.287461 0.821595 0.662255
O O1 0.500000 0.742130 0.152476
O O2 0.741127 0.688372 0.238265
O O3 0.781431 0.777202 0.256946
O O4 0.782428 0.736543 0.000000
O O5 0.770214 0.450962 0.500000
O O6 0.716372 0.500000 0.723971
O O7 0.720776 0.402645 0.720196
O O8 0.000000 0.452382 0.702795
O O9 0.276253 0.955295 0.251450
O O10 0.273183 0.000000 0.500000
O O11 0.000000 0.000000 0.335064
O O12 0.749000 0.866111 0.246512
O O13 0.000000 0.916178 0.155053
O O14 0.719555 0.910926 0.000000
O O15 0.724703 0.346958 0.500000
O O16 0.000000 0.356784 0.658745
O O17 0.218958 0.825314 0.500000
O O18 0.500000 0.817258 0.653050
#
# Coordination Sequence:
#
# PCOD9385982 Si02
#       6
#     8   8   4   8   8   8
#     4  10  21  36  52  69  93 129 168 202 242 294
#     4   7  10  19  38  65  95 123 151 188 236 286
#     4   9  17  31  52  77 106 139 172 206 244 285
#     4  10  20  34  54  80 108 137 168 202 243 292
#     4   9  17  29  48  75 101 124 156 200 246 290
#     4  10  21  37  56  76  98 127 165 208 252 296
#
# _framework density 21.017906
#
# number of rings (size 3 to 8) (size 9 to 14) (size 15 to 20)
#    0.000    2.818    0.000    3.545    0.000    5.455 
#    0.000    0.455    0.000    3.818    0.000    6.364 
#    0.000    0.000    0.000    0.000    0.000    0.000 
#
# Total GULP energy -245486.970540 kJ/mol
# GULP energy per Si atom -5579.249330 kJ/mol
# Density = 2.097007 g / cm^3
# Si number density = 21.017906 Si / 1000 Ang^3
#
#
#
# Elastic Constant Matrix: (Units=GPa)
#
#
# Indices 1 2 3 4 5 6 
#
# 1 49.7024 0.2985 8.0035 0.0000 0.0000 0.0000
# 2 0.2985 248.4962 127.8894 0.0000 0.0000 0.0000
# 3 8.0035 127.8894 177.1483 0.0000 0.0000 0.0000
# 4 0.0000 0.0000 0.0000 153.6602 0.0000 0.0000
# 5 0.0000 0.0000 0.0000 0.0000 14.5352 0.0000
# 6 0.0000 0.0000 0.0000 0.0000 0.0000 34.1854
#
#
#
# Elastic Compliance Matrix: (Units=1/GPa)
#
#
# Indices 1 2 3 4 5 6 
#
# 1 0.020346 0.000714 -0.001435 0.000000 0.000000 0.000000
# 2 0.000714 0.006428 -0.004673 0.000000 0.000000 0.000000
# 3 -0.001435 -0.004673 0.009083 0.000000 0.000000 0.000000
# 4 0.000000 0.000000 0.000000 0.006508 0.000000 0.000000
# 5 0.000000 0.000000 0.000000 0.000000 0.068798 0.000000
# 6 0.000000 0.000000 0.000000 0.000000 0.000000 0.029252
#
#
# Mechanical properties :
#
#
# Convention : Reuss Voigt Hill
#
# Bulk Modulus (GPa) = 39.88728 83.08109 61.48418
# Shear Modulus (GPa) = 31.33585 63.08650 47.21118
#
# Velocity S-wave (km/s) = 3.86542 5.48459 4.74459
# Velocity P-wave (km/s) = 6.24027 8.92873 7.70270
#
# Compressibility (1/GPa) = 0.02507065
#
# Stress axis : x y z
#
# Youngs Moduli (GPa) = 49.14850 155.55988 110.08977
#
# Poissons Ratio (x) = -0.11105 0.15794
# Poissons Ratio (y) = -0.03509 0.51446
# Poissons Ratio (z) = 0.07051 0.72695
#
# Static dielectric constant tensor:
#      x y z
#    x 1.808520 0.000000 0.000000 
#    y 0.000000 1.752230 0.000000 
#    z 0.000000 0.000000 1.724590 
# 
# From -- ./inp_files/2312.got.cif
#   From: 2010.05.17/outbox.cif.g08.bks.cpg/sg47_2_cif.got.tgz:2312.got - 2010.06.03 20:15:42.
