data_PCOD9385647
_publ_section_title
;
Structure prediction by ZEFSAII (Michael W. Deem and Ramdas Pophale) SiO2 
 PCOD9385647
Probable space group: P M M M
;
_chemical_formula_sum "Si O2"
_cell_formula_units_Z 36
_cell_length_a 7.351684
_cell_length_b 22.422847
_cell_length_c 9.939789
_cell_angle_alpha 90.000000
_cell_angle_beta 90.000000
_cell_angle_gamma 90.000000
_cell_volume 1638.531332
_symmetry_space_group_name_H-M "P M M M"
_symmetry_group_IT_number 47
_symmetry_cell_setting 'orthorhombic'
loop_
_space_group_symop_operation_xyz
x,y,z
-x,-y,z
x,-y,-z
-x,y,-z
-x,-y,-z
x,y,-z
-x,y,z
x,-y,z
loop_
_atom_site_type_symbol
_atom_site_label
_atom_site_fract_x
_atom_site_fract_y
_atom_site_fract_z
Si Si1 0.277473 0.500000 0.842264
Si Si2 0.777705 0.069411 0.500000
Si Si3 0.221659 0.147246 0.752669
Si Si4 0.781348 0.722679 0.155535
Si Si5 0.221525 0.067158 0.000000
Si Si6 0.715249 0.390506 0.344548
O O1 0.500000 0.500000 0.846521
O O2 0.216818 0.442906 0.754473
O O3 0.219911 0.500000 0.000000
O O4 0.720082 0.110021 0.375729
O O5 0.000000 0.066680 0.500000
O O6 0.718396 0.000000 0.500000
O O7 0.283261 0.214361 0.782888
O O8 0.000000 0.150223 0.747733
O O9 0.276802 0.105183 0.873691
O O10 0.738928 0.670288 0.260481
O O11 0.000000 0.725787 0.146871
O O12 0.717208 0.713589 0.000000
O O13 0.000000 0.064984 0.000000
O O14 0.286780 0.000000 0.000000
O O15 0.785538 0.389316 0.500000
O O16 0.500000 0.400965 0.357042
#
# Coordination Sequence:
#
# PCOD9385647 Si02
#       6
#     4   4   8   8   4   8
#     4   9  17  33  58  83 106 135 168 208 258 303
#     4   9  16  24  36  58  89 126 167 208 252 305
#     4   9  16  26  39  60  92 129 166 206 254 305
#     4  10  20  34  51  74 106 143 179 213 256 309
#     4   9  14  22  38  58  85 124 165 204 250 303
#     4  10  21  36  56  82 109 136 171 213 255 302
#
# _framework density 21.970893
#
# number of rings (size 3 to 8) (size 9 to 14) (size 15 to 20)
#    0.000    2.556    1.111    1.667    1.556    5.778 
#    0.000    0.556    0.000    3.333    0.000    0.000 
#    0.000    5.333    0.000    0.000    0.000    0.000 
#
# Total GULP energy -200870.626319 kJ/mol
# GULP energy per Si atom -5579.739620 kJ/mol
# Density = 2.192089 g / cm^3
# Si number density = 21.970893 Si / 1000 Ang^3
#
#
#
# Elastic Constant Matrix: (Units=GPa)
#
#
# Indices 1 2 3 4 5 6 
#
# 1 81.6080 -1.5985 6.6497 0.0000 0.0000 0.0000
# 2 -1.5985 251.0027 154.4696 0.0000 0.0000 0.0000
# 3 6.6497 154.4696 282.6341 0.0000 0.0000 0.0000
# 4 0.0000 0.0000 0.0000 38.4836 0.0000 0.0000
# 5 0.0000 0.0000 0.0000 0.0000 4.7302 0.0000
# 6 0.0000 0.0000 0.0000 0.0000 0.0000 17.2824
#
#
#
# Elastic Compliance Matrix: (Units=1/GPa)
#
#
# Indices 1 2 3 4 5 6 
#
# 1 0.012302 0.000386 -0.000501 0.000000 0.000000 0.000000
# 2 0.000386 0.006015 -0.003297 0.000000 0.000000 0.000000
# 3 -0.000501 -0.003297 0.005352 0.000000 0.000000 0.000000
# 4 0.000000 0.000000 0.000000 0.025985 0.000000 0.000000
# 5 0.000000 0.000000 0.000000 0.000000 0.211407 0.000000
# 6 0.000000 0.000000 0.000000 0.000000 0.000000 0.057862
#
#
# Mechanical properties :
#
#
# Convention : Reuss Voigt Hill
#
# Bulk Modulus (GPa) = 59.35671 103.80959 81.58315
# Shear Modulus (GPa) = 15.08930 42.48084 28.78507
#
# Velocity S-wave (km/s) = 2.62350 4.40193 3.62352
# Velocity P-wave (km/s) = 6.02094 8.55496 7.39726
#
# Compressibility (1/GPa) = 0.01684730
#
# Stress axis : x y z
#
# Youngs Moduli (GPa) = 81.28719 166.24345 186.85793
#
# Poissons Ratio (x) = -0.06424 0.09355
# Poissons Ratio (y) = -0.03141 0.61601
# Poissons Ratio (z) = 0.04070 0.54805
#
# Static dielectric constant tensor:
#      x y z
#    x 1.886550 0.000000 0.000000 
#    y 0.000000 1.769320 0.000000 
#    z 0.000000 0.000000 1.764130 
# 
# From -- ./inp_files/3980.got.cif
#   From: 2010.05.17/outbox.cif.g08.bks.cpg/sg47_2_cif.got.tgz:3980.got - 2010.06.03 20:15:42.
