data_PCOD9385407
_publ_section_title
;
Structure prediction by ZEFSAII (Michael W. Deem and Ramdas Pophale) SiO2 
 PCOD9385407
Probable space group: P M M M
;
_chemical_formula_sum "Si O2"
_cell_formula_units_Z 64
_cell_length_a 21.318064
_cell_length_b 20.019328
_cell_length_c 8.743510
_cell_angle_alpha 90.000000
_cell_angle_beta 90.000000
_cell_angle_gamma 90.000000
_cell_volume 3731.496752
_symmetry_space_group_name_H-M "P M M M"
_symmetry_group_IT_number 47
_symmetry_cell_setting 'orthorhombic'
loop_
_space_group_symop_operation_xyz
x,y,z
-x,-y,z
x,-y,-z
-x,y,-z
-x,-y,-z
x,y,-z
-x,y,z
x,-y,z
loop_
_atom_site_type_symbol
_atom_site_label
_atom_site_fract_x
_atom_site_fract_y
_atom_site_fract_z
Si Si1 0.310778 0.208848 0.682185
Si Si2 0.121324 0.075335 0.683099
Si Si3 0.738499 0.923716 0.817266
Si Si4 0.808012 0.710509 0.816482
Si Si5 0.069133 0.207991 0.815737
Si Si6 0.570263 0.714973 0.184577
Si Si7 0.625390 0.425685 0.183676
Si Si8 0.235038 0.424291 0.317292
O O1 0.308096 0.210816 0.500000
O O2 0.303297 0.133364 0.742037
O O3 0.251602 0.250142 0.748505
O O4 0.374602 0.242216 0.741262
O O5 0.124895 0.080796 0.500000
O O6 0.191027 0.083630 0.752313
O O7 0.079513 0.134200 0.749521
O O8 0.099787 0.000000 0.721367
O O9 0.718342 0.000000 0.784995
O O10 0.740317 0.914384 0.000000
O O11 0.872416 0.746259 0.766694
O O12 0.803733 0.634407 0.761098
O O13 0.803740 0.713275 0.000000
O O14 0.000000 0.233097 0.771524
O O15 0.071602 0.204181 0.000000
O O16 0.500000 0.734637 0.230727
O O17 0.582354 0.637035 0.223481
O O18 0.574884 0.720804 0.000000
O O19 0.601091 0.500000 0.222101
O O20 0.692890 0.417138 0.262574
O O21 0.634992 0.423724 0.000000
O O22 0.232610 0.417031 0.500000
O O23 0.215335 0.500000 0.276996
#
# Coordination Sequence:
#
# PCOD9385407 Si02
#       8
#     8   8   8   8   8   8   8   8
#     4  12  23  35  56  83 112 145 182 227 276 324
#     4  10  20  33  51  78 111 146 183 222 266 320
#     4  10  20  35  57  83 110 141 179 225 274 324
#     4  11  21  35  57  81 107 141 184 229 272 325
#     4  10  22  38  55  77 107 145 186 229 276 326
#     4  10  21  36  54  78 111 150 189 228 270 321
#     4   9  17  30  50  76 107 144 183 221 264 317
#     4  10  20  33  52  80 111 140 175 223 276 327
#
# _framework density 17.151294
#
# number of rings (size 3 to 8) (size 9 to 14) (size 15 to 20)
#    0.000    1.750    2.500    2.625    0.000    3.750 
#    0.000    2.500    0.000    0.750    0.000    7.875 
#    0.000    0.000    0.000    0.000    0.000    0.000 
#
# Total GULP energy -357303.214770 kJ/mol
# GULP energy per Si atom -5582.862731 kJ/mol
# Density = 1.711226 g / cm^3
# Si number density = 17.151294 Si / 1000 Ang^3
#
#
#
# Elastic Constant Matrix: (Units=GPa)
#
#
# Indices 1 2 3 4 5 6 
#
# 1 121.5708 72.1392 39.1360 0.0000 0.0000 0.0000
# 2 72.1392 112.9534 39.2986 0.0000 0.0000 0.0000
# 3 39.1360 39.2986 38.7684 0.0000 0.0000 0.0000
# 4 0.0000 0.0000 0.0000 25.6168 0.0000 0.0000
# 5 0.0000 0.0000 0.0000 0.0000 -19.2431 0.0000
# 6 0.0000 0.0000 0.0000 0.0000 0.0000 22.0864
#
#
#
# Elastic Compliance Matrix: (Units=1/GPa)
#
#
# Indices 1 2 3 4 5 6 
#
# 1 0.014783 -0.006564 -0.008269 0.000000 0.000000 0.000000
# 2 -0.006564 0.016592 -0.010192 0.000000 0.000000 0.000000
# 3 -0.008269 -0.010192 0.044473 0.000000 0.000000 0.000000
# 4 0.000000 0.000000 0.000000 0.039037 0.000000 0.000000
# 5 0.000000 0.000000 0.000000 0.000000 -0.051967 0.000000
# 6 0.000000 0.000000 0.000000 0.000000 0.000000 0.045277
#
#
# Mechanical properties :
#
#
# Convention : Reuss Voigt Hill
#
# Bulk Modulus (GPa) = 38.76435 63.82670 51.29552
# Shear Modulus (GPa) = 29.96827 13.87326 21.92076
#
# Velocity S-wave (km/s) = 4.18459 2.84716 3.57891
# Velocity P-wave (km/s) = 6.78220 6.93564 6.85935
#
# Compressibility (1/GPa) = 0.02579690
#
# Stress axis : x y z
#
# Youngs Moduli (GPa) = 67.64624 60.27168 22.48573
#
# Poissons Ratio (x) = 0.39564 0.18593
# Poissons Ratio (y) = 0.44405 0.22917
# Poissons Ratio (z) = 0.55936 0.61428
#
# Static dielectric constant tensor:
#      x y z
#    x 1.563310 0.000000 0.000000 
#    y 0.000000 1.595900 0.000000 
#    z 0.000000 0.000000 1.571570 
# 
# From -- ./inp_files/9939.got.cif
#   From: 2010.05.17/outbox.cif.g08.bks.cpg/sg47_5_cif.got.tgz:9939.got - 2010.06.03 20:15:42.
