data_PCOD9385515
_publ_section_title
;
Structure prediction by ZEFSAII (Michael W. Deem and Ramdas Pophale) SiO2 
 PCOD9385515
Probable space group: P M M M
;
_chemical_formula_sum "Si O2"
_cell_formula_units_Z 52
_cell_length_a 14.768886
_cell_length_b 8.649906
_cell_length_c 21.116211
_cell_angle_alpha 90.000000
_cell_angle_beta 90.000000
_cell_angle_gamma 90.000000
_cell_volume 2697.584882
_symmetry_space_group_name_H-M "P M M M"
_symmetry_group_IT_number 47
_symmetry_cell_setting 'orthorhombic'
loop_
_space_group_symop_operation_xyz
x,y,z
-x,-y,z
x,-y,-z
-x,y,-z
-x,-y,-z
x,y,-z
-x,y,z
x,-y,z
loop_
_atom_site_type_symbol
_atom_site_label
_atom_site_fract_x
_atom_site_fract_y
_atom_site_fract_z
Si Si1 0.500000 0.676080 0.576990
Si Si2 0.777624 0.318132 0.690513
Si Si3 0.787666 0.184861 0.930716
Si Si4 0.398596 0.183068 0.751430
Si Si5 0.399871 0.684240 0.107890
Si Si6 0.105377 0.686915 0.190432
Si Si7 0.304980 0.815700 0.427623
O O1 0.500000 0.500000 0.600472
O O2 0.500000 0.672834 0.500000
O O3 0.594815 0.757948 0.592832
O O4 0.791202 0.500000 0.682272
O O5 0.679839 0.282683 0.720746
O O6 0.848575 0.260961 0.743491
O O7 0.770147 0.241096 0.621784
O O8 0.687161 0.256185 0.928766
O O9 0.842463 0.248221 0.870626
O O10 0.781364 0.000000 0.925257
O O11 0.828631 0.222087 0.000000
O O12 0.500000 0.217456 0.727631
O O13 0.398052 0.225773 0.825474
O O14 0.381211 0.000000 0.742542
O O15 0.500000 0.710174 0.079347
O O16 0.391123 0.500000 0.119139
O O17 0.112863 0.500000 0.188616
O O18 0.000000 0.729302 0.188406
O O19 0.289339 0.762057 0.500000
O O20 0.307346 0.000000 0.427258
#
# Coordination Sequence:
#
# PCOD9385515 Si02
#       7
#     4   8   8   8   8   8   8
#     4   9  17  31  51  77 113 157 202 243 282 331
#     4  11  22  36  59  87 115 150 193 241 291 345
#     4  11  24  40  60  88 121 156 194 238 290 349
#     4  10  20  33  52  80 116 155 193 236 286 341
#     4  10  20  35  56  83 117 157 200 242 284 335
#     4  10  23  44  67  90 115 145 187 241 301 361
#     4  10  21  36  54  79 116 159 199 239 285 339
#
# _framework density 19.276502000000001
#
# number of rings (size 3 to 8) (size 9 to 14) (size 15 to 20)
#    0.000    1.769    1.538    2.538    1.077    6.462 
#    0.000    3.077    0.000    0.462    0.000    3.231 
#    0.000    0.000    0.000    0.000    0.000    0.000 
#
# Total GULP energy -290349.318450 kJ/mol
# GULP energy per Si atom -5583.640739 kJ/mol
# Density = 1.923263 g / cm^3
# Si number density = 19.276502 Si / 1000 Ang^3
#
#
#
# Elastic Constant Matrix: (Units=GPa)
#
#
# Indices 1 2 3 4 5 6 
#
# 1 101.6990 25.5519 66.0280 0.0000 0.0000 0.0000
# 2 25.5519 38.1783 24.6428 0.0000 0.0000 0.0000
# 3 66.0280 24.6428 133.9738 0.0000 0.0000 0.0000
# 4 0.0000 0.0000 0.0000 -13.7595 0.0000 0.0000
# 5 0.0000 0.0000 0.0000 0.0000 2.8682 0.0000
# 6 0.0000 0.0000 0.0000 0.0000 0.0000 -0.8062
#
#
#
# Elastic Compliance Matrix: (Units=1/GPa)
#
#
# Indices 1 2 3 4 5 6 
#
# 1 0.015670 -0.006244 -0.006574 0.000000 0.000000 0.000000
# 2 -0.006244 0.032210 -0.002847 0.000000 0.000000 0.000000
# 3 -0.006574 -0.002847 0.011228 0.000000 0.000000 0.000000
# 4 0.000000 0.000000 0.000000 -0.072677 0.000000 0.000000
# 5 0.000000 0.000000 0.000000 0.000000 0.348656 0.000000
# 6 0.000000 0.000000 0.000000 0.000000 0.000000 -1.240461
#
#
# Mechanical properties :
#
#
# Convention : Reuss Voigt Hill
#
# Bulk Modulus (GPa) = 36.00176 56.25517 46.12847
# Shear Modulus (GPa) = -5.78180 8.16906 1.19363
#
# Velocity S-wave (km/s) = -1.73376 2.06083 0.78776
# Velocity P-wave (km/s) = 3.83525 5.90841 4.98089
#
# Compressibility (1/GPa) = 0.02777642
#
# Stress axis : x y z
#
# Youngs Moduli (GPa) = 63.81530 31.04651 89.06312
#
# Poissons Ratio (x) = 0.19386 0.58554
# Poissons Ratio (y) = 0.39848 0.25358
# Poissons Ratio (z) = 0.41955 0.08839
#
# Static dielectric constant tensor:
#      x y z
#    x 1.654330 0.000000 0.000000 
#    y 0.000000 1.651870 0.000000 
#    z 0.000000 0.000000 1.730910 
# 
# From -- ./inp_files/21403.got.cif
#   From: 2010.05.17/outbox.cif.g08.bks.cpg/sg47_11_cif.got.tgz:21403.got - 2010.06.03 20:15:42.
