data_PCOD9385011
_publ_section_title
;
Structure prediction by ZEFSAII (Michael W. Deem and Ramdas Pophale) SiO2 
 PCOD9385011
Probable space group: P M M M
;
_chemical_formula_sum "Si O2"
_cell_formula_units_Z 64
_cell_length_a 13.298568
_cell_length_b 25.935470
_cell_length_c 7.392586
_cell_angle_alpha 90.000000
_cell_angle_beta 90.000000
_cell_angle_gamma 90.000000
_cell_volume 2549.737002
_symmetry_space_group_name_H-M "P M M M"
_symmetry_group_IT_number 47
_symmetry_cell_setting 'orthorhombic'
loop_
_space_group_symop_operation_xyz
x,y,z
-x,-y,z
x,-y,-z
-x,y,-z
-x,-y,-z
x,y,-z
-x,y,z
x,-y,z
loop_
_atom_site_type_symbol
_atom_site_label
_atom_site_fract_x
_atom_site_fract_y
_atom_site_fract_z
Si Si1 0.330930 0.943914 0.780268
Si Si2 0.671111 0.555455 0.779669
Si Si3 0.172552 0.188070 0.711683
Si Si4 0.607228 0.830207 0.709188
Si Si5 0.108462 0.412549 0.779572
Si Si6 0.608151 0.668715 0.220485
Si Si7 0.892651 0.077825 0.207338
Si Si8 0.173597 0.700033 0.217209
O O1 0.384912 0.892491 0.714871
O O2 0.214333 0.940262 0.717686
O O3 0.371585 0.000000 0.728480
O O4 0.331976 0.941095 0.000000
O O5 0.630644 0.500000 0.720520
O O6 0.788348 0.560309 0.724625
O O7 0.618453 0.608511 0.725447
O O8 0.668053 0.555808 0.000000
O O9 0.179142 0.175667 0.500000
O O10 0.286824 0.188443 0.788990
O O11 0.114978 0.140040 0.794147
O O12 0.129329 0.245065 0.730578
O O13 0.606400 0.813865 0.500000
O O14 0.500000 0.814719 0.791398
O O15 0.119646 0.352485 0.725123
O O16 0.000000 0.432750 0.720012
O O17 0.108900 0.414431 0.000000
O O18 0.500000 0.689116 0.280739
O O19 0.710298 0.695995 0.281826
O O20 0.609502 0.670262 0.000000
O O21 0.000000 0.063150 0.289993
O O22 0.893563 0.060001 0.000000
O O23 0.174282 0.698320 0.000000
#
# Coordination Sequence:
#
# PCOD9385011 Si02
#       8
#     8   8   8   8   8   8   8   8
#     4   9  18  32  50  74 101 124 150 188 228 263
#     4   8  13  20  31  51  80 112 144 176 212 259
#     4  10  20  33  49  69  93 119 150 193 238 272
#     4   9  19  35  51  67  91 124 158 189 225 273
#     4   8  14  24  37  54  78 109 143 177 213 256
#     4   8  14  24  37  55  81 112 145 181 220 263
#     4   9  18  33  52  72  95 125 157 185 219 269
#     4   9  17  29  44  62  85 114 149 183 217 267
#
# _framework density 25.100629000000001
#
# number of rings (size 3 to 8) (size 9 to 14) (size 15 to 20)
#    0.000    3.250    0.000    1.875    0.000    3.250 
#    0.000    6.250    0.000    0.000    0.000    3.500 
#    0.000    8.000    0.000    9.000    0.000   10.000 
#
# Total GULP energy -357409.402201 kJ/mol
# GULP energy per Si atom -5584.521909 kJ/mol
# Density = 2.504350 g / cm^3
# Si number density = 25.100629 Si / 1000 Ang^3
#
#
#
# Elastic Constant Matrix: (Units=GPa)
#
#
# Indices 1 2 3 4 5 6 
#
# 1 119.0760 -8.9385 1.6788 0.0000 0.0000 0.0000
# 2 -8.9385 129.6815 -7.9106 0.0000 0.0000 0.0000
# 3 1.6788 -7.9106 91.8590 0.0000 0.0000 0.0000
# 4 0.0000 0.0000 0.0000 11.4933 0.0000 0.0000
# 5 0.0000 0.0000 0.0000 0.0000 -10.0770 0.0000
# 6 0.0000 0.0000 0.0000 0.0000 0.0000 -19.4377
#
#
#
# Elastic Compliance Matrix: (Units=1/GPa)
#
#
# Indices 1 2 3 4 5 6 
#
# 1 0.008443 0.000576 -0.000105 0.000000 0.000000 0.000000
# 2 0.000576 0.007791 0.000660 0.000000 0.000000 0.000000
# 3 -0.000105 0.000660 0.010945 0.000000 0.000000 0.000000
# 4 0.000000 0.000000 0.000000 0.087008 0.000000 0.000000
# 5 0.000000 0.000000 0.000000 0.000000 -0.099236 0.000000
# 6 0.000000 0.000000 0.000000 0.000000 0.000000 -0.051446
#
#
# Mechanical properties :
#
#
# Convention : Reuss Voigt Hill
#
# Bulk Modulus (GPa) = 33.96584 34.47509 34.22047
# Shear Modulus (GPa) = -172.74247 20.11484 -76.31382
#
# Velocity S-wave (km/s) = -8.30478 2.83392 -5.51989
# Velocity P-wave (km/s) = 8.85426 4.94699 5.19255
#
# Compressibility (1/GPa) = 0.02944134
#
# Stress axis : x y z
#
# Youngs Moduli (GPa) = 118.44583 128.35061 91.36560
#
# Poissons Ratio (x) = -0.07387 0.00957
# Poissons Ratio (y) = -0.06817 -0.06034
# Poissons Ratio (z) = 0.01241 -0.08477
#
# Static dielectric constant tensor:
#      x y z
#    x 1.984270 0.000000 0.000000 
#    y 0.000000 1.943560 0.000000 
#    z 0.000000 0.000000 1.971220 
# 
# From -- ./inp_files/8305.got.cif
#   From: 2010.05.17/outbox.cif.g08.bks.cpg/sg47_5_cif.got.tgz:8305.got - 2010.06.03 20:15:42.
