data_PCOD9385664
_publ_section_title
;
Structure prediction by ZEFSAII (Michael W. Deem and Ramdas Pophale) SiO2 
 PCOD9385664
Probable space group: P M M M
;
_chemical_formula_sum "Si O2"
_cell_formula_units_Z 64
_cell_length_a 8.988807
_cell_length_b 14.599092
_cell_length_c 32.570916
_cell_angle_alpha 90.000000
_cell_angle_beta 90.000000
_cell_angle_gamma 90.000000
_cell_volume 4274.229856
_symmetry_space_group_name_H-M "P M M M"
_symmetry_group_IT_number 47
_symmetry_cell_setting 'orthorhombic'
loop_
_space_group_symop_operation_xyz
x,y,z
-x,-y,z
x,-y,-z
-x,y,-z
-x,-y,-z
x,y,-z
-x,y,z
x,-y,z
loop_
_atom_site_type_symbol
_atom_site_label
_atom_site_fract_x
_atom_site_fract_y
_atom_site_fract_z
Si Si1 0.823393 0.894868 0.830909
Si Si2 0.821042 0.392269 0.873058
Si Si3 0.318589 0.394307 0.717942
Si Si4 0.321092 0.280999 0.798012
Si Si5 0.677836 0.896176 0.078958
Si Si6 0.824175 0.389354 0.544632
Si Si7 0.178453 0.282133 0.045350
Si Si8 0.672607 0.611494 0.627779
O O1 0.747850 0.819675 0.802318
O O2 0.750338 0.885741 0.875969
O O3 0.000000 0.878093 0.834303
O O4 0.800601 0.000000 0.817510
O O5 0.786485 0.500000 0.872250
O O6 0.739683 0.339378 0.836450
O O7 0.779174 0.347302 0.916750
O O8 0.000000 0.381864 0.868177
O O9 0.500000 0.395416 0.716362
O O10 0.271616 0.500000 0.724544
O O11 0.275349 0.331276 0.755937
O O12 0.267434 0.361833 0.672774
O O13 0.500000 0.276965 0.799741
O O14 0.500000 0.886817 0.082100
O O15 0.744791 0.815928 0.051604
O O16 0.710742 0.000000 0.064558
O O17 0.766097 0.356892 0.500000
O O18 0.805127 0.500000 0.544720
O O19 0.752165 0.354961 0.586645
O O20 0.000000 0.371860 0.545852
O O21 0.000000 0.270027 0.047544
O O22 0.214451 0.319080 0.000000
O O23 0.500000 0.637317 0.625241
O O24 0.679141 0.500000 0.628069
#
# Coordination Sequence:
#
# PCOD9385664 Si02
#       8
#     8   8   8   8   8   8   8   8
#     4  10  20  34  52  72  95 120 143 172 212 258
#     4  10  21  36  52  70  93 120 151 185 217 252
#     4   8  15  27  41  60  87 117 146 178 219 260
#     4  11  20  31  51  74  94 117 146 180 219 263
#     4  10  20  34  53  76  98 119 143 173 212 255
#     4   8  13  20  29  43  66  96 131 175 225 266
#     4  10  21  36  53  72  95 124 152 177 212 257
#     4   8  13  22  35  49  69 100 139 179 213 250
#
# _framework density 14.973456000000001
#
# number of rings (size 3 to 8) (size 9 to 14) (size 15 to 20)
#    0.000    2.625    1.250    2.625    0.000    3.250 
#    0.000    5.000    0.000    3.000    0.000    1.750 
#    0.000    0.000    0.000    0.000    0.000    0.625 
#
# Total GULP energy -356537.430854 kJ/mol
# GULP energy per Si atom -5570.897357 kJ/mol
# Density = 1.493938 g / cm^3
# Si number density = 14.973456 Si / 1000 Ang^3
#
#
#
# Elastic Constant Matrix: (Units=GPa)
#
#
# Indices 1 2 3 4 5 6 
#
# 1 26.0749 24.3829 39.4349 0.0000 0.0000 0.0000
# 2 24.3829 61.0817 47.0576 0.0000 0.0000 0.0000
# 3 39.4349 47.0576 141.0781 0.0000 0.0000 0.0000
# 4 0.0000 0.0000 0.0000 5.2084 0.0000 0.0000
# 5 0.0000 0.0000 0.0000 0.0000 25.1553 0.0000
# 6 0.0000 0.0000 0.0000 0.0000 0.0000 17.6553
#
#
#
# Elastic Compliance Matrix: (Units=1/GPa)
#
#
# Indices 1 2 3 4 5 6 
#
# 1 0.081476 -0.020159 -0.016051 0.000000 0.000000 0.000000
# 2 -0.020159 0.027021 -0.003378 0.000000 0.000000 0.000000
# 3 -0.016051 -0.003378 0.012702 0.000000 0.000000 0.000000
# 4 0.000000 0.000000 0.000000 0.191999 0.000000 0.000000
# 5 0.000000 0.000000 0.000000 0.000000 0.039753 0.000000
# 6 0.000000 0.000000 0.000000 0.000000 0.000000 0.056640
#
#
# Mechanical properties :
#
#
# Convention : Reuss Voigt Hill
#
# Bulk Modulus (GPa) = 23.79596 49.99840 36.89718
# Shear Modulus (GPa) = 9.94483 17.42773 13.68628
#
# Velocity S-wave (km/s) = 2.57993 3.41531 3.02658
# Velocity P-wave (km/s) = 4.98009 7.00117 6.07526
#
# Compressibility (1/GPa) = 0.04202393
#
# Stress axis : x y z
#
# Youngs Moduli (GPa) = 12.27357 37.00801 78.72993
#
# Poissons Ratio (x) = 0.74603 1.26366
# Poissons Ratio (y) = 0.24742 0.26597
# Poissons Ratio (z) = 0.19700 0.12502
#
# Static dielectric constant tensor:
#      x y z
#    x 1.503630 0.000000 0.000000 
#    y 0.000000 1.481900 0.000000 
#    z 0.000000 0.000000 1.518500 
# 
# From -- ./inp_files/34453.got.cif
#   From: 2010.05.17/outbox.cif.g08.bks.cpg/sg47_18_cif.got.tgz:34453.got - 2010.06.03 20:15:42.
