data_PCOD9385195
_publ_section_title
;
Structure prediction by ZEFSAII (Michael W. Deem and Ramdas Pophale) SiO2 
 PCOD9385195
Probable space group: P M M M
;
_chemical_formula_sum "Si O2"
_cell_formula_units_Z 48
_cell_length_a 8.364670
_cell_length_b 31.977644
_cell_length_c 9.541320
_cell_angle_alpha 90.000000
_cell_angle_beta 90.000000
_cell_angle_gamma 90.000000
_cell_volume 2552.135549
_symmetry_space_group_name_H-M "P M M M"
_symmetry_group_IT_number 47
_symmetry_cell_setting 'orthorhombic'
loop_
_space_group_symop_operation_xyz
x,y,z
-x,-y,z
x,-y,-z
-x,y,-z
-x,-y,-z
x,y,-z
-x,y,z
x,-y,z
loop_
_atom_site_type_symbol
_atom_site_label
_atom_site_fract_x
_atom_site_fract_y
_atom_site_fract_z
Si Si1 0.195665 0.748424 0.161273
Si Si2 0.807019 0.077770 0.338271
Si Si3 0.814442 0.500000 0.169616
Si Si4 0.192785 0.668115 0.660438
Si Si5 0.805106 0.171968 0.338282
Si Si6 0.309503 0.589966 0.161919
Si Si7 0.309271 0.000000 0.158648
O O1 0.248261 0.708474 0.251676
O O2 0.248333 0.791233 0.236103
O O3 0.000000 0.748457 0.161517
O O4 0.247115 0.745659 0.000000
O O5 0.758155 0.070502 0.500000
O O6 0.755005 0.124888 0.298704
O O7 0.000000 0.077153 0.335312
O O8 0.745626 0.041298 0.240080
O O9 0.736716 0.456365 0.214439
O O10 0.000000 0.500000 0.207830
O O11 0.800907 0.500000 0.000000
O O12 0.250977 0.668767 0.500000
O O13 0.240757 0.626192 0.741211
O O14 0.000000 0.670049 0.656337
O O15 0.757735 0.179824 0.500000
O O16 0.000000 0.172142 0.336961
O O17 0.500000 0.593205 0.159519
O O18 0.250902 0.594604 0.000000
O O19 0.500000 0.000000 0.154438
O O20 0.246057 0.000000 0.000000
#
# Coordination Sequence:
#
# PCOD9385195 Si02
#       7
#     8   8   4   8   8   8   4
#     4   9  16  26  44  72 103 133 166 205 249 297
#     4   9  18  33  54  78 101 128 166 209 252 302
#     4   9  17  31  54  81 106 133 166 206 252 303
#     4  10  20  33  50  73 102 137 175 213 252 294
#     4   8  14  26  45  71 102 130 157 198 252 304
#     4  10  20  34  53  77 105 136 170 209 254 303
#     4  11  24  37  48  68 100 135 170 209 254 302
#
# _framework density 18.807777999999999
#
# number of rings (size 3 to 8) (size 9 to 14) (size 15 to 20)
#    0.000    2.667    0.000    3.250    0.000    7.667 
#    0.000    2.083    0.000    3.500    0.000    4.667 
#    0.000    0.000    0.000    0.000    0.000    0.000 
#
# Total GULP energy -267764.594940 kJ/mol
# GULP energy per Si atom -5578.429061 kJ/mol
# Density = 1.876497 g / cm^3
# Si number density = 18.807778 Si / 1000 Ang^3
#
#
#
# Elastic Constant Matrix: (Units=GPa)
#
#
# Indices 1 2 3 4 5 6 
#
# 1 5.8750 19.8278 16.7986 0.0000 0.0000 0.0000
# 2 19.8278 199.1856 132.5490 0.0000 0.0000 0.0000
# 3 16.7986 132.5490 146.1769 0.0000 0.0000 0.0000
# 4 0.0000 0.0000 0.0000 33.8294 0.0000 0.0000
# 5 0.0000 0.0000 0.0000 0.0000 11.5541 0.0000
# 6 0.0000 0.0000 0.0000 0.0000 0.0000 -24.9504
#
#
#
# Elastic Compliance Matrix: (Units=1/GPa)
#
#
# Indices 1 2 3 4 5 6 
#
# 1 0.271948 -0.015820 -0.016907 0.000000 0.000000 0.000000
# 2 -0.015820 0.013579 -0.010495 0.000000 0.000000 0.000000
# 3 -0.016907 -0.010495 0.018301 0.000000 0.000000 0.000000
# 4 0.000000 0.000000 0.000000 0.029560 0.000000 0.000000
# 5 0.000000 0.000000 0.000000 0.000000 0.086549 0.000000
# 6 0.000000 0.000000 0.000000 0.000000 0.000000 -0.040080
#
#
# Mechanical properties :
#
#
# Convention : Reuss Voigt Hill
#
# Bulk Modulus (GPa) = 4.60017 76.62094 40.61055
# Shear Modulus (GPa) = 9.28050 16.22411 12.75231
#
# Velocity S-wave (km/s) = 2.22376 2.94024 2.60673
# Velocity P-wave (km/s) = 3.00744 7.23561 5.54070
#
# Compressibility (1/GPa) = 0.21738334
#
# Stress axis : x y z
#
# Youngs Moduli (GPa) = 3.67718 73.64051 54.64195
#
# Poissons Ratio (x) = 1.16499 0.92383
# Poissons Ratio (y) = 0.05817 0.57349
# Poissons Ratio (z) = 0.06217 0.77289
#
# Static dielectric constant tensor:
#      x y z
#    x 1.646180 0.000000 0.000000 
#    y 0.000000 1.635990 0.000000 
#    z 0.000000 0.000000 1.641170 
# 
# From -- ./inp_files/2569.got.cif
#   From: 2010.05.17/outbox.cif.g08.bks.cpg/sg47_2_cif.got.tgz:2569.got - 2010.06.03 20:15:42.
