data_PCOD9385645
_publ_section_title
;
Structure prediction by ZEFSAII (Michael W. Deem and Ramdas Pophale) SiO2 
 PCOD9385645
Probable space group: P M M M
;
_chemical_formula_sum "Si O2"
_cell_formula_units_Z 52
_cell_length_a 14.476960
_cell_length_b 8.593709
_cell_length_c 23.747575
_cell_angle_alpha 90.000000
_cell_angle_beta 90.000000
_cell_angle_gamma 90.000000
_cell_volume 2954.454363
_symmetry_space_group_name_H-M "P M M M"
_symmetry_group_IT_number 47
_symmetry_cell_setting 'orthorhombic'
loop_
_space_group_symop_operation_xyz
x,y,z
-x,-y,z
x,-y,-z
-x,y,-z
-x,-y,-z
x,y,-z
-x,y,z
x,-y,z
loop_
_atom_site_type_symbol
_atom_site_label
_atom_site_fract_x
_atom_site_fract_y
_atom_site_fract_z
Si Si1 0.894693 0.686316 0.668879
Si Si2 0.265285 0.677217 0.144131
Si Si3 0.725248 0.184985 0.736642
Si Si4 0.106152 0.689930 0.064051
Si Si5 0.604283 0.189412 0.368139
Si Si6 0.216418 0.811659 0.435866
Si Si7 0.390184 0.500000 0.065210
O O1 0.893142 0.500000 0.669196
O O2 0.822527 0.746900 0.715218
O O3 0.855981 0.745718 0.608974
O O4 0.000000 0.738947 0.678143
O O5 0.240037 0.500000 0.162814
O O6 0.293479 0.767440 0.199537
O O7 0.178439 0.745943 0.110370
O O8 0.345772 0.645662 0.098488
O O9 0.646858 0.237907 0.692208
O O10 0.730722 0.000000 0.731889
O O11 0.111742 0.500000 0.064184
O O12 0.000000 0.731654 0.075969
O O13 0.128372 0.739008 0.000000
O O14 0.500000 0.245750 0.377111
O O15 0.681148 0.234537 0.414150
O O16 0.601056 0.000000 0.368638
O O17 0.200421 0.762435 0.500000
O O18 0.211979 0.000000 0.433546
O O19 0.500000 0.500000 0.068186
O O20 0.360772 0.500000 0.000000
#
# Coordination Sequence:
#
# PCOD9385645 Si02
#       7
#     8   8   8   8   8   8   4
#     4  10  21  36  54  73  99 137 177 216 257 302
#     4   9  18  29  48  73  98 128 167 207 247 298
#     4  10  20  34  51  74 104 133 167 213 263 313
#     4   8  13  23  42  67  91 116 151 195 238 280
#     4   8  15  29  49  71  96 129 166 205 251 301
#     4   9  18  32  51  77 106 134 169 213 258 308
#     4   9  18  32  51  75 103 137 175 214 254 298
#
# _framework density 17.600542000000001
#
# number of rings (size 3 to 8) (size 9 to 14) (size 15 to 20)
#    0.462    2.538    0.000    2.769    0.000    3.385 
#    0.000    4.615    0.000    6.000    0.000    6.462 
#    0.000    0.000    0.000    0.000    0.000    0.000 
#
# Total GULP energy -289532.708570 kJ/mol
# GULP energy per Si atom -5567.936703 kJ/mol
# Density = 1.756048 g / cm^3
# Si number density = 17.600542 Si / 1000 Ang^3
#
#
#
# Elastic Constant Matrix: (Units=GPa)
#
#
# Indices 1 2 3 4 5 6 
#
# 1 64.6710 10.8522 13.6634 0.0000 0.0000 0.0000
# 2 10.8522 15.8363 12.3860 0.0000 0.0000 0.0000
# 3 13.6634 12.3860 88.8518 0.0000 0.0000 0.0000
# 4 0.0000 0.0000 0.0000 25.9432 0.0000 0.0000
# 5 0.0000 0.0000 0.0000 0.0000 3.3115 0.0000
# 6 0.0000 0.0000 0.0000 0.0000 0.0000 1.7437
#
#
#
# Elastic Compliance Matrix: (Units=1/GPa)
#
#
# Indices 1 2 3 4 5 6 
#
# 1 0.017576 -0.011146 -0.001149 0.000000 0.000000 0.000000
# 2 -0.011146 0.077941 -0.009151 0.000000 0.000000 0.000000
# 3 -0.001149 -0.009151 0.012707 0.000000 0.000000 0.000000
# 4 0.000000 0.000000 0.000000 0.038546 0.000000 0.000000
# 5 0.000000 0.000000 0.000000 0.000000 0.301981 0.000000
# 6 0.000000 0.000000 0.000000 0.000000 0.000000 0.573483
#
#
# Mechanical properties :
#
#
# Convention : Reuss Voigt Hill
#
# Bulk Modulus (GPa) = 15.30630 27.01805 21.16218
# Shear Modulus (GPa) = 4.60023 15.03016 9.81520
#
# Velocity S-wave (km/s) = 1.61844 2.92543 2.36405
# Velocity P-wave (km/s) = 3.49397 5.17638 4.41603
#
# Compressibility (1/GPa) = 0.06533256
#
# Stress axis : x y z
#
# Youngs Moduli (GPa) = 56.89588 12.83018 78.69630
#
# Poissons Ratio (x) = 0.14300 0.09043
# Poissons Ratio (y) = 0.63414 0.72016
# Poissons Ratio (z) = 0.06538 0.11741
#
# Static dielectric constant tensor:
#      x y z
#    x 1.601460 0.000000 0.000000 
#    y 0.000000 1.605940 0.000000 
#    z 0.000000 0.000000 1.597040 
# 
# From -- ./inp_files/32669.got.cif
#   From: 2010.05.17/outbox.cif.g08.bks.cpg/sg47_17_cif.got.tgz:32669.got - 2010.06.03 20:15:42.
