data_PCOD9385825
_publ_section_title
;
Structure prediction by ZEFSAII (Michael W. Deem and Ramdas Pophale) SiO2 
 PCOD9385825
Probable space group: P M M M
;
_chemical_formula_sum "Si O2"
_cell_formula_units_Z 32
_cell_length_a 8.299038
_cell_length_b 22.810189
_cell_length_c 7.679099
_cell_angle_alpha 90.000000
_cell_angle_beta 90.000000
_cell_angle_gamma 90.000000
_cell_volume 1453.673601
_symmetry_space_group_name_H-M "P M M M"
_symmetry_group_IT_number 47
_symmetry_cell_setting 'orthorhombic'
loop_
_space_group_symop_operation_xyz
x,y,z
-x,-y,z
x,-y,-z
-x,y,-z
-x,-y,-z
x,y,-z
-x,y,z
x,-y,z
loop_
_atom_site_type_symbol
_atom_site_label
_atom_site_fract_x
_atom_site_fract_y
_atom_site_fract_z
Si Si1 0.683902 0.626073 0.791817
Si Si2 0.181039 0.250608 0.788911
Si Si3 0.684077 0.500000 0.706218
Si Si4 0.000000 0.068335 0.287143
Si Si5 0.675238 0.869925 0.705906
O O1 0.500000 0.625551 0.722886
O O2 0.772240 0.684271 0.728051
O O3 0.759170 0.562311 0.756423
O O4 0.675587 0.631452 0.000000
O O5 0.298714 0.199592 0.728040
O O6 0.000000 0.236151 0.730780
O O7 0.183300 0.250580 0.000000
O O8 0.500000 0.500000 0.781944
O O9 0.672470 0.500000 0.500000
O O10 0.835827 0.099020 0.222878
O O11 0.000000 0.073049 0.500000
O O12 0.000000 0.000000 0.243036
O O13 0.671617 0.883074 0.500000
O O14 0.500000 0.886881 0.778937
#
# Coordination Sequence:
#
# PCOD9385825 Si02
#       5
#     8   8   4   4   8
#     4   9  17  30  48  69  94 128 170 214 263 320
#     4  10  20  34  53  77 105 139 178 222 273 324
#     4   9  17  29  46  69  96 126 166 217 268 318
#     4   9  18  34  55  81 115 148 179 220 265 313
#     4  10  20  34  55  82 110 143 182 223 270 320
#
# _framework density 22.013196000000001
#
# number of rings (size 3 to 8) (size 9 to 14) (size 15 to 20)
#    0.000    2.500    1.250    1.125    0.000    4.500 
#    0.000    5.625    0.000    5.250    0.000    1.750 
#    0.000    0.000    0.000    0.000    0.000    0.000 
#
# Total GULP energy -178566.692972 kJ/mol
# GULP energy per Si atom -5580.209155 kJ/mol
# Density = 2.196309 g / cm^3
# Si number density = 22.013196 Si / 1000 Ang^3
#
#
#
# Elastic Constant Matrix: (Units=GPa)
#
#
# Indices 1 2 3 4 5 6 
#
# 1 147.4025 68.1771 7.4830 0.0000 0.0000 0.0000
# 2 68.1771 132.9643 -6.5050 0.0000 0.0000 0.0000
# 3 7.4830 -6.5050 38.4028 0.0000 0.0000 0.0000
# 4 0.0000 0.0000 0.0000 18.6321 0.0000 0.0000
# 5 0.0000 0.0000 0.0000 0.0000 5.7330 0.0000
# 6 0.0000 0.0000 0.0000 0.0000 0.0000 43.2411
#
#
#
# Elastic Compliance Matrix: (Units=1/GPa)
#
#
# Indices 1 2 3 4 5 6 
#
# 1 0.009143 -0.004815 -0.002597 0.000000 0.000000 0.000000
# 2 -0.004815 0.010120 0.002652 0.000000 0.000000 0.000000
# 3 -0.002597 0.002652 0.026995 0.000000 0.000000 0.000000
# 4 0.000000 0.000000 0.000000 0.053671 0.000000 0.000000
# 5 0.000000 0.000000 0.000000 0.000000 0.174429 0.000000
# 6 0.000000 0.000000 0.000000 0.000000 0.000000 0.023126
#
#
# Mechanical properties :
#
#
# Convention : Reuss Voigt Hill
#
# Bulk Modulus (GPa) = 27.21994 50.78667 39.00330
# Shear Modulus (GPa) = 15.66174 30.16220 22.91197
#
# Velocity S-wave (km/s) = 2.67023 3.70562 3.22969
# Velocity P-wave (km/s) = 4.67964 6.43661 5.62712
#
# Compressibility (1/GPa) = 0.03673778
#
# Stress axis : x y z
#
# Youngs Moduli (GPa) = 109.37174 98.81859 37.04372
#
# Poissons Ratio (x) = 0.47583 0.09621
# Poissons Ratio (y) = 0.52664 -0.09825
# Poissons Ratio (z) = 0.28406 -0.26211
#
# Static dielectric constant tensor:
#      x y z
#    x 1.826350 0.000000 0.000000 
#    y 0.000000 1.800960 0.000000 
#    z 0.000000 0.000000 1.806240 
# 
# From -- ./inp_files/1286.got.cif
#   From: 2010.05.17/outbox.cif.g08.bks.cpg/sg47_1_cif.got.tgz:1286.got - 2010.06.03 20:15:42.
