data_PCOD9385701
_publ_section_title
;
Structure prediction by ZEFSAII (Michael W. Deem and Ramdas Pophale) SiO2 
 PCOD9385701
Probable space group: P M M M
;
_chemical_formula_sum "Si O2"
_cell_formula_units_Z 48
_cell_length_a 30.731756
_cell_length_b 10.045272
_cell_length_c 7.473645
_cell_angle_alpha 90.000000
_cell_angle_beta 90.000000
_cell_angle_gamma 90.000000
_cell_volume 2307.180339
_symmetry_space_group_name_H-M "P M M M"
_symmetry_group_IT_number 47
_symmetry_cell_setting 'orthorhombic'
loop_
_space_group_symop_operation_xyz
x,y,z
-x,-y,z
x,-y,-z
-x,y,-z
-x,-y,-z
x,y,-z
-x,y,z
x,-y,z
loop_
_atom_site_type_symbol
_atom_site_label
_atom_site_fract_x
_atom_site_fract_y
_atom_site_fract_z
Si Si1 0.217792 0.847217 0.786678
Si Si2 0.953287 0.344465 0.284671
Si Si3 0.701128 0.345977 0.715491
Si Si4 0.393511 0.747413 0.718327
Si Si5 0.550679 0.000000 0.281066
Si Si6 0.143182 0.347019 0.210673
Si Si7 0.549038 0.500000 0.718228
O O1 0.260170 0.755367 0.759329
O O2 0.177573 0.758628 0.714211
O O3 0.221234 0.000000 0.717987
O O4 0.211618 0.859159 0.000000
O O5 0.953480 0.341243 0.500000
O O6 0.953317 0.500000 0.229170
O O7 0.906214 0.293874 0.227712
O O8 0.000000 0.286677 0.224028
O O9 0.698932 0.354080 0.500000
O O10 0.707011 0.500000 0.778688
O O11 0.655491 0.282578 0.778841
O O12 0.391618 0.752085 0.500000
O O13 0.420157 0.875735 0.776012
O O14 0.423737 0.626304 0.772994
O O15 0.500000 0.000000 0.222922
O O16 0.548896 0.000000 0.500000
O O17 0.145799 0.500000 0.284032
O O18 0.152397 0.359151 0.000000
O O19 0.500000 0.500000 0.782309
O O20 0.547685 0.500000 0.500000
#
# Coordination Sequence:
#
# PCOD9385701 Si02
#       7
#     8   8   8   8   4   8   4
#     4  10  22  38  54  73  99 132 171 214 258 307
#     4   8  14  25  43  70 103 134 163 199 243 290
#     4  10  20  34  52  75 102 131 165 207 256 307
#     4   9  16  26  39  61  93 126 159 197 241 291
#     4   9  16  24  36  58  91 131 167 195 232 287
#     4   9  17  30  49  72  97 126 162 207 254 295
#     4   9  14  22  38  58  87 127 161 189 232 291
#
# _framework density 20.804615999999999
#
# number of rings (size 3 to 8) (size 9 to 14) (size 15 to 20)
#    0.000    2.833    0.833    1.500    1.167    4.333 
#    0.000    3.333    0.000    0.500    0.000    3.500 
#    0.000    4.000    0.000    0.000    0.000    0.000 
#
# Total GULP energy -267525.933195 kJ/mol
# GULP energy per Si atom -5573.456942 kJ/mol
# Density = 2.075726 g / cm^3
# Si number density = 20.804616 Si / 1000 Ang^3
#
#
#
# Elastic Constant Matrix: (Units=GPa)
#
#
# Indices 1 2 3 4 5 6 
#
# 1 237.4459 123.1077 -1.4338 0.0000 0.0000 0.0000
# 2 123.1077 184.9453 6.3845 0.0000 0.0000 0.0000
# 3 -1.4338 6.3845 58.0029 0.0000 0.0000 0.0000
# 4 0.0000 0.0000 0.0000 6.7272 0.0000 0.0000
# 5 0.0000 0.0000 0.0000 0.0000 22.3570 0.0000
# 6 0.0000 0.0000 0.0000 0.0000 0.0000 24.5091
#
#
#
# Elastic Compliance Matrix: (Units=1/GPa)
#
#
# Indices 1 2 3 4 5 6 
#
# 1 0.006454 -0.004318 0.000635 0.000000 0.000000 0.000000
# 2 -0.004318 0.008317 -0.001022 0.000000 0.000000 0.000000
# 3 0.000635 -0.001022 0.017369 0.000000 0.000000 0.000000
# 4 0.000000 0.000000 0.000000 0.148651 0.000000 0.000000
# 5 0.000000 0.000000 0.000000 0.000000 0.044729 0.000000
# 6 0.000000 0.000000 0.000000 0.000000 0.000000 0.040801
#
#
# Mechanical properties :
#
#
# Convention : Reuss Voigt Hill
#
# Bulk Modulus (GPa) = 43.99735 81.83455 62.91595
# Shear Modulus (GPa) = 17.64871 34.20770 25.92821
#
# Velocity S-wave (km/s) = 2.91573 4.05932 3.53409
# Velocity P-wave (km/s) = 5.70343 7.83524 6.85274
#
# Compressibility (1/GPa) = 0.02272864
#
# Stress axis : x y z
#
# Youngs Moduli (GPa) = 154.94091 120.24196 57.57477
#
# Poissons Ratio (x) = 0.51921 -0.03655
# Poissons Ratio (y) = 0.66904 0.05885
# Poissons Ratio (z) = -0.09836 0.12291
#
# Static dielectric constant tensor:
#      x y z
#    x 1.749240 0.000000 0.000000 
#    y 0.000000 1.833310 0.000000 
#    z 0.000000 0.000000 1.805110 
# 
# From -- ./inp_files/13851.got.cif
#   From: 2010.05.17/outbox.cif.g08.bks.cpg/sg47_7_cif.got.tgz:13851.got - 2010.06.03 20:15:42.
