data_PCOD9385073
_publ_section_title
;
Structure prediction by ZEFSAII (Michael W. Deem and Ramdas Pophale) SiO2 
 PCOD9385073
Probable space group: P M M M
;
_chemical_formula_sum "Si O2"
_cell_formula_units_Z 45
_cell_length_a 14.813230
_cell_length_b 20.707435
_cell_length_c 7.514419
_cell_angle_alpha 90.000000
_cell_angle_beta 90.000000
_cell_angle_gamma 90.000000
_cell_volume 2305.002922
_symmetry_space_group_name_H-M "P M M M"
_symmetry_group_IT_number 47
_symmetry_cell_setting 'orthorhombic'
loop_
_space_group_symop_operation_xyz
x,y,z
-x,-y,z
x,-y,-z
-x,y,-z
-x,-y,-z
x,y,-z
-x,y,z
x,-y,z
loop_
_atom_site_type_symbol
_atom_site_label
_atom_site_fract_x
_atom_site_fract_y
_atom_site_fract_z
Si Si1 0.814092 0.428899 0.500000
Si Si2 0.104752 0.199202 0.782768
Si Si3 0.215938 0.675141 0.797444
Si Si4 0.000000 0.500000 0.500000
Si Si5 0.600261 0.740982 0.715052
Si Si6 0.798788 0.930529 0.791680
Si Si7 0.400425 0.892364 0.714774
O O1 0.768862 0.500000 0.500000
O O2 0.791407 0.386212 0.671212
O O3 0.920026 0.445030 0.500000
O O4 0.155129 0.264888 0.728511
O O5 0.156463 0.134812 0.718204
O O6 0.000000 0.198329 0.731121
O O7 0.108905 0.199184 0.000000
O O8 0.317882 0.701510 0.794236
O O9 0.188670 0.660194 0.000000
O O10 0.606826 0.737727 0.500000
O O11 0.500000 0.718729 0.766309
O O12 0.607299 0.816633 0.763370
O O13 0.690390 0.925398 0.779681
O O14 0.826832 0.000000 0.714326
O O15 0.823259 0.931515 0.000000
O O16 0.399858 0.896809 0.500000
O O17 0.500000 0.915364 0.774207
#
# Coordination Sequence:
#
# PCOD9385073 Si02
#       7
#     4   8   8   1   8   8   8
#     4  10  24  44  63  92 129 159 193 238 280 356
#     4   9  19  34  53  80 108 139 190 246 293 346
#     4  11  21  36  64  94 121 157 200 245 295 346
#     4   8  24  48  66  92 130 166 206 220 294 368
#     4   9  17  32  56  87 121 154 193 245 297 348
#     4  10  20  33  49  71 104 146 188 236 295 350
#     4   9  18  32  51  74 103 144 189 235 290 347
#
# _framework density 19.522753000000002
#
# number of rings (size 3 to 8) (size 9 to 14) (size 15 to 20)
#    0.267    2.133    2.667    1.067    1.244    2.133 
#    0.000    5.778    0.000    1.067    0.000    2.489 
#    0.000    0.000    0.000    0.000    0.000    0.000 
#
# Total GULP energy -250824.026899 kJ/mol
# GULP energy per Si atom -5573.867264 kJ/mol
# Density = 1.947832 g / cm^3
# Si number density = 19.522753 Si / 1000 Ang^3
#
#
#
# Elastic Constant Matrix: (Units=GPa)
#
#
# Indices 1 2 3 4 5 6 
#
# 1 104.6700 57.1420 6.1313 0.0000 0.0000 0.0000
# 2 57.1420 154.2948 41.3539 0.0000 0.0000 0.0000
# 3 6.1313 41.3539 68.3312 0.0000 0.0000 0.0000
# 4 0.0000 0.0000 0.0000 -2.5491 0.0000 0.0000
# 5 0.0000 0.0000 0.0000 0.0000 27.4174 0.0000
# 6 0.0000 0.0000 0.0000 0.0000 0.0000 -223.9328
#
#
#
# Elastic Compliance Matrix: (Units=1/GPa)
#
#
# Indices 1 2 3 4 5 6 
#
# 1 0.012190 -0.005039 0.001956 0.000000 0.000000 0.000000
# 2 -0.005039 0.009819 -0.005490 0.000000 0.000000 0.000000
# 3 0.001956 -0.005490 0.017782 0.000000 0.000000 0.000000
# 4 0.000000 0.000000 0.000000 -0.392296 0.000000 0.000000
# 5 0.000000 0.000000 0.000000 0.000000 0.036473 0.000000
# 6 0.000000 0.000000 0.000000 0.000000 0.000000 -0.004466
#
#
# Mechanical properties :
#
#
# Convention : Reuss Voigt Hill
#
# Bulk Modulus (GPa) = 44.16174 59.61672 51.88923
# Shear Modulus (GPa) = -16.90310 -24.96832 -20.93571
#
# Velocity S-wave (km/s) = -2.94567 -3.58010 -3.27827
# Velocity P-wave (km/s) = 3.33174 3.67612 3.50816
#
# Compressibility (1/GPa) = 0.02264404
#
# Stress axis : x y z
#
# Youngs Moduli (GPa) = 82.03453 101.84797 56.23753
#
# Poissons Ratio (x) = 0.51317 -0.10998
# Poissons Ratio (y) = 0.41334 0.30875
# Poissons Ratio (z) = -0.16042 0.55915
#
# Static dielectric constant tensor:
#      x y z
#    x 1.670940 0.000000 0.000000 
#    y 0.000000 1.676540 0.000000 
#    z 0.000000 0.000000 1.725890 
# 
# From -- ./inp_files/6853.got.cif
#   From: 2010.05.17/outbox.cif.g08.bks.cpg/sg47_4_cif.got.tgz:6853.got - 2010.06.03 20:15:42.
