data_PCOD9385815
_publ_section_title
;
Structure prediction by ZEFSAII (Michael W. Deem and Ramdas Pophale) SiO2 
 PCOD9385815
Probable space group: P M M M
;
_chemical_formula_sum "Si O2"
_cell_formula_units_Z 40
_cell_length_a 9.276706
_cell_length_b 26.539072
_cell_length_c 7.596516
_cell_angle_alpha 90.000000
_cell_angle_beta 90.000000
_cell_angle_gamma 90.000000
_cell_volume 1870.225536
_symmetry_space_group_name_H-M "P M M M"
_symmetry_group_IT_number 47
_symmetry_cell_setting 'orthorhombic'
loop_
_space_group_symop_operation_xyz
x,y,z
-x,-y,z
x,-y,-z
-x,y,-z
-x,-y,-z
x,y,-z
-x,y,z
x,-y,z
loop_
_atom_site_type_symbol
_atom_site_label
_atom_site_fract_x
_atom_site_fract_y
_atom_site_fract_z
Si Si1 0.663287 0.398718 0.789893
Si Si2 0.163947 0.900844 0.288692
Si Si3 0.163343 0.500000 0.290430
Si Si4 0.336071 0.799045 0.211313
Si Si5 0.333648 0.000000 0.715658
Si Si6 0.833692 0.699857 0.784225
O O1 0.500000 0.401471 0.719862
O O2 0.749948 0.450050 0.760664
O O3 0.751139 0.350313 0.723741
O O4 0.652511 0.392139 0.000000
O O5 0.155998 0.905445 0.500000
O O6 0.249828 0.849899 0.250128
O O7 0.000000 0.898919 0.221111
O O8 0.250454 0.949870 0.225199
O O9 0.153728 0.500000 0.500000
O O10 0.000000 0.500000 0.218208
O O11 0.500000 0.801079 0.278901
O O12 0.249999 0.749909 0.274578
O O13 0.343998 0.794525 0.000000
O O14 0.500000 0.000000 0.771398
O O15 0.333690 0.000000 0.500000
O O16 0.000000 0.700089 0.728530
O O17 0.833925 0.699774 0.000000
#
# Coordination Sequence:
#
# PCOD9385815 Si02
#       6
#     8   8   4   8   4   8
#     4  10  20  35  57  83 107 134 173 217 257 303
#     4  10  20  34  53  77 104 135 173 216 260 308
#     4  11  24  39  54  76 108 143 176 213 260 310
#     4  10  20  34  53  78 108 140 173 212 259 309
#     4   9  17  31  52  75 100 133 172 214 260 309
#     4   9  17  31  53  79 106 137 172 211 256 305
#
# _framework density 21.387792999999999
#
# number of rings (size 3 to 8) (size 9 to 14) (size 15 to 20)
#    0.000    2.200    0.000    3.300    0.000    9.200 
#    0.000    1.500    0.000    9.000    0.000    0.000 
#    0.000    0.000    0.000    0.000    0.000    0.000 
#
# Total GULP energy -223590.480897 kJ/mol
# GULP energy per Si atom -5589.762022 kJ/mol
# Density = 2.133911 g / cm^3
# Si number density = 21.387793 Si / 1000 Ang^3
#
#
#
# Elastic Constant Matrix: (Units=GPa)
#
#
# Indices 1 2 3 4 5 6 
#
# 1 279.5299 167.3282 8.1616 0.0000 0.0000 0.0000
# 2 167.3282 258.2689 -2.1661 0.0000 0.0000 0.0000
# 3 8.1616 -2.1661 45.7679 0.0000 0.0000 0.0000
# 4 0.0000 0.0000 0.0000 28.2964 0.0000 0.0000
# 5 0.0000 0.0000 0.0000 0.0000 10.6442 0.0000
# 6 0.0000 0.0000 0.0000 0.0000 0.0000 48.3459
#
#
#
# Elastic Compliance Matrix: (Units=1/GPa)
#
#
# Indices 1 2 3 4 5 6 
#
# 1 0.005913 -0.003841 -0.001236 0.000000 0.000000 0.000000
# 2 -0.003841 0.006369 0.000986 0.000000 0.000000 0.000000
# 3 -0.001236 0.000986 0.022117 0.000000 0.000000 0.000000
# 4 0.000000 0.000000 0.000000 0.035340 0.000000 0.000000
# 5 0.000000 0.000000 0.000000 0.000000 0.093948 0.000000
# 6 0.000000 0.000000 0.000000 0.000000 0.000000 0.020684
#
#
# Mechanical properties :
#
#
# Convention : Reuss Voigt Hill
#
# Bulk Modulus (GPa) = 38.14433 103.35710 70.75071
# Shear Modulus (GPa) = 24.83958 44.80684 34.82321
#
# Velocity S-wave (km/s) = 3.41162 4.58205 4.03945
# Velocity P-wave (km/s) = 5.77860 8.74207 7.40999
#
# Compressibility (1/GPa) = 0.02621622
#
# Stress axis : x y z
#
# Youngs Moduli (GPa) = 169.12090 157.01309 45.21509
#
# Poissons Ratio (x) = 0.60313 0.05590
# Poissons Ratio (y) = 0.64964 -0.04460
# Poissons Ratio (z) = 0.20907 -0.15488
#
# Static dielectric constant tensor:
#      x y z
#    x 1.753420 0.000000 0.000000 
#    y 0.000000 1.717760 0.000000 
#    z 0.000000 0.000000 1.824920 
# 
# From -- ./inp_files/1733.got.cif
#   From: 2010.05.17/outbox.cif.g08.bks.cpg/sg47_1_cif.got.tgz:1733.got - 2010.06.03 20:15:42.
