data_PCOD9385004
_publ_section_title
;
Structure prediction by ZEFSAII (Michael W. Deem and Ramdas Pophale) SiO2 
 PCOD9385004
Probable space group: P M M M
;
_chemical_formula_sum "Si O2"
_cell_formula_units_Z 36
_cell_length_a 9.344607
_cell_length_b 24.929349
_cell_length_c 7.417109
_cell_angle_alpha 90.000000
_cell_angle_beta 90.000000
_cell_angle_gamma 90.000000
_cell_volume 1727.852398
_symmetry_space_group_name_H-M "P M M M"
_symmetry_group_IT_number 47
_symmetry_cell_setting 'orthorhombic'
loop_
_space_group_symop_operation_xyz
x,y,z
-x,-y,z
x,-y,-z
-x,y,-z
-x,-y,-z
x,y,-z
-x,y,z
x,-y,z
loop_
_atom_site_type_symbol
_atom_site_label
_atom_site_fract_x
_atom_site_fract_y
_atom_site_fract_z
Si Si1 0.335783 0.500000 0.220889
Si Si2 0.839005 0.396684 0.214413
Si Si3 0.326474 0.173226 0.285924
Si Si4 0.663749 0.289624 0.283093
Si Si5 0.670173 0.057779 0.280899
O O1 0.500000 0.500000 0.278584
O O2 0.254252 0.553460 0.282469
O O3 0.336557 0.500000 0.000000
O O4 0.760881 0.340208 0.241173
O O5 0.000000 0.396338 0.287503
O O6 0.849105 0.404711 0.000000
O O7 0.295654 0.172615 0.500000
O O8 0.500000 0.173379 0.267544
O O9 0.280752 0.231540 0.215709
O O10 0.273772 0.115534 0.214931
O O11 0.656911 0.285478 0.500000
O O12 0.500000 0.298024 0.219286
O O13 0.680606 0.058268 0.500000
O O14 0.500000 0.057304 0.239896
O O15 0.729429 0.000000 0.219599
#
# Coordination Sequence:
#
# PCOD9385004 Si02
#       5
#     4   8   8   8   8
#     4   9  17  31  52  73  90 111 140 174 214 259
#     4  10  20  33  49  69  92 116 143 177 216 256
#     4   7  10  17  29  47  74 107 139 170 206 249
#     4   9  17  29  45  65  90 120 151 181 215 257
#     4   7   8  10  19  38  66 100 134 165 200 245
#
# _framework density 20.835114999999998
#
# number of rings (size 3 to 8) (size 9 to 14) (size 15 to 20)
#    0.000    3.667    0.000    4.333    0.000    3.111 
#    0.000    0.556    0.000    3.333    0.000    0.000 
#    0.000    1.778    0.000   19.778    0.000   17.778 
#
# Total GULP energy -200427.671333 kJ/mol
# GULP energy per Si atom -5567.435315 kJ/mol
# Density = 2.078769 g / cm^3
# Si number density = 20.835115 Si / 1000 Ang^3
#
#
#
# Elastic Constant Matrix: (Units=GPa)
#
#
# Indices 1 2 3 4 5 6 
#
# 1 86.5958 97.3159 5.0396 0.0000 0.0000 0.0000
# 2 97.3159 283.2778 5.5266 0.0000 0.0000 0.0000
# 3 5.0396 5.5266 64.8394 0.0000 0.0000 0.0000
# 4 0.0000 0.0000 0.0000 21.1479 0.0000 0.0000
# 5 0.0000 0.0000 0.0000 0.0000 5.0487 0.0000
# 6 0.0000 0.0000 0.0000 0.0000 0.0000 -8.6549
#
#
#
# Elastic Compliance Matrix: (Units=1/GPa)
#
#
# Indices 1 2 3 4 5 6 
#
# 1 0.018864 -0.006462 -0.000915 0.000000 0.000000 0.000000
# 2 -0.006462 0.005750 0.000012 0.000000 0.000000 0.000000
# 3 -0.000915 0.000012 0.015493 0.000000 0.000000 0.000000
# 4 0.000000 0.000000 0.000000 0.047286 0.000000 0.000000
# 5 0.000000 0.000000 0.000000 0.000000 0.198070 0.000000
# 6 0.000000 0.000000 0.000000 0.000000 0.000000 -0.115541
#
#
# Mechanical properties :
#
#
# Convention : Reuss Voigt Hill
#
# Bulk Modulus (GPa) = 39.40851 72.27523 55.84187
# Shear Modulus (GPa) = 25.89181 25.29705 25.59443
#
# Velocity S-wave (km/s) = 3.52902 3.48825 3.50870
# Velocity P-wave (km/s) = 5.96329 7.14061 6.57834
#
# Compressibility (1/GPa) = 0.02537523
#
# Stress axis : x y z
#
# Youngs Moduli (GPa) = 53.01189 173.91424 64.54600
#
# Poissons Ratio (x) = 1.12392 0.05908
# Poissons Ratio (y) = 0.34259 -0.00079
# Poissons Ratio (z) = 0.04852 -0.00212
#
# Static dielectric constant tensor:
#      x y z
#    x 1.687110 0.000000 0.000000 
#    y 0.000000 1.811000 0.000000 
#    z 0.000000 0.000000 1.836530 
# 
# From -- ./inp_files/12076.got.cif
#   From: 2010.05.17/outbox.cif.g08.bks.cpg/sg47_7_cif.got.tgz:12076.got - 2010.06.03 20:15:42.
