data_PCOD9385402
_publ_section_title
;
Structure prediction by ZEFSAII (Michael W. Deem and Ramdas Pophale) SiO2 
 PCOD9385402
Probable space group: P M M M
;
_chemical_formula_sum "Si O2"
_cell_formula_units_Z 52
_cell_length_a 7.539767
_cell_length_b 15.733909
_cell_length_c 24.732259
_cell_angle_alpha 90.000000
_cell_angle_beta 90.000000
_cell_angle_gamma 90.000000
_cell_volume 2933.988080
_symmetry_space_group_name_H-M "P M M M"
_symmetry_group_IT_number 47
_symmetry_cell_setting 'orthorhombic'
loop_
_space_group_symop_operation_xyz
x,y,z
-x,-y,z
x,-y,-z
-x,y,-z
-x,-y,-z
x,y,-z
-x,y,z
x,-y,z
loop_
_atom_site_type_symbol
_atom_site_label
_atom_site_fract_x
_atom_site_fract_y
_atom_site_fract_z
Si Si1 0.295819 0.764954 0.563689
Si Si2 0.710931 0.000000 0.938385
Si Si3 0.784588 0.597910 0.245152
Si Si4 0.217488 0.337023 0.867426
Si Si5 0.000000 0.099206 0.434267
Si Si6 0.216166 0.500000 0.062322
Si Si7 0.790695 0.183493 0.061545
Si Si8 0.214583 0.597479 0.367818
O O1 0.258605 0.750445 0.500000
O O2 0.500000 0.790827 0.569480
O O3 0.269396 0.675293 0.594175
O O4 0.167765 0.841838 0.581970
O O5 0.768499 0.089356 0.914846
O O6 0.500000 0.000000 0.940764
O O7 0.783708 0.000000 0.000000
O O8 0.738391 0.500000 0.233252
O O9 0.723154 0.652990 0.194438
O O10 0.725472 0.616417 0.306168
O O11 0.000000 0.602103 0.246332
O O12 0.269746 0.417417 0.903922
O O13 0.281576 0.253950 0.898471
O O14 0.000000 0.336650 0.866021
O O15 0.000000 0.095087 0.500000
O O16 0.000000 0.000000 0.415784
O O17 0.000000 0.500000 0.060843
O O18 0.276053 0.500000 0.000000
O O19 0.000000 0.199864 0.056529
O O20 0.716768 0.186382 0.000000
O O21 0.271776 0.500000 0.381684
O O22 0.000000 0.595714 0.368131
#
# Coordination Sequence:
#
# PCOD9385402 Si02
#       8
#     8   4   8   8   4   4   8   8
#     4  10  20  33  51  78 110 141 174 212 259 313
#     4   9  17  29  43  57  75 103 139 179 224 277
#     4   8  13  23  39  61  88 122 164 202 232 268
#     4   9  14  21  35  58  89 120 150 184 223 274
#     4   9  18  34  55  79 109 141 174 214 257 304
#     4   9  14  18  28  52  91 129 148 173 226 282
#     4   9  16  25  39  62  88 110 136 176 227 277
#     4   9  17  29  47  70  98 134 175 215 255 301
#
# _framework density 17.723317000000002
#
# number of rings (size 3 to 8) (size 9 to 14) (size 15 to 20)
#    0.000    3.000    1.538    1.615    0.000    3.692 
#    0.000    3.077    0.000    0.923    2.000    0.538 
#    0.000    3.077    0.000    0.000    0.000    0.000 
#
# Total GULP energy -289637.788773 kJ/mol
# GULP energy per Si atom -5569.957476 kJ/mol
# Density = 1.768298 g / cm^3
# Si number density = 17.723317 Si / 1000 Ang^3
#
#
#
# Elastic Constant Matrix: (Units=GPa)
#
#
# Indices 1 2 3 4 5 6 
#
# 1 58.3378 28.9306 23.8862 0.0000 0.0000 0.0000
# 2 28.9306 167.2336 72.3091 0.0000 0.0000 0.0000
# 3 23.8862 72.3091 79.8320 0.0000 0.0000 0.0000
# 4 0.0000 0.0000 0.0000 3.0233 0.0000 0.0000
# 5 0.0000 0.0000 0.0000 0.0000 -4.6099 0.0000
# 6 0.0000 0.0000 0.0000 0.0000 0.0000 -43.6890
#
#
#
# Elastic Compliance Matrix: (Units=1/GPa)
#
#
# Indices 1 2 3 4 5 6 
#
# 1 0.019736 -0.001415 -0.004623 0.000000 0.000000 0.000000
# 2 -0.001415 0.009931 -0.008571 0.000000 0.000000 0.000000
# 3 -0.004623 -0.008571 0.021673 0.000000 0.000000 0.000000
# 4 0.000000 0.000000 0.000000 0.330761 0.000000 0.000000
# 5 0.000000 0.000000 0.000000 0.000000 -0.216923 0.000000
# 6 0.000000 0.000000 0.000000 0.000000 0.000000 -0.022889
#
#
# Mechanical properties :
#
#
# Convention : Reuss Voigt Hill
#
# Bulk Modulus (GPa) = 45.20724 61.73949 53.47336
# Shear Modulus (GPa) = 27.95133 2.96338 15.45735
#
# Velocity S-wave (km/s) = 3.97557 1.29447 2.95642
# Velocity P-wave (km/s) = 6.82907 6.09467 6.47229
#
# Compressibility (1/GPa) = 0.02212035
#
# Stress axis : x y z
#
# Youngs Moduli (GPa) = 50.66777 100.69877 46.13973
#
# Poissons Ratio (x) = 0.14251 0.21332
# Poissons Ratio (y) = 0.07171 0.39548
# Poissons Ratio (z) = 0.23426 0.86313
#
# Static dielectric constant tensor:
#      x y z
#    x 1.671620 0.000000 0.000000 
#    y 0.000000 1.597340 0.000000 
#    z 0.000000 0.000000 1.601000 
# 
# From -- ./inp_files/32045.got.cif
#   From: 2010.05.17/outbox.cif.g08.bks.cpg/sg47_17_cif.got.tgz:32045.got - 2010.06.03 20:15:42.
