data_PCOD9385437
_publ_section_title
;
Structure prediction by ZEFSAII (Michael W. Deem and Ramdas Pophale) SiO2 
 PCOD9385437
Probable space group: P M M M
;
_chemical_formula_sum "Si O2"
_cell_formula_units_Z 44
_cell_length_a 7.648614
_cell_length_b 9.483547
_cell_length_c 29.954385
_cell_angle_alpha 90.000000
_cell_angle_beta 90.000000
_cell_angle_gamma 90.000000
_cell_volume 2172.770981
_symmetry_space_group_name_H-M "P M M M"
_symmetry_group_IT_number 47
_symmetry_cell_setting 'orthorhombic'
loop_
_space_group_symop_operation_xyz
x,y,z
-x,-y,z
x,-y,-z
-x,y,-z
-x,-y,-z
x,y,-z
-x,y,z
x,-y,z
loop_
_atom_site_type_symbol
_atom_site_label
_atom_site_fract_x
_atom_site_fract_y
_atom_site_fract_z
Si Si1 0.786426 0.837278 0.949893
Si Si2 0.292594 0.841077 0.219797
Si Si3 0.789097 0.661715 0.306930
Si Si4 0.786600 0.332647 0.500000
Si Si5 0.206784 0.328661 0.596008
Si Si6 0.791952 0.341821 0.133491
O O1 0.722052 0.739088 0.910021
O O2 0.000000 0.835894 0.949392
O O3 0.734203 0.000000 0.942649
O O4 0.732983 0.794628 0.000000
O O5 0.500000 0.850667 0.215828
O O6 0.253717 0.761424 0.265889
O O7 0.231583 0.749343 0.177915
O O8 0.219324 0.000000 0.219161
O O9 0.728356 0.500000 0.299277
O O10 0.722535 0.713914 0.355482
O O11 0.000000 0.655213 0.310150
O O12 0.747302 0.500000 0.500000
O O13 0.722683 0.277110 0.451926
O O14 0.000000 0.321978 0.500000
O O15 0.219464 0.500000 0.595915
O O16 0.000000 0.294414 0.595674
O O17 0.721022 0.500000 0.138600
O O18 0.000000 0.353396 0.126742
#
# Coordination Sequence:
#
# PCOD9385437 Si02
#       6
#     8   8   8   4   8   8
#     4   8  14  26  46  73 104 135 163 190 223 266
#     4  11  24  38  50  66  90 123 163 203 242 285
#     4   9  17  30  49  73  98 122 152 192 237 284
#     4   7   8  12  26  52  88 123 146 168 210 267
#     4   7  10  17  32  58  91 121 146 176 218 270
#     4  10  20  33  52  78 103 127 157 194 237 283
#
# _framework density 20.250639
#
# number of rings (size 3 to 8) (size 9 to 14) (size 15 to 20)
#    0.000    3.182    0.000    4.364    0.000    5.455 
#    0.000    1.818    0.000    0.545    0.000    5.091 
#    0.000    8.727    0.000    0.000    0.000    0.000 
#
# Total GULP energy -245140.409468 kJ/mol
# GULP energy per Si atom -5571.372942 kJ/mol
# Density = 2.020455 g / cm^3
# Si number density = 20.250639 Si / 1000 Ang^3
#
#
#
# Elastic Constant Matrix: (Units=GPa)
#
#
# Indices 1 2 3 4 5 6 
#
# 1 37.6397 4.4151 0.7487 0.0000 0.0000 0.0000
# 2 4.4151 110.9537 111.3058 0.0000 0.0000 0.0000
# 3 0.7487 111.3058 234.8192 0.0000 0.0000 0.0000
# 4 0.0000 0.0000 0.0000 -29.2251 0.0000 0.0000
# 5 0.0000 0.0000 0.0000 0.0000 -54.2180 0.0000
# 6 0.0000 0.0000 0.0000 0.0000 0.0000 15.1931
#
#
#
# Elastic Compliance Matrix: (Units=1/GPa)
#
#
# Indices 1 2 3 4 5 6 
#
# 1 0.026771 -0.001868 0.000800 0.000000 0.000000 0.000000
# 2 -0.001868 0.017314 -0.008201 0.000000 0.000000 0.000000
# 3 0.000800 -0.008201 0.008143 0.000000 0.000000 0.000000
# 4 0.000000 0.000000 0.000000 -0.034217 0.000000 0.000000
# 5 0.000000 0.000000 0.000000 0.000000 -0.018444 0.000000
# 6 0.000000 0.000000 0.000000 0.000000 0.000000 0.065819
#
#
# Mechanical properties :
#
#
# Convention : Reuss Voigt Hill
#
# Bulk Modulus (GPa) = 29.68179 68.48353 49.08266
# Shear Modulus (GPa) = 52.54618 4.14622 28.34620
#
# Velocity S-wave (km/s) = 5.09944 1.43244 3.74541
# Velocity P-wave (km/s) = 7.02576 6.05204 6.55700
#
# Compressibility (1/GPa) = 0.03369069
#
# Stress axis : x y z
#
# Youngs Moduli (GPa) = 37.35403 57.75609 122.79870
#
# Poissons Ratio (x) = 0.10788 -0.09824
# Poissons Ratio (y) = 0.06977 1.00708
# Poissons Ratio (z) = -0.02988 0.47366
#
# Static dielectric constant tensor:
#      x y z
#    x 1.753440 0.000000 0.000000 
#    y 0.000000 1.697580 0.000000 
#    z 0.000000 0.000000 1.757220 
# 
# From -- ./inp_files/33938.got.cif
#   From: 2010.05.17/outbox.cif.g08.bks.cpg/sg47_17_cif.got.tgz:33938.got - 2010.06.03 20:15:42.
