data_PCOD9385742
_publ_section_title
;
Structure prediction by ZEFSAII (Michael W. Deem and Ramdas Pophale) SiO2 
 PCOD9385742
Probable space group: P M M M
;
_chemical_formula_sum "Si O2"
_cell_formula_units_Z 64
_cell_length_a 9.644231
_cell_length_b 19.889646
_cell_length_c 17.929622
_cell_angle_alpha 90.000000
_cell_angle_beta 90.000000
_cell_angle_gamma 90.000000
_cell_volume 3439.266198
_symmetry_space_group_name_H-M "P M M M"
_symmetry_group_IT_number 47
_symmetry_cell_setting 'orthorhombic'
loop_
_space_group_symop_operation_xyz
x,y,z
-x,-y,z
x,-y,-z
-x,y,-z
-x,-y,-z
x,y,-z
-x,y,z
x,-y,z
loop_
_atom_site_type_symbol
_atom_site_label
_atom_site_fract_x
_atom_site_fract_y
_atom_site_fract_z
Si Si1 0.658029 0.074582 0.750517
Si Si2 0.340098 0.662168 0.915270
Si Si3 0.839117 0.579570 0.798543
Si Si4 0.163257 0.694251 0.416251
Si Si5 0.750867 0.075619 0.916750
Si Si6 0.849192 0.220584 0.116468
Si Si7 0.159374 0.198373 0.709186
Si Si8 0.664290 0.421549 0.646715
O O1 0.500000 0.080201 0.726282
O O2 0.661146 0.079963 0.841197
O O3 0.747909 0.132366 0.713776
O O4 0.711563 0.000000 0.732911
O O5 0.500000 0.660934 0.889499
O O6 0.238871 0.619831 0.862928
O O7 0.278141 0.737395 0.914965
O O8 0.336269 0.636694 0.000000
O O9 0.839509 0.500000 0.815640
O O10 0.748663 0.588164 0.723822
O O11 0.000000 0.600848 0.788401
O O12 0.175237 0.722370 0.500000
O O13 0.203194 0.747246 0.352032
O O14 0.260467 0.629468 0.408621
O O15 0.000000 0.676634 0.404544
O O16 0.842697 0.142460 0.907324
O O17 0.815718 0.000000 0.913562
O O18 0.686302 0.079556 0.000000
O O19 0.838059 0.226249 0.206189
O O20 0.000000 0.247790 0.093554
O O21 0.000000 0.180536 0.692831
O O22 0.500000 0.407784 0.655332
O O23 0.678665 0.500000 0.625161
#
# Coordination Sequence:
#
# PCOD9385742 Si02
#       8
#     8   8   8   8   8   8   8   8
#     4   9  18  32  51  76 103 134 176 221 264 315
#     4  11  24  38  52  74 106 143 182 227 278 328
#     4  10  21  38  61  85 107 136 178 225 270 319
#     4  10  21  37  58  84 113 144 179 220 264 312
#     4   9  18  31  47  71 104 139 175 220 274 324
#     4  10  20  34  53  75 101 137 181 226 269 318
#     4   9  19  35  54  77 104 135 173 217 265 317
#     4  10  21  37  58  84 114 147 180 214 256 312
#
# _framework density 18.608622
#
# number of rings (size 3 to 8) (size 9 to 14) (size 15 to 20)
#    0.000    2.250    0.000    2.250    0.000    8.250 
#    0.000    6.875    0.000    0.375    0.000    2.625 
#    0.000    0.000    0.000    0.000    0.000    0.000 
#
# Total GULP energy -356775.592159 kJ/mol
# GULP energy per Si atom -5574.618627 kJ/mol
# Density = 1.856627 g / cm^3
# Si number density = 18.608622 Si / 1000 Ang^3
#
#
#
# Elastic Constant Matrix: (Units=GPa)
#
#
# Indices 1 2 3 4 5 6 
#
# 1 98.6677 51.1798 33.1254 0.0000 0.0000 0.0000
# 2 51.1798 79.6482 53.9709 0.0000 0.0000 0.0000
# 3 33.1254 53.9709 84.0786 0.0000 0.0000 0.0000
# 4 0.0000 0.0000 0.0000 12.4422 0.0000 0.0000
# 5 0.0000 0.0000 0.0000 0.0000 4.8630 0.0000
# 6 0.0000 0.0000 0.0000 0.0000 0.0000 25.6388
#
#
#
# Elastic Compliance Matrix: (Units=1/GPa)
#
#
# Indices 1 2 3 4 5 6 
#
# 1 0.015214 -0.010113 0.000498 0.000000 0.000000 0.000000
# 2 -0.010113 0.028943 -0.014594 0.000000 0.000000 0.000000
# 3 0.000498 -0.014594 0.021066 0.000000 0.000000 0.000000
# 4 0.000000 0.000000 0.000000 0.080372 0.000000 0.000000
# 5 0.000000 0.000000 0.000000 0.000000 0.205636 0.000000
# 6 0.000000 0.000000 0.000000 0.000000 0.000000 0.039003
#
#
# Mechanical properties :
#
#
# Convention : Reuss Voigt Hill
#
# Bulk Modulus (GPa) = 59.51326 59.88297 59.69811
# Shear Modulus (GPa) = 11.25481 16.86336 14.05908
#
# Velocity S-wave (km/s) = 2.46197 3.01360 2.75164
# Velocity P-wave (km/s) = 6.33504 6.66027 6.49969
#
# Compressibility (1/GPa) = 0.01680298
#
# Stress axis : x y z
#
# Youngs Moduli (GPa) = 65.73003 34.55040 47.47034
#
# Poissons Ratio (x) = 0.34942 -0.02364
# Poissons Ratio (y) = 0.66475 0.69280
# Poissons Ratio (z) = -0.03273 0.50424
#
# Static dielectric constant tensor:
#      x y z
#    x 1.631340 0.000000 0.000000 
#    y 0.000000 1.658530 0.000000 
#    z 0.000000 0.000000 1.642230 
# 
# From -- ./inp_files/26997.got.cif
#   From: 2010.05.17/outbox.cif.g08.bks.cpg/sg47_14_cif.got.tgz:26997.got - 2010.06.03 20:15:42.
