data_PCOD9385718
_publ_section_title
;
Structure prediction by ZEFSAII (Michael W. Deem and Ramdas Pophale) SiO2 
 PCOD9385718
Probable space group: P M M M
;
_chemical_formula_sum "Si O2"
_cell_formula_units_Z 40
_cell_length_a 28.649980
_cell_length_b 9.312327
_cell_length_c 7.830174
_cell_angle_alpha 90.000000
_cell_angle_beta 90.000000
_cell_angle_gamma 90.000000
_cell_volume 2089.074624
_symmetry_space_group_name_H-M "P M M M"
_symmetry_group_IT_number 47
_symmetry_cell_setting 'orthorhombic'
loop_
_space_group_symop_operation_xyz
x,y,z
-x,-y,z
x,-y,-z
-x,y,-z
-x,-y,-z
x,y,-z
-x,y,z
x,-y,z
loop_
_atom_site_type_symbol
_atom_site_label
_atom_site_fract_x
_atom_site_fract_y
_atom_site_fract_z
Si Si1 0.782114 0.664361 0.208312
Si Si2 0.692257 0.161837 0.203776
Si Si3 0.500000 0.664149 0.203287
Si Si4 0.122838 0.172515 0.800074
Si Si5 0.399057 0.335821 0.297531
Si Si6 0.946796 0.825488 0.500000
O O1 0.783182 0.500000 0.267326
O O2 0.735945 0.746301 0.270739
O O3 0.829221 0.749433 0.250899
O O4 0.780253 0.661572 0.000000
O O5 0.643608 0.242266 0.232021
O O6 0.691504 0.000000 0.273340
O O7 0.698948 0.151858 0.000000
O O8 0.500000 0.500000 0.274016
O O9 0.549641 0.727040 0.257917
O O10 0.500000 0.658197 0.000000
O O11 0.082047 0.215425 0.669515
O O12 0.129300 0.000000 0.788124
O O13 0.112692 0.205247 0.000000
O O14 0.394597 0.344356 0.500000
O O15 0.396970 0.500000 0.227213
O O16 0.000000 0.773068 0.500000
O O17 0.948400 0.000000 0.500000
#
# Coordination Sequence:
#
# PCOD9385718 Si02
#       6
#     8   8   4   8   8   4
#     4   9  17  31  53  78 103 134 173 216 262 313
#     4  10  20  34  53  77 105 137 174 216 262 315
#     4   9  17  31  54  79 100 129 170 214 260 309
#     4   9  17  31  52  77 106 141 180 222 269 319
#     4  10  20  34  52  76 106 137 171 212 259 312
#     4   9  18  32  51  79 111 141 179 224 267 314
#
# _framework density 19.147233
#
# number of rings (size 3 to 8) (size 9 to 14) (size 15 to 20)
#    0.000    2.600    0.000    2.100    0.000    6.400 
#    1.800    3.000    0.000    4.200    0.000    2.800 
#    0.000    0.000    0.000    0.000    0.000    0.000 
#
# Total GULP energy -223104.398245 kJ/mol
# GULP energy per Si atom -5577.609956 kJ/mol
# Density = 1.910365 g / cm^3
# Si number density = 19.147233 Si / 1000 Ang^3
#
#
#
# Elastic Constant Matrix: (Units=GPa)
#
#
# Indices 1 2 3 4 5 6 
#
# 1 206.1039 78.8928 44.2005 0.0000 0.0000 0.0000
# 2 78.8928 81.2287 27.2388 0.0000 0.0000 0.0000
# 3 44.2005 27.2388 52.0770 0.0000 0.0000 0.0000
# 4 0.0000 0.0000 0.0000 9.4946 0.0000 0.0000
# 5 0.0000 0.0000 0.0000 0.0000 62.3939 0.0000
# 6 0.0000 0.0000 0.0000 0.0000 0.0000 29.6814
#
#
#
# Elastic Compliance Matrix: (Units=1/GPa)
#
#
# Indices 1 2 3 4 5 6 
#
# 1 0.008187 -0.006817 -0.003383 0.000000 0.000000 0.000000
# 2 -0.006817 0.020606 -0.004992 0.000000 0.000000 0.000000
# 3 -0.003383 -0.004992 0.024685 0.000000 0.000000 0.000000
# 4 0.000000 0.000000 0.000000 0.105323 0.000000 0.000000
# 5 0.000000 0.000000 0.000000 0.000000 0.016027 0.000000
# 6 0.000000 0.000000 0.000000 0.000000 0.000000 0.033691
#
#
# Mechanical properties :
#
#
# Convention : Reuss Voigt Hill
#
# Bulk Modulus (GPa) = 43.30214 71.11929 57.21071
# Shear Modulus (GPa) = 20.27571 32.91915 26.59743
#
# Velocity S-wave (km/s) = 3.25766 4.15090 3.73111
# Velocity P-wave (km/s) = 6.06747 7.75869 6.96461
#
# Compressibility (1/GPa) = 0.02309355
#
# Stress axis : x y z
#
# Youngs Moduli (GPa) = 122.14726 48.52994 40.51102
#
# Poissons Ratio (x) = 0.33083 0.13705
# Poissons Ratio (y) = 0.83268 0.20223
# Poissons Ratio (z) = 0.41322 0.24226
#
# Static dielectric constant tensor:
#      x y z
#    x 1.649240 0.000000 0.000000 
#    y 0.000000 1.671100 0.000000 
#    z 0.000000 0.000000 1.683630 
# 
# From -- ./inp_files/13057.got.cif
#   From: 2010.05.17/outbox.cif.g08.bks.cpg/sg47_7_cif.got.tgz:13057.got - 2010.06.03 20:15:42.
