data_PCOD9385005
_publ_section_title
;
Structure prediction by ZEFSAII (Michael W. Deem and Ramdas Pophale) SiO2 
 PCOD9385005
Probable space group: P M M M
;
_chemical_formula_sum "Si O2"
_cell_formula_units_Z 32
_cell_length_a 22.021043
_cell_length_b 7.446362
_cell_length_c 9.374104
_cell_angle_alpha 90.000000
_cell_angle_beta 90.000000
_cell_angle_gamma 90.000000
_cell_volume 1537.134244
_symmetry_space_group_name_H-M "P M M M"
_symmetry_group_IT_number 47
_symmetry_cell_setting 'orthorhombic'
loop_
_space_group_symop_operation_xyz
x,y,z
-x,-y,z
x,-y,-z
-x,y,-z
-x,-y,-z
x,y,-z
-x,y,z
x,-y,z
loop_
_atom_site_type_symbol
_atom_site_label
_atom_site_fract_x
_atom_site_fract_y
_atom_site_fract_z
Si Si1 0.130678 0.713367 0.327088
Si Si2 0.262531 0.716181 0.336635
Si Si3 0.616708 0.786286 0.839311
Si Si4 0.000000 0.718821 0.330630
Si Si5 0.500000 0.779930 0.663833
O O1 0.130831 0.732088 0.500000
O O2 0.129984 0.500000 0.296827
O O3 0.196707 0.783281 0.281641
O O4 0.065380 0.783594 0.273980
O O5 0.272163 0.779485 0.500000
O O6 0.258003 0.500000 0.343299
O O7 0.319467 0.758822 0.238946
O O8 0.560399 0.718629 0.745718
O O9 0.607769 0.000000 0.849326
O O10 0.616954 0.713673 0.000000
O O11 0.000000 0.500000 0.320322
O O12 0.000000 0.759759 0.500000
O O13 0.500000 0.722372 0.500000
O O14 0.500000 0.000000 0.662908
#
# Coordination Sequence:
#
# PCOD9385005 Si02
#       5
#     8   8   8   4   4
#     4   7  10  17  31  54  84 114 142 175 217 262
#     4   9  17  29  45  67  95 123 150 183 224 268
#     4  10  20  33  49  69  92 118 149 184 220 261
#     4   7   8  12  26  50  80 111 140 172 214 261
#     4   9  17  31  52  73  90 111 142 182 226 267
#
# _framework density 20.817961
#
# number of rings (size 3 to 8) (size 9 to 14) (size 15 to 20)
#    0.000    3.500    0.000    4.125    0.000    3.500 
#    0.000    0.625    0.000    3.750    0.000    1.750 
#    0.000   12.000    0.000    0.000    0.000    0.000 
#
# Total GULP energy -178233.638122 kJ/mol
# GULP energy per Si atom -5569.801191 kJ/mol
# Density = 2.077058 g / cm^3
# Si number density = 20.817961 Si / 1000 Ang^3
#
#
#
# Elastic Constant Matrix: (Units=GPa)
#
#
# Indices 1 2 3 4 5 6 
#
# 1 273.9366 4.6589 106.8115 0.0000 0.0000 0.0000
# 2 4.6589 60.9785 5.6023 0.0000 0.0000 0.0000
# 3 106.8115 5.6023 104.6755 0.0000 0.0000 0.0000
# 4 0.0000 0.0000 0.0000 7.4071 0.0000 0.0000
# 5 0.0000 0.0000 0.0000 0.0000 -9.7919 0.0000
# 6 0.0000 0.0000 0.0000 0.0000 0.0000 22.0679
#
#
#
# Elastic Compliance Matrix: (Units=1/GPa)
#
#
# Indices 1 2 3 4 5 6 
#
# 1 0.006063 0.000106 -0.006193 0.000000 0.000000 0.000000
# 2 0.000106 0.016482 -0.000990 0.000000 0.000000 0.000000
# 3 -0.006193 -0.000990 0.015925 0.000000 0.000000 0.000000
# 4 0.000000 0.000000 0.000000 0.135005 0.000000 0.000000
# 5 0.000000 0.000000 0.000000 0.000000 -0.102125 0.000000
# 6 0.000000 0.000000 0.000000 0.000000 0.000000 0.045315
#
#
# Mechanical properties :
#
#
# Convention : Reuss Voigt Hill
#
# Bulk Modulus (GPa) = 41.12376 74.85953 57.99165
# Shear Modulus (GPa) = 35.99064 25.43781 30.71422
#
# Velocity S-wave (km/s) = 4.16243 3.49938 3.84522
# Velocity P-wave (km/s) = 6.54965 7.23635 6.90155
#
# Compressibility (1/GPa) = 0.02431684
#
# Stress axis : x y z
#
# Youngs Moduli (GPa) = 164.92714 60.67184 62.79295
#
# Poissons Ratio (x) = -0.00641 0.38886
# Poissons Ratio (y) = -0.01743 0.06216
# Poissons Ratio (z) = 1.02134 0.06006
#
# Static dielectric constant tensor:
#      x y z
#    x 1.796540 0.000000 0.000000 
#    y 0.000000 1.828810 0.000000 
#    z 0.000000 0.000000 1.692250 
# 
# From -- ./inp_files/3563.got.cif
#   From: 2010.05.17/outbox.cif.g08.bks.cpg/sg47_2_cif.got.tgz:3563.got - 2010.06.03 20:15:42.
