data_PCOD9385981
_publ_section_title
;
Structure prediction by ZEFSAII (Michael W. Deem and Ramdas Pophale) SiO2 
 PCOD9385981
Probable space group: P M M M
;
_chemical_formula_sum "Si O2"
_cell_formula_units_Z 40
_cell_length_a 8.953929
_cell_length_b 9.450351
_cell_length_c 26.623606
_cell_angle_alpha 90.000000
_cell_angle_beta 90.000000
_cell_angle_gamma 90.000000
_cell_volume 2252.830219
_symmetry_space_group_name_H-M "P M M M"
_symmetry_group_IT_number 47
_symmetry_cell_setting 'orthorhombic'
loop_
_space_group_symop_operation_xyz
x,y,z
-x,-y,z
x,-y,-z
-x,y,-z
-x,-y,-z
x,y,-z
-x,y,z
x,-y,z
loop_
_atom_site_type_symbol
_atom_site_label
_atom_site_fract_x
_atom_site_fract_y
_atom_site_fract_z
Si Si1 0.328096 0.828041 0.000000
Si Si2 0.320495 0.834860 0.296272
Si Si3 0.817690 0.337303 0.500000
Si Si4 0.680114 0.334330 0.803147
Si Si5 0.821666 0.832818 0.895523
Si Si6 0.820264 0.165476 0.598100
O O1 0.246258 0.784806 0.051147
O O2 0.500000 0.781812 0.000000
O O3 0.325907 0.000000 0.000000
O O4 0.500000 0.827474 0.300487
O O5 0.274169 0.741306 0.248794
O O6 0.249328 0.789059 0.348961
O O7 0.279801 0.000000 0.287801
O O8 0.770245 0.500000 0.500000
O O9 0.769889 0.256474 0.550414
O O10 0.000000 0.334525 0.500000
O O11 0.500000 0.321502 0.807189
O O12 0.718031 0.500000 0.802529
O O13 0.753706 0.255346 0.849967
O O14 0.000000 0.819749 0.896835
O O15 0.785082 0.000000 0.888873
O O16 0.000000 0.174991 0.601491
O O17 0.781976 0.000000 0.590218
#
# Coordination Sequence:
#
# PCOD9385981 Si02
#       6
#     4   8   4   8   8   8
#     4   9  17  31  54  81 106 135 172 212 254 301
#     4   9  18  33  52  73  98 129 165 206 252 300
#     4   9  17  29  46  69  96 126 160 197 240 292
#     4  10  21  36  53  74 102 137 174 210 252 305
#     4  10  20  34  54  80 108 136 169 212 258 302
#     4   9  17  30  49  71  94 122 159 202 245 291
#
# _framework density 17.755444000000001
#
# number of rings (size 3 to 8) (size 9 to 14) (size 15 to 20)
#    0.000    2.600    0.000    1.800    0.000    6.400 
#    0.000    3.000    0.000    6.000    0.000    0.000 
#    0.000    0.000    0.000    0.000    0.000    0.000 
#
# Total GULP energy -223157.656760 kJ/mol
# GULP energy per Si atom -5578.941419 kJ/mol
# Density = 1.771503 g / cm^3
# Si number density = 17.755444 Si / 1000 Ang^3
#
#
#
# Elastic Constant Matrix: (Units=GPa)
#
#
# Indices 1 2 3 4 5 6 
#
# 1 25.0031 41.9768 57.0130 0.0000 0.0000 0.0000
# 2 41.9768 93.5476 112.2082 0.0000 0.0000 0.0000
# 3 57.0130 112.2082 229.3075 0.0000 0.0000 0.0000
# 4 0.0000 0.0000 0.0000 -5.4591 0.0000 0.0000
# 5 0.0000 0.0000 0.0000 0.0000 36.7643 0.0000
# 6 0.0000 0.0000 0.0000 0.0000 0.0000 17.7090
#
#
#
# Elastic Compliance Matrix: (Units=1/GPa)
#
#
# Indices 1 2 3 4 5 6 
#
# 1 0.175485 -0.063937 -0.012344 0.000000 0.000000 0.000000
# 2 -0.063937 0.049175 -0.008166 0.000000 0.000000 0.000000
# 3 -0.012344 -0.008166 0.011426 0.000000 0.000000 0.000000
# 4 0.000000 0.000000 0.000000 -0.183179 0.000000 0.000000
# 5 0.000000 0.000000 0.000000 0.000000 0.027200 0.000000
# 6 0.000000 0.000000 0.000000 0.000000 0.000000 0.056468
#
#
# Mechanical properties :
#
#
# Convention : Reuss Voigt Hill
#
# Bulk Modulus (GPa) = 14.88302 85.58383 50.23343
# Shear Modulus (GPa) = 15.25003 18.91352 17.08178
#
# Velocity S-wave (km/s) = 2.93387 3.26732 3.10507
# Velocity P-wave (km/s) = 4.45839 7.90822 6.41939
#
# Compressibility (1/GPa) = 0.06719065
#
# Stress axis : x y z
#
# Youngs Moduli (GPa) = 5.69849 20.33558 87.51815
#
# Poissons Ratio (x) = 1.30020 1.08036
# Poissons Ratio (y) = 0.36434 0.71469
# Poissons Ratio (z) = 0.07034 0.16607
#
# Static dielectric constant tensor:
#      x y z
#    x 1.596550 0.000000 0.000000 
#    y 0.000000 1.593470 0.000000 
#    z 0.000000 0.000000 1.578840 
# 
# From -- ./inp_files/1750.got.cif
#   From: 2010.05.17/outbox.cif.g08.bks.cpg/sg47_1_cif.got.tgz:1750.got - 2010.06.03 20:15:42.
