data_PCOD9385288
_publ_section_title
;
Structure prediction by ZEFSAII (Michael W. Deem and Ramdas Pophale) SiO2 
 PCOD9385288
Probable space group: P M M M
;
_chemical_formula_sum "Si O2"
_cell_formula_units_Z 32
_cell_length_a 8.045085
_cell_length_b 7.373073
_cell_length_c 23.577364
_cell_angle_alpha 90.000000
_cell_angle_beta 90.000000
_cell_angle_gamma 90.000000
_cell_volume 1398.538477
_symmetry_space_group_name_H-M "P M M M"
_symmetry_group_IT_number 47
_symmetry_cell_setting 'orthorhombic'
loop_
_space_group_symop_operation_xyz
x,y,z
-x,-y,z
x,-y,-z
-x,y,-z
-x,-y,-z
x,y,-z
-x,y,z
x,-y,z
loop_
_atom_site_type_symbol
_atom_site_label
_atom_site_fract_x
_atom_site_fract_y
_atom_site_fract_z
Si Si1 0.806877 0.219174 0.255083
Si Si2 0.801146 0.220040 0.500000
Si Si3 0.000000 0.277838 0.065584
Si Si4 0.320776 0.712616 0.868020
Si Si5 0.201242 0.783181 0.622014
O O1 0.709887 0.274267 0.199261
O O2 0.741016 0.283643 0.316469
O O3 0.000000 0.276813 0.248938
O O4 0.806803 0.000000 0.256829
O O5 0.735961 0.285853 0.561032
O O6 0.000000 0.256700 0.500000
O O7 0.784549 0.000000 0.500000
O O8 0.836889 0.212647 0.098643
O O9 0.000000 0.500000 0.067798
O O10 0.000000 0.226180 0.000000
O O11 0.500000 0.792153 0.882310
O O12 0.326395 0.500000 0.882261
O O13 0.000000 0.758768 0.622512
O O14 0.230631 0.000000 0.621400
#
# Coordination Sequence:
#
# PCOD9385288 Si02
#       5
#     8   4   4   8   8
#     4   9  16  27  45  69  97 129 163 198 239 286
#     4   7   8  12  24  46  80 115 146 187 235 278
#     4   9  18  34  55  77 101 126 153 192 238 279
#     4  10  20  33  51  75 100 127 160 195 233 280
#     4   7  10  16  29  53  84 117 152 190 234 281
#
# _framework density 22.881029000000002
#
# number of rings (size 3 to 8) (size 9 to 14) (size 15 to 20)
#    0.000    3.500    1.250    3.000    0.000    1.000 
#    0.000    2.500    0.000    1.500    0.000    3.500 
#    0.000   12.000    0.000    0.000    0.000    0.000 
#
# Total GULP energy -178400.462437 kJ/mol
# GULP energy per Si atom -5575.014451 kJ/mol
# Density = 2.282895 g / cm^3
# Si number density = 22.881029 Si / 1000 Ang^3
#
#
#
# Elastic Constant Matrix: (Units=GPa)
#
#
# Indices 1 2 3 4 5 6 
#
# 1 120.3369 10.1069 90.1663 0.0000 0.0000 0.0000
# 2 10.1069 79.3937 -1.5888 0.0000 0.0000 0.0000
# 3 90.1663 -1.5888 195.9215 0.0000 0.0000 0.0000
# 4 0.0000 0.0000 0.0000 13.3571 0.0000 0.0000
# 5 0.0000 0.0000 0.0000 0.0000 -14.4000 0.0000
# 6 0.0000 0.0000 0.0000 0.0000 0.0000 -3.4702
#
#
#
# Elastic Compliance Matrix: (Units=1/GPa)
#
#
# Indices 1 2 3 4 5 6 
#
# 1 0.012926 -0.001765 -0.005963 0.000000 0.000000 0.000000
# 2 -0.001765 0.012838 0.000916 0.000000 0.000000 0.000000
# 3 -0.005963 0.000916 0.007856 0.000000 0.000000 0.000000
# 4 0.000000 0.000000 0.000000 0.074866 0.000000 0.000000
# 5 0.000000 0.000000 0.000000 0.000000 -0.069445 0.000000
# 6 0.000000 0.000000 0.000000 0.000000 0.000000 -0.288166
#
#
# Mechanical properties :
#
#
# Convention : Reuss Voigt Hill
#
# Bulk Modulus (GPa) = 50.00706 65.89120 57.94913
# Shear Modulus (GPa) = -21.84991 18.89524 -1.47733
#
# Velocity S-wave (km/s) = -3.09356 2.87680 -0.80440
# Velocity P-wave (km/s) = 3.02367 6.31621 4.95162
#
# Compressibility (1/GPa) = 0.01999718
#
# Stress axis : x y z
#
# Youngs Moduli (GPa) = 77.36113 77.89096 127.29290
#
# Poissons Ratio (x) = 0.13747 0.75908
# Poissons Ratio (y) = 0.13653 -0.11664
# Poissons Ratio (z) = 0.46132 -0.07137
#
# Static dielectric constant tensor:
#      x y z
#    x 1.853280 0.000000 0.000000 
#    y 0.000000 1.921040 0.000000 
#    z 0.000000 0.000000 1.862170 
# 
# From -- ./inp_files/12006.got.cif
#   From: 2010.05.17/outbox.cif.g08.bks.cpg/sg47_7_cif.got.tgz:12006.got - 2010.06.03 20:15:42.
