data_PCOD9385438
_publ_section_title
;
Structure prediction by ZEFSAII (Michael W. Deem and Ramdas Pophale) SiO2 
 PCOD9385438
Probable space group: P M M M
;
_chemical_formula_sum "Si O2"
_cell_formula_units_Z 40
_cell_length_a 9.493103
_cell_length_b 27.064184
_cell_length_c 7.715468
_cell_angle_alpha 90.000000
_cell_angle_beta 90.000000
_cell_angle_gamma 90.000000
_cell_volume 1982.281851
_symmetry_space_group_name_H-M "P M M M"
_symmetry_group_IT_number 47
_symmetry_cell_setting 'orthorhombic'
loop_
_space_group_symop_operation_xyz
x,y,z
-x,-y,z
x,-y,-z
-x,y,-z
-x,-y,-z
x,y,-z
-x,y,z
x,-y,z
loop_
_atom_site_type_symbol
_atom_site_label
_atom_site_fract_x
_atom_site_fract_y
_atom_site_fract_z
Si Si1 0.340970 0.756726 0.205879
Si Si2 0.170624 0.553125 0.294044
Si Si3 0.337481 0.944473 0.288271
Si Si4 0.838126 0.339508 0.709201
Si Si5 0.841665 0.852130 0.293214
O O1 0.500000 0.757418 0.277930
O O2 0.260892 0.705941 0.246579
O O3 0.249954 0.803232 0.266623
O O4 0.350030 0.760697 0.000000
O O5 0.202914 0.552273 0.500000
O O6 0.219223 0.500000 0.221275
O O7 0.215172 0.606786 0.225544
O O8 0.000000 0.553766 0.279900
O O9 0.335898 0.943948 0.500000
O O10 0.500000 0.936147 0.236613
O O11 0.238477 0.900558 0.224731
O O12 0.295767 0.000000 0.235071
O O13 0.844197 0.342804 0.500000
O O14 0.000000 0.331374 0.769138
O O15 0.852497 0.858897 0.500000
O O16 0.000000 0.846615 0.223609
#
# Coordination Sequence:
#
# PCOD9385438 Si02
#       5
#     8   8   8   8   8
#     4  11  24  38  50  66  92 129 170 207 245 291
#     4   7  10  19  39  69 101 126 148 182 231 283
#     4   8  14  26  46  73 104 135 163 191 228 277
#     4   9  17  30  51  78 102 124 156 198 242 289
#     4  10  20  33  52  78 103 127 159 200 245 291
#
# _framework density 20.178764999999999
#
# number of rings (size 3 to 8) (size 9 to 14) (size 15 to 20)
#    0.000    3.000    0.000    4.200    0.000    6.000 
#    0.000    2.000    0.000    1.800    0.000   11.200 
#    0.000    0.000    0.000    0.000    0.000    0.000 
#
# Total GULP energy -222959.681308 kJ/mol
# GULP energy per Si atom -5573.992033 kJ/mol
# Density = 2.013284 g / cm^3
# Si number density = 20.178765 Si / 1000 Ang^3
#
#
#
# Elastic Constant Matrix: (Units=GPa)
#
#
# Indices 1 2 3 4 5 6 
#
# 1 128.9726 119.5614 5.3418 0.0000 0.0000 0.0000
# 2 119.5614 229.0463 1.4163 0.0000 0.0000 0.0000
# 3 5.3418 1.4163 32.1704 0.0000 0.0000 0.0000
# 4 0.0000 0.0000 0.0000 -54.6877 0.0000 0.0000
# 5 0.0000 0.0000 0.0000 0.0000 19.5140 0.0000
# 6 0.0000 0.0000 0.0000 0.0000 0.0000 -39.1023
#
#
#
# Elastic Compliance Matrix: (Units=1/GPa)
#
#
# Indices 1 2 3 4 5 6 
#
# 1 0.015174 -0.007907 -0.002171 0.000000 0.000000 0.000000
# 2 -0.007907 0.008488 0.000939 0.000000 0.000000 0.000000
# 3 -0.002171 0.000939 0.031404 0.000000 0.000000 0.000000
# 4 0.000000 0.000000 0.000000 -0.018286 0.000000 0.000000
# 5 0.000000 0.000000 0.000000 0.000000 0.051245 0.000000
# 6 0.000000 0.000000 0.000000 0.000000 0.000000 -0.025574
#
#
# Mechanical properties :
#
#
# Convention : Reuss Voigt Hill
#
# Bulk Modulus (GPa) = 27.18399 71.42536 49.30468
# Shear Modulus (GPa) = 53.76831 2.73613 28.25222
#
# Velocity S-wave (km/s) = 5.16757 1.16571 3.74585
# Velocity P-wave (km/s) = 7.00756 6.10614 6.57233
#
# Compressibility (1/GPa) = 0.03678636
#
# Stress axis : x y z
#
# Youngs Moduli (GPa) = 65.90326 117.81799 31.84342
#
# Poissons Ratio (x) = 0.93161 0.06915
# Poissons Ratio (y) = 0.52111 -0.02991
# Poissons Ratio (z) = 0.14311 -0.11067
#
# Static dielectric constant tensor:
#      x y z
#    x 1.697760 0.000000 0.000000 
#    y 0.000000 1.739230 0.000000 
#    z 0.000000 0.000000 1.745380 
# 
# From -- ./inp_files/1646.got.cif
#   From: 2010.05.17/outbox.cif.g08.bks.cpg/sg47_1_cif.got.tgz:1646.got - 2010.06.03 20:15:42.
