data_PCOD9385392
_publ_section_title
;
Structure prediction by ZEFSAII (Michael W. Deem and Ramdas Pophale) SiO2 
 PCOD9385392
Probable space group: P M M M
;
_chemical_formula_sum "Si O2"
_cell_formula_units_Z 52
_cell_length_a 21.816688
_cell_length_b 14.834679
_cell_length_c 8.231458
_cell_angle_alpha 90.000000
_cell_angle_beta 90.000000
_cell_angle_gamma 90.000000
_cell_volume 2664.058398
_symmetry_space_group_name_H-M "P M M M"
_symmetry_group_IT_number 47
_symmetry_cell_setting 'orthorhombic'
loop_
_space_group_symop_operation_xyz
x,y,z
-x,-y,z
x,-y,-z
-x,y,-z
-x,-y,-z
x,y,-z
-x,y,z
x,-y,z
loop_
_atom_site_type_symbol
_atom_site_label
_atom_site_fract_x
_atom_site_fract_y
_atom_site_fract_z
Si Si1 0.381662 0.600320 0.305559
Si Si2 0.432786 0.214081 0.196074
Si Si3 0.802021 0.789911 0.690788
Si Si4 0.000000 0.602377 0.194643
Si Si5 0.684330 0.897833 0.805143
Si Si6 0.241552 0.601263 0.807143
Si Si7 0.065899 0.231737 0.304327
O O1 0.374418 0.605747 0.500000
O O2 0.405356 0.500000 0.265607
O O3 0.422349 0.682727 0.246743
O O4 0.314350 0.609194 0.226545
O O5 0.500000 0.182692 0.251157
O O6 0.375167 0.156047 0.257821
O O7 0.431812 0.210013 0.000000
O O8 0.800772 0.810185 0.500000
O O9 0.746480 0.844277 0.768908
O O10 0.790210 0.683750 0.717469
O O11 0.870506 0.808395 0.756921
O O12 0.942908 0.663425 0.253859
O O13 0.000000 0.500000 0.254256
O O14 0.000000 0.601234 0.000000
O O15 0.686741 0.000000 0.742400
O O16 0.678249 0.901811 0.000000
O O17 0.223025 0.500000 0.756040
O O18 0.230957 0.609991 0.000000
O O19 0.067787 0.228074 0.500000
O O20 0.000000 0.190844 0.251051
#
# Coordination Sequence:
#
# PCOD9385392 Si02
#       7
#     8   8   8   4   8   8   8
#     4  10  20  34  53  79 112 149 189 229 272 325
#     4  10  21  37  58  83 111 147 188 227 273 330
#     4  11  21  35  59  85 111 147 189 233 279 330
#     4   9  17  29  47  75 110 147 190 233 271 316
#     4  10  22  40  61  85 113 144 181 229 285 343
#     4  10  20  33  51  77 111 149 187 229 277 328
#     4   8  18  35  51  72 105 146 185 220 265 321
#
# _framework density 19.519091
#
# number of rings (size 3 to 8) (size 9 to 14) (size 15 to 20)
#    0.462    1.769    1.538    1.385    0.000    5.538 
#    0.000    6.154    0.000    0.462    0.000    5.385 
#    0.000    0.000    0.000    0.000    0.000    0.000 
#
# Total GULP energy -289844.596343 kJ/mol
# GULP energy per Si atom -5573.934545 kJ/mol
# Density = 1.947466 g / cm^3
# Si number density = 19.519091 Si / 1000 Ang^3
#
#
#
# Elastic Constant Matrix: (Units=GPa)
#
#
# Indices 1 2 3 4 5 6 
#
# 1 146.7043 60.6009 8.1393 0.0000 0.0000 0.0000
# 2 60.6009 82.6505 4.3089 0.0000 0.0000 0.0000
# 3 8.1393 4.3089 11.1218 0.0000 0.0000 0.0000
# 4 0.0000 0.0000 0.0000 -23.2743 0.0000 0.0000
# 5 0.0000 0.0000 0.0000 0.0000 19.5011 0.0000
# 6 0.0000 0.0000 0.0000 0.0000 0.0000 1.1218
#
#
#
# Elastic Compliance Matrix: (Units=1/GPa)
#
#
# Indices 1 2 3 4 5 6 
#
# 1 0.010001 -0.007094 -0.004570 0.000000 0.000000 0.000000
# 2 -0.007094 0.017381 -0.001542 0.000000 0.000000 0.000000
# 3 -0.004570 -0.001542 0.093856 0.000000 0.000000 0.000000
# 4 0.000000 0.000000 0.000000 -0.042966 0.000000 0.000000
# 5 0.000000 0.000000 0.000000 0.000000 0.051279 0.000000
# 6 0.000000 0.000000 0.000000 0.000000 0.000000 0.891410
#
#
# Mechanical properties :
#
#
# Convention : Reuss Voigt Hill
#
# Bulk Modulus (GPa) = 10.54582 42.95277 26.74929
# Shear Modulus (GPa) = 4.63400 10.63155 7.63277
#
# Velocity S-wave (km/s) = 1.54248 2.33636 1.97962
# Velocity P-wave (km/s) = 2.93034 5.41585 4.35421
#
# Compressibility (1/GPa) = 0.09482434
#
# Stress axis : x y z
#
# Youngs Moduli (GPa) = 99.99465 57.53331 10.65463
#
# Poissons Ratio (x) = 0.40816 0.04869
# Poissons Ratio (y) = 0.70939 0.01643
# Poissons Ratio (z) = 0.45700 0.08872
#
# Static dielectric constant tensor:
#      x y z
#    x 1.723520 0.000000 0.000000 
#    y 0.000000 1.668730 0.000000 
#    z 0.000000 0.000000 1.678140 
# 
# From -- ./inp_files/11080.got.cif
#   From: 2010.05.17/outbox.cif.g08.bks.cpg/sg47_6_cif.got.tgz:11080.got - 2010.06.03 20:15:42.
