data_PCOD9385675
_publ_section_title
;
Structure prediction by ZEFSAII (Michael W. Deem and Ramdas Pophale) SiO2 
 PCOD9385675
Probable space group: P M M M
;
_chemical_formula_sum "Si O2"
_cell_formula_units_Z 36
_cell_length_a 7.823387
_cell_length_b 25.589049
_cell_length_c 9.871388
_cell_angle_alpha 90.000000
_cell_angle_beta 90.000000
_cell_angle_gamma 90.000000
_cell_volume 1976.183106
_symmetry_space_group_name_H-M "P M M M"
_symmetry_group_IT_number 47
_symmetry_cell_setting 'orthorhombic'
loop_
_space_group_symop_operation_xyz
x,y,z
-x,-y,z
x,-y,-z
-x,y,-z
-x,-y,-z
x,y,-z
-x,y,z
x,-y,z
loop_
_atom_site_type_symbol
_atom_site_label
_atom_site_fract_x
_atom_site_fract_y
_atom_site_fract_z
Si Si1 0.306954 0.134963 0.840196
Si Si2 0.708709 0.558475 0.156414
Si Si3 0.796842 0.769825 0.656653
Si Si4 0.293248 0.347322 0.655306
Si Si5 0.000000 0.059505 0.164546
O O1 0.500000 0.114887 0.826376
O O2 0.286013 0.187268 0.752902
O O3 0.167022 0.092517 0.796033
O O4 0.277664 0.146490 0.000000
O O5 0.500000 0.558923 0.158929
O O6 0.761685 0.500000 0.199489
O O7 0.768378 0.605474 0.250918
O O8 0.759579 0.565950 0.000000
O O9 0.737046 0.774435 0.500000
O O10 0.760889 0.710407 0.701166
O O11 0.000000 0.778378 0.658572
O O12 0.234793 0.353934 0.500000
O O13 0.500000 0.348416 0.655285
O O14 0.000000 0.000000 0.214447
O O15 0.000000 0.057290 0.000000
#
# Coordination Sequence:
#
# PCOD9385675 Si02
#       5
#     8   8   8   8   4
#     4  10  20  34  55  82 109 140 179 220 263 312
#     4   8  14  25  41  62  89 120 155 199 252 308
#     4  10  20  34  52  73 101 138 175 214 265 319
#     4   9  17  28  43  66  93 120 157 205 254 308
#     4   9  18  34  55  81 115 147 176 217 262 305
#
# _framework density 18.216937000000001
#
# number of rings (size 3 to 8) (size 9 to 14) (size 15 to 20)
#    0.000    2.778    1.111    1.333    0.000    3.111 
#    0.000    6.667    0.000    2.000    0.000    6.222 
#    0.000    0.000    0.000    0.000    0.000    0.000 
#
# Total GULP energy -200748.515041 kJ/mol
# GULP energy per Si atom -5576.347640 kJ/mol
# Density = 1.817547 g / cm^3
# Si number density = 18.216937 Si / 1000 Ang^3
#
#
#
# Elastic Constant Matrix: (Units=GPa)
#
#
# Indices 1 2 3 4 5 6 
#
# 1 64.9007 49.0907 28.6268 0.0000 0.0000 0.0000
# 2 49.0907 171.6917 72.1640 0.0000 0.0000 0.0000
# 3 28.6268 72.1640 48.9371 0.0000 0.0000 0.0000
# 4 0.0000 0.0000 0.0000 -93.9560 0.0000 0.0000
# 5 0.0000 0.0000 0.0000 0.0000 10.1189 0.0000
# 6 0.0000 0.0000 0.0000 0.0000 0.0000 22.3929
#
#
#
# Elastic Compliance Matrix: (Units=1/GPa)
#
#
# Indices 1 2 3 4 5 6 
#
# 1 0.021084 -0.002221 -0.009058 0.000000 0.000000 0.000000
# 2 -0.002221 0.015553 -0.021636 0.000000 0.000000 0.000000
# 3 -0.009058 -0.021636 0.057638 0.000000 0.000000 0.000000
# 4 0.000000 0.000000 0.000000 -0.010643 0.000000 0.000000
# 5 0.000000 0.000000 0.000000 0.000000 0.098825 0.000000
# 6 0.000000 0.000000 0.000000 0.000000 0.000000 0.044657
#
#
# Mechanical properties :
#
#
# Convention : Reuss Voigt Hill
#
# Bulk Modulus (GPa) = 35.15578 65.03251 50.09414
# Shear Modulus (GPa) = 16.53298 -3.24563 6.64368
#
# Velocity S-wave (km/s) = 3.01584 -1.33623 1.91178
# Velocity P-wave (km/s) = 5.60958 5.77890 5.69487
#
# Compressibility (1/GPa) = 0.02844483
#
# Stress axis : x y z
#
# Youngs Moduli (GPa) = 47.43035 64.29459 17.34957
#
# Poissons Ratio (x) = 0.14281 0.15715
# Poissons Ratio (y) = 0.10535 0.37538
# Poissons Ratio (z) = 0.42962 1.39109
#
# Static dielectric constant tensor:
#      x y z
#    x 1.662190 0.000000 0.000000 
#    y 0.000000 1.597990 0.000000 
#    z 0.000000 0.000000 1.612630 
# 
# From -- ./inp_files/1445.got.cif
#   From: 2010.05.17/outbox.cif.g08.bks.cpg/sg47_1_cif.got.tgz:1445.got - 2010.06.03 20:15:42.
