data_PCOD9385708
_publ_section_title
;
Structure prediction by ZEFSAII (Michael W. Deem and Ramdas Pophale) SiO2 
 PCOD9385708
Probable space group: P M M M
;
_chemical_formula_sum "Si O2"
_cell_formula_units_Z 64
_cell_length_a 7.889993
_cell_length_b 19.091391
_cell_length_c 21.057736
_cell_angle_alpha 90.000000
_cell_angle_beta 90.000000
_cell_angle_gamma 90.000000
_cell_volume 3171.946596
_symmetry_space_group_name_H-M "P M M M"
_symmetry_group_IT_number 47
_symmetry_cell_setting 'orthorhombic'
loop_
_space_group_symop_operation_xyz
x,y,z
-x,-y,z
x,-y,-z
-x,y,-z
-x,-y,-z
x,y,-z
-x,y,z
x,-y,z
loop_
_atom_site_type_symbol
_atom_site_label
_atom_site_fract_x
_atom_site_fract_y
_atom_site_fract_z
Si Si1 0.793011 0.580498 0.927774
Si Si2 0.293120 0.080924 0.071216
Si Si3 0.794940 0.661621 0.427577
Si Si4 0.299259 0.579368 0.696716
Si Si5 0.795590 0.178455 0.428342
Si Si6 0.198566 0.675908 0.187242
Si Si7 0.703564 0.920459 0.313278
Si Si8 0.701467 0.835423 0.808065
O O1 0.741161 0.500000 0.914857
O O2 0.731644 0.633041 0.873420
O O3 0.000000 0.580791 0.926531
O O4 0.742036 0.598618 0.000000
O O5 0.500000 0.083018 0.070283
O O6 0.230982 0.131755 0.126470
O O7 0.246973 0.000000 0.084336
O O8 0.235981 0.099307 0.000000
O O9 0.741956 0.644706 0.500000
O O10 0.732124 0.610207 0.373227
O O11 0.740188 0.741787 0.413384
O O12 0.000000 0.660472 0.426599
O O13 0.500000 0.578372 0.708007
O O14 0.233390 0.500000 0.701803
O O15 0.221198 0.629444 0.749920
O O16 0.738086 0.161770 0.500000
O O17 0.739945 0.122825 0.376707
O O18 0.000000 0.179600 0.428892
O O19 0.273474 0.752710 0.195988
O O20 0.000000 0.686165 0.176013
O O21 0.500000 0.924451 0.307259
O O22 0.770687 0.876704 0.253023
O O23 0.769036 0.000000 0.314996
O O24 0.500000 0.848095 0.808692
#
# Coordination Sequence:
#
# PCOD9385708 Si02
#       8
#     8   8   8   8   8   8   8   8
#     4   8  15  30  52  76 101 131 169 211 254 303
#     4   8  14  27  50  78 105 137 179 221 260 309
#     4   9  19  37  60  84 110 141 177 215 255 306
#     4  11  24  39  55  78 109 142 176 218 266 313
#     4   9  19  36  56  78 104 133 166 206 253 304
#     4  11  22  35  54  79 106 138 177 219 262 314
#     4  10  21  35  51  73 101 134 173 215 257 303
#     4  10  20  34  52  75 105 138 172 216 267 312
#
# _framework density 20.176884999999999
#
# number of rings (size 3 to 8) (size 9 to 14) (size 15 to 20)
#    0.000    2.500    0.000    3.750    0.000    7.750 
#    0.000    3.750    0.000    2.250    0.000    5.250 
#    0.000    0.000    0.000    0.000    0.000    0.000 
#
# Total GULP energy -357276.248672 kJ/mol
# GULP energy per Si atom -5582.441385 kJ/mol
# Density = 2.013096 g / cm^3
# Si number density = 20.176885 Si / 1000 Ang^3
#
#
#
# Elastic Constant Matrix: (Units=GPa)
#
#
# Indices 1 2 3 4 5 6 
#
# 1 16.5008 -8.0334 -6.6858 0.0000 0.0000 0.0000
# 2 -8.0334 123.3140 86.4403 0.0000 0.0000 0.0000
# 3 -6.6858 86.4403 123.1813 0.0000 0.0000 0.0000
# 4 0.0000 0.0000 0.0000 42.8460 0.0000 0.0000
# 5 0.0000 0.0000 0.0000 0.0000 0.5087 0.0000
# 6 0.0000 0.0000 0.0000 0.0000 0.0000-2091.6725
#
#
#
# Elastic Compliance Matrix: (Units=1/GPa)
#
#
# Indices 1 2 3 4 5 6 
#
# 1 0.062658 0.003342 0.001056 0.000000 0.000000 0.000000
# 2 0.003342 0.016138 -0.011143 0.000000 0.000000 0.000000
# 3 0.001056 -0.011143 0.015995 0.000000 0.000000 0.000000
# 4 0.000000 0.000000 0.000000 0.023339 0.000000 0.000000
# 5 0.000000 0.000000 0.000000 0.000000 1.965655 0.000000
# 6 0.000000 0.000000 0.000000 0.000000 0.000000 -0.000478
#
#
# Mechanical properties :
#
#
# Convention : Reuss Voigt Hill
#
# Bulk Modulus (GPa) = 12.30014 45.15980 28.72997
# Shear Modulus (GPa) = 2.35416 -396.91189 -197.27886
#
# Velocity S-wave (km/s) = 1.08134 -14.04077 -9.89884
# Velocity P-wave (km/s) = 2.76920 15.50571 10.78792
#
# Compressibility (1/GPa) = 0.08129989
#
# Stress axis : x y z
#
# Youngs Moduli (GPa) = 15.95964 61.96401 62.51899
#
# Poissons Ratio (x) = -0.20708 -0.06600
# Poissons Ratio (y) = -0.05334 0.69668
# Poissons Ratio (z) = -0.01685 0.69049
#
# Static dielectric constant tensor:
#      x y z
#    x 1.770280 0.000000 0.000000 
#    y 0.000000 1.686730 0.000000 
#    z 0.000000 0.000000 1.706900 
# 
# From -- ./inp_files/29955.got.cif
#   From: 2010.05.17/outbox.cif.g08.bks.cpg/sg47_15_cif.got.tgz:29955.got - 2010.06.03 20:15:42.
