data_PCOD9385668
_publ_section_title
;
Structure prediction by ZEFSAII (Michael W. Deem and Ramdas Pophale) SiO2 
 PCOD9385668
Probable space group: P M M M
;
_chemical_formula_sum "Si O2"
_cell_formula_units_Z 48
_cell_length_a 8.184056
_cell_length_b 7.573790
_cell_length_c 35.463398
_cell_angle_alpha 90.000000
_cell_angle_beta 90.000000
_cell_angle_gamma 90.000000
_cell_volume 2198.174663
_symmetry_space_group_name_H-M "P M M M"
_symmetry_group_IT_number 47
_symmetry_cell_setting 'orthorhombic'
loop_
_space_group_symop_operation_xyz
x,y,z
-x,-y,z
x,-y,-z
-x,y,-z
-x,-y,-z
x,y,-z
-x,y,z
x,-y,z
loop_
_atom_site_type_symbol
_atom_site_label
_atom_site_fract_x
_atom_site_fract_y
_atom_site_fract_z
Si Si1 0.195745 0.205576 0.620443
Si Si2 0.187544 0.706096 0.703447
Si Si3 0.000000 0.783272 0.177459
Si Si4 0.000000 0.215773 0.090174
Si Si5 0.683157 0.784767 0.956221
Si Si6 0.696063 0.791649 0.459415
Si Si7 0.323053 0.204742 0.781252
O O1 0.252348 0.276586 0.660798
O O2 0.250026 0.285678 0.580576
O O3 0.000000 0.218498 0.620853
O O4 0.244593 0.000000 0.620067
O O5 0.180767 0.500000 0.712265
O O6 0.291336 0.791281 0.736439
O O7 0.000000 0.776487 0.704420
O O8 0.000000 0.733084 0.133810
O O9 0.836747 0.719673 0.198518
O O10 0.000000 0.000000 0.179640
O O11 0.164879 0.274620 0.068961
O O12 0.000000 0.000000 0.089023
O O13 0.500000 0.729063 0.944290
O O14 0.683636 0.000000 0.955385
O O15 0.706061 0.733719 0.000000
O O16 0.754122 0.718923 0.500000
O O17 0.500000 0.784936 0.459820
O O18 0.744524 0.000000 0.459168
O O19 0.500000 0.285318 0.789700
O O20 0.330121 0.000000 0.792981
#
# Coordination Sequence:
#
# PCOD9385668 Si02
#       7
#     8   8   4   4   8   8   8
#     4   9  17  28  45  70  96 121 150 189 235 281
#     4  10  20  34  52  72  96 125 156 196 245 293
#     4   9  18  31  45  64  91 119 155 207 252 292
#     4   9  15  22  35  53  75 109 150 195 245 286
#     4   8  13  20  30  47  74 109 150 195 238 281
#     4   8  14  25  41  62  89 119 150 185 224 269
#     4  10  20  34  53  73  94 125 161 198 247 302
#
# _framework density 21.836299
#
# number of rings (size 3 to 8) (size 9 to 14) (size 15 to 20)
#    0.000    3.000    0.833    1.750    0.000    3.667 
#    0.000    6.667    0.000    0.500    0.000    3.500 
#    0.000    0.000    0.000    0.000    0.000    6.667 
#
# Total GULP energy -267652.224061 kJ/mol
# GULP energy per Si atom -5576.088001 kJ/mol
# Density = 2.178660 g / cm^3
# Si number density = 21.836299 Si / 1000 Ang^3
#
#
#
# Elastic Constant Matrix: (Units=GPa)
#
#
# Indices 1 2 3 4 5 6 
#
# 1 140.0070 14.1173 94.6774 0.0000 0.0000 0.0000
# 2 14.1173 45.3395 6.2900 0.0000 0.0000 0.0000
# 3 94.6774 6.2900 150.6180 0.0000 0.0000 0.0000
# 4 0.0000 0.0000 0.0000 -45.1169 0.0000 0.0000
# 5 0.0000 0.0000 0.0000 0.0000 81.2722 0.0000
# 6 0.0000 0.0000 0.0000 0.0000 0.0000 -5.1314
#
#
#
# Elastic Compliance Matrix: (Units=1/GPa)
#
#
# Indices 1 2 3 4 5 6 
#
# 1 0.012787 -0.002883 -0.007918 0.000000 0.000000 0.000000
# 2 -0.002883 0.022834 0.000859 0.000000 0.000000 0.000000
# 3 -0.007918 0.000859 0.011580 0.000000 0.000000 0.000000
# 4 0.000000 0.000000 0.000000 -0.022165 0.000000 0.000000
# 5 0.000000 0.000000 0.000000 0.000000 0.012304 0.000000
# 6 0.000000 0.000000 0.000000 0.000000 0.000000 -0.194880
#
#
# Mechanical properties :
#
#
# Convention : Reuss Voigt Hill
#
# Bulk Modulus (GPa) = 36.60583 62.90379 49.75481
# Shear Modulus (GPa) = -38.89599 20.93011 -8.98294
#
# Velocity S-wave (km/s) = -4.22507 3.09933 -2.03044
# Velocity P-wave (km/s) = 2.64603 6.45579 4.16388
#
# Compressibility (1/GPa) = 0.02731805
#
# Stress axis : x y z
#
# Youngs Moduli (GPa) = 78.20182 43.79357 86.35242
#
# Poissons Ratio (x) = 0.12626 0.68371
# Poissons Ratio (y) = 0.22547 -0.07415
# Poissons Ratio (z) = 0.61918 -0.03761
#
# Static dielectric constant tensor:
#      x y z
#    x 1.795690 0.000000 0.000000 
#    y 0.000000 1.807330 0.000000 
#    z 0.000000 0.000000 1.790220 
# 
# From -- ./inp_files/34196.got.cif
#   From: 2010.05.17/outbox.cif.g08.bks.cpg/sg47_18_cif.got.tgz:34196.got - 2010.06.03 20:15:42.
