data_PCOD9385683
_publ_section_title
;
Structure prediction by ZEFSAII (Michael W. Deem and Ramdas Pophale) SiO2 
 PCOD9385683
Probable space group: P M M M
;
_chemical_formula_sum "Si O2"
_cell_formula_units_Z 64
_cell_length_a 29.007757
_cell_length_b 11.973669
_cell_length_c 7.404240
_cell_angle_alpha 90.000000
_cell_angle_beta 90.000000
_cell_angle_gamma 90.000000
_cell_volume 2571.709354
_symmetry_space_group_name_H-M "P M M M"
_symmetry_group_IT_number 47
_symmetry_cell_setting 'orthorhombic'
loop_
_space_group_symop_operation_xyz
x,y,z
-x,-y,z
x,-y,-z
-x,y,-z
-x,-y,-z
x,y,-z
-x,y,z
x,-y,z
loop_
_atom_site_type_symbol
_atom_site_label
_atom_site_fract_x
_atom_site_fract_y
_atom_site_fract_z
Si Si1 0.086984 0.374925 0.781736
Si Si2 0.195704 0.374626 0.711454
Si Si3 0.314976 0.847908 0.205375
Si Si4 0.213793 0.122848 0.295883
Si Si5 0.419236 0.118050 0.217988
Si Si6 0.055003 0.874901 0.784023
Si Si7 0.347624 0.618233 0.717088
Si Si8 0.549116 0.350929 0.707359
O O1 0.067780 0.500000 0.725138
O O2 0.140511 0.378770 0.728552
O O3 0.070418 0.250075 0.719122
O O4 0.082124 0.373563 0.000000
O O5 0.210403 0.371097 0.500000
O O6 0.211111 0.500000 0.779244
O O7 0.206191 0.247956 0.785807
O O8 0.269313 0.883669 0.303006
O O9 0.365734 0.877461 0.278574
O O10 0.317505 0.715035 0.205748
O O11 0.312288 0.886241 0.000000
O O12 0.194753 0.126998 0.500000
O O13 0.198907 0.000000 0.218131
O O14 0.447804 0.218485 0.292190
O O15 0.439257 0.000000 0.266087
O O16 0.417931 0.128902 0.000000
O O17 0.000000 0.876743 0.757328
O O18 0.071999 0.000000 0.719094
O O19 0.064416 0.874875 0.000000
O O20 0.350166 0.632600 0.500000
O O21 0.326932 0.500000 0.758128
O O22 0.400731 0.619556 0.784863
O O23 0.549100 0.387720 0.500000
O O24 0.500000 0.383150 0.789646
#
# Coordination Sequence:
#
# PCOD9385683 Si02
#       8
#     8   8   8   8   8   8   8   8
#     4   9  17  29  47  72  99 127 165 214 259 297
#     4   9  19  36  54  71  97 135 172 205 250 308
#     4  10  20  34  52  74 100 126 155 196 245 294
#     4  10  21  36  54  77 103 131 167 209 251 300
#     4   9  18  32  48  65  88 120 153 183 223 280
#     4   8  14  25  42  67 100 135 169 207 254 306
#     4   9  18  33  52  72  95 126 162 196 235 288
#     4   9  18  31  46  67  93 118 149 191 234 274
#
# _framework density 24.886172999999999
#
# number of rings (size 3 to 8) (size 9 to 14) (size 15 to 20)
#    0.000    2.875    0.000    1.125    0.000    4.250 
#    0.000    5.000    0.000    0.375    0.000    6.125 
#    0.000    0.000    0.000    0.000    0.000    0.000 
#
# Total GULP energy -356335.961956 kJ/mol
# GULP energy per Si atom -5567.749406 kJ/mol
# Density = 2.482953 g / cm^3
# Si number density = 24.886173 Si / 1000 Ang^3
#
#
#
# Elastic Constant Matrix: (Units=GPa)
#
#
# Indices 1 2 3 4 5 6 
#
# 1 45.7830 44.2069 -6.2805 0.0000 0.0000 0.0000
# 2 44.2069 328.0587 21.9408 0.0000 0.0000 0.0000
# 3 -6.2805 21.9408 75.5856 0.0000 0.0000 0.0000
# 4 0.0000 0.0000 0.0000 -224.8466 0.0000 0.0000
# 5 0.0000 0.0000 0.0000 0.0000 -58.6274 0.0000
# 6 0.0000 0.0000 0.0000 0.0000 0.0000 104.7735
#
#
#
# Elastic Compliance Matrix: (Units=1/GPa)
#
#
# Indices 1 2 3 4 5 6 
#
# 1 0.025857 -0.003700 0.003222 0.000000 0.000000 0.000000
# 2 -0.003700 0.003638 -0.001363 0.000000 0.000000 0.000000
# 3 0.003222 -0.001363 0.013894 0.000000 0.000000 0.000000
# 4 0.000000 0.000000 0.000000 -0.004447 0.000000 0.000000
# 5 0.000000 0.000000 0.000000 0.000000 -0.017057 0.000000
# 6 0.000000 0.000000 0.000000 0.000000 0.000000 0.009544
#
#
# Mechanical properties :
#
#
# Convention : Reuss Voigt Hill
#
# Bulk Modulus (GPa) = 25.18472 63.24019 44.21246
# Shear Modulus (GPa) = 103.42243 -9.76943 46.82650
#
# Velocity S-wave (km/s) = 6.45356 -1.98347 4.34248
# Velocity P-wave (km/s) = 8.10390 4.49682 6.55342
#
# Compressibility (1/GPa) = 0.03970661
#
# Stress axis : x y z
#
# Youngs Moduli (GPa) = 38.67476 274.87781 71.97572
#
# Poissons Ratio (x) = 1.01699 -0.23194
# Poissons Ratio (y) = 0.14309 0.09813
# Poissons Ratio (z) = -0.12463 0.37478
#
# Static dielectric constant tensor:
#      x y z
#    x 1.900990 0.000000 0.000000 
#    y 0.000000 2.073360 0.000000 
#    z 0.000000 0.000000 1.993500 
# 
# From -- ./inp_files/14185.got.cif
#   From: 2010.05.17/outbox.cif.g08.bks.cpg/sg47_8_cif.got.tgz:14185.got - 2010.06.03 20:15:42.
