data_PCOD9385444
_publ_section_title
;
Structure prediction by ZEFSAII (Michael W. Deem and Ramdas Pophale) SiO2 
 PCOD9385444
Probable space group: P M M M
;
_chemical_formula_sum "Si O2"
_cell_formula_units_Z 44
_cell_length_a 16.609682
_cell_length_b 8.283289
_cell_length_c 17.103821
_cell_angle_alpha 90.000000
_cell_angle_beta 90.000000
_cell_angle_gamma 90.000000
_cell_volume 2353.191519
_symmetry_space_group_name_H-M "P M M M"
_symmetry_group_IT_number 47
_symmetry_cell_setting 'orthorhombic'
loop_
_space_group_symop_operation_xyz
x,y,z
-x,-y,z
x,-y,-z
-x,y,-z
-x,-y,-z
x,y,-z
-x,y,z
x,-y,z
loop_
_atom_site_type_symbol
_atom_site_label
_atom_site_fract_x
_atom_site_fract_y
_atom_site_fract_z
Si Si1 0.087337 0.693590 0.740107
Si Si2 0.261743 0.687925 0.305864
Si Si3 0.882206 0.188981 0.086156
Si Si4 0.591284 0.197427 0.000000
Si Si5 0.299096 0.189158 0.138212
Si Si6 0.589792 0.805770 0.409612
O O1 0.088891 0.500000 0.731413
O O2 0.169554 0.757226 0.699205
O O3 0.090313 0.729696 0.833305
O O4 0.000000 0.753636 0.711006
O O5 0.254531 0.500000 0.324981
O O6 0.292261 0.712803 0.217467
O O7 0.331215 0.757273 0.361328
O O8 0.785616 0.195547 0.093030
O O9 0.905269 0.000000 0.089465
O O10 0.906066 0.252124 0.000000
O O11 0.634848 0.250908 0.921506
O O12 0.500000 0.245599 0.000000
O O13 0.597249 0.000000 0.000000
O O14 0.313766 0.000000 0.158242
O O15 0.597494 0.752512 0.500000
O O16 0.500000 0.750901 0.381253
O O17 0.587514 0.000000 0.409116
#
# Coordination Sequence:
#
# PCOD9385444 Si02
#       6
#     8   8   8   4   8   8
#     4   9  19  34  48  66  97 136 175 211 249 299
#     4  10  20  33  52  78 104 134 169 207 253 300
#     4   9  16  27  44  64  88 121 164 217 268 304
#     4   9  16  26  43  65  86 117 166 214 249 289
#     4   9  16  29  46  64  91 129 170 210 252 300
#     4   9  19  37  60  84 108 133 161 195 241 301
#
# _framework density 18.698011000000001
#
# number of rings (size 3 to 8) (size 9 to 14) (size 15 to 20)
#    0.000    2.818    0.909    1.091    0.000    3.273 
#    0.000    5.000    0.000    1.091    0.000    3.818 
#    0.000    0.000    0.000    0.000    0.000    0.000 
#
# Total GULP energy -244972.836474 kJ/mol
# GULP energy per Si atom -5567.564465 kJ/mol
# Density = 1.865545 g / cm^3
# Si number density = 18.698011 Si / 1000 Ang^3
#
#
#
# Elastic Constant Matrix: (Units=GPa)
#
#
# Indices 1 2 3 4 5 6 
#
# 1 190.5068 16.9593 68.3463 0.0000 0.0000 0.0000
# 2 16.9593 9.6972 7.5473 0.0000 0.0000 0.0000
# 3 68.3463 7.5473 64.7253 0.0000 0.0000 0.0000
# 4 0.0000 0.0000 0.0000 90.9530 0.0000 0.0000
# 5 0.0000 0.0000 0.0000 0.0000 31.5444 0.0000
# 6 0.0000 0.0000 0.0000 0.0000 0.0000 -277.1847
#
#
#
# Elastic Compliance Matrix: (Units=1/GPa)
#
#
# Indices 1 2 3 4 5 6 
#
# 1 0.009160 -0.009339 -0.008583 0.000000 0.000000 0.000000
# 2 -0.009339 0.122938 -0.004474 0.000000 0.000000 0.000000
# 3 -0.008583 -0.004474 0.025035 0.000000 0.000000 0.000000
# 4 0.000000 0.000000 0.000000 0.010995 0.000000 0.000000
# 5 0.000000 0.000000 0.000000 0.000000 0.031701 0.000000
# 6 0.000000 0.000000 0.000000 0.000000 0.000000 -0.003608
#
#
# Mechanical properties :
#
#
# Convention : Reuss Voigt Hill
#
# Bulk Modulus (GPa) = 8.90148 50.07056 29.48602
# Shear Modulus (GPa) = 17.95585 -19.46571 -0.75493
#
# Velocity S-wave (km/s) = 3.10225 -3.23004 -0.63610
# Velocity P-wave (km/s) = 4.19558 3.59524 3.90696
#
# Compressibility (1/GPa) = 0.11234083
#
# Stress axis : x y z
#
# Youngs Moduli (GPa) = 109.17120 8.13417 39.94392
#
# Poissons Ratio (x) = 0.07597 0.34285
# Poissons Ratio (y) = 1.01958 0.17869
# Poissons Ratio (z) = 0.93706 0.03639
#
# Static dielectric constant tensor:
#      x y z
#    x 1.706740 0.000000 0.000000 
#    y 0.000000 1.666070 0.000000 
#    z 0.000000 0.000000 1.614460 
# 
# From -- ./inp_files/24299.got.cif
#   From: 2010.05.17/outbox.cif.g08.bks.cpg/sg47_13_cif.got.tgz:24299.got - 2010.06.03 20:15:42.
