data_PCOD9385066
_publ_section_title
;
Structure prediction by ZEFSAII (Michael W. Deem and Ramdas Pophale) SiO2 
 PCOD9385066
Probable space group: P M M M
;
_chemical_formula_sum "Si O2"
_cell_formula_units_Z 56
_cell_length_a 14.428507
_cell_length_b 16.072286
_cell_length_c 14.325101
_cell_angle_alpha 90.000000
_cell_angle_beta 90.000000
_cell_angle_gamma 90.000000
_cell_volume 3321.977901
_symmetry_space_group_name_H-M "P M M M"
_symmetry_group_IT_number 47
_symmetry_cell_setting 'orthorhombic'
loop_
_space_group_symop_operation_xyz
x,y,z
-x,-y,z
x,-y,-z
-x,y,-z
-x,-y,-z
x,y,-z
-x,y,z
x,-y,z
loop_
_atom_site_type_symbol
_atom_site_label
_atom_site_fract_x
_atom_site_fract_y
_atom_site_fract_z
Si Si1 0.298974 0.907242 0.111280
Si Si2 0.281784 0.593192 0.111496
Si Si3 0.103356 0.165384 0.890682
Si Si4 0.396080 0.331815 0.393253
Si Si5 0.197136 0.596436 0.607272
Si Si6 0.607673 0.747219 0.799126
Si Si7 0.107078 0.658640 0.210641
O O1 0.188651 0.895698 0.125669
O O2 0.348099 0.831962 0.163994
O O3 0.328174 0.000000 0.139611
O O4 0.316053 0.898501 0.000000
O O5 0.314698 0.500000 0.136534
O O6 0.340519 0.667382 0.157182
O O7 0.177371 0.604629 0.148712
O O8 0.284358 0.601671 0.000000
O O9 0.114200 0.247426 0.827960
O O10 0.000000 0.130494 0.876036
O O11 0.109142 0.191405 0.000000
O O12 0.391525 0.300471 0.500000
O O13 0.500000 0.368911 0.381099
O O14 0.308145 0.392065 0.381510
O O15 0.385714 0.263278 0.312719
O O16 0.174688 0.618225 0.500000
O O17 0.173408 0.500000 0.622581
O O18 0.144186 0.650227 0.683957
O O19 0.500000 0.744254 0.825552
O O20 0.000000 0.632924 0.204238
#
# Coordination Sequence:
#
# PCOD9385066 Si02
#       7
#     8   8   8   8   8   8   8
#     4  10  20  34  54  80 109 141 177 215 259 316
#     4  11  23  37  53  75 104 140 185 226 260 307
#     4   9  17  31  53  78 103 134 173 217 265 314
#     4   9  18  33  55  80 101 128 171 219 267 319
#     4  10  20  33  49  71 102 137 174 221 273 320
#     4  11  22  37  57  78 107 143 174 216 271 318
#     4  11  21  34  53  74 101 139 180 219 264 315
#
# _framework density 16.857427999999999
#
# number of rings (size 3 to 8) (size 9 to 14) (size 15 to 20)
#    0.000    1.857    2.857    1.286    0.000    4.571 
#    0.000    7.143    0.000    0.429    0.000    2.000 
#    0.000    0.000    0.000   12.286    0.000    0.286 
#
# Total GULP energy -312252.961793 kJ/mol
# GULP energy per Si atom -5575.945746 kJ/mol
# Density = 1.681906 g / cm^3
# Si number density = 16.857428 Si / 1000 Ang^3
#
#
#
# Elastic Constant Matrix: (Units=GPa)
#
#
# Indices 1 2 3 4 5 6 
#
# 1 93.9270 44.5701 37.1121 0.0000 0.0000 0.0000
# 2 44.5701 92.8146 43.8543 0.0000 0.0000 0.0000
# 3 37.1121 43.8543 75.9233 0.0000 0.0000 0.0000
# 4 0.0000 0.0000 0.0000 4.6782 0.0000 0.0000
# 5 0.0000 0.0000 0.0000 0.0000 26.3660 0.0000
# 6 0.0000 0.0000 0.0000 0.0000 0.0000 2.5798
#
#
#
# Elastic Compliance Matrix: (Units=1/GPa)
#
#
# Indices 1 2 3 4 5 6 
#
# 1 0.014737 -0.005052 -0.004286 0.000000 0.000000 0.000000
# 2 -0.005052 0.016550 -0.007090 0.000000 0.000000 0.000000
# 3 -0.004286 -0.007090 0.019361 0.000000 0.000000 0.000000
# 4 0.000000 0.000000 0.000000 0.213758 0.000000 0.000000
# 5 0.000000 0.000000 0.000000 0.000000 0.037928 0.000000
# 6 0.000000 0.000000 0.000000 0.000000 0.000000 0.387632
#
#
# Mechanical properties :
#
#
# Convention : Reuss Voigt Hill
#
# Bulk Modulus (GPa) = 56.20086 57.08199 56.64143
# Shear Modulus (GPa) = 6.86104 15.86667 11.36385
#
# Velocity S-wave (km/s) = 2.01962 3.07127 2.59919
# Velocity P-wave (km/s) = 6.23296 6.81998 6.53307
#
# Compressibility (1/GPa) = 0.01779332
#
# Stress axis : x y z
#
# Youngs Moduli (GPa) = 67.85591 60.42218 51.64909
#
# Poissons Ratio (x) = 0.30525 0.22135
# Poissons Ratio (y) = 0.34280 0.36620
# Poissons Ratio (z) = 0.29080 0.42840
#
# Static dielectric constant tensor:
#      x y z
#    x 1.597940 0.000000 0.000000 
#    y 0.000000 1.546300 0.000000 
#    z 0.000000 0.000000 1.574250 
# 
# From -- ./inp_files/23810.got.cif
#   From: 2010.05.17/outbox.cif.g08.bks.cpg/sg47_12_cif.got.tgz:23810.got - 2010.06.03 20:15:42.
