data_PCOD9385049
_publ_section_title
;
Structure prediction by ZEFSAII (Michael W. Deem and Ramdas Pophale) SiO2 
 PCOD9385049
Probable space group: P M M M
;
_chemical_formula_sum "Si O2"
_cell_formula_units_Z 44
_cell_length_a 14.192019
_cell_length_b 11.999280
_cell_length_c 15.266810
_cell_angle_alpha 90.000000
_cell_angle_beta 90.000000
_cell_angle_gamma 90.000000
_cell_volume 2599.846291
_symmetry_space_group_name_H-M "P M M M"
_symmetry_group_IT_number 47
_symmetry_cell_setting 'orthorhombic'
loop_
_space_group_symop_operation_xyz
x,y,z
-x,-y,z
x,-y,-z
-x,y,-z
-x,-y,-z
x,y,-z
-x,y,z
x,-y,z
loop_
_atom_site_type_symbol
_atom_site_label
_atom_site_fract_x
_atom_site_fract_y
_atom_site_fract_z
Si Si1 0.391092 0.635033 0.597102
Si Si2 0.114685 0.000000 0.398144
Si Si3 0.389240 0.245804 0.894360
Si Si4 0.113763 0.375524 0.500000
Si Si5 0.614256 0.000000 0.101130
Si Si6 0.887030 0.238199 0.675070
Si Si7 0.263999 0.367662 0.762728
O O1 0.358661 0.671628 0.500000
O O2 0.500000 0.670340 0.608368
O O3 0.391437 0.500000 0.596422
O O4 0.327716 0.667427 0.678896
O O5 0.141968 0.887946 0.347475
O O6 0.146384 0.000000 0.500000
O O7 0.000000 0.000000 0.402071
O O8 0.500000 0.263111 0.873407
O O9 0.324010 0.335168 0.847507
O O10 0.359878 0.121092 0.862136
O O11 0.381597 0.248314 0.000000
O O12 0.154720 0.500000 0.500000
O O13 0.136370 0.310014 0.411966
O O14 0.000000 0.383939 0.500000
O O15 0.500000 0.000000 0.099162
O O16 0.646372 0.000000 0.000000
O O17 0.831030 0.296642 0.753066
O O18 0.000000 0.241212 0.687549
O O19 0.246065 0.500000 0.758323
#
# Coordination Sequence:
#
# PCOD9385049 Si02
#       7
#     8   4   8   4   4   8   8
#     4   8  15  28  43  60  89 129 166 197 232 281
#     4   9  16  31  52  72  96 130 174 222 266 301
#     4   9  18  34  56  79 102 129 165 214 265 307
#     4   9  16  27  45  67  92 125 161 196 241 290
#     4   7  12  27  52  78 100 123 155 200 256 308
#     4  10  20  33  49  70  98 132 170 214 258 298
#     4  11  22  31  46  73 103 135 171 208 249 307
#
# _framework density 16.924077
#
# number of rings (size 3 to 8) (size 9 to 14) (size 15 to 20)
#    0.000    2.818    0.909    2.727    1.273    3.273 
#    0.000    0.909    0.000    0.545    0.000    1.273 
#    0.000   10.909    0.000    0.000    0.000    0.000 
#
# Total GULP energy -245097.076114 kJ/mol
# GULP energy per Si atom -5570.388093 kJ/mol
# Density = 1.688556 g / cm^3
# Si number density = 16.924077 Si / 1000 Ang^3
#
#
#
# Elastic Constant Matrix: (Units=GPa)
#
#
# Indices 1 2 3 4 5 6 
#
# 1 56.6233 32.4804 26.7584 0.0000 0.0000 0.0000
# 2 32.4804 106.7671 23.4871 0.0000 0.0000 0.0000
# 3 26.7584 23.4871 38.2193 0.0000 0.0000 0.0000
# 4 0.0000 0.0000 0.0000 22.4341 0.0000 0.0000
# 5 0.0000 0.0000 0.0000 0.0000 22.3552 0.0000
# 6 0.0000 0.0000 0.0000 0.0000 0.0000 19.5388
#
#
#
# Elastic Compliance Matrix: (Units=1/GPa)
#
#
# Indices 1 2 3 4 5 6 
#
# 1 0.028487 -0.004948 -0.016904 0.000000 0.000000 0.000000
# 2 -0.004948 0.011690 -0.003720 0.000000 0.000000 0.000000
# 3 -0.016904 -0.003720 0.040286 0.000000 0.000000 0.000000
# 4 0.000000 0.000000 0.000000 0.044575 0.000000 0.000000
# 5 0.000000 0.000000 0.000000 0.000000 0.044732 0.000000
# 6 0.000000 0.000000 0.000000 0.000000 0.000000 0.051180
#
#
# Mechanical properties :
#
#
# Convention : Reuss Voigt Hill
#
# Bulk Modulus (GPa) = 34.10695 40.78459 37.44577
# Shear Modulus (GPa) = 17.73896 20.79121 19.26509
#
# Velocity S-wave (km/s) = 3.24103 3.50880 3.37757
# Velocity P-wave (km/s) = 5.84828 6.36918 6.11428
#
# Compressibility (1/GPa) = 0.02931954
#
# Stress axis : x y z
#
# Youngs Moduli (GPa) = 35.10388 85.54608 24.82276
#
# Poissons Ratio (x) = 0.42325 0.41960
# Poissons Ratio (y) = 0.17368 0.09233
# Poissons Ratio (z) = 0.59339 0.31821
#
# Static dielectric constant tensor:
#      x y z
#    x 1.595240 0.000000 0.000000 
#    y 0.000000 1.592650 0.000000 
#    z 0.000000 0.000000 1.577070 
# 
# From -- ./inp_files/23534.got.cif
#   From: 2010.05.17/outbox.cif.g08.bks.cpg/sg47_12_cif.got.tgz:23534.got - 2010.06.03 20:15:42.
