data_PCOD9385321
_publ_section_title
;
Structure prediction by ZEFSAII (Michael W. Deem and Ramdas Pophale) SiO2 
 PCOD9385321
Probable space group: P M M M
;
_chemical_formula_sum "Si O2"
_cell_formula_units_Z 64
_cell_length_a 7.530940
_cell_length_b 19.325898
_cell_length_c 20.934936
_cell_angle_alpha 90.000000
_cell_angle_beta 90.000000
_cell_angle_gamma 90.000000
_cell_volume 3046.916188
_symmetry_space_group_name_H-M "P M M M"
_symmetry_group_IT_number 47
_symmetry_cell_setting 'orthorhombic'
loop_
_space_group_symop_operation_xyz
x,y,z
-x,-y,z
x,-y,-z
-x,y,-z
-x,-y,-z
x,y,-z
-x,y,z
x,-y,z
loop_
_atom_site_type_symbol
_atom_site_label
_atom_site_fract_x
_atom_site_fract_y
_atom_site_fract_z
Si Si1 0.209756 0.328917 0.194142
Si Si2 0.288347 0.326556 0.572263
Si Si3 0.211417 0.168266 0.571862
Si Si4 0.789679 0.422206 0.690905
Si Si5 0.782414 0.827922 0.810949
Si Si6 0.285723 0.420973 0.927566
Si Si7 0.782637 0.079490 0.309584
Si Si8 0.216473 0.078825 0.927583
O O1 0.285226 0.376247 0.251076
O O2 0.280947 0.250967 0.192715
O O3 0.229079 0.368211 0.126982
O O4 0.000000 0.321454 0.206957
O O5 0.219201 0.338505 0.500000
O O6 0.500000 0.329545 0.569536
O O7 0.238490 0.248211 0.591269
O O8 0.229997 0.381601 0.624568
O O9 0.284239 0.159746 0.500000
O O10 0.279182 0.115884 0.625181
O O11 0.000000 0.157426 0.568250
O O12 0.716079 0.500000 0.688574
O O13 0.000000 0.428451 0.702744
O O14 0.728565 0.873484 0.750152
O O15 0.723991 0.866614 0.875210
O O16 0.000000 0.827333 0.811717
O O17 0.500000 0.421507 0.928031
O O18 0.227235 0.500000 0.913251
O O19 0.227187 0.403729 0.000000
O O20 0.000000 0.079401 0.310002
O O21 0.726169 0.000000 0.303995
O O22 0.000000 0.079249 0.927439
O O23 0.269595 0.000000 0.911605
O O24 0.273043 0.094194 0.000000
#
# Coordination Sequence:
#
# PCOD9385321 Si02
#       8
#     8   8   8   8   8   8   8   8
#     4  10  20  33  51  76 104 132 164 205 250 296
#     4  10  21  36  54  76 101 130 167 210 252 298
#     4   9  17  30  49  72  99 130 161 197 245 298
#     4  10  21  36  53  74 102 134 166 203 252 309
#     4   9  16  25  39  62  93 125 155 192 239 285
#     4   9  19  36  55  74  99 132 168 206 250 300
#     4   9  16  26  43  67  94 126 164 203 242 288
#     4   8  13  21  33  51  81 122 159 186 219 269
#
# _framework density 21.004845
#
# number of rings (size 3 to 8) (size 9 to 14) (size 15 to 20)
#    0.000    2.750    0.000    2.625    0.000    7.000 
#    0.000    4.375    0.000    0.375    0.000    1.750 
#    0.000    1.500    0.000    6.875    0.000    5.250 
#
# Total GULP energy -357333.106510 kJ/mol
# GULP energy per Si atom -5583.329789 kJ/mol
# Density = 2.095704 g / cm^3
# Si number density = 21.004845 Si / 1000 Ang^3
#
#
#
# Elastic Constant Matrix: (Units=GPa)
#
#
# Indices 1 2 3 4 5 6 
#
# 1 51.5286 2.1956 -0.9954 0.0000 0.0000 0.0000
# 2 2.1956 217.8580 143.8078 0.0000 0.0000 0.0000
# 3 -0.9954 143.8078 148.0238 0.0000 0.0000 0.0000
# 4 0.0000 0.0000 0.0000 40.0754 0.0000 0.0000
# 5 0.0000 0.0000 0.0000 0.0000 5.7706 0.0000
# 6 0.0000 0.0000 0.0000 0.0000 0.0000 -484.7925
#
#
#
# Elastic Compliance Matrix: (Units=1/GPa)
#
#
# Indices 1 2 3 4 5 6 
#
# 1 0.019458 -0.000787 0.000896 0.000000 0.000000 0.000000
# 2 -0.000787 0.012828 -0.012468 0.000000 0.000000 0.000000
# 3 0.000896 -0.012468 0.018875 0.000000 0.000000 0.000000
# 4 0.000000 0.000000 0.000000 0.024953 0.000000 0.000000
# 5 0.000000 0.000000 0.000000 0.000000 0.173291 0.000000
# 6 0.000000 0.000000 0.000000 0.000000 0.000000 -0.002063
#
#
# Mechanical properties :
#
#
# Convention : Reuss Voigt Hill
#
# Bulk Modulus (GPa) = 37.81999 78.60292 58.21146
# Shear Modulus (GPa) = 17.80145 -69.62914 -25.91384
#
# Velocity S-wave (km/s) = 2.91433 -5.76377 -3.51623
# Velocity P-wave (km/s) = 5.41931 2.60618 3.35982
#
# Compressibility (1/GPa) = 0.02644105
#
# Stress axis : x y z
#
# Youngs Moduli (GPa) = 51.39393 77.95205 52.98048
#
# Poissons Ratio (x) = 0.06139 -0.04747
# Poissons Ratio (y) = 0.04047 0.66058
# Poissons Ratio (z) = -0.04604 0.97193
#
# Static dielectric constant tensor:
#      x y z
#    x 1.784490 0.000000 0.000000 
#    y 0.000000 1.720560 0.000000 
#    z 0.000000 0.000000 1.729540 
# 
# From -- ./inp_files/28771.got.cif
#   From: 2010.05.17/outbox.cif.g08.bks.cpg/sg47_15_cif.got.tgz:28771.got - 2010.06.03 20:15:42.
