data_PCOD9385448
_publ_section_title
;
Structure prediction by ZEFSAII (Michael W. Deem and Ramdas Pophale) SiO2 
 PCOD9385448
Probable space group: P M M M
;
_chemical_formula_sum "Si O2"
_cell_formula_units_Z 64
_cell_length_a 19.304504
_cell_length_b 20.847404
_cell_length_c 7.826017
_cell_angle_alpha 90.000000
_cell_angle_beta 90.000000
_cell_angle_gamma 90.000000
_cell_volume 3149.571103
_symmetry_space_group_name_H-M "P M M M"
_symmetry_group_IT_number 47
_symmetry_cell_setting 'orthorhombic'
loop_
_space_group_symop_operation_xyz
x,y,z
-x,-y,z
x,-y,-z
-x,y,-z
-x,-y,-z
x,y,-z
-x,y,z
x,-y,z
loop_
_atom_site_type_symbol
_atom_site_label
_atom_site_fract_x
_atom_site_fract_y
_atom_site_fract_z
Si Si1 0.324908 0.690599 0.795157
Si Si2 0.921888 0.815261 0.702878
Si Si3 0.831740 0.693909 0.201135
Si Si4 0.577826 0.195777 0.204092
Si Si5 0.421632 0.573293 0.293817
Si Si6 0.920783 0.572894 0.706673
Si Si7 0.336100 0.072645 0.706327
Si Si8 0.178028 0.926826 0.708837
O O1 0.246450 0.693233 0.727789
O O2 0.371645 0.748946 0.726624
O O3 0.364835 0.624376 0.761558
O O4 0.320309 0.697519 0.000000
O O5 0.927796 0.826299 0.500000
O O6 0.879965 0.749530 0.724453
O O7 0.875975 0.874087 0.772164
O O8 0.000000 0.811477 0.773111
O O9 0.867987 0.625644 0.228957
O O10 0.827994 0.706623 0.000000
O O11 0.500000 0.200293 0.273828
O O12 0.611333 0.126597 0.234584
O O13 0.573789 0.205211 0.000000
O O14 0.422465 0.572785 0.500000
O O15 0.500000 0.591040 0.236466
O O16 0.407883 0.500000 0.237166
O O17 0.919826 0.574202 0.500000
O O18 0.904616 0.500000 0.760483
O O19 0.000000 0.587541 0.760107
O O20 0.336237 0.072489 0.500000
O O21 0.257143 0.087756 0.761859
O O22 0.352660 0.000000 0.762892
O O23 0.177935 0.925689 0.500000
O O24 0.161610 0.000000 0.759438
#
# Coordination Sequence:
#
# PCOD9385448 Si02
#       8
#     8   8   8   8   8   8   8   8
#     4  10  22  38  54  75 104 138 177 217 256 303
#     4  10  20  33  52  78 105 135 173 215 258 307
#     4  11  23  36  52  76 106 139 174 214 259 306
#     4  10  21  36  53  73  99 132 170 212 255 299
#     4   9  19  36  57  82 110 137 168 208 254 306
#     4   9  19  37  59  80 103 134 172 212 255 306
#     4   9  18  33  53  76 102 133 168 206 251 305
#     4   8  15  30  52  77 104 133 167 209 255 301
#
# _framework density 20.320226000000002
#
# number of rings (size 3 to 8) (size 9 to 14) (size 15 to 20)
#    0.000    2.500    0.000    3.375    0.000    6.250 
#    0.000    6.250    0.000    1.125    0.000    0.875 
#    0.000    0.000    0.000    0.000    0.000    0.000 
#
# Total GULP energy -357301.311568 kJ/mol
# GULP energy per Si atom -5582.832993 kJ/mol
# Density = 2.027398 g / cm^3
# Si number density = 20.320226 Si / 1000 Ang^3
#
#
#
# Elastic Constant Matrix: (Units=GPa)
#
#
# Indices 1 2 3 4 5 6 
#
# 1 166.6373 97.2158 1.9027 0.0000 0.0000 0.0000
# 2 97.2158 109.0461 -7.1870 0.0000 0.0000 0.0000
# 3 1.9027 -7.1870 20.8033 0.0000 0.0000 0.0000
# 4 0.0000 0.0000 0.0000 24.5044 0.0000 0.0000
# 5 0.0000 0.0000 0.0000 0.0000 14.9498 0.0000
# 6 0.0000 0.0000 0.0000 0.0000 0.0000 39.4727
#
#
#
# Elastic Compliance Matrix: (Units=1/GPa)
#
#
# Indices 1 2 3 4 5 6 
#
# 1 0.013060 -0.011995 -0.005338 0.000000 0.000000 0.000000
# 2 -0.011995 0.020401 0.008145 0.000000 0.000000 0.000000
# 3 -0.005338 0.008145 0.051371 0.000000 0.000000 0.000000
# 4 0.000000 0.000000 0.000000 0.040809 0.000000 0.000000
# 5 0.000000 0.000000 0.000000 0.000000 0.066891 0.000000
# 6 0.000000 0.000000 0.000000 0.000000 0.000000 0.025334
#
#
# Mechanical properties :
#
#
# Convention : Reuss Voigt Hill
#
# Bulk Modulus (GPa) = 15.04763 53.37222 34.20992
# Shear Modulus (GPa) = 19.35035 29.42239 24.38637
#
# Velocity S-wave (km/s) = 3.08924 3.80930 3.46801
# Velocity P-wave (km/s) = 4.48841 6.75798 5.73656
#
# Compressibility (1/GPa) = 0.06645566
#
# Stress axis : x y z
#
# Youngs Moduli (GPa) = 76.57149 49.01803 19.46606
#
# Poissons Ratio (x) = 0.58796 0.10392
# Poissons Ratio (y) = 0.91845 -0.15855
# Poissons Ratio (z) = 0.40876 -0.39925
#
# Static dielectric constant tensor:
#      x y z
#    x 1.717570 0.000000 0.000000 
#    y 0.000000 1.690250 0.000000 
#    z 0.000000 0.000000 1.761660 
# 
# From -- ./inp_files/9910.got.cif
#   From: 2010.05.17/outbox.cif.g08.bks.cpg/sg47_5_cif.got.tgz:9910.got - 2010.06.03 20:15:42.
