data_PCOD9385508
_publ_section_title
;
Structure prediction by ZEFSAII (Michael W. Deem and Ramdas Pophale) SiO2 
 PCOD9385508
Probable space group: P M M M
;
_chemical_formula_sum "Si O2"
_cell_formula_units_Z 52
_cell_length_a 30.520443
_cell_length_b 9.116884
_cell_length_c 10.436350
_cell_angle_alpha 90.000000
_cell_angle_beta 90.000000
_cell_angle_gamma 90.000000
_cell_volume 2903.928356
_symmetry_space_group_name_H-M "P M M M"
_symmetry_group_IT_number 47
_symmetry_cell_setting 'orthorhombic'
loop_
_space_group_symop_operation_xyz
x,y,z
-x,-y,z
x,-y,-z
-x,y,-z
-x,-y,-z
x,y,-z
-x,y,z
x,-y,z
loop_
_atom_site_type_symbol
_atom_site_label
_atom_site_fract_x
_atom_site_fract_y
_atom_site_fract_z
Si Si1 0.367420 0.326529 0.640437
Si Si2 0.948007 0.175374 0.647172
Si Si3 0.552719 0.335353 0.000000
Si Si4 0.793640 0.832417 0.155151
Si Si5 0.550594 0.824830 0.263810
Si Si6 0.115767 0.324336 0.849128
Si Si7 0.703187 0.323400 0.850775
O O1 0.346694 0.307311 0.500000
O O2 0.376485 0.500000 0.657646
O O3 0.412986 0.240772 0.644484
O O4 0.335413 0.279195 0.754603
O O5 0.936045 0.215574 0.500000
O O6 0.920511 0.259158 0.754333
O O7 0.000000 0.202683 0.661908
O O8 0.941174 0.000000 0.660411
O O9 0.562953 0.245518 0.873157
O O10 0.571891 0.500000 0.000000
O O11 0.500000 0.348972 0.000000
O O12 0.837348 0.744154 0.189816
O O13 0.748681 0.751410 0.190127
O O14 0.795050 0.000000 0.201822
O O15 0.793403 0.836310 0.000000
O O16 0.500000 0.784182 0.293805
O O17 0.552613 0.000000 0.258429
O O18 0.117334 0.500000 0.840270
O O19 0.107716 0.286770 0.000000
O O20 0.707880 0.500000 0.844267
O O21 0.693884 0.285760 0.000000
#
# Coordination Sequence:
#
# PCOD9385508 Si02
#       7
#     8   8   4   8   8   8   8
#     4  10  22  38  55  78 108 141 178 220 265 315
#     4   9  19  36  55  75 104 144 188 232 277 326
#     4   9  17  31  53  79 105 133 167 209 255 301
#     4   9  17  31  53  80 107 136 174 220 269 320
#     4  10  21  36  54  78 108 140 175 217 265 313
#     4  10  20  33  52  80 112 144 180 225 274 323
#     4   9  18  34  56  79 103 134 173 218 268 321
#
# _framework density 17.906777999999999
#
# number of rings (size 3 to 8) (size 9 to 14) (size 15 to 20)
#    0.000    2.538    0.000    2.077    1.077    6.769 
#    0.000    4.615    0.000    2.769    0.000    0.000 
#    0.000    0.000    0.000    0.000    0.000    0.000 
#
# Total GULP energy -289965.859056 kJ/mol
# GULP energy per Si atom -5576.266520 kJ/mol
# Density = 1.786602 g / cm^3
# Si number density = 17.906778 Si / 1000 Ang^3
#
#
#
# Elastic Constant Matrix: (Units=GPa)
#
#
# Indices 1 2 3 4 5 6 
#
# 1 115.6188 58.0636 72.9499 0.0000 0.0000 0.0000
# 2 58.0636 60.7701 49.1341 0.0000 0.0000 0.0000
# 3 72.9499 49.1341 99.8356 0.0000 0.0000 0.0000
# 4 0.0000 0.0000 0.0000 17.0320 0.0000 0.0000
# 5 0.0000 0.0000 0.0000 0.0000 1.5026 0.0000
# 6 0.0000 0.0000 0.0000 0.0000 0.0000 31.5944
#
#
#
# Elastic Compliance Matrix: (Units=1/GPa)
#
#
# Indices 1 2 3 4 5 6 
#
# 1 0.020453 -0.012388 -0.008848 0.000000 0.000000 0.000000
# 2 -0.012388 0.034834 -0.008091 0.000000 0.000000 0.000000
# 3 -0.008848 -0.008091 0.020464 0.000000 0.000000 0.000000
# 4 0.000000 0.000000 0.000000 0.058713 0.000000 0.000000
# 5 0.000000 0.000000 0.000000 0.000000 0.665494 0.000000
# 6 0.000000 0.000000 0.000000 0.000000 0.000000 0.031651
#
#
# Mechanical properties :
#
#
# Convention : Reuss Voigt Hill
#
# Bulk Modulus (GPa) = 58.49530 70.72439 64.60984
# Shear Modulus (GPa) = 5.58058 16.43095 11.00576
#
# Velocity S-wave (km/s) = 1.76727 3.03245 2.48183
# Velocity P-wave (km/s) = 6.07468 7.20018 6.66125
#
# Compressibility (1/GPa) = 0.01709539
#
# Stress axis : x y z
#
# Youngs Moduli (GPa) = 48.89153 28.70741 48.86578
#
# Poissons Ratio (x) = 0.35564 0.43238
# Poissons Ratio (y) = 0.60569 0.39540
# Poissons Ratio (z) = 0.43261 0.23229
#
# Static dielectric constant tensor:
#      x y z
#    x 1.599460 0.000000 0.000000 
#    y 0.000000 1.601740 0.000000 
#    z 0.000000 0.000000 1.619640 
# 
# From -- ./inp_files/19798.got.cif
#   From: 2010.05.17/outbox.cif.g08.bks.cpg/sg47_10_cif.got.tgz:19798.got - 2010.06.03 20:15:42.
