data_PCOD9385545
_publ_section_title
;
Structure prediction by ZEFSAII (Michael W. Deem and Ramdas Pophale) SiO2 
 PCOD9385545
Probable space group: P M M M
;
_chemical_formula_sum "Si O2"
_cell_formula_units_Z 48
_cell_length_a 17.643452
_cell_length_b 8.806550
_cell_length_c 17.556148
_cell_angle_alpha 90.000000
_cell_angle_beta 90.000000
_cell_angle_gamma 90.000000
_cell_volume 2727.838149
_symmetry_space_group_name_H-M "P M M M"
_symmetry_group_IT_number 47
_symmetry_cell_setting 'orthorhombic'
loop_
_space_group_symop_operation_xyz
x,y,z
-x,-y,z
x,-y,-z
-x,y,-z
-x,-y,-z
x,y,-z
-x,y,z
x,-y,z
loop_
_atom_site_type_symbol
_atom_site_label
_atom_site_fract_x
_atom_site_fract_y
_atom_site_fract_z
Si Si1 0.000000 0.183635 0.625329
Si Si2 0.414001 0.816778 0.629436
Si Si3 0.128638 0.683172 0.086485
Si Si4 0.000000 0.683740 0.205069
Si Si5 0.122563 0.184711 0.500000
Si Si6 0.413795 0.681191 0.796828
Si Si7 0.294917 0.181042 0.087026
Si Si8 0.702749 0.814697 0.500000
O O1 0.073423 0.229177 0.574473
O O2 0.000000 0.249877 0.710093
O O3 0.000000 0.000000 0.629978
O O4 0.500000 0.776949 0.603274
O O5 0.402727 0.747140 0.712454
O O6 0.347566 0.767838 0.572579
O O7 0.411537 0.000000 0.634333
O O8 0.132773 0.500000 0.087850
O O9 0.211380 0.751581 0.099044
O O10 0.071863 0.730241 0.153340
O O11 0.103561 0.725551 0.000000
O O12 0.000000 0.500000 0.210352
O O13 0.209841 0.237115 0.500000
O O14 0.123677 0.000000 0.500000
O O15 0.500000 0.719990 0.820145
O O16 0.406807 0.500000 0.794642
O O17 0.353859 0.750208 0.854347
O O18 0.292033 0.000000 0.094807
O O19 0.317088 0.218211 0.000000
O O20 0.704594 0.000000 0.500000
#
# Coordination Sequence:
#
# PCOD9385545 Si02
#       8
#     4   8   8   4   4   8   8   4
#     4   9  18  33  51  70  96 130 165 206 253 296
#     4   9  17  30  49  74 103 131 163 209 259 302
#     4   9  18  34  54  75 104 140 172 204 248 304
#     4  10  20  33  53  81 106 132 170 211 250 298
#     4   8  16  32  50  68  94 128 166 205 246 296
#     4  10  21  36  53  74 103 140 178 214 256 307
#     4  10  21  36  54  77 104 134 171 217 265 307
#     4   9  16  28  51  78  98 126 169 209 250 305
#
# _framework density 17.596352
#
# number of rings (size 3 to 8) (size 9 to 14) (size 15 to 20)
#    0.000    2.667    0.000    2.000    0.000    6.333 
#    0.000    4.583    0.000    5.500    0.000    0.000 
#    0.000    0.000    0.000    0.000    0.000    0.000 
#
# Total GULP energy -267650.473091 kJ/mol
# GULP energy per Si atom -5576.051523 kJ/mol
# Density = 1.755630 g / cm^3
# Si number density = 17.596352 Si / 1000 Ang^3
#
#
#
# Elastic Constant Matrix: (Units=GPa)
#
#
# Indices 1 2 3 4 5 6 
#
# 1 163.0572 36.4964 122.0940 0.0000 0.0000 0.0000
# 2 36.4964 11.8417 39.1814 0.0000 0.0000 0.0000
# 3 122.0940 39.1814 160.7175 0.0000 0.0000 0.0000
# 4 0.0000 0.0000 0.0000 20.2048 0.0000 0.0000
# 5 0.0000 0.0000 0.0000 0.0000 94.9708 0.0000
# 6 0.0000 0.0000 0.0000 0.0000 0.0000 16.3473
#
#
#
# Elastic Compliance Matrix: (Units=1/GPa)
#
#
# Indices 1 2 3 4 5 6 
#
# 1 0.019796 -0.058196 -0.000851 0.000000 0.000000 0.000000
# 2 -0.058196 0.607840 -0.103976 0.000000 0.000000 0.000000
# 3 -0.000851 -0.103976 0.032217 0.000000 0.000000 0.000000
# 4 0.000000 0.000000 0.000000 0.049493 0.000000 0.000000
# 5 0.000000 0.000000 0.000000 0.000000 0.010530 0.000000
# 6 0.000000 0.000000 0.000000 0.000000 0.000000 0.061172
#
#
# Mechanical properties :
#
#
# Convention : Reuss Voigt Hill
#
# Bulk Modulus (GPa) = 2.99573 81.24000 42.11786
# Shear Modulus (GPa) = 4.10387 35.49421 19.79904
#
# Velocity S-wave (km/s) = 1.52882 4.49612 3.35801
# Velocity P-wave (km/s) = 2.19603 8.55701 6.24680
#
# Compressibility (1/GPa) = 0.33380858
#
# Stress axis : x y z
#
# Youngs Moduli (GPa) = 50.51651 1.64517 31.03981
#
# Poissons Ratio (x) = 0.09574 0.02641
# Poissons Ratio (y) = 2.93983 3.22739
# Poissons Ratio (z) = 0.04298 0.17106
#
# Static dielectric constant tensor:
#      x y z
#    x 1.592070 0.000000 0.000000 
#    y 0.000000 1.585430 0.000000 
#    z 0.000000 0.000000 1.578670 
# 
# From -- ./inp_files/24522.got.cif
#   From: 2010.05.17/outbox.cif.g08.bks.cpg/sg47_13_cif.got.tgz:24522.got - 2010.06.03 20:15:42.
