data_PCOD9385315
_publ_section_title
;
Structure prediction by ZEFSAII (Michael W. Deem and Ramdas Pophale) SiO2 
 PCOD9385315
Probable space group: P M M M
;
_chemical_formula_sum "Si O2"
_cell_formula_units_Z 44
_cell_length_a 7.627814
_cell_length_b 29.526708
_cell_length_c 9.492573
_cell_angle_alpha 90.000000
_cell_angle_beta 90.000000
_cell_angle_gamma 90.000000
_cell_volume 2137.957508
_symmetry_space_group_name_H-M "P M M M"
_symmetry_group_IT_number 47
_symmetry_cell_setting 'orthorhombic'
loop_
_space_group_symop_operation_xyz
x,y,z
-x,-y,z
x,-y,-z
-x,y,-z
-x,-y,-z
x,y,-z
-x,y,z
x,-y,z
loop_
_atom_site_type_symbol
_atom_site_label
_atom_site_fract_x
_atom_site_fract_y
_atom_site_fract_z
Si Si1 0.710302 0.087287 0.339121
Si Si2 0.710470 0.549367 0.160667
Si Si3 0.211009 0.823400 0.839715
Si Si4 0.285218 0.000000 0.163087
Si Si5 0.209720 0.362835 0.341265
Si Si6 0.786038 0.737382 0.664089
O O1 0.777565 0.087827 0.500000
O O2 0.500000 0.082804 0.347605
O O3 0.748126 0.133379 0.256221
O O4 0.773389 0.044543 0.247724
O O5 0.500000 0.547433 0.155922
O O6 0.771638 0.500000 0.215914
O O7 0.753928 0.593586 0.248421
O O8 0.774384 0.553831 0.000000
O O9 0.276293 0.777831 0.763209
O O10 0.000000 0.820091 0.846911
O O11 0.276480 0.828375 0.000000
O O12 0.500000 0.000000 0.161713
O O13 0.229109 0.000000 0.000000
O O14 0.277477 0.369642 0.500000
O O15 0.271292 0.313192 0.291108
O O16 0.000000 0.359116 0.349429
O O17 0.735860 0.744031 0.500000
O O18 0.000000 0.738394 0.666899
#
# Coordination Sequence:
#
# PCOD9385315 Si02
#       6
#     8   8   8   4   8   8
#     4  10  20  34  53  76 101 131 168 206 244 291
#     4   9  19  35  51  68  95 131 167 201 240 289
#     4  10  20  33  51  76 103 131 165 204 246 292
#     4   9  17  31  52  75 100 131 164 202 250 297
#     4   9  18  32  51  76 101 124 157 202 246 289
#     4   8  15  30  50  70  96 130 163 196 239 291
#
# _framework density 20.580390000000001
#
# number of rings (size 3 to 8) (size 9 to 14) (size 15 to 20)
#    0.000    2.818    0.000    3.000    0.000    5.455 
#    0.000    5.909    0.000    3.818    0.000    0.000 
#    0.000    0.000    0.000    0.000    0.000    0.000 
#
# Total GULP energy -245476.682272 kJ/mol
# GULP energy per Si atom -5579.015506 kJ/mol
# Density = 2.053355 g / cm^3
# Si number density = 20.580390 Si / 1000 Ang^3
#
#
#
# Elastic Constant Matrix: (Units=GPa)
#
#
# Indices 1 2 3 4 5 6 
#
# 1 37.6683 4.4709 6.5954 0.0000 0.0000 0.0000
# 2 4.4709 246.6143 142.9445 0.0000 0.0000 0.0000
# 3 6.5954 142.9445 169.5127 0.0000 0.0000 0.0000
# 4 0.0000 0.0000 0.0000 52.0303 0.0000 0.0000
# 5 0.0000 0.0000 0.0000 0.0000 17.7783 0.0000
# 6 0.0000 0.0000 0.0000 0.0000 0.0000 26.5207
#
#
#
# Elastic Compliance Matrix: (Units=1/GPa)
#
#
# Indices 1 2 3 4 5 6 
#
# 1 0.026736 0.000231 -0.001235 0.000000 0.000000 0.000000
# 2 0.000231 0.007934 -0.006699 0.000000 0.000000 0.000000
# 3 -0.001235 -0.006699 0.011597 0.000000 0.000000 0.000000
# 4 0.000000 0.000000 0.000000 0.019220 0.000000 0.000000
# 5 0.000000 0.000000 0.000000 0.000000 0.056248 0.000000
# 6 0.000000 0.000000 0.000000 0.000000 0.000000 0.037706
#
#
# Mechanical properties :
#
#
# Convention : Reuss Voigt Hill
#
# Bulk Modulus (GPa) = 32.40423 84.64633 58.52528
# Shear Modulus (GPa) = 27.00735 39.25147 33.12941
#
# Velocity S-wave (km/s) = 3.62648 4.37192 4.01653
# Velocity P-wave (km/s) = 5.77187 8.16724 7.07171
#
# Compressibility (1/GPa) = 0.03086017
#
# Stress axis : x y z
#
# Youngs Moduli (GPa) = 37.40223 126.04205 86.23155
#
# Poissons Ratio (x) = -0.02916 0.10652
# Poissons Ratio (y) = -0.00865 0.57770
# Poissons Ratio (z) = 0.04620 0.84440
#
# Static dielectric constant tensor:
#      x y z
#    x 1.789570 0.000000 0.000000 
#    y 0.000000 1.724920 0.000000 
#    z 0.000000 0.000000 1.714880 
# 
# From -- ./inp_files/2062.got.cif
#   From: 2010.05.17/outbox.cif.g08.bks.cpg/sg47_2_cif.got.tgz:2062.got - 2010.06.03 20:15:42.
