data_PCOD9385967
_publ_section_title
;
Structure prediction by ZEFSAII (Michael W. Deem and Ramdas Pophale) SiO2 
 PCOD9385967
Probable space group: P M M M
;
_chemical_formula_sum "Si O2"
_cell_formula_units_Z 40
_cell_length_a 9.279023
_cell_length_b 28.634815
_cell_length_c 7.509299
_cell_angle_alpha 90.000000
_cell_angle_beta 90.000000
_cell_angle_gamma 90.000000
_cell_volume 1995.244076
_symmetry_space_group_name_H-M "P M M M"
_symmetry_group_IT_number 47
_symmetry_cell_setting 'orthorhombic'
loop_
_space_group_symop_operation_xyz
x,y,z
-x,-y,z
x,-y,-z
-x,y,-z
-x,-y,-z
x,y,-z
-x,y,z
x,-y,z
loop_
_atom_site_type_symbol
_atom_site_label
_atom_site_fract_x
_atom_site_fract_y
_atom_site_fract_z
Si Si1 0.662843 0.593953 0.211986
Si Si2 0.665717 0.777732 0.782863
Si Si3 0.163007 0.500000 0.711760
Si Si4 0.824963 0.053023 0.500000
Si Si5 0.172050 0.127916 0.210075
Si Si6 0.833946 0.315053 0.781907
O O1 0.500000 0.590796 0.283368
O O2 0.750212 0.546368 0.237983
O O3 0.750019 0.638797 0.280003
O O4 0.651302 0.600723 0.000000
O O5 0.500000 0.776399 0.724843
O O6 0.744624 0.825545 0.731332
O O7 0.752522 0.731913 0.725204
O O8 0.666109 0.777113 0.000000
O O9 0.152809 0.500000 0.500000
O O10 0.000000 0.500000 0.785294
O O11 0.784356 0.083553 0.672201
O O12 0.000000 0.050693 0.500000
O O13 0.770739 0.000000 0.500000
O O14 0.000000 0.135426 0.232687
O O15 0.198365 0.120223 0.000000
O O16 0.000000 0.315508 0.725626
O O17 0.833989 0.315254 0.000000
#
# Coordination Sequence:
#
# PCOD9385967 Si02
#       6
#     8   8   4   4   8   8
#     4  10  20  34  54  80 106 133 170 215 262 314
#     4   9  16  27  46  73 104 136 169 207 253 306
#     4  11  24  39  54  72  98 135 176 217 264 316
#     4   9  18  32  51  77 107 137 175 224 269 310
#     4   9  17  30  50  75 103 137 176 217 264 317
#     4   9  16  27  47  76 107 136 167 207 256 309
#
# _framework density 20.047671999999999
#
# number of rings (size 3 to 8) (size 9 to 14) (size 15 to 20)
#    0.000    2.600    0.000    2.400    0.000    8.400 
#    0.000    2.500    2.200    1.200    0.000    2.800 
#    0.000    0.000    0.000    0.000    0.000    0.000 
#
# Total GULP energy -223373.777757 kJ/mol
# GULP energy per Si atom -5584.344444 kJ/mol
# Density = 2.000204 g / cm^3
# Si number density = 20.047672 Si / 1000 Ang^3
#
#
#
# Elastic Constant Matrix: (Units=GPa)
#
#
# Indices 1 2 3 4 5 6 
#
# 1 161.5639 120.5699 31.8011 0.0000 0.0000 0.0000
# 2 120.5699 240.8385 38.4194 0.0000 0.0000 0.0000
# 3 31.8011 38.4194 61.4788 0.0000 0.0000 0.0000
# 4 0.0000 0.0000 0.0000 114.8992 0.0000 0.0000
# 5 0.0000 0.0000 0.0000 0.0000 -0.2294 0.0000
# 6 0.0000 0.0000 0.0000 0.0000 0.0000 -7.7638
#
#
#
# Elastic Compliance Matrix: (Units=1/GPa)
#
#
# Indices 1 2 3 4 5 6 
#
# 1 0.010168 -0.004722 -0.002309 0.000000 0.000000 0.000000
# 2 -0.004722 0.006805 -0.001810 0.000000 0.000000 0.000000
# 3 -0.002309 -0.001810 0.018591 0.000000 0.000000 0.000000
# 4 0.000000 0.000000 0.000000 0.008703 0.000000 0.000000
# 5 0.000000 0.000000 0.000000 0.000000 -4.358852 0.000000
# 6 0.000000 0.000000 0.000000 0.000000 0.000000 -0.128803
#
#
# Mechanical properties :
#
#
# Convention : Reuss Voigt Hill
#
# Bulk Modulus (GPa) = 55.92046 93.94022 74.93034
# Shear Modulus (GPa) = -1.13129 39.58725 19.22798
#
# Velocity S-wave (km/s) = -0.75201 4.44853 3.10031
# Velocity P-wave (km/s) = 5.21539 8.56423 7.09036
#
# Compressibility (1/GPa) = 0.01788254
#
# Stress axis : x y z
#
# Youngs Moduli (GPa) = 98.35003 146.95456 53.78944
#
# Poissons Ratio (x) = 0.69391 0.12418
# Poissons Ratio (y) = 0.46441 0.09736
# Poissons Ratio (z) = 0.22705 0.26598
#
# Static dielectric constant tensor:
#      x y z
#    x 1.688120 0.000000 0.000000 
#    y 0.000000 1.668740 0.000000 
#    z 0.000000 0.000000 1.753750 
# 
# From -- ./inp_files/1844.got.cif
#   From: 2010.05.17/outbox.cif.g08.bks.cpg/sg47_1_cif.got.tgz:1844.got - 2010.06.03 20:15:42.
