data_PCOD9385018
_publ_section_title
;
Structure prediction by ZEFSAII (Michael W. Deem and Ramdas Pophale) SiO2 
 PCOD9385018
Probable space group: P M M M
;
_chemical_formula_sum "Si O2"
_cell_formula_units_Z 44
_cell_length_a 30.028525
_cell_length_b 9.420628
_cell_length_c 7.601898
_cell_angle_alpha 90.000000
_cell_angle_beta 90.000000
_cell_angle_gamma 90.000000
_cell_volume 2150.482403
_symmetry_space_group_name_H-M "P M M M"
_symmetry_group_IT_number 47
_symmetry_cell_setting 'orthorhombic'
loop_
_space_group_symop_operation_xyz
x,y,z
-x,-y,z
x,-y,-z
-x,y,-z
-x,-y,-z
x,y,-z
-x,y,z
x,-y,z
loop_
_atom_site_type_symbol
_atom_site_label
_atom_site_fract_x
_atom_site_fract_y
_atom_site_fract_z
Si Si1 0.047890 0.171777 0.209507
Si Si2 0.232399 0.339663 0.710249
Si Si3 0.500000 0.338252 0.208909
Si Si4 0.596900 0.662057 0.709293
Si Si5 0.144593 0.162934 0.787820
Si Si6 0.682138 0.836889 0.284163
O O1 0.096268 0.217793 0.277747
O O2 0.000000 0.221592 0.282173
O O3 0.048491 0.000000 0.226686
O O4 0.047087 0.202101 0.000000
O O5 0.237965 0.348605 0.500000
O O6 0.232298 0.500000 0.780450
O O7 0.186065 0.260344 0.742505
O O8 0.274136 0.247864 0.775688
O O9 0.500000 0.500000 0.283366
O O10 0.547554 0.275339 0.261336
O O11 0.500000 0.346231 0.000000
O O12 0.602842 0.651479 0.500000
O O13 0.598040 0.500000 0.780709
O O14 0.637454 0.756831 0.775607
O O15 0.151516 0.000000 0.726416
O O16 0.141624 0.157219 0.000000
O O17 0.682131 0.837175 0.500000
O O18 0.683287 0.000000 0.227978
#
# Coordination Sequence:
#
# PCOD9385018 Si02
#       6
#     8   8   4   8   8   8
#     4   7  10  19  38  64  91 117 147 186 231 276
#     4  10  20  33  49  69  94 126 162 196 233 281
#     4   9  17  29  46  69  96 124 152 181 216 262
#     4   9  16  28  48  71  92 116 150 189 224 261
#     4   9  17  29  47  72  98 122 152 193 239 284
#     4   9  17  30  49  71  92 116 151 195 237 274
#
# _framework density 20.460525000000001
#
# number of rings (size 3 to 8) (size 9 to 14) (size 15 to 20)
#    0.000    3.182    0.000    3.000    0.000    4.727 
#    0.000    1.364    0.000    7.636    0.000    6.364 
#    0.000    0.000    0.000    0.000    0.000    0.000 
#
# Total GULP energy -245196.437827 kJ/mol
# GULP energy per Si atom -5572.646314 kJ/mol
# Density = 2.041396 g / cm^3
# Si number density = 20.460525 Si / 1000 Ang^3
#
#
#
# Elastic Constant Matrix: (Units=GPa)
#
#
# Indices 1 2 3 4 5 6 
#
# 1 259.4966 109.5182 2.4937 0.0000 0.0000 0.0000
# 2 109.5182 111.3565 6.3297 0.0000 0.0000 0.0000
# 3 2.4937 6.3297 42.2758 0.0000 0.0000 0.0000
# 4 0.0000 0.0000 0.0000 28.0040 0.0000 0.0000
# 5 0.0000 0.0000 0.0000 0.0000 18.9711 0.0000
# 6 0.0000 0.0000 0.0000 0.0000 0.0000 39.2976
#
#
#
# Elastic Compliance Matrix: (Units=1/GPa)
#
#
# Indices 1 2 3 4 5 6 
#
# 1 0.006603 -0.006527 0.000588 0.000000 0.000000 0.000000
# 2 -0.006527 0.015510 -0.001937 0.000000 0.000000 0.000000
# 3 0.000588 -0.001937 0.023910 0.000000 0.000000 0.000000
# 4 0.000000 0.000000 0.000000 0.035709 0.000000 0.000000
# 5 0.000000 0.000000 0.000000 0.000000 0.052712 0.000000
# 6 0.000000 0.000000 0.000000 0.000000 0.000000 0.025447
#
#
# Mechanical properties :
#
#
# Convention : Reuss Voigt Hill
#
# Bulk Modulus (GPa) = 33.03717 72.20135 52.61926
# Shear Modulus (GPa) = 26.92049 36.90703 31.91376
#
# Velocity S-wave (km/s) = 3.63123 4.25174 3.95368
# Velocity P-wave (km/s) = 5.81059 7.71154 6.82755
#
# Compressibility (1/GPa) = 0.03026893
#
# Stress axis : x y z
#
# Youngs Moduli (GPa) = 151.45416 64.47620 41.82430
#
# Poissons Ratio (x) = 0.42084 -0.02458
# Poissons Ratio (y) = 0.98855 0.08102
# Poissons Ratio (z) = -0.08902 0.12490
#
# Static dielectric constant tensor:
#      x y z
#    x 1.759440 0.000000 0.000000 
#    y 0.000000 1.701710 0.000000 
#    z 0.000000 0.000000 1.787140 
# 
# From -- ./inp_files/1980.got.cif
#   From: 2010.05.17/outbox.cif.g08.bks.cpg/sg47_1_cif.got.tgz:1980.got - 2010.06.03 20:15:42.
