data_PCOD9385678
_publ_section_title
;
Structure prediction by ZEFSAII (Michael W. Deem and Ramdas Pophale) SiO2 
 PCOD9385678
Probable space group: P M M M
;
_chemical_formula_sum "Si O2"
_cell_formula_units_Z 64
_cell_length_a 14.572686
_cell_length_b 32.059834
_cell_length_c 8.850012
_cell_angle_alpha 90.000000
_cell_angle_beta 90.000000
_cell_angle_gamma 90.000000
_cell_volume 4134.706969
_symmetry_space_group_name_H-M "P M M M"
_symmetry_group_IT_number 47
_symmetry_cell_setting 'orthorhombic'
loop_
_space_group_symop_operation_xyz
x,y,z
-x,-y,z
x,-y,-z
-x,y,-z
-x,-y,-z
x,y,-z
-x,y,z
x,-y,z
loop_
_atom_site_type_symbol
_atom_site_label
_atom_site_fract_x
_atom_site_fract_y
_atom_site_fract_z
Si Si1 0.392275 0.201113 0.818234
Si Si2 0.392635 0.048333 0.818870
Si Si3 0.610598 0.455172 0.319439
Si Si4 0.715981 0.714079 0.180976
Si Si5 0.608478 0.363539 0.682820
Si Si6 0.105308 0.158992 0.180013
Si Si7 0.282174 0.123535 0.679535
Si Si8 0.105053 0.748818 0.680618
O O1 0.500000 0.202656 0.779751
O O2 0.342164 0.244363 0.777537
O O3 0.342404 0.162342 0.740479
O O4 0.384726 0.195982 0.000000
O O5 0.500000 0.056119 0.783438
O O6 0.329558 0.081211 0.734898
O O7 0.372652 0.000000 0.782179
O O8 0.382432 0.053347 0.000000
O O9 0.627844 0.455540 0.500000
O O10 0.500000 0.455026 0.302242
O O11 0.644309 0.500000 0.257763
O O12 0.641058 0.409685 0.263914
O O13 0.665412 0.673644 0.245164
O O14 0.817186 0.719846 0.248891
O O15 0.720228 0.712229 0.000000
O O16 0.615836 0.362139 0.500000
O O17 0.500000 0.359104 0.719058
O O18 0.181210 0.129236 0.250770
O O19 0.118075 0.204946 0.250799
O O20 0.000000 0.146265 0.209611
O O21 0.118510 0.161952 0.000000
O O22 0.277735 0.125226 0.500000
O O23 0.115407 0.750842 0.500000
O O24 0.000000 0.736081 0.714875
#
# Coordination Sequence:
#
# PCOD9385678 Si02
#       8
#     8   8   8   8   8   8   8   8
#     4  10  21  35  48  64  92 132 172 203 230 270
#     4   9  19  37  59  79 101 133 169 202 238 283
#     4   7  10  19  37  60  84 113 154 201 244 284
#     4  11  21  32  47  66  93 131 167 196 233 284
#     4   9  17  28  43  64  92 127 164 203 244 284
#     4  10  20  35  55  76  98 127 163 199 237 285
#     4  12  23  33  51  78 105 131 160 199 246 287
#     4  10  20  34  52  73  95 119 153 200 248 287
#
# _framework density 15.478726999999999
#
# number of rings (size 3 to 8) (size 9 to 14) (size 15 to 20)
#    0.000    2.250    1.250    4.500    0.000    5.000 
#    0.000    0.625    0.000    0.750    0.000    4.375 
#    0.000    0.500    0.000    5.750    0.000    1.875 
#
# Total GULP energy -356911.388821 kJ/mol
# GULP energy per Si atom -5576.740450 kJ/mol
# Density = 1.544350 g / cm^3
# Si number density = 15.478727 Si / 1000 Ang^3
#
#
#
# Elastic Constant Matrix: (Units=GPa)
#
#
# Indices 1 2 3 4 5 6 
#
# 1 105.3525 74.1876 50.4361 0.0000 0.0000 0.0000
# 2 74.1876 121.7620 50.3332 0.0000 0.0000 0.0000
# 3 50.4361 50.3332 45.5348 0.0000 0.0000 0.0000
# 4 0.0000 0.0000 0.0000 25.9738 0.0000 0.0000
# 5 0.0000 0.0000 0.0000 0.0000 19.3401 0.0000
# 6 0.0000 0.0000 0.0000 0.0000 0.0000 6.6380
#
#
#
# Elastic Compliance Matrix: (Units=1/GPa)
#
#
# Indices 1 2 3 4 5 6 
#
# 1 0.022549 -0.006287 -0.018027 0.000000 0.000000 0.000000
# 2 -0.006287 0.016876 -0.011690 0.000000 0.000000 0.000000
# 3 -0.018027 -0.011690 0.054851 0.000000 0.000000 0.000000
# 4 0.000000 0.000000 0.000000 0.038500 0.000000 0.000000
# 5 0.000000 0.000000 0.000000 0.000000 0.051706 0.000000
# 6 0.000000 0.000000 0.000000 0.000000 0.000000 0.150649
#
#
# Mechanical properties :
#
#
# Convention : Reuss Voigt Hill
#
# Bulk Modulus (GPa) = 44.90900 69.17367 57.04133
# Shear Modulus (GPa) = 12.06091 16.90319 14.48205
#
# Velocity S-wave (km/s) = 2.79443 3.30817 3.06209
# Velocity P-wave (km/s) = 6.28396 7.70574 7.03088
#
# Compressibility (1/GPa) = 0.02226725
#
# Stress axis : x y z
#
# Youngs Moduli (GPa) = 44.34724 59.25613 18.23128
#
# Poissons Ratio (x) = 0.37255 0.32865
# Poissons Ratio (y) = 0.27882 0.21313
# Poissons Ratio (z) = 0.79944 0.69273
#
# Static dielectric constant tensor:
#      x y z
#    x 1.506450 0.000000 0.000000 
#    y 0.000000 1.517100 0.000000 
#    z 0.000000 0.000000 1.516520 
# 
# From -- ./inp_files/8324.got.cif
#   From: 2010.05.17/outbox.cif.g08.bks.cpg/sg47_5_cif.got.tgz:8324.got - 2010.06.03 20:15:42.
