data_PCOD9385855
_publ_section_title
;
Structure prediction by ZEFSAII (Michael W. Deem and Ramdas Pophale) SiO2 
 PCOD9385855
Probable space group: P M M M
;
_chemical_formula_sum "Si O2"
_cell_formula_units_Z 48
_cell_length_a 31.896459
_cell_length_b 8.798165
_cell_length_c 9.185295
_cell_angle_alpha 90.000000
_cell_angle_beta 90.000000
_cell_angle_gamma 90.000000
_cell_volume 2577.672176
_symmetry_space_group_name_H-M "P M M M"
_symmetry_group_IT_number 47
_symmetry_cell_setting 'orthorhombic'
loop_
_space_group_symop_operation_xyz
x,y,z
-x,-y,z
x,-y,-z
-x,y,-z
-x,-y,-z
x,y,-z
-x,y,z
x,-y,z
loop_
_atom_site_type_symbol
_atom_site_label
_atom_site_fract_x
_atom_site_fract_y
_atom_site_fract_z
Si Si1 0.081189 0.182211 0.829181
Si Si2 0.162159 0.683776 0.670589
Si Si3 0.000000 0.682369 0.670985
Si Si4 0.500000 0.324263 0.823008
Si Si5 0.331898 0.683561 0.669512
Si Si6 0.247322 0.314794 0.167531
Si Si7 0.587841 0.818488 0.171052
O O1 0.123194 0.243764 0.754116
O O2 0.041107 0.252221 0.748660
O O3 0.079609 0.000000 0.818068
O O4 0.080672 0.223516 0.000000
O O5 0.161463 0.723408 0.500000
O O6 0.159130 0.500000 0.681320
O O7 0.205981 0.731331 0.744128
O O8 0.000000 0.500000 0.681956
O O9 0.000000 0.723085 0.500000
O O10 0.500000 0.500000 0.779852
O O11 0.543028 0.244833 0.776126
O O12 0.500000 0.316618 0.000000
O O13 0.328588 0.724571 0.500000
O O14 0.334000 0.500000 0.679142
O O15 0.290254 0.734250 0.755358
O O16 0.373492 0.751279 0.740498
O O17 0.247631 0.500000 0.167870
O O18 0.245476 0.264734 0.000000
O O19 0.587528 0.000000 0.180450
O O20 0.592607 0.776088 0.000000
#
# Coordination Sequence:
#
# PCOD9385855 Si02
#       7
#     8   8   4   4   8   8   8
#     4  11  24  40  58  83 115 150 188 229 274 326
#     4  10  20  35  57  85 115 147 185 228 274 326
#     4  11  24  41  62  88 114 143 184 231 278 330
#     4   9  17  31  54  81 106 135 174 220 268 319
#     4  10  20  34  53  78 108 142 181 225 271 320
#     4   9  17  31  54  82 110 142 181 226 274 321
#     4  10  20  34  53  78 108 141 177 219 268 322
#
# _framework density 18.621454
#
# number of rings (size 3 to 8) (size 9 to 14) (size 15 to 20)
#    0.000    2.000    0.000    3.750    0.000   11.000 
#    0.000    1.250    0.000    7.500    0.000    0.000 
#    0.000    0.000    0.000    0.000    0.000    0.000 
#
# Total GULP energy -268151.891728 kJ/mol
# GULP energy per Si atom -5586.497744 kJ/mol
# Density = 1.857907 g / cm^3
# Si number density = 18.621454 Si / 1000 Ang^3
#
#
#
# Elastic Constant Matrix: (Units=GPa)
#
#
# Indices 1 2 3 4 5 6 
#
# 1 222.8456 50.6281 122.2248 0.0000 0.0000 0.0000
# 2 50.6281 28.5689 54.8873 0.0000 0.0000 0.0000
# 3 122.2248 54.8873 170.7161 0.0000 0.0000 0.0000
# 4 0.0000 0.0000 0.0000 22.5452 0.0000 0.0000
# 5 0.0000 0.0000 0.0000 0.0000 390.5898 0.0000
# 6 0.0000 0.0000 0.0000 0.0000 0.0000 -47.8204
#
#
#
# Elastic Compliance Matrix: (Units=1/GPa)
#
#
# Indices 1 2 3 4 5 6 
#
# 1 0.008092 -0.008395 -0.003094 0.000000 0.000000 0.000000
# 2 -0.008395 0.100268 -0.026227 0.000000 0.000000 0.000000
# 3 -0.003094 -0.026227 0.016505 0.000000 0.000000 0.000000
# 4 0.000000 0.000000 0.000000 0.044355 0.000000 0.000000
# 5 0.000000 0.000000 0.000000 0.000000 0.002560 0.000000
# 6 0.000000 0.000000 0.000000 0.000000 0.000000 -0.020912
#
#
# Mechanical properties :
#
#
# Convention : Reuss Voigt Hill
#
# Bulk Modulus (GPa) = 20.22949 97.51234 58.87091
# Shear Modulus (GPa) = 20.59482 86.02227 53.30854
#
# Velocity S-wave (km/s) = 3.32922 6.80408 5.35627
# Velocity P-wave (km/s) = 5.06611 10.68675 8.36278
#
# Compressibility (1/GPa) = 0.04943278
#
# Stress axis : x y z
#
# Youngs Moduli (GPa) = 123.58222 9.97324 60.58667
#
# Poissons Ratio (x) = 0.08373 0.18747
# Poissons Ratio (y) = 1.03749 1.58901
# Poissons Ratio (z) = 0.38239 0.26157
#
# Static dielectric constant tensor:
#      x y z
#    x 1.605330 0.000000 0.000000 
#    y 0.000000 1.625490 0.000000 
#    z 0.000000 0.000000 1.627420 
# 
# From -- ./inp_files/13811.got.cif
#   From: 2010.05.17/outbox.cif.g08.bks.cpg/sg47_7_cif.got.tgz:13811.got - 2010.06.03 20:15:42.
