data_PCOD9385479
_publ_section_title
;
Structure prediction by ZEFSAII (Michael W. Deem and Ramdas Pophale) SiO2 
 PCOD9385479
Probable space group: P M M M
;
_chemical_formula_sum "Si O2"
_cell_formula_units_Z 48
_cell_length_a 31.817732
_cell_length_b 9.651007
_cell_length_c 7.875893
_cell_angle_alpha 90.000000
_cell_angle_beta 90.000000
_cell_angle_gamma 90.000000
_cell_volume 2418.475306
_symmetry_space_group_name_H-M "P M M M"
_symmetry_group_IT_number 47
_symmetry_cell_setting 'orthorhombic'
loop_
_space_group_symop_operation_xyz
x,y,z
-x,-y,z
x,-y,-z
-x,y,-z
-x,-y,-z
x,y,-z
-x,y,z
x,-y,z
loop_
_atom_site_type_symbol
_atom_site_label
_atom_site_fract_x
_atom_site_fract_y
_atom_site_fract_z
Si Si1 0.124270 0.843819 0.297529
Si Si2 0.546575 0.339394 0.792714
Si Si3 0.624792 0.841305 0.205257
Si Si4 0.952314 0.341013 0.707471
Si Si5 0.202862 0.342781 0.799699
Si Si6 0.718696 0.159057 0.298192
O O1 0.118495 0.855115 0.500000
O O2 0.083327 0.763263 0.230212
O O3 0.165314 0.750759 0.271084
O O4 0.129149 0.000000 0.229415
O O5 0.500000 0.290374 0.739670
O O6 0.550917 0.500000 0.743376
O O7 0.585972 0.250338 0.732724
O O8 0.546945 0.335729 0.000000
O O9 0.671221 0.794376 0.258365
O O10 0.620054 0.000000 0.263430
O O11 0.623788 0.840671 0.000000
O O12 0.951832 0.339604 0.500000
O O13 0.943312 0.500000 0.758339
O O14 0.000000 0.306118 0.759379
O O15 0.203249 0.500000 0.729834
O O16 0.246543 0.263136 0.770565
O O17 0.195953 0.351874 0.000000
O O18 0.723960 0.153543 0.500000
O O19 0.723632 0.000000 0.232239
#
# Coordination Sequence:
#
# PCOD9385479 Si02
#       6
#     8   8   8   8   8   8
#     4  10  20  33  52  79 108 138 172 210 254 302
#     4   8  14  25  42  66  96 128 162 202 246 289
#     4   9  17  29  47  72 100 129 162 202 247 294
#     4   8  14  26  46  73 105 140 175 210 249 293
#     4  11  24  39  55  76 101 131 169 211 255 304
#     4  10  21  37  56  77 102 132 166 205 252 306
#
# _framework density 19.847216
#
# number of rings (size 3 to 8) (size 9 to 14) (size 15 to 20)
#    0.000    2.667    0.000    3.000    0.000    6.667 
#    0.000    5.000    0.000    1.000    0.000    7.000 
#    0.000    0.000    0.000    0.000    0.000    0.000 
#
# Total GULP energy -267813.267686 kJ/mol
# GULP energy per Si atom -5579.443077 kJ/mol
# Density = 1.980204 g / cm^3
# Si number density = 19.847216 Si / 1000 Ang^3
#
#
#
# Elastic Constant Matrix: (Units=GPa)
#
#
# Indices 1 2 3 4 5 6 
#
# 1 168.4060 118.4974 -3.4356 0.0000 0.0000 0.0000
# 2 118.4974 138.9313 5.2561 0.0000 0.0000 0.0000
# 3 -3.4356 5.2561 20.3844 0.0000 0.0000 0.0000
# 4 0.0000 0.0000 0.0000 9.9990 0.0000 0.0000
# 5 0.0000 0.0000 0.0000 0.0000 19.1929 0.0000
# 6 0.0000 0.0000 0.0000 0.0000 0.0000 42.2254
#
#
#
# Elastic Compliance Matrix: (Units=1/GPa)
#
#
# Indices 1 2 3 4 5 6 
#
# 1 0.015569 -0.013510 0.006108 0.000000 0.000000 0.000000
# 2 -0.013510 0.018992 -0.007174 0.000000 0.000000 0.000000
# 3 0.006108 -0.007174 0.051936 0.000000 0.000000 0.000000
# 4 0.000000 0.000000 0.000000 0.100010 0.000000 0.000000
# 5 0.000000 0.000000 0.000000 0.000000 0.052103 0.000000
# 6 0.000000 0.000000 0.000000 0.000000 0.000000 0.023682
#
#
# Mechanical properties :
#
#
# Convention : Reuss Voigt Hill
#
# Bulk Modulus (GPa) = 17.43858 63.15082 40.29470
# Shear Modulus (GPa) = 16.09990 28.11038 22.10514
#
# Velocity S-wave (km/s) = 2.85123 3.76751 3.34093
# Velocity P-wave (km/s) = 4.43225 7.12833 5.93540
#
# Compressibility (1/GPa) = 0.05734411
#
# Stress axis : x y z
#
# Youngs Moduli (GPa) = 64.23068 52.65305 19.25437
#
# Poissons Ratio (x) = 0.71135 -0.11760
# Poissons Ratio (y) = 0.86776 0.13813
# Poissons Ratio (z) = -0.39229 0.37774
#
# Static dielectric constant tensor:
#      x y z
#    x 1.675160 0.000000 0.000000 
#    y 0.000000 1.700040 0.000000 
#    z 0.000000 0.000000 1.739310 
# 
# From -- ./inp_files/2449.got.cif
#   From: 2010.05.17/outbox.cif.g08.bks.cpg/sg47_2_cif.got.tgz:2449.got - 2010.06.03 20:15:42.
