data_PCOD9385733
_publ_section_title
;
Structure prediction by ZEFSAII (Michael W. Deem and Ramdas Pophale) SiO2 
 PCOD9385733
Probable space group: P M M M
;
_chemical_formula_sum "Si O2"
_cell_formula_units_Z 48
_cell_length_a 7.570051
_cell_length_b 9.442877
_cell_length_c 32.361275
_cell_angle_alpha 90.000000
_cell_angle_beta 90.000000
_cell_angle_gamma 90.000000
_cell_volume 2313.282978
_symmetry_space_group_name_H-M "P M M M"
_symmetry_group_IT_number 47
_symmetry_cell_setting 'orthorhombic'
loop_
_space_group_symop_operation_xyz
x,y,z
-x,-y,z
x,-y,-z
-x,y,-z
-x,-y,-z
x,y,-z
-x,y,z
x,-y,z
loop_
_atom_site_type_symbol
_atom_site_label
_atom_site_fract_x
_atom_site_fract_y
_atom_site_fract_z
Si Si1 0.708811 0.659120 0.795831
Si Si2 0.713058 0.662746 0.634265
Si Si3 0.208990 0.840190 0.284391
Si Si4 0.710277 0.671342 0.544434
Si Si5 0.715303 0.663465 0.953677
Si Si6 0.283341 0.162511 0.125926
O O1 0.500000 0.645678 0.803538
O O2 0.782286 0.500000 0.792751
O O3 0.726577 0.744567 0.753394
O O4 0.779202 0.748263 0.834539
O O5 0.500000 0.656242 0.631515
O O6 0.774258 0.500000 0.641095
O O7 0.756781 0.762721 0.672290
O O8 0.779009 0.716526 0.589356
O O9 0.000000 0.849984 0.279349
O O10 0.282817 0.000000 0.283494
O O11 0.783134 0.721169 0.500000
O O12 0.500000 0.701953 0.543744
O O13 0.727278 0.500000 0.544907
O O14 0.500000 0.665233 0.953612
O O15 0.767642 0.500000 0.946584
O O16 0.773637 0.763217 0.916557
O O17 0.771527 0.705171 0.000000
O O18 0.500000 0.162701 0.126110
O O19 0.227280 0.000000 0.128555
#
# Coordination Sequence:
#
# PCOD9385733 Si02
#       6
#     8   8   8   8   8   8
#     4  10  20  34  53  74  94 119 155 198 242 289
#     4   9  17  30  51  78 102 125 158 197 236 281
#     4  11  24  38  50  67  94 127 161 197 239 287
#     4   7  10  19  39  69 101 126 149 185 232 275
#     4   8  13  21  33  51  80 119 158 193 230 273
#     4   9  16  25  39  61  89 120 153 190 233 281
#
# _framework density 20.749732999999999
#
# number of rings (size 3 to 8) (size 9 to 14) (size 15 to 20)
#    0.000    3.000    0.000    4.000    0.000    7.000 
#    0.000    1.667    0.000    1.000    0.000    5.833 
#    0.000    0.667    0.000    7.000    0.000    9.667 
#
# Total GULP energy -267683.447737 kJ/mol
# GULP energy per Si atom -5576.738495 kJ/mol
# Density = 2.070251 g / cm^3
# Si number density = 20.749733 Si / 1000 Ang^3
#
#
#
# Elastic Constant Matrix: (Units=GPa)
#
#
# Indices 1 2 3 4 5 6 
#
# 1 45.6737 4.8806 -2.8432 0.0000 0.0000 0.0000
# 2 4.8806 154.3991 125.5865 0.0000 0.0000 0.0000
# 3 -2.8432 125.5865 222.1037 0.0000 0.0000 0.0000
# 4 0.0000 0.0000 0.0000 -2.5461 0.0000 0.0000
# 5 0.0000 0.0000 0.0000 0.0000 -49.4349 0.0000
# 6 0.0000 0.0000 0.0000 0.0000 0.0000 12.6764
#
#
#
# Elastic Compliance Matrix: (Units=1/GPa)
#
#
# Indices 1 2 3 4 5 6 
#
# 1 0.022157 -0.001724 0.001258 0.000000 0.000000 0.000000
# 2 -0.001724 0.012126 -0.006879 0.000000 0.000000 0.000000
# 3 0.001258 -0.006879 0.008408 0.000000 0.000000 0.000000
# 4 0.000000 0.000000 0.000000 -0.392756 0.000000 0.000000
# 5 0.000000 0.000000 0.000000 0.000000 -0.020229 0.000000
# 6 0.000000 0.000000 0.000000 0.000000 0.000000 0.078887
#
#
# Mechanical properties :
#
#
# Convention : Reuss Voigt Hill
#
# Bulk Modulus (GPa) = 35.71082 75.26937 55.49009
# Shear Modulus (GPa) = -18.69972 11.77592 -3.46190
#
# Velocity S-wave (km/s) = -3.00526 2.38486 -1.29307
# Velocity P-wave (km/s) = 2.28155 6.62850 4.95694
#
# Compressibility (1/GPa) = 0.02800272
#
# Stress axis : x y z
#
# Youngs Moduli (GPa) = 45.13246 82.46490 118.93329
#
# Poissons Ratio (x) = 0.14217 -0.14967
# Poissons Ratio (y) = 0.07781 0.81812
# Poissons Ratio (z) = -0.05680 0.56726
#
# Static dielectric constant tensor:
#      x y z
#    x 1.782410 0.000000 0.000000 
#    y 0.000000 1.705910 0.000000 
#    z 0.000000 0.000000 1.751660 
# 
# From -- ./inp_files/13799.got.cif
#   From: 2010.05.17/outbox.cif.g08.bks.cpg/sg47_7_cif.got.tgz:13799.got - 2010.06.03 20:15:42.
