data_PCOD9385411
_publ_section_title
;
Structure prediction by ZEFSAII (Michael W. Deem and Ramdas Pophale) SiO2 
 PCOD9385411
Probable space group: P M M M
;
_chemical_formula_sum "Si O2"
_cell_formula_units_Z 49
_cell_length_a 31.439617
_cell_length_b 8.123640
_cell_length_c 10.329365
_cell_angle_alpha 90.000000
_cell_angle_beta 90.000000
_cell_angle_gamma 90.000000
_cell_volume 2638.162484
_symmetry_space_group_name_H-M "P M M M"
_symmetry_group_IT_number 47
_symmetry_cell_setting 'orthorhombic'
loop_
_space_group_symop_operation_xyz
x,y,z
-x,-y,z
x,-y,-z
-x,y,-z
-x,-y,-z
x,y,-z
-x,y,z
x,-y,z
loop_
_atom_site_type_symbol
_atom_site_label
_atom_site_fract_x
_atom_site_fract_y
_atom_site_fract_z
Si Si1 0.892512 0.697860 0.256069
Si Si2 0.050082 0.801472 0.500000
Si Si3 0.199928 0.302218 0.647848
Si Si4 0.618659 0.304294 0.648377
Si Si5 0.451498 0.801561 0.146504
Si Si6 0.000000 0.500000 0.000000
Si Si7 0.934881 0.186934 0.000000
Si Si8 0.289728 0.195962 0.351379
O O1 0.893152 0.500000 0.236064
O O2 0.924525 0.736931 0.374558
O O3 0.844303 0.749205 0.288888
O O4 0.907919 0.791836 0.129963
O O5 0.000000 0.751604 0.500000
O O6 0.051260 0.000000 0.500000
O O7 0.199371 0.237919 0.500000
O O8 0.199231 0.500000 0.643054
O O9 0.244988 0.251307 0.708860
O O10 0.614088 0.237813 0.500000
O O11 0.618057 0.500000 0.640118
O O12 0.581421 0.250730 0.744105
O O13 0.664974 0.252367 0.702185
O O14 0.500000 0.745958 0.173278
O O15 0.452001 0.000000 0.144404
O O16 0.440129 0.746120 0.000000
O O17 0.035715 0.649819 0.000000
O O18 0.953126 0.000000 0.000000
O O19 0.289399 0.262412 0.500000
O O20 0.289751 0.000000 0.355484
#
# Coordination Sequence:
#
# PCOD9385411 Si02
#       8
#     8   4   8   8   8   1   4   8
#     4  11  22  42  63  90 122 162 200 243 300 358
#     4  11  25  39  57  89 125 157 201 251 297 346
#     4   9  17  32  56  84 116 152 192 234 284 345
#     4  10  20  33  51  78 112 146 183 229 280 333
#     4   9  19  36  56  77 104 142 186 231 281 337
#     4  12  26  52  68  92 120 164 206 246 300 366
#     4  12  27  45  69  94 123 161 206 249 296 359
#     4   9  17  29  49  79 111 145 186 232 282 335
#
# _framework density 18.573533000000001
#
# number of rings (size 3 to 8) (size 9 to 14) (size 15 to 20)
#    0.000    2.041    1.633    2.327    1.143    5.878 
#    0.000    2.449    1.796    0.000    0.000    0.000 
#    0.000    0.000    0.000    0.000    0.000    0.000 
#
# Total GULP energy -272895.543970 kJ/mol
# GULP energy per Si atom -5569.296816 kJ/mol
# Density = 1.853126 g / cm^3
# Si number density = 18.573533 Si / 1000 Ang^3
#
#
#
# Elastic Constant Matrix: (Units=GPa)
#
#
# Indices 1 2 3 4 5 6 
#
# 1 194.2989 39.6436 81.9823 0.0000 0.0000 0.0000
# 2 39.6436 64.6545 21.2388 0.0000 0.0000 0.0000
# 3 81.9823 21.2388 95.5194 0.0000 0.0000 0.0000
# 4 0.0000 0.0000 0.0000 26.8521 0.0000 0.0000
# 5 0.0000 0.0000 0.0000 0.0000 -42.5369 0.0000
# 6 0.0000 0.0000 0.0000 0.0000 0.0000 37.4539
#
#
#
# Elastic Compliance Matrix: (Units=1/GPa)
#
#
# Indices 1 2 3 4 5 6 
#
# 1 0.008600 -0.003073 -0.006698 0.000000 0.000000 0.000000
# 2 -0.003073 0.017784 -0.001317 0.000000 0.000000 0.000000
# 3 -0.006698 -0.001317 0.016510 0.000000 0.000000 0.000000
# 4 0.000000 0.000000 0.000000 0.037241 0.000000 0.000000
# 5 0.000000 0.000000 0.000000 0.000000 -0.023509 0.000000
# 6 0.000000 0.000000 0.000000 0.000000 0.000000 0.026700
#
#
# Mechanical properties :
#
#
# Convention : Reuss Voigt Hill
#
# Bulk Modulus (GPa) = 48.26514 71.13358 59.69936
# Shear Modulus (GPa) = 44.48155 18.46101 31.47128
#
# Velocity S-wave (km/s) = 4.89907 3.15610 4.12079
# Velocity P-wave (km/s) = 7.61863 7.18769 7.40629
#
# Compressibility (1/GPa) = 0.02071889
#
# Stress axis : x y z
#
# Youngs Moduli (GPa) = 116.28322 56.23176 60.56797
#
# Poissons Ratio (x) = 0.17279 0.40567
# Poissons Ratio (y) = 0.35732 0.07976
# Poissons Ratio (z) = 0.77883 0.07405
#
# Static dielectric constant tensor:
#      x y z
#    x 1.663760 0.000000 0.000000 
#    y 0.000000 1.644800 0.000000 
#    z 0.000000 0.000000 1.637510 
# 
# From -- ./inp_files/14048.got.cif
#   From: 2010.05.17/outbox.cif.g08.bks.cpg/sg47_8_cif.got.tgz:14048.got - 2010.06.03 20:15:42.
