data_PCOD9385484
_publ_section_title
;
Structure prediction by ZEFSAII (Michael W. Deem and Ramdas Pophale) SiO2 
 PCOD9385484
Probable space group: P M M M
;
_chemical_formula_sum "Si O2"
_cell_formula_units_Z 48
_cell_length_a 32.999365
_cell_length_b 7.575887
_cell_length_c 9.746009
_cell_angle_alpha 90.000000
_cell_angle_beta 90.000000
_cell_angle_gamma 90.000000
_cell_volume 2436.496990
_symmetry_space_group_name_H-M "P M M M"
_symmetry_group_IT_number 47
_symmetry_cell_setting 'orthorhombic'
loop_
_space_group_symop_operation_xyz
x,y,z
-x,-y,z
x,-y,-z
-x,y,-z
-x,-y,-z
x,y,-z
-x,y,z
x,-y,z
loop_
_atom_site_type_symbol
_atom_site_label
_atom_site_fract_x
_atom_site_fract_y
_atom_site_fract_z
Si Si1 0.048545 0.000000 0.838631
Si Si2 0.573982 0.288776 0.655743
Si Si3 0.812439 0.284952 0.345108
Si Si4 0.906272 0.710656 0.662369
Si Si5 0.333987 0.790316 0.655192
Si Si6 0.500000 0.716569 0.157436
Si Si7 0.741004 0.290832 0.846484
O O1 0.066378 0.170108 0.759664
O O2 0.000000 0.000000 0.829524
O O3 0.059802 0.000000 0.000000
O O4 0.568667 0.219688 0.500000
O O5 0.569312 0.500000 0.648733
O O6 0.620140 0.252943 0.698533
O O7 0.539832 0.224455 0.759752
O O8 0.802706 0.226232 0.500000
O O9 0.811131 0.500000 0.346796
O O10 0.859010 0.240457 0.313914
O O11 0.779190 0.218649 0.238627
O O12 0.914538 0.742179 0.500000
O O13 0.910970 0.500000 0.686210
O O14 0.328071 0.718246 0.500000
O O15 0.299800 0.729139 0.759211
O O16 0.330758 0.000000 0.647651
O O17 0.500000 0.500000 0.156420
O O18 0.500000 0.773898 0.000000
O O19 0.748159 0.500000 0.858277
O O20 0.737381 0.217870 0.000000
#
# Coordination Sequence:
#
# PCOD9385484 Si02
#       7
#     4   8   8   8   8   4   8
#     4  11  25  41  57  85 125 165 203 243 295 362
#     4   9  17  31  52  74  95 123 161 206 255 305
#     4   8  15  31  56  83 109 138 177 226 277 328
#     4   9  19  38  64  91 117 151 199 253 304 351
#     4  10  21  36  52  72 100 136 177 217 259 308
#     4   9  17  29  48  75 100 120 152 201 252 305
#     4  10  20  33  52  79 108 139 176 217 264 320
#
# _framework density 19.700415
#
# number of rings (size 3 to 8) (size 9 to 14) (size 15 to 20)
#    0.000    2.667    0.000    2.500    0.000    5.667 
#    1.500    5.417    0.000    2.500    0.000    0.000 
#    0.000    0.000    0.000    0.000    0.000    0.000 
#
# Total GULP energy -267897.963234 kJ/mol
# GULP energy per Si atom -5581.207567 kJ/mol
# Density = 1.965558 g / cm^3
# Si number density = 19.700415 Si / 1000 Ang^3
#
#
#
# Elastic Constant Matrix: (Units=GPa)
#
#
# Indices 1 2 3 4 5 6 
#
# 1 142.1186 28.6926 127.0527 0.0000 0.0000 0.0000
# 2 28.6926 61.9653 39.7585 0.0000 0.0000 0.0000
# 3 127.0527 39.7585 155.7688 0.0000 0.0000 0.0000
# 4 0.0000 0.0000 0.0000 10.4546 0.0000 0.0000
# 5 0.0000 0.0000 0.0000 0.0000 -0.9873 0.0000
# 6 0.0000 0.0000 0.0000 0.0000 0.0000 61.7438
#
#
#
# Elastic Compliance Matrix: (Units=1/GPa)
#
#
# Indices 1 2 3 4 5 6 
#
# 1 0.026165 0.001887 -0.021823 0.000000 0.000000 0.000000
# 2 0.001887 0.019435 -0.006499 0.000000 0.000000 0.000000
# 3 -0.021823 -0.006499 0.025879 0.000000 0.000000 0.000000
# 4 0.000000 0.000000 0.000000 0.095652 0.000000 0.000000
# 5 0.000000 0.000000 0.000000 0.000000 -1.012870 0.000000
# 6 0.000000 0.000000 0.000000 0.000000 0.000000 0.016196
#
#
# Mechanical properties :
#
#
# Convention : Reuss Voigt Hill
#
# Bulk Modulus (GPa) = 53.74377 83.42890 68.58633
# Shear Modulus (GPa) = -6.48954 25.19881 9.35463
#
# Velocity S-wave (km/s) = -1.81694 3.58033 2.18146
# Velocity P-wave (km/s) = 4.78937 7.71573 6.42147
#
# Compressibility (1/GPa) = 0.01860681
#
# Stress axis : x y z
#
# Youngs Moduli (GPa) = 38.21877 51.45460 38.64184
#
# Poissons Ratio (x) = -0.09708 0.84329
# Poissons Ratio (y) = -0.07211 0.25115
# Poissons Ratio (z) = 0.83405 0.33442
#
# Static dielectric constant tensor:
#      x y z
#    x 1.664700 0.000000 0.000000 
#    y 0.000000 1.680950 0.000000 
#    z 0.000000 0.000000 1.682760 
# 
# From -- ./inp_files/13968.got.cif
#   From: 2010.05.17/outbox.cif.g08.bks.cpg/sg47_7_cif.got.tgz:13968.got - 2010.06.03 20:15:42.
