data_PCOD9385029
_publ_section_title
;
Structure prediction by ZEFSAII (Michael W. Deem and Ramdas Pophale) SiO2 
 PCOD9385029
Probable space group: P M M M
;
_chemical_formula_sum "Si O2"
_cell_formula_units_Z 44
_cell_length_a 8.713550
_cell_length_b 14.201418
_cell_length_c 19.445007
_cell_angle_alpha 90.000000
_cell_angle_beta 90.000000
_cell_angle_gamma 90.000000
_cell_volume 2406.217837
_symmetry_space_group_name_H-M "P M M M"
_symmetry_group_IT_number 47
_symmetry_cell_setting 'orthorhombic'
loop_
_space_group_symop_operation_xyz
x,y,z
-x,-y,z
x,-y,-z
-x,y,-z
-x,-y,-z
x,y,-z
-x,y,z
x,-y,z
loop_
_atom_site_type_symbol
_atom_site_label
_atom_site_fract_x
_atom_site_fract_y
_atom_site_fract_z
Si Si1 0.814674 0.791292 0.580098
Si Si2 0.817278 0.279726 0.208534
Si Si3 0.174228 0.000000 0.916586
Si Si4 0.316839 0.107338 0.293571
Si Si5 0.186570 0.395006 0.661762
Si Si6 0.683002 0.799536 0.078939
O O1 0.778220 0.800679 0.500000
O O2 0.732870 0.866735 0.628835
O O3 0.769281 0.687960 0.609254
O O4 0.000000 0.799876 0.588299
O O5 0.768212 0.183507 0.246691
O O6 0.767847 0.361314 0.261623
O O7 0.744495 0.275557 0.133373
O O8 0.000000 0.282921 0.202244
O O9 0.258444 0.903194 0.898596
O O10 0.000000 0.000000 0.890577
O O11 0.169694 0.000000 0.000000
O O12 0.500000 0.118194 0.285585
O O13 0.275413 0.000000 0.276874
O O14 0.241725 0.500000 0.645615
O O15 0.000000 0.396982 0.660748
O O16 0.500000 0.800695 0.079952
O O17 0.734381 0.783531 0.000000
#
# Coordination Sequence:
#
# PCOD9385029 Si02
#       6
#     8   8   4   8   8   8
#     4   9  18  32  51  77 105 131 163 205 251 298
#     4  10  20  33  52  76 100 129 167 212 256 300
#     4   9  17  29  45  67  95 127 164 203 242 285
#     4  10  21  35  50  69  97 136 176 209 245 293
#     4   8  15  30  52  77 102 127 160 205 257 307
#     4  10  20  33  49  70 100 136 170 206 250 299
#
# _framework density 18.285958999999998
#
# number of rings (size 3 to 8) (size 9 to 14) (size 15 to 20)
#    0.000    2.636    0.000    3.000    1.273    4.727 
#    0.000    3.636    0.000   14.182    0.000    8.909 
#    0.000    0.000    0.000    0.000    0.000    0.000 
#
# Total GULP energy -245391.396168 kJ/mol
# GULP energy per Si atom -5577.077186 kJ/mol
# Density = 1.824434 g / cm^3
# Si number density = 18.285959 Si / 1000 Ang^3
#
#
#
# Elastic Constant Matrix: (Units=GPa)
#
#
# Indices 1 2 3 4 5 6 
#
# 1 23.8988 -5.9084 3.0348 0.0000 0.0000 0.0000
# 2 -5.9084 26.6765 -20.5026 0.0000 0.0000 0.0000
# 3 3.0348 -20.5026 61.3199 0.0000 0.0000 0.0000
# 4 0.0000 0.0000 0.0000 15.1410 0.0000 0.0000
# 5 0.0000 0.0000 0.0000 0.0000 20.8794 0.0000
# 6 0.0000 0.0000 0.0000 0.0000 0.0000 45.1873
#
#
#
# Elastic Compliance Matrix: (Units=1/GPa)
#
#
# Indices 1 2 3 4 5 6 
#
# 1 0.044365 0.010953 0.001467 0.000000 0.000000 0.000000
# 2 0.010953 0.053155 0.017231 0.000000 0.000000 0.000000
# 3 0.001467 0.017231 0.021996 0.000000 0.000000 0.000000
# 4 0.000000 0.000000 0.000000 0.066046 0.000000 0.000000
# 5 0.000000 0.000000 0.000000 0.000000 0.047894 0.000000
# 6 0.000000 0.000000 0.000000 0.000000 0.000000 0.022130
#
#
# Mechanical properties :
#
#
# Convention : Reuss Voigt Hill
#
# Bulk Modulus (GPa) = 5.59233 7.23810 6.41522
# Shear Modulus (GPa) = 19.53956 25.25963 22.39960
#
# Velocity S-wave (km/s) = 3.27242 3.72071 3.50374
# Velocity P-wave (km/s) = 4.16452 4.73551 4.45917
#
# Compressibility (1/GPa) = 0.17881628
#
# Stress axis : x y z
#
# Youngs Moduli (GPa) = 22.54045 18.81297 45.46188
#
# Poissons Ratio (x) = -0.20606 -0.06667
# Poissons Ratio (y) = -0.24689 -0.78333
# Poissons Ratio (z) = -0.03306 -0.32416
#
# Static dielectric constant tensor:
#      x y z
#    x 1.622900 0.000000 0.000000 
#    y 0.000000 1.617010 0.000000 
#    z 0.000000 0.000000 1.661930 
# 
# From -- ./inp_files/26371.got.cif
#   From: 2010.05.17/outbox.cif.g08.bks.cpg/sg47_14_cif.got.tgz:26371.got - 2010.06.03 20:15:42.
