data_PCOD9385727
_publ_section_title
;
Structure prediction by ZEFSAII (Michael W. Deem and Ramdas Pophale) SiO2 
 PCOD9385727
Probable space group: P M M M
;
_chemical_formula_sum "Si O2"
_cell_formula_units_Z 33
_cell_length_a 9.681841
_cell_length_b 7.820321
_cell_length_c 21.390389
_cell_angle_alpha 90.000000
_cell_angle_beta 90.000000
_cell_angle_gamma 90.000000
_cell_volume 1619.575538
_symmetry_space_group_name_H-M "P M M M"
_symmetry_group_IT_number 47
_symmetry_cell_setting 'orthorhombic'
loop_
_space_group_symop_operation_xyz
x,y,z
-x,-y,z
x,-y,-z
-x,y,-z
-x,-y,-z
x,y,-z
-x,y,z
x,-y,z
loop_
_atom_site_type_symbol
_atom_site_label
_atom_site_fract_x
_atom_site_fract_y
_atom_site_fract_z
Si Si1 0.164840 0.695506 0.873430
Si Si2 0.839683 0.209509 0.500000
Si Si3 0.158900 0.706655 0.736982
Si Si4 0.500000 0.500000 0.000000
Si Si5 0.714153 0.813162 0.000000
Si Si6 0.341771 0.205202 0.618101
O O1 0.218394 0.500000 0.879380
O O2 0.208520 0.766714 0.805688
O O3 0.201526 0.795875 0.935580
O O4 0.000000 0.685851 0.868889
O O5 0.754210 0.266602 0.439063
O O6 0.000000 0.264863 0.500000
O O7 0.841940 0.000000 0.500000
O O8 0.154102 0.500000 0.740451
O O9 0.262422 0.756107 0.682260
O O10 0.000000 0.765290 0.725095
O O11 0.616408 0.651105 0.000000
O O12 0.649239 0.000000 0.000000
O O13 0.500000 0.270323 0.616487
O O14 0.349668 0.000000 0.611791
#
# Coordination Sequence:
#
# PCOD9385727 Si02
#       6
#     8   4   8   1   4   8
#     4   9  18  37  63  87 115 151 189 245 312 362
#     4   9  17  31  54  79 104 143 190 238 298 353
#     4   9  19  36  58  83 113 151 193 233 286 349
#     4  12  26  48  58  78 128 172 198 248 308 362
#     4  12  24  40  64  91 117 158 210 252 301 365
#     4  10  20  34  52  79 113 148 187 236 290 350
#
# _framework density 20.375710999999999
#
# number of rings (size 3 to 8) (size 9 to 14) (size 15 to 20)
#    0.000    2.303    1.212    3.091    0.000    6.303 
#    2.182    3.030    0.000    3.636    0.000    0.000 
#    0.000    0.000    0.000    0.000    0.000    0.000 
#
# Total GULP energy -183781.713398 kJ/mol
# GULP energy per Si atom -5569.142830 kJ/mol
# Density = 2.032933 g / cm^3
# Si number density = 20.375711 Si / 1000 Ang^3
#
#
#
# Elastic Constant Matrix: (Units=GPa)
#
#
# Indices 1 2 3 4 5 6 
#
# 1 131.7816 17.1185 103.3703 0.0000 0.0000 0.0000
# 2 17.1185 64.5709 19.8134 0.0000 0.0000 0.0000
# 3 103.3703 19.8134 216.4166 0.0000 0.0000 0.0000
# 4 0.0000 0.0000 0.0000 24.1373 0.0000 0.0000
# 5 0.0000 0.0000 0.0000 0.0000 -4.0599 0.0000
# 6 0.0000 0.0000 0.0000 0.0000 0.0000 71.8808
#
#
#
# Elastic Compliance Matrix: (Units=1/GPa)
#
#
# Indices 1 2 3 4 5 6 
#
# 1 0.012274 -0.001497 -0.005726 0.000000 0.000000 0.000000
# 2 -0.001497 0.016117 -0.000760 0.000000 0.000000 0.000000
# 3 -0.005726 -0.000760 0.007425 0.000000 0.000000 0.000000
# 4 0.000000 0.000000 0.000000 0.041430 0.000000 0.000000
# 5 0.000000 0.000000 0.000000 0.000000 -0.246312 0.000000
# 6 0.000000 0.000000 0.000000 0.000000 0.000000 0.013912
#
#
# Mechanical properties :
#
#
# Convention : Reuss Voigt Hill
#
# Bulk Modulus (GPa) = 50.37797 77.04149 63.70973
# Shear Modulus (GPa) = -37.71546 36.55612 -0.57967
#
# Velocity S-wave (km/s) = -4.30699 4.24028 -0.53395
# Velocity P-wave (km/s) = 0.21121 7.86548 5.56374
#
# Compressibility (1/GPa) = 0.01984995
#
# Stress axis : x y z
#
# Youngs Moduli (GPa) = 81.47365 62.04594 134.67830
#
# Poissons Ratio (x) = 0.09289 0.77110
# Poissons Ratio (y) = 0.12197 0.10242
# Poissons Ratio (z) = 0.46648 0.04718
#
# Static dielectric constant tensor:
#      x y z
#    x 1.692650 0.000000 0.000000 
#    y 0.000000 1.755470 0.000000 
#    z 0.000000 0.000000 1.759950 
# 
# From -- ./inp_files/29125.got.cif
#   From: 2010.05.17/outbox.cif.g08.bks.cpg/sg47_15_cif.got.tgz:29125.got - 2010.06.03 20:15:42.
