data_PCOD9385432
_publ_section_title
;
Structure prediction by ZEFSAII (Michael W. Deem and Ramdas Pophale) SiO2 
 PCOD9385432
Probable space group: P M M M
;
_chemical_formula_sum "Si O2"
_cell_formula_units_Z 52
_cell_length_a 15.553585
_cell_length_b 7.551712
_cell_length_c 21.333807
_cell_angle_alpha 90.000000
_cell_angle_beta 90.000000
_cell_angle_gamma 90.000000
_cell_volume 2505.787784
_symmetry_space_group_name_H-M "P M M M"
_symmetry_group_IT_number 47
_symmetry_cell_setting 'orthorhombic'
loop_
_space_group_symop_operation_xyz
x,y,z
-x,-y,z
x,-y,-z
-x,y,-z
-x,-y,-z
x,y,-z
-x,y,z
x,-y,z
loop_
_atom_site_type_symbol
_atom_site_label
_atom_site_fract_x
_atom_site_fract_y
_atom_site_fract_z
Si Si1 0.093993 0.793317 0.911681
Si Si2 0.712088 0.213624 0.931265
Si Si3 0.598618 0.711215 0.192820
Si Si4 0.091809 0.714777 0.234026
Si Si5 0.500000 0.198833 0.575604
Si Si6 0.265646 0.711929 0.294807
Si Si7 0.684462 0.786888 0.429738
O O1 0.188382 0.720253 0.928881
O O2 0.093098 0.779443 0.836900
O O3 0.000000 0.718802 0.931642
O O4 0.093884 0.000000 0.929935
O O5 0.654536 0.262505 0.870944
O O6 0.716532 0.000000 0.929775
O O7 0.676478 0.266203 0.000000
O O8 0.500000 0.780094 0.188923
O O9 0.591680 0.500000 0.200552
O O10 0.653866 0.779260 0.252870
O O11 0.094590 0.500000 0.232735
O O12 0.177289 0.781283 0.266234
O O13 0.000000 0.766566 0.262874
O O14 0.500000 0.182058 0.500000
O O15 0.590229 0.286928 0.589065
O O16 0.500000 0.000000 0.603180
O O17 0.267169 0.500000 0.287528
O O18 0.261670 0.748447 0.368665
O O19 0.708547 0.725339 0.500000
O O20 0.675744 0.000000 0.434281
#
# Coordination Sequence:
#
# PCOD9385432 Si02
#       7
#     8   8   8   8   4   8   8
#     4   9  17  30  50  76 104 132 163 203 255 312
#     4  10  21  36  54  77 105 136 172 215 259 305
#     4  10  22  39  55  74 103 137 175 217 260 305
#     4   9  17  31  52  75  99 129 166 209 255 301
#     4   7  12  26  45  65  93 127 162 197 232 279
#     4  10  20  33  52  77 103 131 165 209 256 301
#     4   9  18  32  50  73 102 136 171 205 245 297
#
# _framework density 20.751957000000001
#
# number of rings (size 3 to 8) (size 9 to 14) (size 15 to 20)
#    0.000    2.692    1.538    0.923    1.077    2.769 
#    0.000    3.077    0.000    1.846    0.000    6.462 
#    0.000    0.000    0.000    0.000    0.000    0.000 
#
# Total GULP energy -289584.119031 kJ/mol
# GULP energy per Si atom -5568.925366 kJ/mol
# Density = 2.070472 g / cm^3
# Si number density = 20.751957 Si / 1000 Ang^3
#
#
#
# Elastic Constant Matrix: (Units=GPa)
#
#
# Indices 1 2 3 4 5 6 
#
# 1 147.9447 12.9576 83.7355 0.0000 0.0000 0.0000
# 2 12.9576 50.5802 -3.0007 0.0000 0.0000 0.0000
# 3 83.7355 -3.0007 148.7827 0.0000 0.0000 0.0000
# 4 0.0000 0.0000 0.0000 82.0049 0.0000 0.0000
# 5 0.0000 0.0000 0.0000 0.0000 -5.3608 0.0000
# 6 0.0000 0.0000 0.0000 0.0000 0.0000 834.3995
#
#
#
# Elastic Compliance Matrix: (Units=1/GPa)
#
#
# Indices 1 2 3 4 5 6 
#
# 1 0.010355 -0.003002 -0.005888 0.000000 0.000000 0.000000
# 2 -0.003002 0.020665 0.002106 0.000000 0.000000 0.000000
# 3 -0.005888 0.002106 0.010078 0.000000 0.000000 0.000000
# 4 0.000000 0.000000 0.000000 0.012194 0.000000 0.000000
# 5 0.000000 0.000000 0.000000 0.000000 -0.186538 0.000000
# 6 0.000000 0.000000 0.000000 0.000000 0.000000 0.001198
#
#
# Mechanical properties :
#
#
# Convention : Reuss Voigt Hill
#
# Bulk Modulus (GPa) = 36.32521 59.41028 47.86775
# Shear Modulus (GPa) = -45.74431 199.11640 76.68605
#
# Velocity S-wave (km/s) = -4.70013 9.80607 6.08555
# Velocity P-wave (km/s) = 3.45145 12.52609 8.51441
#
# Compressibility (1/GPa) = 0.02752909
#
# Stress axis : x y z
#
# Youngs Moduli (GPa) = 96.57176 48.39192 99.22902
#
# Poissons Ratio (x) = 0.14528 0.58430
# Poissons Ratio (y) = 0.28991 -0.20901
# Poissons Ratio (z) = 0.56865 -0.10193
#
# Static dielectric constant tensor:
#      x y z
#    x 1.805970 0.000000 0.000000 
#    y 0.000000 1.806070 0.000000 
#    z 0.000000 0.000000 1.729340 
# 
# From -- ./inp_files/11071.got.cif
#   From: 2010.05.17/outbox.cif.g08.bks.cpg/sg47_6_cif.got.tgz:11071.got - 2010.06.03 20:15:42.
