data_PCOD9385168
_publ_section_title
;
Structure prediction by ZEFSAII (Michael W. Deem and Ramdas Pophale) SiO2 
 PCOD9385168
Probable space group: P M M M
;
_chemical_formula_sum "Si O2"
_cell_formula_units_Z 44
_cell_length_a 7.534758
_cell_length_b 29.188735
_cell_length_c 9.356467
_cell_angle_alpha 90.000000
_cell_angle_beta 90.000000
_cell_angle_gamma 90.000000
_cell_volume 2057.768298
_symmetry_space_group_name_H-M "P M M M"
_symmetry_group_IT_number 47
_symmetry_cell_setting 'orthorhombic'
loop_
_space_group_symop_operation_xyz
x,y,z
-x,-y,z
x,-y,-z
-x,y,-z
-x,-y,-z
x,y,-z
-x,y,z
x,-y,z
loop_
_atom_site_type_symbol
_atom_site_label
_atom_site_fract_x
_atom_site_fract_y
_atom_site_fract_z
Si Si1 0.288499 0.408421 0.838087
Si Si2 0.287293 0.321249 0.337644
Si Si3 0.782701 0.859615 0.664154
Si Si4 0.783670 0.948734 0.165294
Si Si5 0.786776 0.770619 0.837629
Si Si6 0.788736 0.500000 0.662293
O O1 0.500000 0.401872 0.849922
O O2 0.217282 0.364772 0.750996
O O3 0.262250 0.454754 0.749472
O O4 0.217843 0.411645 0.000000
O O5 0.218388 0.319654 0.500000
O O6 0.500000 0.326455 0.346959
O O7 0.253067 0.274540 0.253126
O O8 0.726960 0.855661 0.500000
O O9 0.724608 0.907218 0.735561
O O10 0.723007 0.816143 0.756808
O O11 0.000000 0.859562 0.665330
O O12 0.000000 0.948638 0.167436
O O13 0.727205 0.000000 0.208435
O O14 0.731647 0.941290 0.000000
O O15 0.000000 0.774381 0.845328
O O16 0.719397 0.767182 0.000000
O O17 0.716525 0.500000 0.500000
O O18 0.000000 0.500000 0.652496
#
# Coordination Sequence:
#
# PCOD9385168 Si02
#       6
#     8   8   8   8   8   4
#     4  10  21  38  60  83 106 136 174 212 252 300
#     4  10  21  37  57  80 105 134 169 210 255 301
#     4   9  16  25  38  58  86 120 158 201 248 298
#     4   8  13  21  33  50  76 113 155 197 242 294
#     4  10  20  33  50  72  99 133 170 207 251 303
#     4  11  24  39  56  82 114 145 176 211 252 296
#
# _framework density 21.382386
#
# number of rings (size 3 to 8) (size 9 to 14) (size 15 to 20)
#    0.000    2.455    0.000    3.273    0.000    8.364 
#    0.000    1.818    0.000    0.000    0.000    0.000 
#    0.000    0.727    0.000    7.636    0.000   10.545 
#
# Total GULP energy -245836.297005 kJ/mol
# GULP energy per Si atom -5587.188568 kJ/mol
# Density = 2.133372 g / cm^3
# Si number density = 21.382386 Si / 1000 Ang^3
#
#
#
# Elastic Constant Matrix: (Units=GPa)
#
#
# Indices 1 2 3 4 5 6 
#
# 1 53.8276 -1.6423 8.8361 0.0000 0.0000 0.0000
# 2 -1.6423 226.9517 153.5831 0.0000 0.0000 0.0000
# 3 8.8361 153.5831 242.5656 0.0000 0.0000 0.0000
# 4 0.0000 0.0000 0.0000 57.6601 0.0000 0.0000
# 5 0.0000 0.0000 0.0000 0.0000 9.4522 0.0000
# 6 0.0000 0.0000 0.0000 0.0000 0.0000 19.8987
#
#
#
# Elastic Compliance Matrix: (Units=1/GPa)
#
#
# Indices 1 2 3 4 5 6 
#
# 1 0.018832 0.001051 -0.001351 0.000000 0.000000 0.000000
# 2 0.001051 0.007768 -0.004957 0.000000 0.000000 0.000000
# 3 -0.001351 -0.004957 0.007310 0.000000 0.000000 0.000000
# 4 0.000000 0.000000 0.000000 0.017343 0.000000 0.000000
# 5 0.000000 0.000000 0.000000 0.000000 0.105796 0.000000
# 6 0.000000 0.000000 0.000000 0.000000 0.000000 0.050254
#
#
# Mechanical properties :
#
#
# Convention : Reuss Voigt Hill
#
# Bulk Modulus (GPa) = 42.74334 93.87763 68.31048
# Shear Modulus (GPa) = 22.16146 41.57340 31.86743
#
# Velocity S-wave (km/s) = 3.22286 4.41419 3.86470
# Velocity P-wave (km/s) = 5.82087 8.36538 7.20632
#
# Compressibility (1/GPa) = 0.02339546
#
# Stress axis : x y z
#
# Youngs Moduli (GPa) = 53.10195 128.73005 136.79388
#
# Poissons Ratio (x) = -0.13526 0.18484
# Poissons Ratio (y) = -0.05579 0.67806
# Poissons Ratio (z) = 0.07175 0.63809
#
# Static dielectric constant tensor:
#      x y z
#    x 1.841020 0.000000 0.000000 
#    y 0.000000 1.724040 0.000000 
#    z 0.000000 0.000000 1.749790 
# 
# From -- ./inp_files/2006.got.cif
#   From: 2010.05.17/outbox.cif.g08.bks.cpg/sg47_2_cif.got.tgz:2006.got - 2010.06.03 20:15:42.
