data_PCOD9385458
_publ_section_title
;
Structure prediction by ZEFSAII (Michael W. Deem and Ramdas Pophale) SiO2 
 PCOD9385458
Probable space group: P M M M
;
_chemical_formula_sum "Si O2"
_cell_formula_units_Z 44
_cell_length_a 13.817680
_cell_length_b 8.688318
_cell_length_c 19.439274
_cell_angle_alpha 90.000000
_cell_angle_beta 90.000000
_cell_angle_gamma 90.000000
_cell_volume 2333.731456
_symmetry_space_group_name_H-M "P M M M"
_symmetry_group_IT_number 47
_symmetry_cell_setting 'orthorhombic'
loop_
_space_group_symop_operation_xyz
x,y,z
-x,-y,z
x,-y,-z
-x,y,-z
-x,-y,-z
x,y,-z
-x,y,z
x,-y,z
loop_
_atom_site_type_symbol
_atom_site_label
_atom_site_fract_x
_atom_site_fract_y
_atom_site_fract_z
Si Si1 0.000000 0.183741 0.079163
Si Si2 0.608730 0.686087 0.192787
Si Si3 0.793284 0.683096 0.579280
Si Si4 0.814133 0.319424 0.156312
Si Si5 0.886045 0.824113 0.708560
Si Si6 0.389593 0.817010 0.652680
O O1 0.098690 0.239440 0.115578
O O2 0.000000 0.000000 0.081692
O O3 0.000000 0.235878 0.000000
O O4 0.500000 0.723646 0.167038
O O5 0.613767 0.500000 0.200745
O O6 0.702142 0.731935 0.147349
O O7 0.618431 0.761260 0.268279
O O8 0.806791 0.727437 0.500000
O O9 0.806930 0.500000 0.585360
O O10 0.863462 0.769936 0.631873
O O11 0.686828 0.729022 0.605805
O O12 0.820086 0.500000 0.141683
O O13 0.835483 0.286177 0.236600
O O14 0.000000 0.819450 0.721657
O O15 0.852406 0.000000 0.718971
O O16 0.500000 0.787735 0.630851
O O17 0.371650 0.000000 0.649523
#
# Coordination Sequence:
#
# PCOD9385458 Si02
#       6
#     4   8   8   8   8   8
#     4  11  25  43  63  91 128 165 198 237 287 337
#     4   9  18  33  55  85 119 152 189 236 289 345
#     4  11  24  39  54  74 104 145 192 243 299 354
#     4  11  21  35  62  93 121 156 195 238 287 345
#     4  11  23  38  58  82 110 145 188 238 291 352
#     4  10  20  33  52  78 107 142 186 238 293 348
#
# _framework density 18.853926000000001
#
# number of rings (size 3 to 8) (size 9 to 14) (size 15 to 20)
#    0.000    1.545    2.727    2.455    0.000    5.818 
#    0.000    3.636    0.000    0.545    0.000    3.818 
#    0.000    0.000    0.000    0.000    0.000    0.000 
#
# Total GULP energy -245609.099553 kJ/mol
# GULP energy per Si atom -5582.024990 kJ/mol
# Density = 1.881101 g / cm^3
# Si number density = 18.853926 Si / 1000 Ang^3
#
#
#
# Elastic Constant Matrix: (Units=GPa)
#
#
# Indices 1 2 3 4 5 6 
#
# 1 98.2294 5.6789 36.5836 0.0000 0.0000 0.0000
# 2 5.6789 23.1317 8.4828 0.0000 0.0000 0.0000
# 3 36.5836 8.4828 57.9796 0.0000 0.0000 0.0000
# 4 0.0000 0.0000 0.0000 20.5411 0.0000 0.0000
# 5 0.0000 0.0000 0.0000 0.0000 16.4556 0.0000
# 6 0.0000 0.0000 0.0000 0.0000 0.0000 21.3793
#
#
#
# Elastic Compliance Matrix: (Units=1/GPa)
#
#
# Indices 1 2 3 4 5 6 
#
# 1 0.013308 -0.000198 -0.008368 0.000000 0.000000 0.000000
# 2 -0.000198 0.045685 -0.006559 0.000000 0.000000 0.000000
# 3 -0.008368 -0.006559 0.023487 0.000000 0.000000 0.000000
# 4 0.000000 0.000000 0.000000 0.048683 0.000000 0.000000
# 5 0.000000 0.000000 0.000000 0.000000 0.060769 0.000000
# 6 0.000000 0.000000 0.000000 0.000000 0.000000 0.046774
#
#
# Mechanical properties :
#
#
# Convention : Reuss Voigt Hill
#
# Bulk Modulus (GPa) = 19.14633 31.20347 25.17490
# Shear Modulus (GPa) = 17.46012 20.24825 18.85419
#
# Velocity S-wave (km/s) = 3.04645 3.28068 3.16573
# Velocity P-wave (km/s) = 4.74885 5.56206 5.17147
#
# Compressibility (1/GPa) = 0.05222934
#
# Stress axis : x y z
#
# Youngs Moduli (GPa) = 75.14133 21.88919 42.57659
#
# Poissons Ratio (x) = 0.00434 0.35629
# Poissons Ratio (y) = 0.01491 0.27925
# Poissons Ratio (z) = 0.62879 0.14357
#
# Static dielectric constant tensor:
#      x y z
#    x 1.700410 0.000000 0.000000 
#    y 0.000000 1.636240 0.000000 
#    z 0.000000 0.000000 1.616550 
# 
# From -- ./inp_files/26352.got.cif
#   From: 2010.05.17/outbox.cif.g08.bks.cpg/sg47_14_cif.got.tgz:26352.got - 2010.06.03 20:15:42.
