data_PCOD9385979
_publ_section_title
;
Structure prediction by ZEFSAII (Michael W. Deem and Ramdas Pophale) SiO2 
 PCOD9385979
Probable space group: P M M M
;
_chemical_formula_sum "Si O2"
_cell_formula_units_Z 40
_cell_length_a 7.614462
_cell_length_b 26.467723
_cell_length_c 9.492144
_cell_angle_alpha 90.000000
_cell_angle_beta 90.000000
_cell_angle_gamma 90.000000
_cell_volume 1913.022696
_symmetry_space_group_name_H-M "P M M M"
_symmetry_group_IT_number 47
_symmetry_cell_setting 'orthorhombic'
loop_
_space_group_symop_operation_xyz
x,y,z
-x,-y,z
x,-y,-z
-x,y,-z
-x,-y,-z
x,y,-z
-x,y,z
x,-y,z
loop_
_atom_site_type_symbol
_atom_site_label
_atom_site_fract_x
_atom_site_fract_y
_atom_site_fract_z
Si Si1 0.785399 0.500000 0.662327
Si Si2 0.215042 0.401714 0.161906
Si Si3 0.789379 0.693890 0.660540
Si Si4 0.215627 0.000000 0.338086
Si Si5 0.291424 0.192013 0.339986
Si Si6 0.792178 0.904653 0.841553
O O1 0.727886 0.500000 0.500000
O O2 0.730395 0.449943 0.746108
O O3 0.000000 0.500000 0.660765
O O4 0.274322 0.350104 0.236876
O O5 0.000000 0.401652 0.160972
O O6 0.271753 0.405303 0.000000
O O7 0.722011 0.687955 0.500000
O O8 0.750518 0.750986 0.706965
O O9 0.000000 0.688968 0.654215
O O10 0.276340 0.049874 0.255315
O O11 0.272775 0.000000 0.500000
O O12 0.000000 0.000000 0.340360
O O13 0.220025 0.185679 0.500000
O O14 0.500000 0.187508 0.347557
O O15 0.228496 0.148651 0.236150
O O16 0.000000 0.913967 0.853525
O O17 0.718724 0.904334 0.000000
#
# Coordination Sequence:
#
# PCOD9385979 Si02
#       6
#     4   8   8   4   8   8
#     4   9  15  23  37  59  90 125 156 189 236 292
#     4   9  16  25  39  62  92 123 156 196 241 289
#     4   9  17  30  48  69  94 126 164 204 245 291
#     4   9  17  31  54  81 106 133 166 204 246 293
#     4  10  21  36  53  74 101 134 172 212 253 298
#     4  10  20  34  54  80 108 136 167 205 249 297
#
# _framework density 20.909320000000001
#
# number of rings (size 3 to 8) (size 9 to 14) (size 15 to 20)
#    0.000    2.600    0.000    2.400    0.000    8.000 
#    0.000    2.500    0.000    3.000    0.000    0.700 
#    0.000    5.600    0.000    0.000    0.000    0.000 
#
# Total GULP energy -223373.617064 kJ/mol
# GULP energy per Si atom -5584.340427 kJ/mol
# Density = 2.086173 g / cm^3
# Si number density = 20.909320 Si / 1000 Ang^3
#
#
#
# Elastic Constant Matrix: (Units=GPa)
#
#
# Indices 1 2 3 4 5 6 
#
# 1 41.6345 -4.4446 5.7790 0.0000 0.0000 0.0000
# 2 -4.4446 205.4121 155.3918 0.0000 0.0000 0.0000
# 3 5.7790 155.3918 203.4149 0.0000 0.0000 0.0000
# 4 0.0000 0.0000 0.0000 25.6887 0.0000 0.0000
# 5 0.0000 0.0000 0.0000 0.0000 0.9847 0.0000
# 6 0.0000 0.0000 0.0000 0.0000 0.0000 -61.5630
#
#
#
# Elastic Compliance Matrix: (Units=1/GPa)
#
#
# Indices 1 2 3 4 5 6 
#
# 1 0.024652 0.002519 -0.002625 0.000000 0.000000 0.000000
# 2 0.002519 0.011791 -0.009079 0.000000 0.000000 0.000000
# 3 -0.002625 -0.009079 0.011926 0.000000 0.000000 0.000000
# 4 0.000000 0.000000 0.000000 0.038928 0.000000 0.000000
# 5 0.000000 0.000000 0.000000 0.000000 1.015509 0.000000
# 6 0.000000 0.000000 0.000000 0.000000 0.000000 -0.016244
#
#
# Mechanical properties :
#
#
# Convention : Reuss Voigt Hill
#
# Bulk Modulus (GPa) = 33.33371 84.87931 59.10651
# Shear Modulus (GPa) = 4.48459 12.60443 8.54451
#
# Velocity S-wave (km/s) = 1.46610 2.45789 2.02369
# Velocity P-wave (km/s) = 4.34080 6.98120 5.81290
#
# Compressibility (1/GPa) = 0.02999966
#
# Stress axis : x y z
#
# Youngs Moduli (GPa) = 40.56511 84.81335 83.85120
#
# Poissons Ratio (x) = -0.21363 0.22007
# Poissons Ratio (y) = -0.10218 0.76125
# Poissons Ratio (z) = 0.10646 0.76998
#
# Static dielectric constant tensor:
#      x y z
#    x 1.767630 0.000000 0.000000 
#    y 0.000000 1.710340 0.000000 
#    z 0.000000 0.000000 1.723650 
# 
# From -- ./inp_files/1743.got.cif
#   From: 2010.05.17/outbox.cif.g08.bks.cpg/sg47_1_cif.got.tgz:1743.got - 2010.06.03 20:15:42.
