data_PCOD9385621
_publ_section_title
;
Structure prediction by ZEFSAII (Michael W. Deem and Ramdas Pophale) SiO2 
 PCOD9385621
Probable space group: P M M M
;
_chemical_formula_sum "Si O2"
_cell_formula_units_Z 64
_cell_length_a 14.529775
_cell_length_b 8.984609
_cell_length_c 31.915711
_cell_angle_alpha 90.000000
_cell_angle_beta 90.000000
_cell_angle_gamma 90.000000
_cell_volume 4166.415659
_symmetry_space_group_name_H-M "P M M M"
_symmetry_group_IT_number 47
_symmetry_cell_setting 'orthorhombic'
loop_
_space_group_symop_operation_xyz
x,y,z
-x,-y,z
x,-y,-z
-x,y,-z
-x,-y,-z
x,y,-z
-x,y,z
x,-y,z
loop_
_atom_site_type_symbol
_atom_site_label
_atom_site_fract_x
_atom_site_fract_y
_atom_site_fract_z
Si Si1 0.216374 0.178817 0.715033
Si Si2 0.779647 0.322207 0.122826
Si Si3 0.891763 0.321508 0.792575
Si Si4 0.605871 0.677368 0.747973
Si Si5 0.888699 0.675590 0.454125
Si Si6 0.394118 0.823067 0.839649
Si Si7 0.106890 0.178891 0.631814
Si Si8 0.107944 0.178330 0.048425
O O1 0.157750 0.239179 0.754334
O O2 0.317792 0.247466 0.719101
O O3 0.166197 0.223862 0.671992
O O4 0.220517 0.000000 0.716924
O O5 0.770100 0.500000 0.121457
O O6 0.841611 0.284362 0.163730
O O7 0.681110 0.246095 0.129784
O O8 0.829990 0.262617 0.081695
O O9 0.883051 0.500000 0.786482
O O10 0.000000 0.284901 0.794385
O O11 0.500000 0.705699 0.735253
O O12 0.620165 0.500000 0.750003
O O13 0.617927 0.745532 0.794416
O O14 0.855900 0.729424 0.500000
O O15 0.868692 0.500000 0.451115
O O16 0.857232 0.757572 0.412259
O O17 0.000000 0.691030 0.454523
O O18 0.500000 0.797598 0.852806
O O19 0.380176 0.000000 0.835161
O O20 0.000000 0.226416 0.637507
O O21 0.107301 0.000000 0.629590
O O22 0.000000 0.213008 0.055489
O O23 0.118623 0.000000 0.053282
O O24 0.129417 0.215216 0.000000
#
# Coordination Sequence:
#
# PCOD9385621 Si02
#       8
#     8   8   8   8   8   8   8   8
#     4  11  21  32  47  67  94 128 164 199 237 283
#     4  11  21  33  52  77 103 130 162 199 241 287
#     4  10  21  34  46  65  96 132 166 197 231 276
#     4  10  20  34  51  70  93 122 158 200 244 287
#     4   8  14  25  41  61  84 113 154 200 240 278
#     4  10  20  34  53  76  99 125 160 199 240 286
#     4   9  18  30  42  61  91 126 162 196 233 279
#     4   9  19  36  56  77 102 133 167 201 239 284
#
# _framework density 15.360925
#
# number of rings (size 3 to 8) (size 9 to 14) (size 15 to 20)
#    0.000    2.250    1.250    3.000    0.000    5.000 
#    0.000    3.125    0.000    0.375    0.000    2.625 
#    0.000    0.500    0.000    5.500    0.000    4.250 
#
# Total GULP energy -356968.041665 kJ/mol
# GULP energy per Si atom -5577.625651 kJ/mol
# Density = 1.532596 g / cm^3
# Si number density = 15.360925 Si / 1000 Ang^3
#
#
#
# Elastic Constant Matrix: (Units=GPa)
#
#
# Indices 1 2 3 4 5 6 
#
# 1 98.6099 48.8145 70.1072 0.0000 0.0000 0.0000
# 2 48.8145 46.7241 52.7101 0.0000 0.0000 0.0000
# 3 70.1072 52.7101 125.8949 0.0000 0.0000 0.0000
# 4 0.0000 0.0000 0.0000 33.5820 0.0000 0.0000
# 5 0.0000 0.0000 0.0000 0.0000 8.3149 0.0000
# 6 0.0000 0.0000 0.0000 0.0000 0.0000 23.6139
#
#
#
# Elastic Compliance Matrix: (Units=1/GPa)
#
#
# Indices 1 2 3 4 5 6 
#
# 1 0.022621 -0.017856 -0.005121 0.000000 0.000000 0.000000
# 2 -0.017856 0.054654 -0.012939 0.000000 0.000000 0.000000
# 3 -0.005121 -0.012939 0.016212 0.000000 0.000000 0.000000
# 4 0.000000 0.000000 0.000000 0.029778 0.000000 0.000000
# 5 0.000000 0.000000 0.000000 0.000000 0.120266 0.000000
# 6 0.000000 0.000000 0.000000 0.000000 0.000000 0.042348
#
#
# Mechanical properties :
#
#
# Convention : Reuss Voigt Hill
#
# Bulk Modulus (GPa) = 46.17898 68.27695 57.22796
# Shear Modulus (GPa) = 13.70129 19.74197 16.72163
#
# Velocity S-wave (km/s) = 2.98981 3.58887 3.30295
# Velocity P-wave (km/s) = 6.48433 7.85610 7.20294
#
# Compressibility (1/GPa) = 0.02165488
#
# Stress axis : x y z
#
# Youngs Moduli (GPa) = 44.20705 18.29696 61.68159
#
# Poissons Ratio (x) = 0.32671 0.31587
# Poissons Ratio (y) = 0.78935 0.79812
# Poissons Ratio (z) = 0.22638 0.23675
#
# Static dielectric constant tensor:
#      x y z
#    x 1.506590 0.000000 0.000000 
#    y 0.000000 1.511570 0.000000 
#    z 0.000000 0.000000 1.498330 
# 
# From -- ./inp_files/8288.got.cif
#   From: 2010.05.17/outbox.cif.g08.bks.cpg/sg47_5_cif.got.tgz:8288.got - 2010.06.03 20:15:42.
