data_PCOD9385955
_publ_section_title
;
Structure prediction by ZEFSAII (Michael W. Deem and Ramdas Pophale) SiO2 
 PCOD9385955
Probable space group: P M M M
;
_chemical_formula_sum "Si O2"
_cell_formula_units_Z 40
_cell_length_a 9.364003
_cell_length_b 8.458342
_cell_length_c 26.582096
_cell_angle_alpha 90.000000
_cell_angle_beta 90.000000
_cell_angle_gamma 90.000000
_cell_volume 2105.406733
_symmetry_space_group_name_H-M "P M M M"
_symmetry_group_IT_number 47
_symmetry_cell_setting 'orthorhombic'
loop_
_space_group_symop_operation_xyz
x,y,z
-x,-y,z
x,-y,-z
-x,y,-z
-x,-y,-z
x,y,-z
-x,y,z
x,-y,z
loop_
_atom_site_type_symbol
_atom_site_label
_atom_site_fract_x
_atom_site_fract_y
_atom_site_fract_z
Si Si1 0.665149 0.189078 0.095740
Si Si2 0.163092 0.689142 0.000000
Si Si3 0.164505 0.691345 0.696509
Si Si4 0.334396 0.690781 0.204681
Si Si5 0.335023 0.191255 0.599621
Si Si6 0.164934 0.193039 0.500000
O O1 0.500000 0.242528 0.090025
O O2 0.714774 0.246860 0.150540
O O3 0.667038 0.000000 0.094698
O O4 0.756859 0.252806 0.049808
O O5 0.163150 0.500000 0.000000
O O6 0.000000 0.746424 0.000000
O O7 0.165902 0.500000 0.696119
O O8 0.238387 0.743513 0.748568
O O9 0.255236 0.750547 0.649318
O O10 0.000000 0.743886 0.693231
O O11 0.500000 0.740488 0.212037
O O12 0.331962 0.500000 0.203231
O O13 0.500000 0.243882 0.598372
O O14 0.248885 0.243691 0.550017
O O15 0.334944 0.000000 0.599655
O O16 0.000000 0.244862 0.500000
O O17 0.164279 0.000000 0.500000
#
# Coordination Sequence:
#
# PCOD9385955 Si02
#       6
#     8   4   8   8   8   4
#     4  10  21  37  58  84 112 141 176 220 268 317
#     4  11  24  39  56  80 110 145 184 223 264 314
#     4  10  21  36  54  78 109 143 178 219 267 317
#     4   9  18  34  55  77 104 141 181 218 259 312
#     4  10  20  34  54  79 106 138 178 222 266 316
#     4   9  17  31  52  77 106 139 174 216 268 323
#
# _framework density 18.998705000000001
#
# number of rings (size 3 to 8) (size 9 to 14) (size 15 to 20)
#    0.000    2.200    0.000    2.700    0.000    8.400 
#    0.000    4.500    0.000    3.000    0.000    0.000 
#    0.000    0.000    0.000    0.000    0.000    0.000 
#
# Total GULP energy -223400.965312 kJ/mol
# GULP energy per Si atom -5585.024133 kJ/mol
# Density = 1.895546 g / cm^3
# Si number density = 18.998705 Si / 1000 Ang^3
#
#
#
# Elastic Constant Matrix: (Units=GPa)
#
#
# Indices 1 2 3 4 5 6 
#
# 1 167.0231 23.2413 134.6838 0.0000 0.0000 0.0000
# 2 23.2413 8.2991 26.8760 0.0000 0.0000 0.0000
# 3 134.6838 26.8760 226.4844 0.0000 0.0000 0.0000
# 4 0.0000 0.0000 0.0000 34.3677 0.0000 0.0000
# 5 0.0000 0.0000 0.0000 0.0000 -52.4603 0.0000
# 6 0.0000 0.0000 0.0000 0.0000 0.0000 21.8362
#
#
#
# Elastic Compliance Matrix: (Units=1/GPa)
#
#
# Indices 1 2 3 4 5 6 
#
# 1 0.013052 -0.018541 -0.005561 0.000000 0.000000 0.000000
# 2 -0.018541 0.222040 -0.015323 0.000000 0.000000 0.000000
# 3 -0.005561 -0.015323 0.009541 0.000000 0.000000 0.000000
# 4 0.000000 0.000000 0.000000 0.029097 0.000000 0.000000
# 5 0.000000 0.000000 0.000000 0.000000 -0.019062 0.000000
# 6 0.000000 0.000000 0.000000 0.000000 0.000000 0.045796
#
#
# Mechanical properties :
#
#
# Convention : Reuss Voigt Hill
#
# Bulk Modulus (GPa) = 6.03202 85.71210 45.87206
# Shear Modulus (GPa) = 11.50554 15.21575 13.36064
#
# Velocity S-wave (km/s) = 2.46356 2.83306 2.65474
# Velocity P-wave (km/s) = 3.35768 7.47758 5.79604
#
# Compressibility (1/GPa) = 0.16578195
#
# Stress axis : x y z
#
# Youngs Moduli (GPa) = 76.61872 4.50370 104.81363
#
# Poissons Ratio (x) = 0.08350 0.58290
# Poissons Ratio (y) = 1.42058 1.60605
# Poissons Ratio (z) = 0.42610 0.06901
#
# Static dielectric constant tensor:
#      x y z
#    x 1.651990 0.000000 0.000000 
#    y 0.000000 1.658790 0.000000 
#    z 0.000000 0.000000 1.620920 
# 
# From -- ./inp_files/12974.got.cif
#   From: 2010.05.17/outbox.cif.g08.bks.cpg/sg47_7_cif.got.tgz:12974.got - 2010.06.03 20:15:42.
