data_PCOD9385783
_publ_section_title
;
Structure prediction by ZEFSAII (Michael W. Deem and Ramdas Pophale) SiO2 
 PCOD9385783
Probable space group: P M M M
;
_chemical_formula_sum "Si O2"
_cell_formula_units_Z 52
_cell_length_a 19.904593
_cell_length_b 16.396040
_cell_length_c 8.332270
_cell_angle_alpha 90.000000
_cell_angle_beta 90.000000
_cell_angle_gamma 90.000000
_cell_volume 2719.290499
_symmetry_space_group_name_H-M "P M M M"
_symmetry_group_IT_number 47
_symmetry_cell_setting 'orthorhombic'
loop_
_space_group_symop_operation_xyz
x,y,z
-x,-y,z
x,-y,-z
-x,y,-z
-x,-y,-z
x,y,-z
-x,y,z
x,-y,z
loop_
_atom_site_type_symbol
_atom_site_label
_atom_site_fract_x
_atom_site_fract_y
_atom_site_fract_z
Si Si1 0.799160 0.090596 0.689652
Si Si2 0.421810 0.309454 0.181530
Si Si3 0.924823 0.181845 0.187036
Si Si4 0.419138 0.410952 0.500000
Si Si5 0.283162 0.240301 0.812904
Si Si6 0.781258 0.410811 0.808851
Si Si7 0.924046 0.362531 0.311391
O O1 0.810489 0.089092 0.500000
O O2 0.868353 0.117222 0.772116
O O3 0.747190 0.162474 0.727046
O O4 0.777806 0.000000 0.742093
O O5 0.500000 0.283914 0.196408
O O6 0.405122 0.367086 0.331591
O O7 0.363894 0.242071 0.192179
O O8 0.414822 0.345910 0.000000
O O9 0.916073 0.265067 0.286686
O O10 0.000000 0.150526 0.216573
O O11 0.919600 0.205355 0.000000
O O12 0.388492 0.500000 0.500000
O O13 0.500000 0.417029 0.500000
O O14 0.254326 0.327388 0.749059
O O15 0.262334 0.235440 0.000000
O O16 0.758973 0.500000 0.745558
O O17 0.860829 0.402312 0.775915
O O18 0.769371 0.411538 0.000000
O O19 0.920191 0.381975 0.500000
O O20 0.000000 0.383497 0.254799
#
# Coordination Sequence:
#
# PCOD9385783 Si02
#       7
#     8   8   8   4   8   8   8
#     4  11  24  39  58  86 117 149 186 231 288 349
#     4   9  19  36  59  86 115 154 200 242 293 353
#     4  10  20  35  57  82 109 145 188 233 284 340
#     4   9  18  32  52  84 121 155 196 241 287 345
#     4  10  21  38  61  85 113 151 190 235 285 338
#     4  10  21  36  54  79 111 147 188 231 277 331
#     4  10  20  34  53  76 104 141 186 236 285 330
#
# _framework density 19.122634000000001
#
# number of rings (size 3 to 8) (size 9 to 14) (size 15 to 20)
#    0.000    2.077    1.538    1.385    1.077    4.923 
#    0.000    6.154    0.000    0.462    0.000    3.231 
#    0.000    0.000    0.000    0.000    0.000    0.000 
#
# Total GULP energy -289925.089761 kJ/mol
# GULP energy per Si atom -5575.482495 kJ/mol
# Density = 1.907911 g / cm^3
# Si number density = 19.122634 Si / 1000 Ang^3
#
#
#
# Elastic Constant Matrix: (Units=GPa)
#
#
# Indices 1 2 3 4 5 6 
#
# 1 95.0531 43.3064 18.7820 0.0000 0.0000 0.0000
# 2 43.3064 99.2623 17.8949 0.0000 0.0000 0.0000
# 3 18.7820 17.8949 49.1336 0.0000 0.0000 0.0000
# 4 0.0000 0.0000 0.0000 60.5115 0.0000 0.0000
# 5 0.0000 0.0000 0.0000 0.0000 12.8310 0.0000
# 6 0.0000 0.0000 0.0000 0.0000 0.0000 6.2078
#
#
#
# Elastic Compliance Matrix: (Units=1/GPa)
#
#
# Indices 1 2 3 4 5 6 
#
# 1 0.013599 -0.005347 -0.003251 0.000000 0.000000 0.000000
# 2 -0.005347 0.012885 -0.002649 0.000000 0.000000 0.000000
# 3 -0.003251 -0.002649 0.022560 0.000000 0.000000 0.000000
# 4 0.000000 0.000000 0.000000 0.016526 0.000000 0.000000
# 5 0.000000 0.000000 0.000000 0.000000 0.077936 0.000000
# 6 0.000000 0.000000 0.000000 0.000000 0.000000 0.161086
#
#
# Mechanical properties :
#
#
# Convention : Reuss Voigt Hill
#
# Bulk Modulus (GPa) = 37.66430 44.82396 41.24413
# Shear Modulus (GPa) = 14.88382 26.80777 20.84580
#
# Velocity S-wave (km/s) = 2.79289 3.74824 3.30527
# Velocity P-wave (km/s) = 5.48993 6.49797 6.01510
#
# Compressibility (1/GPa) = 0.02655034
#
# Stress axis : x y z
#
# Youngs Moduli (GPa) = 73.53566 77.61213 44.32600
#
# Poissons Ratio (x) = 0.41498 0.14410
# Poissons Ratio (y) = 0.39318 0.11741
# Poissons Ratio (z) = 0.23906 0.20558
#
# Static dielectric constant tensor:
#      x y z
#    x 1.673040 0.000000 0.000000 
#    y 0.000000 1.668780 0.000000 
#    z 0.000000 0.000000 1.713320 
# 
# From -- ./inp_files/10963.got.cif
#   From: 2010.05.17/outbox.cif.g08.bks.cpg/sg47_6_cif.got.tgz:10963.got - 2010.06.03 20:15:42.
