data_PCOD9385556
_publ_section_title
;
Structure prediction by ZEFSAII (Michael W. Deem and Ramdas Pophale) SiO2 
 PCOD9385556
Probable space group: P M M M
;
_chemical_formula_sum "Si O2"
_cell_formula_units_Z 48
_cell_length_a 9.579264
_cell_length_b 8.208648
_cell_length_c 33.409870
_cell_angle_alpha 90.000000
_cell_angle_beta 90.000000
_cell_angle_gamma 90.000000
_cell_volume 2627.111835
_symmetry_space_group_name_H-M "P M M M"
_symmetry_group_IT_number 47
_symmetry_cell_setting 'orthorhombic'
loop_
_space_group_symop_operation_xyz
x,y,z
-x,-y,z
x,-y,-z
-x,y,-z
-x,-y,-z
x,y,-z
-x,y,z
x,-y,z
loop_
_atom_site_type_symbol
_atom_site_label
_atom_site_fract_x
_atom_site_fract_y
_atom_site_fract_z
Si Si1 0.841809 0.305956 0.500000
Si Si2 0.166744 0.195491 0.826341
Si Si3 0.669555 0.000000 0.954165
Si Si4 0.340773 0.305633 0.661756
Si Si5 0.332268 0.684812 0.097973
Si Si6 0.159557 0.196490 0.736480
Si Si7 0.339905 0.805898 0.425110
O O1 0.849445 0.500000 0.500000
O O2 0.757143 0.254061 0.460705
O O3 0.000000 0.239553 0.500000
O O4 0.253719 0.285361 0.860274
O O5 0.206194 0.246812 0.781113
O O6 0.000000 0.222171 0.830786
O O7 0.190194 0.000000 0.830098
O O8 0.710782 0.166035 0.931142
O O9 0.500000 0.000000 0.954814
O O10 0.718545 0.000000 0.000000
O O11 0.500000 0.243952 0.665765
O O12 0.343332 0.500000 0.660068
O O13 0.252946 0.253092 0.699953
O O14 0.287163 0.243147 0.618924
O O15 0.500000 0.697243 0.103507
O O16 0.303261 0.500000 0.083331
O O17 0.000000 0.252755 0.730948
O O18 0.158008 0.000000 0.736923
O O19 0.500000 0.742428 0.429306
O O20 0.345849 0.000000 0.427218
#
# Coordination Sequence:
#
# PCOD9385556 Si02
#       7
#     4   8   4   8   8   8   8
#     4  11  24  39  56  82 112 139 170 209 258 314
#     4   9  18  34  55  77 105 144 186 226 272 326
#     4   9  18  34  55  79 111 147 181 225 281 332
#     4  10  21  36  54  78 108 141 177 218 265 316
#     4  10  20  33  53  82 111 141 182 228 275 330
#     4   9  19  35  54  77 105 140 182 222 263 316
#     4  10  21  38  60  82 104 135 176 217 260 313
#
# _framework density 18.271014999999998
#
# number of rings (size 3 to 8) (size 9 to 14) (size 15 to 20)
#    0.000    2.333    0.833    2.500    0.000    6.667 
#    0.000    6.667    0.000    1.000    0.000    1.167 
#    0.000    0.000    0.000    0.000    0.000    0.000 
#
# Total GULP energy -267771.752869 kJ/mol
# GULP energy per Si atom -5578.578185 kJ/mol
# Density = 1.822943 g / cm^3
# Si number density = 18.271015 Si / 1000 Ang^3
#
#
#
# Elastic Constant Matrix: (Units=GPa)
#
#
# Indices 1 2 3 4 5 6 
#
# 1 44.2635 30.5141 64.6760 0.0000 0.0000 0.0000
# 2 30.5141 81.6710 63.6683 0.0000 0.0000 0.0000
# 3 64.6760 63.6683 174.8962 0.0000 0.0000 0.0000
# 4 0.0000 0.0000 0.0000 -21.5836 0.0000 0.0000
# 5 0.0000 0.0000 0.0000 0.0000 578.4768 0.0000
# 6 0.0000 0.0000 0.0000 0.0000 0.0000 23.4973
#
#
#
# Elastic Compliance Matrix: (Units=1/GPa)
#
#
# Indices 1 2 3 4 5 6 
#
# 1 0.051240 -0.006105 -0.016726 0.000000 0.000000 0.000000
# 2 -0.006105 0.017823 -0.004231 0.000000 0.000000 0.000000
# 3 -0.016726 -0.004231 0.013443 0.000000 0.000000 0.000000
# 4 0.000000 0.000000 0.000000 -0.046331 0.000000 0.000000
# 5 0.000000 0.000000 0.000000 0.000000 0.001729 0.000000
# 6 0.000000 0.000000 0.000000 0.000000 0.000000 0.042558
#
#
# Mechanical properties :
#
#
# Convention : Reuss Voigt Hill
#
# Bulk Modulus (GPa) = 35.23283 68.72749 51.98016
# Shear Modulus (GPa) = 34.71121 125.54292 80.12706
#
# Velocity S-wave (km/s) = 4.36339 8.29823 6.62948
# Velocity P-wave (km/s) = 6.68662 11.38031 9.33334
#
# Compressibility (1/GPa) = 0.02838262
#
# Stress axis : x y z
#
# Youngs Moduli (GPa) = 19.51606 56.10597 74.38902
#
# Poissons Ratio (x) = 0.34255 1.24421
# Poissons Ratio (y) = 0.11916 0.31471
# Poissons Ratio (z) = 0.32642 0.23736
#
# Static dielectric constant tensor:
#      x y z
#    x 1.623670 0.000000 0.000000 
#    y 0.000000 1.642390 0.000000 
#    z 0.000000 0.000000 1.614520 
# 
# From -- ./inp_files/34102.got.cif
#   From: 2010.05.17/outbox.cif.g08.bks.cpg/sg47_18_cif.got.tgz:34102.got - 2010.06.03 20:15:42.
