data_PCOD9385697
_publ_section_title
;
Structure prediction by ZEFSAII (Michael W. Deem and Ramdas Pophale) SiO2 
 PCOD9385697
Probable space group: P M M M
;
_chemical_formula_sum "Si O2"
_cell_formula_units_Z 40
_cell_length_a 8.611069
_cell_length_b 7.383340
_cell_length_c 27.887329
_cell_angle_alpha 90.000000
_cell_angle_beta 90.000000
_cell_angle_gamma 90.000000
_cell_volume 1773.033158
_symmetry_space_group_name_H-M "P M M M"
_symmetry_group_IT_number 47
_symmetry_cell_setting 'orthorhombic'
loop_
_space_group_symop_operation_xyz
x,y,z
-x,-y,z
x,-y,-z
-x,y,-z
-x,-y,-z
x,y,-z
-x,y,z
x,-y,z
loop_
_atom_site_type_symbol
_atom_site_label
_atom_site_fract_x
_atom_site_fract_y
_atom_site_fract_z
Si Si1 0.172726 0.214810 0.500000
Si Si2 0.825318 0.720660 0.894282
Si Si3 0.327075 0.714955 0.601828
Si Si4 0.674602 0.720343 0.797405
Si Si5 0.500000 0.280153 0.944002
Si Si6 0.175857 0.278742 0.699455
O O1 0.256326 0.262802 0.450675
O O2 0.000000 0.292924 0.500000
O O3 0.162410 0.000000 0.500000
O O4 0.826636 0.500000 0.897239
O O5 0.794176 0.772647 0.838884
O O6 0.666339 0.779158 0.921464
O O7 0.000000 0.779081 0.909611
O O8 0.500000 0.790822 0.602686
O O9 0.337196 0.500000 0.609349
O O10 0.230392 0.784236 0.647122
O O11 0.500000 0.777358 0.810027
O O12 0.674629 0.500000 0.797007
O O13 0.719467 0.779525 0.744078
O O14 0.500000 0.500000 0.938790
O O15 0.500000 0.235058 0.000000
O O16 0.178519 0.500000 0.699240
O O17 0.000000 0.223246 0.708263
#
# Coordination Sequence:
#
# PCOD9385697 Si02
#       6
#     4   8   8   8   4   8
#     4  11  24  39  54  72  94 123 158 193 230 274
#     4   9  15  22  31  42  57  81 114 153 202 256
#     4  10  20  34  52  74  97 121 151 188 232 280
#     4   9  14  21  33  49  71  96 122 156 201 256
#     4   9  16  24  30  38  54  78 114 159 203 248
#     4   9  16  25  39  61  86 110 135 166 210 265
#
# _framework density 22.560209
#
# number of rings (size 3 to 8) (size 9 to 14) (size 15 to 20)
#    0.000    2.600    1.000    2.400    0.000    8.400 
#    0.000    2.000    0.000    0.000    0.000    0.000 
#    0.000    0.000    0.000    0.000    0.000    0.000 
#
# Total GULP energy -223272.424485 kJ/mol
# GULP energy per Si atom -5581.810612 kJ/mol
# Density = 2.250886 g / cm^3
# Si number density = 22.560209 Si / 1000 Ang^3
#
#
#
# Elastic Constant Matrix: (Units=GPa)
#
#
# Indices 1 2 3 4 5 6 
#
# 1 178.0719 2.2067 69.6009 0.0000 0.0000 0.0000
# 2 2.2067 76.8946 -3.9395 0.0000 0.0000 0.0000
# 3 69.6009 -3.9395 131.0450 0.0000 0.0000 0.0000
# 4 0.0000 0.0000 0.0000 -31.0288 0.0000 0.0000
# 5 0.0000 0.0000 0.0000 0.0000 32.0783 0.0000
# 6 0.0000 0.0000 0.0000 0.0000 0.0000 17.5610
#
#
#
# Elastic Compliance Matrix: (Units=1/GPa)
#
#
# Indices 1 2 3 4 5 6 
#
# 1 0.007099 -0.000398 -0.003782 0.000000 0.000000 0.000000
# 2 -0.000398 0.013047 0.000603 0.000000 0.000000 0.000000
# 3 -0.003782 0.000603 0.009658 0.000000 0.000000 0.000000
# 4 0.000000 0.000000 0.000000 -0.032228 0.000000 0.000000
# 5 0.000000 0.000000 0.000000 0.000000 0.031174 0.000000
# 6 0.000000 0.000000 0.000000 0.000000 0.000000 0.056944
#
#
# Mechanical properties :
#
#
# Convention : Reuss Voigt Hill
#
# Bulk Modulus (GPa) = 44.14804 57.97196 51.06000
# Shear Modulus (GPa) = 49.80207 24.93169 37.36688
#
# Velocity S-wave (km/s) = 4.70352 3.32794 4.07420
# Velocity P-wave (km/s) = 7.00778 6.36547 6.69433
#
# Compressibility (1/GPa) = 0.02265106
#
# Stress axis : x y z
#
# Youngs Moduli (GPa) = 140.86464 76.64522 103.54098
#
# Poissons Ratio (x) = 0.03047 0.39163
# Poissons Ratio (y) = 0.05600 -0.06247
# Poissons Ratio (z) = 0.53281 -0.04624
#
# Static dielectric constant tensor:
#      x y z
#    x 1.831040 0.000000 0.000000 
#    y 0.000000 1.877960 0.000000 
#    z 0.000000 0.000000 1.947590 
# 
# From -- ./inp_files/32991.got.cif
#   From: 2010.05.17/outbox.cif.g08.bks.cpg/sg47_17_cif.got.tgz:32991.got - 2010.06.03 20:15:42.
