data_PCOD9385729
_publ_section_title
;
Structure prediction by ZEFSAII (Michael W. Deem and Ramdas Pophale) SiO2 
 PCOD9385729
Probable space group: P M M M
;
_chemical_formula_sum "Si O2"
_cell_formula_units_Z 44
_cell_length_a 32.554286
_cell_length_b 8.214877
_cell_length_c 7.543927
_cell_angle_alpha 90.000000
_cell_angle_beta 90.000000
_cell_angle_gamma 90.000000
_cell_volume 2017.468289
_symmetry_space_group_name_H-M "P M M M"
_symmetry_group_IT_number 47
_symmetry_cell_setting 'orthorhombic'
loop_
_space_group_symop_operation_xyz
x,y,z
-x,-y,z
x,-y,-z
-x,y,-z
-x,-y,-z
x,y,-z
-x,y,z
x,-y,z
loop_
_atom_site_type_symbol
_atom_site_label
_atom_site_fract_x
_atom_site_fract_y
_atom_site_fract_z
Si Si1 0.000000 0.692599 0.796962
Si Si2 0.913181 0.189553 0.787021
Si Si3 0.547745 0.682310 0.216034
Si Si4 0.307260 0.000000 0.217482
Si Si5 0.597597 0.000000 0.216549
Si Si6 0.176804 0.812505 0.708047
Si Si7 0.737648 0.677327 0.205630
O O1 0.956332 0.743043 0.716811
O O2 0.000000 0.500000 0.807168
O O3 0.000000 0.760792 0.000000
O O4 0.869038 0.257641 0.731058
O O5 0.912321 0.000000 0.737867
O O6 0.913978 0.205349 0.000000
O O7 0.500000 0.703775 0.266992
O O8 0.561005 0.500000 0.271969
O O9 0.574698 0.835190 0.275658
O O10 0.548751 0.682730 0.000000
O O11 0.284550 0.836632 0.281298
O O12 0.354839 0.000000 0.267427
O O13 0.304725 0.000000 0.000000
O O14 0.596201 0.000000 0.000000
O O15 0.185103 0.820037 0.500000
O O16 0.213650 0.711332 0.789889
O O17 0.177373 0.000000 0.778200
O O18 0.728850 0.500000 0.285554
O O19 0.724903 0.669948 0.000000
#
# Coordination Sequence:
#
# PCOD9385729 Si02
#       7
#     4   8   8   4   4   8   8
#     4   9  17  29  46  69  96 124 158 197 232 277
#     4   9  17  30  50  73  97 127 160 195 237 286
#     4   8  13  20  30  47  74 109 150 194 237 284
#     4   9  18  31  45  64  91 118 157 210 254 297
#     4   9  15  22  35  53  75 109 149 197 248 287
#     4  10  20  34  53  76 100 126 159 202 250 297
#     4  10  20  34  53  73  95 127 163 202 252 304
#
# _framework density 21.809511000000001
#
# number of rings (size 3 to 8) (size 9 to 14) (size 15 to 20)
#    0.000    2.818    0.909    1.636    0.000    4.727 
#    0.000    5.909    0.000    2.727    0.000    0.000 
#    0.000    0.000    0.000    0.000    0.000    7.273 
#
# Total GULP energy -245449.846081 kJ/mol
# GULP energy per Si atom -5578.405593 kJ/mol
# Density = 2.175987 g / cm^3
# Si number density = 21.809511 Si / 1000 Ang^3
#
#
#
# Elastic Constant Matrix: (Units=GPa)
#
#
# Indices 1 2 3 4 5 6 
#
# 1 148.5486 105.7424 2.9623 0.0000 0.0000 0.0000
# 2 105.7424 170.6971 10.9411 0.0000 0.0000 0.0000
# 3 2.9623 10.9411 46.8943 0.0000 0.0000 0.0000
# 4 0.0000 0.0000 0.0000 -4.5355 0.0000 0.0000
# 5 0.0000 0.0000 0.0000 0.0000 -50.2936 0.0000
# 6 0.0000 0.0000 0.0000 0.0000 0.0000 -32.1642
#
#
#
# Elastic Compliance Matrix: (Units=1/GPa)
#
#
# Indices 1 2 3 4 5 6 
#
# 1 0.012088 -0.007552 0.000998 0.000000 0.000000 0.000000
# 2 -0.007552 0.010666 -0.002011 0.000000 0.000000 0.000000
# 3 0.000998 -0.002011 0.021731 0.000000 0.000000 0.000000
# 4 0.000000 0.000000 0.000000 -0.220483 0.000000 0.000000
# 5 0.000000 0.000000 0.000000 0.000000 -0.019883 0.000000
# 6 0.000000 0.000000 0.000000 0.000000 0.000000 -0.031091
#
#
# Mechanical properties :
#
#
# Convention : Reuss Voigt Hill
#
# Bulk Modulus (GPa) = 36.55766 67.27020 51.91393
# Shear Modulus (GPa) = -24.90974 -0.96571 -12.93772
#
# Velocity S-wave (km/s) = -3.38324 -0.66615 -2.43824
# Velocity P-wave (km/s) = 1.23973 5.50633 3.99103
#
# Compressibility (1/GPa) = 0.02735405
#
# Stress axis : x y z
#
# Youngs Moduli (GPa) = 82.72881 93.76005 46.01776
#
# Poissons Ratio (x) = 0.70808 -0.04594
# Poissons Ratio (y) = 0.62477 0.09256
# Poissons Ratio (z) = -0.08260 0.18859
#
# Static dielectric constant tensor:
#      x y z
#    x 1.776760 0.000000 0.000000 
#    y 0.000000 1.797470 0.000000 
#    z 0.000000 0.000000 1.817370 
# 
# From -- ./inp_files/13770.got.cif
#   From: 2010.05.17/outbox.cif.g08.bks.cpg/sg47_7_cif.got.tgz:13770.got - 2010.06.03 20:15:42.
