data_PCOD9385533
_publ_section_title
;
Structure prediction by ZEFSAII (Michael W. Deem and Ramdas Pophale) SiO2 
 PCOD9385533
Probable space group: P M M M
;
_chemical_formula_sum "Si O2"
_cell_formula_units_Z 56
_cell_length_a 15.144669
_cell_length_b 11.613389
_cell_length_c 13.862040
_cell_angle_alpha 90.000000
_cell_angle_beta 90.000000
_cell_angle_gamma 90.000000
_cell_volume 2438.068520
_symmetry_space_group_name_H-M "P M M M"
_symmetry_group_IT_number 47
_symmetry_cell_setting 'orthorhombic'
loop_
_space_group_symop_operation_xyz
x,y,z
-x,-y,z
x,-y,-z
-x,y,-z
-x,-y,-z
x,y,-z
-x,y,z
x,-y,z
loop_
_atom_site_type_symbol
_atom_site_label
_atom_site_fract_x
_atom_site_fract_y
_atom_site_fract_z
Si Si1 0.865489 0.876657 0.812448
Si Si2 0.255368 0.376734 0.614927
Si Si3 0.604690 0.193207 0.608857
Si Si4 0.351399 0.627377 0.114839
Si Si5 0.100436 0.794694 0.610939
Si Si6 0.138566 0.373112 0.114999
Si Si7 0.346260 0.876811 0.812294
O O1 0.888712 0.880959 0.698953
O O2 0.896867 0.750344 0.847639
O O3 0.759377 0.874162 0.826898
O O4 0.895658 0.000000 0.855697
O O5 0.248337 0.387569 0.500000
O O6 0.252443 0.500000 0.661671
O O7 0.347175 0.313537 0.630468
O O8 0.171889 0.300669 0.640312
O O9 0.631942 0.156743 0.500000
O O10 0.500000 0.201549 0.609401
O O11 0.636206 0.118789 0.697876
O O12 0.383976 0.500000 0.149321
O O13 0.245042 0.627919 0.130631
O O14 0.383231 0.752451 0.153553
O O15 0.366400 0.629347 0.000000
O O16 0.119134 0.833782 0.500000
O O17 0.000000 0.751342 0.610325
O O18 0.106870 0.500000 0.150959
O O19 0.124233 0.372683 0.000000
O O20 0.378852 0.000000 0.854051
#
# Coordination Sequence:
#
# PCOD9385533 Si02
#       7
#     8   8   8   8   8   8   8
#     4  10  20  33  52  83 118 151 194 247 299 349
#     4   9  18  34  55  79 110 149 194 245 295 342
#     4  10  21  37  56  80 114 157 202 245 292 347
#     4   8  15  30  53  81 112 148 191 237 290 356
#     4  10  21  37  56  80 114 157 202 245 292 347
#     4   8  15  30  53  81 112 148 191 237 290 356
#     4  10  20  33  52  83 118 151 194 247 299 349
#
# _framework density 22.969003000000001
#
# number of rings (size 3 to 8) (size 9 to 14) (size 15 to 20)
#    0.000    2.714    1.429    0.857    0.000    3.429 
#    0.000    8.571    0.000    0.857    0.000    4.000 
#    0.000    0.000    0.000    0.000    0.000    0.000 
#
# Total GULP energy -311923.842526 kJ/mol
# GULP energy per Si atom -5570.068617 kJ/mol
# Density = 2.291672 g / cm^3
# Si number density = 22.969003 Si / 1000 Ang^3
#
#
#
# Elastic Constant Matrix: (Units=GPa)
#
#
# Indices 1 2 3 4 5 6 
#
# 1 22.7825 9.1753 -12.0345 0.0000 0.0000 0.0000
# 2 9.1753 240.1396 64.1968 0.0000 0.0000 0.0000
# 3 -12.0345 64.1968 59.1271 0.0000 0.0000 0.0000
# 4 0.0000 0.0000 0.0000 26.2689 0.0000 0.0000
# 5 0.0000 0.0000 0.0000 0.0000 -0.1511 0.0000
# 6 0.0000 0.0000 0.0000 0.0000 0.0000 20.0179
#
#
#
# Elastic Compliance Matrix: (Units=1/GPa)
#
#
# Indices 1 2 3 4 5 6 
#
# 1 0.057371 -0.007487 0.019806 0.000000 0.000000 0.000000
# 2 -0.007487 0.006844 -0.008955 0.000000 0.000000 0.000000
# 3 0.019806 -0.008955 0.030667 0.000000 0.000000 0.000000
# 4 0.000000 0.000000 0.000000 0.038068 0.000000 0.000000
# 5 0.000000 0.000000 0.000000 0.000000 -6.618320 0.000000
# 6 0.000000 0.000000 0.000000 0.000000 0.000000 0.049955
#
#
# Mechanical properties :
#
#
# Convention : Reuss Voigt Hill
#
# Bulk Modulus (GPa) = 9.84159 49.41381 29.62770
# Shear Modulus (GPa) = -0.78024 26.60790 12.91383
#
# Velocity S-wave (km/s) = -0.58346 3.40726 2.37371
# Velocity P-wave (km/s) = 1.95962 6.08598 4.52102
#
# Compressibility (1/GPa) = 0.10160959
#
# Stress axis : x y z
#
# Youngs Moduli (GPa) = 17.43053 146.10870 32.60875
#
# Poissons Ratio (x) = 1.09387 -0.64584
# Poissons Ratio (y) = 0.13050 0.29201
# Poissons Ratio (z) = -0.34522 1.30839
#
# Static dielectric constant tensor:
#      x y z
#    x 1.818410 0.000000 0.000000 
#    y 0.000000 2.271050 0.000000 
#    z 0.000000 0.000000 1.956530 
# 
# From -- ./inp_files/23653.got.cif
#   From: 2010.05.17/outbox.cif.g08.bks.cpg/sg47_12_cif.got.tgz:23653.got - 2010.06.03 20:15:42.
