data_PCOD9385547
_publ_section_title
;
Structure prediction by ZEFSAII (Michael W. Deem and Ramdas Pophale) SiO2 
 PCOD9385547
Probable space group: P M M M
;
_chemical_formula_sum "Si O2"
_cell_formula_units_Z 64
_cell_length_a 24.321067
_cell_length_b 14.330874
_cell_length_c 9.800780
_cell_angle_alpha 90.000000
_cell_angle_beta 90.000000
_cell_angle_gamma 90.000000
_cell_volume 3415.984901
_symmetry_space_group_name_H-M "P M M M"
_symmetry_group_IT_number 47
_symmetry_cell_setting 'orthorhombic'
loop_
_space_group_symop_operation_xyz
x,y,z
-x,-y,z
x,-y,-z
-x,y,-z
-x,-y,-z
x,y,-z
-x,y,z
x,-y,z
loop_
_atom_site_type_symbol
_atom_site_label
_atom_site_fract_x
_atom_site_fract_y
_atom_site_fract_z
Si Si1 0.565983 0.893500 0.661063
Si Si2 0.746856 0.889961 0.849207
Si Si3 0.360562 0.235821 0.843673
Si Si4 0.157629 0.113714 0.346046
Si Si5 0.062391 0.113312 0.151882
Si Si6 0.937145 0.613306 0.841594
Si Si7 0.832824 0.613317 0.340686
Si Si8 0.274299 0.388640 0.161201
O O1 0.579190 0.884808 0.500000
O O2 0.500000 0.887989 0.674923
O O3 0.594894 0.812023 0.746477
O O4 0.582298 0.000000 0.703569
O O5 0.690088 0.836600 0.844298
O O6 0.788792 0.856784 0.735614
O O7 0.737327 0.000000 0.831166
O O8 0.771951 0.877247 0.000000
O O9 0.329726 0.331758 0.802531
O O10 0.380904 0.245376 0.000000
O O11 0.158031 0.144690 0.500000
O O12 0.103942 0.144633 0.265952
O O13 0.157634 0.000000 0.344651
O O14 0.000000 0.143226 0.173979
O O15 0.062228 0.000000 0.153371
O O16 0.079883 0.140904 0.000000
O O17 0.936671 0.500000 0.840327
O O18 0.887944 0.642985 0.741121
O O19 0.000000 0.640941 0.804483
O O20 0.927313 0.640858 0.000000
O O21 0.831513 0.642234 0.500000
O O22 0.833796 0.500000 0.341237
O O23 0.777806 0.638172 0.255020
O O24 0.282226 0.500000 0.173050
O O25 0.262747 0.367850 0.000000
#
# Coordination Sequence:
#
# PCOD9385547 Si02
#       8
#     8   8   8   8   8   8   8   8
#     4   9  19  36  57  83 117 153 181 206 246 301
#     4   9  17  29  44  64  94 126 153 189 238 289
#     4  10  20  33  53  81 106 134 177 220 255 294
#     4   9  16  24  35  54  81 113 149 188 231 282
#     4   8  13  21  33  49  71 103 144 188 234 283
#     4   8  13  21  34  54  82 117 156 199 253 319
#     4   9  16  25  39  61  89 122 163 211 261 314
#     4   9  18  33  51  71 100 137 175 219 270 318
#
# _framework density 18.735444999999999
#
# number of rings (size 3 to 8) (size 9 to 14) (size 15 to 20)
#    0.000    3.125    0.000    2.250    0.000    5.500 
#    0.000    4.375    0.000    0.375    0.000    3.500 
#    0.000    7.000    0.000    0.750    0.000    0.125 
#
# Total GULP energy -356914.662693 kJ/mol
# GULP energy per Si atom -5576.791605 kJ/mol
# Density = 1.869280 g / cm^3
# Si number density = 18.735445 Si / 1000 Ang^3
#
#
#
# Elastic Constant Matrix: (Units=GPa)
#
#
# Indices 1 2 3 4 5 6 
#
# 1 68.4455 29.7835 51.7343 0.0000 0.0000 0.0000
# 2 29.7835 99.8045 32.7665 0.0000 0.0000 0.0000
# 3 51.7343 32.7665 92.7641 0.0000 0.0000 0.0000
# 4 0.0000 0.0000 0.0000 1.8633 0.0000 0.0000
# 5 0.0000 0.0000 0.0000 0.0000 46.1371 0.0000
# 6 0.0000 0.0000 0.0000 0.0000 0.0000 605.4873
#
#
#
# Elastic Compliance Matrix: (Units=1/GPa)
#
#
# Indices 1 2 3 4 5 6 
#
# 1 0.026252 -0.003425 -0.013431 0.000000 0.000000 0.000000
# 2 -0.003425 0.011781 -0.002251 0.000000 0.000000 0.000000
# 3 -0.013431 -0.002251 0.019066 0.000000 0.000000 0.000000
# 4 0.000000 0.000000 0.000000 0.536685 0.000000 0.000000
# 5 0.000000 0.000000 0.000000 0.000000 0.021675 0.000000
# 6 0.000000 0.000000 0.000000 0.000000 0.000000 0.001652
#
#
# Mechanical properties :
#
#
# Convention : Reuss Voigt Hill
#
# Bulk Modulus (GPa) = 52.95344 54.39809 53.67577
# Shear Modulus (GPa) = 7.55722 140.47953 74.01837
#
# Velocity S-wave (km/s) = 2.01057 8.66853 6.29229
# Velocity P-wave (km/s) = 5.80646 11.37054 9.02785
#
# Compressibility (1/GPa) = 0.01888452
#
# Stress axis : x y z
#
# Youngs Moduli (GPa) = 38.09203 84.88471 52.45007
#
# Poissons Ratio (x) = 0.29070 0.70446
# Poissons Ratio (y) = 0.13045 0.11808
# Poissons Ratio (z) = 0.51162 0.19110
#
# Static dielectric constant tensor:
#      x y z
#    x 1.610410 0.000000 0.000000 
#    y 0.000000 1.758700 0.000000 
#    z 0.000000 0.000000 1.640490 
# 
# From -- ./inp_files/12692.got.cif
#   From: 2010.05.17/outbox.cif.g08.bks.cpg/sg47_7_cif.got.tgz:12692.got - 2010.06.03 20:15:42.
