data_PCOD9385897
_publ_section_title
;
Structure prediction by ZEFSAII (Michael W. Deem and Ramdas Pophale) SiO2 
 PCOD9385897
Probable space group: P M M M
;
_chemical_formula_sum "Si O2"
_cell_formula_units_Z 32
_cell_length_a 9.361240
_cell_length_b 23.389644
_cell_length_c 7.719021
_cell_angle_alpha 90.000000
_cell_angle_beta 90.000000
_cell_angle_gamma 90.000000
_cell_volume 1690.126510
_symmetry_space_group_name_H-M "P M M M"
_symmetry_group_IT_number 47
_symmetry_cell_setting 'orthorhombic'
loop_
_space_group_symop_operation_xyz
x,y,z
-x,-y,z
x,-y,-z
-x,y,-z
-x,-y,-z
x,y,-z
-x,y,z
x,-y,z
loop_
_atom_site_type_symbol
_atom_site_label
_atom_site_fract_x
_atom_site_fract_y
_atom_site_fract_z
Si Si1 0.661115 0.887102 0.207733
Si Si2 0.164366 0.222267 0.788347
Si Si3 0.838590 0.000000 0.293574
Si Si4 0.174137 0.650267 0.801339
Si Si5 0.825521 0.565604 0.500000
O O1 0.500000 0.893191 0.275241
O O2 0.739327 0.830019 0.273213
O O3 0.753645 0.943301 0.241581
O O4 0.652566 0.881092 0.000000
O O5 0.215512 0.285893 0.740635
O O6 0.000000 0.214475 0.732041
O O7 0.162785 0.222044 0.000000
O O8 0.847255 0.000000 0.500000
O O9 0.000000 0.000000 0.222191
O O10 0.219478 0.601242 0.669287
O O11 0.000000 0.651073 0.803392
O O12 0.220716 0.641149 0.000000
O O13 0.777917 0.500000 0.500000
O O14 0.000000 0.565109 0.500000
#
# Coordination Sequence:
#
# PCOD9385897 Si02
#       5
#     8   8   4   8   4
#     4  10  20  34  54  78 101 127 161 204 256 307
#     4   8  14  27  47  68  92 124 161 200 243 294
#     4  11  24  39  52  70  98 133 172 207 244 296
#     4   8  14  25  40  59  87 124 162 201 247 295
#     4   9  16  24  36  60  93 126 161 200 243 295
#
# _framework density 18.933495000000001
#
# number of rings (size 3 to 8) (size 9 to 14) (size 15 to 20)
#    0.000    3.000    0.000    3.000    0.000    4.500 
#    2.250    2.500    0.000    0.000    0.000    0.000 
#    0.000    2.000    0.000    9.750    0.000   10.000 
#
# Total GULP energy -178428.810130 kJ/mol
# GULP energy per Si atom -5575.900317 kJ/mol
# Density = 1.889040 g / cm^3
# Si number density = 18.933495 Si / 1000 Ang^3
#
#
#
# Elastic Constant Matrix: (Units=GPa)
#
#
# Indices 1 2 3 4 5 6 
#
# 1 84.5609 76.0550 21.5759 0.0000 0.0000 0.0000
# 2 76.0550 217.1293 56.3124 0.0000 0.0000 0.0000
# 3 21.5759 56.3124 61.7366 0.0000 0.0000 0.0000
# 4 0.0000 0.0000 0.0000 51.3259 0.0000 0.0000
# 5 0.0000 0.0000 0.0000 0.0000 5.1796 0.0000
# 6 0.0000 0.0000 0.0000 0.0000 0.0000 -4.6633
#
#
#
# Elastic Compliance Matrix: (Units=1/GPa)
#
#
# Indices 1 2 3 4 5 6 
#
# 1 0.017287 -0.005879 -0.000679 0.000000 0.000000 0.000000
# 2 -0.005879 0.008032 -0.005272 0.000000 0.000000 0.000000
# 3 -0.000679 -0.005272 0.021244 0.000000 0.000000 0.000000
# 4 0.000000 0.000000 0.000000 0.019483 0.000000 0.000000
# 5 0.000000 0.000000 0.000000 0.000000 0.193065 0.000000
# 6 0.000000 0.000000 0.000000 0.000000 0.000000 -0.214442
#
#
# Mechanical properties :
#
#
# Convention : Reuss Voigt Hill
#
# Bulk Modulus (GPa) = 43.66227 74.59037 59.12632
# Shear Modulus (GPa) = 65.82192 24.33401 45.07797
#
# Velocity S-wave (km/s) = 5.90256 3.58891 4.88470
# Velocity P-wave (km/s) = 8.34054 7.52696 7.94417
#
# Compressibility (1/GPa) = 0.02290307
#
# Stress axis : x y z
#
# Youngs Moduli (GPa) = 57.84803 124.50127 47.07288
#
# Poissons Ratio (x) = 0.73195 0.03196
# Poissons Ratio (y) = 0.34009 0.24816
# Poissons Ratio (z) = 0.03927 0.65634
#
# Static dielectric constant tensor:
#      x y z
#    x 1.641890 0.000000 0.000000 
#    y 0.000000 1.645530 0.000000 
#    z 0.000000 0.000000 1.690050 
# 
# From -- ./inp_files/1302.got.cif
#   From: 2010.05.17/outbox.cif.g08.bks.cpg/sg47_1_cif.got.tgz:1302.got - 2010.06.03 20:15:42.
