data_PCOD9385138
_publ_section_title
;
Structure prediction by ZEFSAII (Michael W. Deem and Ramdas Pophale) SiO2 
 PCOD9385138
Probable space group: P M M M
;
_chemical_formula_sum "Si O2"
_cell_formula_units_Z 48
_cell_length_a 7.517120
_cell_length_b 9.310818
_cell_length_c 32.159055
_cell_angle_alpha 90.000000
_cell_angle_beta 90.000000
_cell_angle_gamma 90.000000
_cell_volume 2250.829503
_symmetry_space_group_name_H-M "P M M M"
_symmetry_group_IT_number 47
_symmetry_cell_setting 'orthorhombic'
loop_
_space_group_symop_operation_xyz
x,y,z
-x,-y,z
x,-y,-z
-x,y,-z
-x,-y,-z
x,y,-z
-x,y,z
x,-y,z
loop_
_atom_site_type_symbol
_atom_site_label
_atom_site_fract_x
_atom_site_fract_y
_atom_site_fract_z
Si Si1 0.217412 0.165790 0.500000
Si Si2 0.711317 0.336166 0.909406
Si Si3 0.217334 0.665705 0.582655
Si Si4 0.217626 0.165629 0.334623
Si Si5 0.211056 0.663577 0.000000
Si Si6 0.286399 0.162330 0.169751
Si Si7 0.213289 0.663125 0.746620
O O1 0.273832 0.249588 0.458591
O O2 0.000000 0.165337 0.500000
O O3 0.274204 0.000000 0.500000
O O4 0.500000 0.347379 0.903332
O O5 0.783754 0.500000 0.908804
O O6 0.782564 0.241491 0.871633
O O7 0.737427 0.272310 0.955551
O O8 0.274420 0.500000 0.582409
O O9 0.273150 0.748539 0.624256
O O10 0.000000 0.665097 0.582578
O O11 0.278178 0.246631 0.293006
O O12 0.000000 0.165161 0.334448
O O13 0.274367 0.000000 0.335415
O O14 0.286619 0.500000 0.000000
O O15 0.000000 0.654879 0.000000
O O16 0.500000 0.153441 0.165823
O O17 0.249957 0.255425 0.210557
O O18 0.217958 0.000000 0.173988
O O19 0.281939 0.500000 0.747210
O O20 0.000000 0.655041 0.742342
#
# Coordination Sequence:
#
# PCOD9385138 Si02
#       7
#     4   8   8   8   4   8   8
#     4   9  15  21  29  43  65  97 140 187 234 283
#     4   9  17  31  51  72  95 126 162 197 236 284
#     4   9  15  22  32  47  70 102 142 187 232 280
#     4   9  16  26  40  58  82 113 148 187 233 285
#     4   9  17  29  48  75 102 126 158 201 242 279
#     4  10  21  36  53  74 100 130 164 202 245 291
#     4  10  20  33  50  72  96 124 160 200 242 290
#
# _framework density 21.325471
#
# number of rings (size 3 to 8) (size 9 to 14) (size 15 to 20)
#    0.000    2.667    0.000    2.500    0.000    8.667 
#    0.000    2.083    0.000    2.500    0.000    0.000 
#    0.000    0.000    0.000    0.750    0.000   14.667 
#
# Total GULP energy -268057.186354 kJ/mol
# GULP energy per Si atom -5584.524716 kJ/mol
# Density = 2.127693 g / cm^3
# Si number density = 21.325471 Si / 1000 Ang^3
#
#
#
# Elastic Constant Matrix: (Units=GPa)
#
#
# Indices 1 2 3 4 5 6 
#
# 1 55.7004 6.1635 -1.1544 0.0000 0.0000 0.0000
# 2 6.1635 212.0185 145.0954 0.0000 0.0000 0.0000
# 3 -1.1544 145.0954 254.0909 0.0000 0.0000 0.0000
# 4 0.0000 0.0000 0.0000 -43.0220 0.0000 0.0000
# 5 0.0000 0.0000 0.0000 0.0000 20.2133 0.0000
# 6 0.0000 0.0000 0.0000 0.0000 0.0000 3.2402
#
#
#
# Elastic Compliance Matrix: (Units=1/GPa)
#
#
# Indices 1 2 3 4 5 6 
#
# 1 0.018072 -0.000955 0.000627 0.000000 0.000000 0.000000
# 2 -0.000955 0.007793 -0.004454 0.000000 0.000000 0.000000
# 3 0.000627 -0.004454 0.006482 0.000000 0.000000 0.000000
# 4 0.000000 0.000000 0.000000 -0.023244 0.000000 0.000000
# 5 0.000000 0.000000 0.000000 0.000000 0.049472 0.000000
# 6 0.000000 0.000000 0.000000 0.000000 0.000000 0.308622
#
#
# Mechanical properties :
#
#
# Convention : Reuss Voigt Hill
#
# Bulk Modulus (GPa) = 43.89196 91.33543 67.61369
# Shear Modulus (GPa) = 13.00884 20.86666 16.93775
#
# Velocity S-wave (km/s) = 2.47253 3.13147 2.82130
# Velocity P-wave (km/s) = 5.36449 7.48312 6.51056
#
# Compressibility (1/GPa) = 0.02278322
#
# Stress axis : x y z
#
# Youngs Moduli (GPa) = 55.33474 128.32784 154.27464
#
# Poissons Ratio (x) = 0.12250 -0.09676
# Poissons Ratio (y) = 0.05282 0.68717
# Poissons Ratio (z) = -0.03471 0.57159
#
# Static dielectric constant tensor:
#      x y z
#    x 1.833680 0.000000 0.000000 
#    y 0.000000 1.747130 0.000000 
#    z 0.000000 0.000000 1.735830 
# 
# From -- ./inp_files/34093.got.cif
#   From: 2010.05.17/outbox.cif.g08.bks.cpg/sg47_18_cif.got.tgz:34093.got - 2010.06.03 20:15:42.
