data_PCOD9385353
_publ_section_title
;
Structure prediction by ZEFSAII (Michael W. Deem and Ramdas Pophale) SiO2 
 PCOD9385353
Probable space group: P M M M
;
_chemical_formula_sum "Si O2"
_cell_formula_units_Z 44
_cell_length_a 29.822928
_cell_length_b 7.656905
_cell_length_c 9.607932
_cell_angle_alpha 90.000000
_cell_angle_beta 90.000000
_cell_angle_gamma 90.000000
_cell_volume 2193.984017
_symmetry_space_group_name_H-M "P M M M"
_symmetry_group_IT_number 47
_symmetry_cell_setting 'orthorhombic'
loop_
_space_group_symop_operation_xyz
x,y,z
-x,-y,z
x,-y,-z
-x,y,-z
-x,-y,-z
x,y,-z
-x,y,z
x,-y,z
loop_
_atom_site_type_symbol
_atom_site_label
_atom_site_fract_x
_atom_site_fract_y
_atom_site_fract_z
Si Si1 0.144802 0.209495 0.157818
Si Si2 0.584114 0.792318 0.842373
Si Si3 0.669729 0.289240 0.339930
Si Si4 0.951729 0.792065 0.831293
Si Si5 0.230255 0.290112 0.342433
Si Si6 0.500000 0.214306 0.339383
O O1 0.096815 0.276352 0.216347
O O2 0.188668 0.244722 0.246534
O O3 0.140081 0.000000 0.149889
O O4 0.150610 0.275642 0.000000
O O5 0.631167 0.765748 0.765043
O O6 0.543942 0.725965 0.744652
O O7 0.576963 0.000000 0.853046
O O8 0.583619 0.721399 0.000000
O O9 0.661210 0.231114 0.500000
O O10 0.669810 0.500000 0.342155
O O11 0.719935 0.229844 0.298565
O O12 0.000000 0.718887 0.783860
O O13 0.952951 0.000000 0.801199
O O14 0.950684 0.775485 0.000000
O O15 0.222717 0.226779 0.500000
O O16 0.232443 0.500000 0.346874
O O17 0.500000 0.270986 0.500000
O O18 0.500000 0.000000 0.341745
#
# Coordination Sequence:
#
# PCOD9385353 Si02
#       6
#     8   8   8   8   8   4
#     4   9  17  28  45  72  99 119 148 194 240 281
#     4  10  20  33  51  77 106 131 156 192 238 283
#     4   9  19  36  54  70  91 123 164 204 238 277
#     4   7  10  19  37  61  89 119 148 181 226 277
#     4   9  19  35  51  66  89 125 164 197 233 281
#     4   9  17  31  52  75 100 133 168 196 226 271
#
# _framework density 20.054842000000001
#
# number of rings (size 3 to 8) (size 9 to 14) (size 15 to 20)
#    0.000    3.182    0.000    3.545    0.000    4.727 
#    0.000    5.909    0.000    3.818    0.000    6.364 
#    0.000    0.000    0.000    0.000    0.000    0.000 
#
# Total GULP energy -245141.603557 kJ/mol
# GULP energy per Si atom -5571.400081 kJ/mol
# Density = 2.000920 g / cm^3
# Si number density = 20.054842 Si / 1000 Ang^3
#
#
#
# Elastic Constant Matrix: (Units=GPa)
#
#
# Indices 1 2 3 4 5 6 
#
# 1 235.3484 3.3471 122.4301 0.0000 0.0000 0.0000
# 2 3.3471 33.5647 6.1461 0.0000 0.0000 0.0000
# 3 122.4301 6.1461 117.4938 0.0000 0.0000 0.0000
# 4 0.0000 0.0000 0.0000 17.3697 0.0000 0.0000
# 5 0.0000 0.0000 0.0000 0.0000 48.3604 0.0000
# 6 0.0000 0.0000 0.0000 0.0000 0.0000 43.2172
#
#
#
# Elastic Compliance Matrix: (Units=1/GPa)
#
#
# Indices 1 2 3 4 5 6 
#
# 1 0.009303 0.000856 -0.009739 0.000000 0.000000 0.000000
# 2 0.000856 0.030160 -0.002469 0.000000 0.000000 0.000000
# 3 -0.009739 -0.002469 0.018788 0.000000 0.000000 0.000000
# 4 0.000000 0.000000 0.000000 0.057571 0.000000 0.000000
# 5 0.000000 0.000000 0.000000 0.000000 0.020678 0.000000
# 6 0.000000 0.000000 0.000000 0.000000 0.000000 0.023139
#
#
# Mechanical properties :
#
#
# Convention : Reuss Voigt Hill
#
# Bulk Modulus (GPa) = 28.13210 72.25039 50.19124
# Shear Modulus (GPa) = 25.74766 38.75502 32.25134
#
# Velocity S-wave (km/s) = 3.58699 4.40074 4.01453
# Velocity P-wave (km/s) = 5.58689 7.86934 6.82422
#
# Compressibility (1/GPa) = 0.03554658
#
# Stress axis : x y z
#
# Youngs Moduli (GPa) = 107.49334 33.15647 53.22571
#
# Poissons Ratio (x) = -0.02837 0.51834
# Poissons Ratio (y) = -0.09197 0.13142
# Poissons Ratio (z) = 1.04682 0.08187
#
# Static dielectric constant tensor:
#      x y z
#    x 1.741540 0.000000 0.000000 
#    y 0.000000 1.760450 0.000000 
#    z 0.000000 0.000000 1.684710 
# 
# From -- ./inp_files/13575.got.cif
#   From: 2010.05.17/outbox.cif.g08.bks.cpg/sg47_7_cif.got.tgz:13575.got - 2010.06.03 20:15:42.
