data_PCOD9385009
_publ_section_title
;
Structure prediction by ZEFSAII (Michael W. Deem and Ramdas Pophale) SiO2 
 PCOD9385009
Probable space group: P M M M
;
_chemical_formula_sum "Si O2"
_cell_formula_units_Z 48
_cell_length_a 32.175076
_cell_length_b 9.230523
_cell_length_c 8.973825
_cell_angle_alpha 90.000000
_cell_angle_beta 90.000000
_cell_angle_gamma 90.000000
_cell_volume 2665.161225
_symmetry_space_group_name_H-M "P M M M"
_symmetry_group_IT_number 47
_symmetry_cell_setting 'orthorhombic'
loop_
_space_group_symop_operation_xyz
x,y,z
-x,-y,z
x,-y,-z
-x,y,-z
-x,-y,-z
x,y,-z
-x,y,z
x,-y,z
loop_
_atom_site_type_symbol
_atom_site_label
_atom_site_fract_x
_atom_site_fract_y
_atom_site_fract_z
Si Si1 0.500000 0.676916 0.327978
Si Si2 0.166609 0.666957 0.818256
Si Si3 0.083384 0.167207 0.817997
Si Si4 0.000000 0.332824 0.181951
Si Si5 0.415005 0.676481 0.171506
Si Si6 0.328809 0.328668 0.677625
Si Si7 0.749359 0.830307 0.820422
O O1 0.500000 0.500000 0.323823
O O2 0.500000 0.720195 0.500000
O O3 0.457766 0.725223 0.247762
O O4 0.166371 0.500000 0.770110
O O5 0.125135 0.750656 0.769773
O O6 0.208670 0.748028 0.772387
O O7 0.166212 0.667573 0.000000
O O8 0.041719 0.250202 0.770460
O O9 0.083218 0.000000 0.770950
O O10 0.083434 0.167907 0.000000
O O11 0.000000 0.500000 0.229213
O O12 0.000000 0.332302 0.000000
O O13 0.415739 0.500000 0.174540
O O14 0.373184 0.719990 0.256660
O O15 0.413350 0.722034 0.000000
O O16 0.329218 0.313728 0.500000
O O17 0.323754 0.500000 0.713348
O O18 0.290891 0.241396 0.747762
O O19 0.752257 0.000000 0.784283
O O20 0.746187 0.816897 0.000000
#
# Coordination Sequence:
#
# PCOD9385009 Si02
#       7
#     4   8   8   4   8   8   8
#     4   9  15  23  37  61  96 133 166 203 248 295
#     4   9  16  26  41  60  82 110 146 189 236 286
#     4   9  15  22  32  48  73 106 145 189 236 286
#     4   9  15  21  29  43  67 103 148 193 236 285
#     4   9  16  26  42  65  94 128 165 204 246 292
#     4  10  20  33  49  70  96 126 160 199 245 295
#     4  10  20  33  49  69  92 120 156 197 241 291
#
# _framework density 18.010166000000002
#
# number of rings (size 3 to 8) (size 9 to 14) (size 15 to 20)
#    0.000    2.667    0.000    3.000    0.000   10.000 
#    0.000    0.000    0.000    0.000    0.000    0.583 
#    0.000    4.667    0.000    0.750    0.000   14.667 
#
# Total GULP energy -267718.898374 kJ/mol
# GULP energy per Si atom -5577.477049 kJ/mol
# Density = 1.796917 g / cm^3
# Si number density = 18.010166 Si / 1000 Ang^3
#
#
#
# Elastic Constant Matrix: (Units=GPa)
#
#
# Indices 1 2 3 4 5 6 
#
# 1 228.8968 107.9453 49.0715 0.0000 0.0000 0.0000
# 2 107.9453 122.7186 38.0415 0.0000 0.0000 0.0000
# 3 49.0715 38.0415 29.5574 0.0000 0.0000 0.0000
# 4 0.0000 0.0000 0.0000 9.5232 0.0000 0.0000
# 5 0.0000 0.0000 0.0000 0.0000 -8.4964 0.0000
# 6 0.0000 0.0000 0.0000 0.0000 0.0000 -7.5537
#
#
#
# Elastic Compliance Matrix: (Units=1/GPa)
#
#
# Indices 1 2 3 4 5 6 
#
# 1 0.008317 -0.005051 -0.007308 0.000000 0.000000 0.000000
# 2 -0.005051 0.016625 -0.013012 0.000000 0.000000 0.000000
# 3 -0.007308 -0.013012 0.062712 0.000000 0.000000 0.000000
# 4 0.000000 0.000000 0.000000 0.105007 0.000000 0.000000
# 5 0.000000 0.000000 0.000000 0.000000 -0.117697 0.000000
# 6 0.000000 0.000000 0.000000 0.000000 0.000000 -0.132386
#
#
# Mechanical properties :
#
#
# Convention : Reuss Voigt Hill
#
# Bulk Modulus (GPa) = 27.09049 85.69883 56.39466
# Shear Modulus (GPa) = 889.09040 11.10226 450.09633
#
# Velocity S-wave (km/s) = 22.24257 2.48552 15.82577
# Velocity P-wave (km/s) = 25.97532 7.47823 19.11336
#
# Compressibility (1/GPa) = 0.03691332
#
# Stress axis : x y z
#
# Youngs Moduli (GPa) = 120.23056 60.15110 15.94586
#
# Poissons Ratio (x) = 0.30380 0.11654
# Poissons Ratio (y) = 0.60724 0.20748
# Poissons Ratio (z) = 0.87867 0.78267
#
# Static dielectric constant tensor:
#      x y z
#    x 1.594860 0.000000 0.000000 
#    y 0.000000 1.602220 0.000000 
#    z 0.000000 0.000000 1.595980 
# 
# From -- ./inp_files/13966.got.cif
#   From: 2010.05.17/outbox.cif.g08.bks.cpg/sg47_7_cif.got.tgz:13966.got - 2010.06.03 20:15:42.
