data_PCOD9385707
_publ_section_title
;
Structure prediction by ZEFSAII (Michael W. Deem and Ramdas Pophale) SiO2 
 PCOD9385707
Probable space group: P M M M
;
_chemical_formula_sum "Si O2"
_cell_formula_units_Z 48
_cell_length_a 30.180766
_cell_length_b 7.484779
_cell_length_c 9.867941
_cell_angle_alpha 90.000000
_cell_angle_beta 90.000000
_cell_angle_gamma 90.000000
_cell_volume 2229.131988
_symmetry_space_group_name_H-M "P M M M"
_symmetry_group_IT_number 47
_symmetry_cell_setting 'orthorhombic'
loop_
_space_group_symop_operation_xyz
x,y,z
-x,-y,z
x,-y,-z
-x,y,-z
-x,-y,-z
x,y,-z
-x,y,z
x,-y,z
loop_
_atom_site_type_symbol
_atom_site_label
_atom_site_fract_x
_atom_site_fract_y
_atom_site_fract_z
Si Si1 0.050123 0.219359 0.500000
Si Si2 0.110006 0.791576 0.740869
Si Si3 0.206780 0.707729 0.344810
Si Si4 0.630251 0.718015 0.343430
Si Si5 0.550770 0.717728 0.846101
Si Si6 0.286452 0.281342 0.157356
Si Si7 0.051249 0.713623 0.000000
O O1 0.077705 0.282746 0.372910
O O2 0.000000 0.280201 0.500000
O O3 0.048923 0.000000 0.500000
O O4 0.158834 0.713869 0.726192
O O5 0.081267 0.771444 0.874624
O O6 0.116924 0.000000 0.713812
O O7 0.204924 0.781356 0.500000
O O8 0.218617 0.500000 0.360219
O O9 0.243589 0.782113 0.242349
O O10 0.634150 0.776798 0.500000
O O11 0.630259 0.500000 0.346548
O O12 0.585283 0.775844 0.267883
O O13 0.670939 0.770875 0.246532
O O14 0.500000 0.773497 0.822067
O O15 0.551088 0.500000 0.845511
O O16 0.563512 0.771209 0.000000
O O17 0.285959 0.500000 0.152572
O O18 0.287384 0.222812 0.000000
O O19 0.048632 0.500000 0.000000
O O20 0.000000 0.780603 0.000000
#
# Coordination Sequence:
#
# PCOD9385707 Si02
#       7
#     4   8   8   8   8   8   4
#     4   9  18  34  57  83 109 137 173 213 252 301
#     4  11  22  38  60  85 113 145 180 218 262 314
#     4  10  20  34  52  75 105 136 169 214 266 316
#     4   9  15  22  33  50  74 104 144 196 251 308
#     4   8  13  20  29  42  64  98 141 191 246 303
#     4   9  17  28  43  62  84 117 159 203 253 309
#     4  11  25  43  61  85 117 149 181 219 262 307
#
# _framework density 21.533045000000001
#
# number of rings (size 3 to 8) (size 9 to 14) (size 15 to 20)
#    0.000    2.500    0.833    2.750    1.167    5.667 
#    0.000    1.667    0.000    2.000    0.000    0.000 
#    0.000    0.000    0.000    0.000    0.000    0.833 
#
# Total GULP energy -267856.050864 kJ/mol
# GULP energy per Si atom -5580.334393 kJ/mol
# Density = 2.148403 g / cm^3
# Si number density = 21.533045 Si / 1000 Ang^3
#
#
#
# Elastic Constant Matrix: (Units=GPa)
#
#
# Indices 1 2 3 4 5 6 
#
# 1 190.1849 -3.4294 129.6774 0.0000 0.0000 0.0000
# 2 -3.4294 58.9864 -4.9285 0.0000 0.0000 0.0000
# 3 129.6774 -4.9285 222.6953 0.0000 0.0000 0.0000
# 4 0.0000 0.0000 0.0000 -27.5722 0.0000 0.0000
# 5 0.0000 0.0000 0.0000 0.0000 42.6185 0.0000
# 6 0.0000 0.0000 0.0000 0.0000 0.0000 167.5724
#
#
#
# Elastic Compliance Matrix: (Units=1/GPa)
#
#
# Indices 1 2 3 4 5 6 
#
# 1 0.008721 0.000083 -0.005076 0.000000 0.000000 0.000000
# 2 0.000083 0.016985 0.000328 0.000000 0.000000 0.000000
# 3 -0.005076 0.000328 0.007454 0.000000 0.000000 0.000000
# 4 0.000000 0.000000 0.000000 -0.036268 0.000000 0.000000
# 5 0.000000 0.000000 0.000000 0.000000 0.023464 0.000000
# 6 0.000000 0.000000 0.000000 0.000000 0.000000 0.005968
#
#
# Mechanical properties :
#
#
# Convention : Reuss Voigt Hill
#
# Bulk Modulus (GPa) = 41.96728 79.38951 60.67840
# Shear Modulus (GPa) = 114.68529 59.89353 87.28941
#
# Velocity S-wave (km/s) = 7.30587 5.27969 6.37381
# Velocity P-wave (km/s) = 9.52364 8.60904 9.07786
#
# Compressibility (1/GPa) = 0.02382809
#
# Stress axis : x y z
#
# Youngs Moduli (GPa) = 114.66728 58.87457 134.16102
#
# Poissons Ratio (x) = -0.00488 0.68106
# Poissons Ratio (y) = -0.00950 -0.04396
# Poissons Ratio (z) = 0.58210 -0.01929
#
# Static dielectric constant tensor:
#      x y z
#    x 1.757770 0.000000 0.000000 
#    y 0.000000 1.861230 0.000000 
#    z 0.000000 0.000000 1.935950 
# 
# From -- ./inp_files/13950.got.cif
#   From: 2010.05.17/outbox.cif.g08.bks.cpg/sg47_7_cif.got.tgz:13950.got - 2010.06.03 20:15:42.
