data_PCOD9385094
_publ_section_title
;
Structure prediction by ZEFSAII (Michael W. Deem and Ramdas Pophale) SiO2 
 PCOD9385094
Probable space group: P M M M
;
_chemical_formula_sum "Si O2"
_cell_formula_units_Z 52
_cell_length_a 27.585898
_cell_length_b 7.621923
_cell_length_c 14.184379
_cell_angle_alpha 90.000000
_cell_angle_beta 90.000000
_cell_angle_gamma 90.000000
_cell_volume 2982.373350
_symmetry_space_group_name_H-M "P M M M"
_symmetry_group_IT_number 47
_symmetry_cell_setting 'orthorhombic'
loop_
_space_group_symop_operation_xyz
x,y,z
-x,-y,z
x,-y,-z
-x,y,-z
-x,-y,-z
x,y,-z
-x,y,z
x,-y,z
loop_
_atom_site_type_symbol
_atom_site_label
_atom_site_fract_x
_atom_site_fract_y
_atom_site_fract_z
Si Si1 0.842301 0.214541 0.609917
Si Si2 0.743085 0.212836 0.297338
Si Si3 0.601962 0.292427 0.200580
Si Si4 0.356554 0.708628 0.395678
Si Si5 0.947853 0.211283 0.613058
Si Si6 0.500000 0.790709 0.107516
Si Si7 0.300642 0.794455 0.896500
O O1 0.837324 0.264859 0.500000
O O2 0.795376 0.273245 0.667194
O O3 0.895178 0.274435 0.646629
O O4 0.842745 0.000000 0.611520
O O5 0.699574 0.263940 0.367412
O O6 0.728252 0.278823 0.193397
O O7 0.743524 0.000000 0.295327
O O8 0.611051 0.500000 0.202699
O O9 0.612693 0.222720 0.306295
O O10 0.548406 0.262397 0.162543
O O11 0.642730 0.216561 0.131167
O O12 0.366419 0.781612 0.500000
O O13 0.365327 0.500000 0.400202
O O14 0.947452 0.240631 0.500000
O O15 0.000000 0.278841 0.649025
O O16 0.948380 0.000000 0.626083
O O17 0.500000 0.000000 0.102031
O O18 0.500000 0.721014 0.000000
O O19 0.288040 0.000000 0.901287
O O20 0.292291 0.716899 0.000000
#
# Coordination Sequence:
#
# PCOD9385094 Si02
#       7
#     8   8   8   8   8   4   8
#     4   8  12  17  27  46  71  96 124 160 197 230
#     4   9  16  25  39  59  80 103 134 168 198 233
#     4  10  20  33  50  70  87 106 135 165 191 226
#     4   9  18  32  47  63  86 113 136 159 191 231
#     4   7   9  13  21  35  60  94 124 150 189 237
#     4  11  23  37  52  69  90 112 131 159 202 241
#     4   9  17  29  43  59  82 109 132 158 198 242
#
# _framework density 17.435779
#
# number of rings (size 3 to 8) (size 9 to 14) (size 15 to 20)
#    0.000    3.154    0.000    3.000    0.000    4.308 
#    0.000    0.385    0.000    2.308    0.000    0.000 
#    0.000    1.231    0.000   14.308    0.000    4.923 
#
# Total GULP energy -289588.620824 kJ/mol
# GULP energy per Si atom -5569.011939 kJ/mol
# Density = 1.739609 g / cm^3
# Si number density = 17.435779 Si / 1000 Ang^3
#
#
#
# Elastic Constant Matrix: (Units=GPa)
#
#
# Indices 1 2 3 4 5 6 
#
# 1 143.0505 -10.9606 57.5838 0.0000 0.0000 0.0000
# 2 -10.9606 34.8324 1.9057 0.0000 0.0000 0.0000
# 3 57.5838 1.9057 109.2497 0.0000 0.0000 0.0000
# 4 0.0000 0.0000 0.0000 8.4524 0.0000 0.0000
# 5 0.0000 0.0000 0.0000 0.0000 14.0652 0.0000
# 6 0.0000 0.0000 0.0000 0.0000 0.0000 -64.8147
#
#
#
# Elastic Compliance Matrix: (Units=1/GPa)
#
#
# Indices 1 2 3 4 5 6 
#
# 1 0.009209 0.003166 -0.004909 0.000000 0.000000 0.000000
# 2 0.003166 0.029825 -0.002189 0.000000 0.000000 0.000000
# 3 -0.004909 -0.002189 0.011779 0.000000 0.000000 0.000000
# 4 0.000000 0.000000 0.000000 0.118310 0.000000 0.000000
# 5 0.000000 0.000000 0.000000 0.000000 0.071098 0.000000
# 6 0.000000 0.000000 0.000000 0.000000 0.000000 -0.015429
#
#
# Mechanical properties :
#
#
# Convention : Reuss Voigt Hill
#
# Bulk Modulus (GPa) = 23.28324 42.68782 32.98553
# Shear Modulus (GPa) = 20.24509 7.44749 13.84629
#
# Velocity S-wave (km/s) = 3.41122 2.06897 2.82109
# Velocity P-wave (km/s) = 5.37568 5.49942 5.43790
#
# Compressibility (1/GPa) = 0.04294934
#
# Stress axis : x y z
#
# Youngs Moduli (GPa) = 108.58508 33.52887 84.89560
#
# Poissons Ratio (x) = -0.10617 0.41678
# Poissons Ratio (y) = -0.34383 0.18586
# Poissons Ratio (z) = 0.53308 0.07340
#
# Static dielectric constant tensor:
#      x y z
#    x 1.615790 0.000000 0.000000 
#    y 0.000000 1.654520 0.000000 
#    z 0.000000 0.000000 1.607020 
# 
# From -- ./inp_files/25718.got.cif
#   From: 2010.05.17/outbox.cif.g08.bks.cpg/sg47_13_cif.got.tgz:25718.got - 2010.06.03 20:15:42.
