data_PCOD9385928
_publ_section_title
;
Structure prediction by ZEFSAII (Michael W. Deem and Ramdas Pophale) SiO2 
 PCOD9385928
Probable space group: P M M M
;
_chemical_formula_sum "Si O2"
_cell_formula_units_Z 48
_cell_length_a 32.037524
_cell_length_b 9.218500
_cell_length_c 9.214370
_cell_angle_alpha 90.000000
_cell_angle_beta 90.000000
_cell_angle_gamma 90.000000
_cell_volume 2721.352824
_symmetry_space_group_name_H-M "P M M M"
_symmetry_group_IT_number 47
_symmetry_cell_setting 'orthorhombic'
loop_
_space_group_symop_operation_xyz
x,y,z
-x,-y,z
x,-y,-z
-x,y,-z
-x,-y,-z
x,y,-z
-x,y,z
x,-y,z
loop_
_atom_site_type_symbol
_atom_site_label
_atom_site_fract_x
_atom_site_fract_y
_atom_site_fract_z
Si Si1 0.500000 0.823329 0.667129
Si Si2 0.831287 0.333105 0.676734
Si Si3 0.084430 0.172414 0.673436
Si Si4 0.746828 0.829765 0.325070
Si Si5 0.669893 0.329459 0.825658
Si Si6 0.584321 0.171655 0.173298
Si Si7 0.000000 0.823310 0.167147
O O1 0.500000 0.778446 0.500000
O O2 0.542371 0.777725 0.747101
O O3 0.500000 0.000000 0.672139
O O4 0.831584 0.331424 0.500000
O O5 0.829220 0.500000 0.723760
O O6 0.874239 0.256736 0.722396
O O7 0.790138 0.245444 0.721529
O O8 0.079485 0.191552 0.500000
O O9 0.042300 0.222272 0.752309
O O10 0.090109 0.000000 0.699244
O O11 0.743717 0.816148 0.500000
O O12 0.707775 0.751491 0.251920
O O13 0.747346 0.000000 0.289519
O O14 0.670543 0.500000 0.791674
O O15 0.625617 0.258730 0.783492
O O16 0.673935 0.312738 0.000000
O O17 0.590545 0.000000 0.203611
O O18 0.578554 0.186681 0.000000
O O19 0.000000 0.000000 0.171623
O O20 0.000000 0.778140 0.000000
#
# Coordination Sequence:
#
# PCOD9385928 Si02
#       7
#     4   8   8   8   8   8   4
#     4   9  17  29  48  75 102 126 160 209 256 295
#     4   9  17  30  49  73 100 129 162 202 247 294
#     4   9  16  28  48  71  93 121 161 204 241 283
#     4  10  20  34  54  79 104 132 168 209 253 301
#     4  10  21  36  53  75 104 137 172 210 253 301
#     4   9  17  31  51  72  96 130 170 208 248 296
#     4   9  17  29  46  69  96 124 156 197 244 290
#
# _framework density 17.638286000000001
#
# number of rings (size 3 to 8) (size 9 to 14) (size 15 to 20)
#    0.000    2.667    0.000    2.000    0.000    6.667 
#    0.000    3.333    0.000    8.500    0.000    0.000 
#    0.000    0.000    0.000    0.000    0.000    0.000 
#
# Total GULP energy -267729.655248 kJ/mol
# GULP energy per Si atom -5577.701151 kJ/mol
# Density = 1.759814 g / cm^3
# Si number density = 17.638286 Si / 1000 Ang^3
#
#
#
# Elastic Constant Matrix: (Units=GPa)
#
#
# Indices 1 2 3 4 5 6 
#
# 1 231.8902 106.4023 66.7957 0.0000 0.0000 0.0000
# 2 106.4023 102.8202 47.1803 0.0000 0.0000 0.0000
# 3 66.7957 47.1803 30.3621 0.0000 0.0000 0.0000
# 4 0.0000 0.0000 0.0000 16.0789 0.0000 0.0000
# 5 0.0000 0.0000 0.0000 0.0000 134.3577 0.0000
# 6 0.0000 0.0000 0.0000 0.0000 0.0000 -7.9383
#
#
#
# Elastic Compliance Matrix: (Units=1/GPa)
#
#
# Indices 1 2 3 4 5 6 
#
# 1 0.011805 -0.001043 -0.024349 0.000000 0.000000 0.000000
# 2 -0.001043 0.033984 -0.050514 0.000000 0.000000 0.000000
# 3 -0.024349 -0.050514 0.164998 0.000000 0.000000 0.000000
# 4 0.000000 0.000000 0.000000 0.062193 0.000000 0.000000
# 5 0.000000 0.000000 0.000000 0.000000 0.007443 0.000000
# 6 0.000000 0.000000 0.000000 0.000000 0.000000 -0.125971
#
#
# Mechanical properties :
#
#
# Convention : Reuss Voigt Hill
#
# Bulk Modulus (GPa) = 16.95644 89.53655 53.24649
# Shear Modulus (GPa) = 15.34106 38.14594 26.74350
#
# Velocity S-wave (km/s) = 2.95237 4.65551 3.89809
# Velocity P-wave (km/s) = 4.61045 8.93147 7.10730
#
# Compressibility (1/GPa) = 0.05897465
#
# Stress axis : x y z
#
# Youngs Moduli (GPa) = 84.71120 29.42567 6.06066
#
# Poissons Ratio (x) = 0.03069 0.14757
# Poissons Ratio (y) = 0.08836 0.30615
# Poissons Ratio (z) = 2.06267 1.48640
#
# Static dielectric constant tensor:
#      x y z
#    x 1.576120 0.000000 0.000000 
#    y 0.000000 1.587790 0.000000 
#    z 0.000000 0.000000 1.591800 
# 
# From -- ./inp_files/2767.got.cif
#   From: 2010.05.17/outbox.cif.g08.bks.cpg/sg47_2_cif.got.tgz:2767.got - 2010.06.03 20:15:42.
