data_PCOD9385368
_publ_section_title
;
Structure prediction by ZEFSAII (Michael W. Deem and Ramdas Pophale) SiO2 
 PCOD9385368
Probable space group: P M M M
;
_chemical_formula_sum "Si O2"
_cell_formula_units_Z 52
_cell_length_a 7.714707
_cell_length_b 9.641180
_cell_length_c 33.942203
_cell_angle_alpha 90.000000
_cell_angle_beta 90.000000
_cell_angle_gamma 90.000000
_cell_volume 2524.583004
_symmetry_space_group_name_H-M "P M M M"
_symmetry_group_IT_number 47
_symmetry_cell_setting 'orthorhombic'
loop_
_space_group_symop_operation_xyz
x,y,z
-x,-y,z
x,-y,-z
-x,y,-z
-x,-y,-z
x,y,-z
-x,y,z
x,-y,z
loop_
_atom_site_type_symbol
_atom_site_label
_atom_site_fract_x
_atom_site_fract_y
_atom_site_fract_z
Si Si1 0.293489 0.343014 0.426448
Si Si2 0.293252 0.656190 0.810386
Si Si3 0.287327 0.840070 0.500000
Si Si4 0.209188 0.157165 0.736741
Si Si5 0.209193 0.342597 0.044678
Si Si6 0.209142 0.842745 0.352738
Si Si7 0.293236 0.156213 0.118448
O O1 0.500000 0.352887 0.432345
O O2 0.223378 0.500000 0.427667
O O3 0.228189 0.244000 0.461433
O O4 0.264420 0.268103 0.384894
O O5 0.500000 0.646066 0.816306
O O6 0.222390 0.500000 0.810502
O O7 0.265454 0.733715 0.769206
O O8 0.221921 0.750147 0.845933
O O9 0.500000 0.842327 0.500000
O O10 0.230728 0.000000 0.500000
O O11 0.267046 0.188070 0.692004
O O12 0.000000 0.155860 0.736347
O O13 0.267143 0.000000 0.746769
O O14 0.267214 0.500000 0.054413
O O15 0.265378 0.234127 0.077329
O O16 0.000000 0.344054 0.044301
O O17 0.267004 0.310522 0.000000
O O18 0.000000 0.844749 0.352350
O O19 0.267545 0.000000 0.362863
O O20 0.500000 0.146065 0.124345
O O21 0.222419 0.000000 0.118463
#
# Coordination Sequence:
#
# PCOD9385368 Si02
#       7
#     8   8   4   8   8   8   8
#     4  10  20  33  51  77 107 136 168 209 256 305
#     4  10  21  36  54  77 105 136 171 212 257 305
#     4   9  17  31  52  75 100 133 172 212 254 301
#     4   9  19  36  56  77 102 134 172 212 255 304
#     4   9  19  36  56  78 105 137 173 212 254 302
#     4   9  19  36  55  75 102 136 173 212 253 300
#     4  10  21  36  54  77 105 137 173 212 255 304
#
# _framework density 20.597460999999999
#
# number of rings (size 3 to 8) (size 9 to 14) (size 15 to 20)
#    0.000    2.538    0.000    3.000    0.000    7.077 
#    0.000    7.308    0.000    2.308    0.000    0.000 
#    0.000    0.000    0.000    0.000    0.000    0.000 
#
# Total GULP energy -290335.476620 kJ/mol
# GULP energy per Si atom -5583.374550 kJ/mol
# Density = 2.055058 g / cm^3
# Si number density = 20.597461 Si / 1000 Ang^3
#
#
#
# Elastic Constant Matrix: (Units=GPa)
#
#
# Indices 1 2 3 4 5 6 
#
# 1 30.0740 9.3106 -1.2380 0.0000 0.0000 0.0000
# 2 9.3106 225.5933 141.1388 0.0000 0.0000 0.0000
# 3 -1.2380 141.1388 147.6242 0.0000 0.0000 0.0000
# 4 0.0000 0.0000 0.0000 41.7082 0.0000 0.0000
# 5 0.0000 0.0000 0.0000 0.0000 30.5666 0.0000
# 6 0.0000 0.0000 0.0000 0.0000 0.0000 19.5981
#
#
#
# Elastic Compliance Matrix: (Units=1/GPa)
#
#
# Indices 1 2 3 4 5 6 
#
# 1 0.034663 -0.004013 0.004127 0.000000 0.000000 0.000000
# 2 -0.004013 0.011495 -0.011024 0.000000 0.000000 0.000000
# 3 0.004127 -0.011024 0.017348 0.000000 0.000000 0.000000
# 4 0.000000 0.000000 0.000000 0.023976 0.000000 0.000000
# 5 0.000000 0.000000 0.000000 0.000000 0.032715 0.000000
# 6 0.000000 0.000000 0.000000 0.000000 0.000000 0.051025
#
#
# Mechanical properties :
#
#
# Convention : Reuss Voigt Hill
#
# Bulk Modulus (GPa) = 23.98778 77.96826 50.97802
# Shear Modulus (GPa) = 24.16171 35.31326 29.73749
#
# Velocity S-wave (km/s) = 3.42869 4.14508 3.80379
# Velocity P-wave (km/s) = 5.22932 7.80028 6.64042
#
# Compressibility (1/GPa) = 0.04168790
#
# Stress axis : x y z
#
# Youngs Moduli (GPa) = 28.84883 86.99182 57.64275
#
# Poissons Ratio (x) = 0.34907 -0.23789
# Poissons Ratio (y) = 0.11576 0.63545
# Poissons Ratio (z) = -0.11906 0.95900
#
# Static dielectric constant tensor:
#      x y z
#    x 1.770610 0.000000 0.000000 
#    y 0.000000 1.721920 0.000000 
#    z 0.000000 0.000000 1.702780 
# 
# From -- ./inp_files/33573.got.cif
#   From: 2010.05.17/outbox.cif.g08.bks.cpg/sg47_17_cif.got.tgz:33573.got - 2010.06.03 20:15:42.
