data_PCOD9385463
_publ_section_title
;
Structure prediction by ZEFSAII (Michael W. Deem and Ramdas Pophale) SiO2 
 PCOD9385463
Probable space group: P M M M
;
_chemical_formula_sum "Si O2"
_cell_formula_units_Z 40
_cell_length_a 9.560811
_cell_length_b 7.661466
_cell_length_c 26.949479
_cell_angle_alpha 90.000000
_cell_angle_beta 90.000000
_cell_angle_gamma 90.000000
_cell_volume 1974.044712
_symmetry_space_group_name_H-M "P M M M"
_symmetry_group_IT_number 47
_symmetry_cell_setting 'orthorhombic'
loop_
_space_group_symop_operation_xyz
x,y,z
-x,-y,z
x,-y,-z
-x,y,-z
-x,-y,-z
x,y,-z
-x,y,z
x,-y,z
loop_
_atom_site_type_symbol
_atom_site_label
_atom_site_fract_x
_atom_site_fract_y
_atom_site_fract_z
Si Si1 0.340427 0.207200 0.000000
Si Si2 0.658561 0.709031 0.596532
Si Si3 0.838049 0.286805 0.689275
Si Si4 0.658947 0.291480 0.892691
Si Si5 0.840886 0.792149 0.500000
Si Si6 0.161330 0.286854 0.199594
O O1 0.276833 0.259473 0.947195
O O2 0.500000 0.281754 0.000000
O O3 0.348840 0.000000 0.000000
O O4 0.500000 0.776491 0.590811
O O5 0.648656 0.500000 0.601961
O O6 0.737509 0.775902 0.645616
O O7 0.753882 0.740930 0.548612
O O8 0.837306 0.500000 0.688558
O O9 0.794562 0.233245 0.744890
O O10 0.000000 0.234508 0.681138
O O11 0.500000 0.221222 0.892707
O O12 0.650655 0.500000 0.887033
O O13 0.745656 0.223560 0.846014
O O14 0.000000 0.721014 0.500000
O O15 0.850612 0.000000 0.500000
O O16 0.164532 0.500000 0.199179
O O17 0.000000 0.235469 0.192998
#
# Coordination Sequence:
#
# PCOD9385463 Si02
#       6
#     4   8   8   8   4   8
#     4   9  17  29  44  61  84 116 150 183 224 276
#     4  10  20  33  52  79 106 130 160 200 244 288
#     4   8  14  26  45  69  97 127 156 188 229 277
#     4   9  16  26  43  66  88 111 145 189 229 265
#     4  11  24  39  54  72  96 131 172 207 242 288
#     4   8  14  25  42  66  95 123 150 183 226 273
#
# _framework density 20.262965999999999
#
# number of rings (size 3 to 8) (size 9 to 14) (size 15 to 20)
#    0.000    3.000    0.000    2.700    0.000    5.200 
#    0.000    4.500    0.000    4.800    0.000    5.600 
#    0.000    0.000    0.000    0.000    0.000    0.000 
#
# Total GULP energy -223036.968243 kJ/mol
# GULP energy per Si atom -5575.924206 kJ/mol
# Density = 2.021685 g / cm^3
# Si number density = 20.262966 Si / 1000 Ang^3
#
#
#
# Elastic Constant Matrix: (Units=GPa)
#
#
# Indices 1 2 3 4 5 6 
#
# 1 121.9929 5.5554 122.0008 0.0000 0.0000 0.0000
# 2 5.5554 38.0001 2.0195 0.0000 0.0000 0.0000
# 3 122.0008 2.0195 234.3598 0.0000 0.0000 0.0000
# 4 0.0000 0.0000 0.0000 -51.0829 0.0000 0.0000
# 5 0.0000 0.0000 0.0000 0.0000 37.1640 0.0000
# 6 0.0000 0.0000 0.0000 0.0000 0.0000 2.5134
#
#
#
# Elastic Compliance Matrix: (Units=1/GPa)
#
#
# Indices 1 2 3 4 5 6 
#
# 1 0.017257 -0.002046 -0.008966 0.000000 0.000000 0.000000
# 2 -0.002046 0.026570 0.000836 0.000000 0.000000 0.000000
# 3 -0.008966 0.000836 0.008927 0.000000 0.000000 0.000000
# 4 0.000000 0.000000 0.000000 -0.019576 0.000000 0.000000
# 5 0.000000 0.000000 0.000000 0.000000 0.026908 0.000000
# 6 0.000000 0.000000 0.000000 0.000000 0.000000 0.397870
#
#
# Mechanical properties :
#
#
# Convention : Reuss Voigt Hill
#
# Bulk Modulus (GPa) = 30.86169 72.61159 51.73664
# Shear Modulus (GPa) = 10.22268 15.37071 12.79669
#
# Velocity S-wave (km/s) = 2.24855 2.75719 2.51575
# Velocity P-wave (km/s) = 4.69094 6.78591 5.83324
#
# Compressibility (1/GPa) = 0.03240263
#
# Stress axis : x y z
#
# Youngs Moduli (GPa) = 57.94876 37.63585 112.01978
#
# Poissons Ratio (x) = 0.07702 1.00433
# Poissons Ratio (y) = 0.11858 -0.09368
# Poissons Ratio (z) = 0.51955 -0.03148
#
# Static dielectric constant tensor:
#      x y z
#    x 1.711220 0.000000 0.000000 
#    y 0.000000 1.745120 0.000000 
#    z 0.000000 0.000000 1.721220 
# 
# From -- ./inp_files/33015.got.cif
#   From: 2010.05.17/outbox.cif.g08.bks.cpg/sg47_17_cif.got.tgz:33015.got - 2010.06.03 20:15:42.
