data_PCOD9385231
_publ_section_title
;
Structure prediction by ZEFSAII (Michael W. Deem and Ramdas Pophale) SiO2 
 PCOD9385231
Probable space group: P M M M
;
_chemical_formula_sum "Si O2"
_cell_formula_units_Z 64
_cell_length_a 19.832229
_cell_length_b 19.088305
_cell_length_c 7.457054
_cell_angle_alpha 90.000000
_cell_angle_beta 90.000000
_cell_angle_gamma 90.000000
_cell_volume 2822.969476
_symmetry_space_group_name_H-M "P M M M"
_symmetry_group_IT_number 47
_symmetry_cell_setting 'orthorhombic'
loop_
_space_group_symop_operation_xyz
x,y,z
-x,-y,z
x,-y,-z
-x,y,-z
-x,-y,-z
x,y,-z
-x,y,z
x,-y,z
loop_
_atom_site_type_symbol
_atom_site_label
_atom_site_fract_x
_atom_site_fract_y
_atom_site_fract_z
Si Si1 0.074458 0.081838 0.715504
Si Si2 0.924672 0.288489 0.208903
Si Si3 0.843366 0.580547 0.283505
Si Si4 0.185530 0.186587 0.800682
Si Si5 0.424102 0.308556 0.214507
Si Si6 0.290668 0.078085 0.780506
Si Si7 0.575869 0.850778 0.218482
Si Si8 0.692433 0.420450 0.285831
O O1 0.081612 0.089378 0.500000
O O2 0.131816 0.123864 0.811026
O O3 0.000000 0.107762 0.764710
O O4 0.078012 0.000000 0.756411
O O5 0.901353 0.368482 0.216831
O O6 0.860793 0.246073 0.288966
O O7 0.000000 0.278097 0.284390
O O8 0.927332 0.266814 0.000000
O O9 0.844860 0.583646 0.500000
O O10 0.853003 0.500000 0.230520
O O11 0.767439 0.601433 0.222421
O O12 0.247975 0.145380 0.716087
O O13 0.206597 0.211399 0.000000
O O14 0.500000 0.327399 0.279326
O O15 0.408334 0.229266 0.276488
O O16 0.366509 0.365117 0.251988
O O17 0.428107 0.304544 0.000000
O O18 0.367254 0.094456 0.728334
O O19 0.268840 0.000000 0.722423
O O20 0.285535 0.078687 0.000000
O O21 0.500000 0.867462 0.276100
O O22 0.576086 0.850411 0.000000
O O23 0.698037 0.425463 0.500000
O O24 0.678096 0.500000 0.219777
#
# Coordination Sequence:
#
# PCOD9385231 Si02
#       8
#     8   8   8   8   8   8   8   8
#     4   9  18  32  49  69  95 130 170 209 251 301
#     4  10  22  37  53  78 108 137 173 215 260 315
#     4   9  20  39  59  79 104 135 174 218 263 315
#     4  10  20  33  50  74 104 135 168 209 254 306
#     4   9  18  31  49  75 106 141 181 220 258 307
#     4   9  17  28  45  72 102 133 171 212 254 301
#     4   8  15  28  45  68 100 136 172 212 257 301
#     4   9  19  35  53  75 105 139 175 216 260 309
#
# _framework density 22.671163
#
# number of rings (size 3 to 8) (size 9 to 14) (size 15 to 20)
#    0.000    2.875    0.000    2.625    1.750    4.250 
#    0.000    5.625    0.000    0.000    0.000    0.000 
#    0.000    0.000    0.000    5.375    0.000    5.250 
#
# Total GULP energy -357026.231598 kJ/mol
# GULP energy per Si atom -5578.534869 kJ/mol
# Density = 2.261956 g / cm^3
# Si number density = 22.671163 Si / 1000 Ang^3
#
#
#
# Elastic Constant Matrix: (Units=GPa)
#
#
# Indices 1 2 3 4 5 6 
#
# 1 101.5330 57.9218 -1.9516 0.0000 0.0000 0.0000
# 2 57.9218 82.6001 -0.3316 0.0000 0.0000 0.0000
# 3 -1.9516 -0.3316 63.5988 0.0000 0.0000 0.0000
# 4 0.0000 0.0000 0.0000 25.8768 0.0000 0.0000
# 5 0.0000 0.0000 0.0000 0.0000 18.2822 0.0000
# 6 0.0000 0.0000 0.0000 0.0000 0.0000 47.4043
#
#
#
# Elastic Compliance Matrix: (Units=1/GPa)
#
#
# Indices 1 2 3 4 5 6 
#
# 1 0.016428 -0.011518 0.000444 0.000000 0.000000 0.000000
# 2 -0.011518 0.020183 -0.000248 0.000000 0.000000 0.000000
# 3 0.000444 -0.000248 0.015736 0.000000 0.000000 0.000000
# 4 0.000000 0.000000 0.000000 0.038645 0.000000 0.000000
# 5 0.000000 0.000000 0.000000 0.000000 0.054698 0.000000
# 6 0.000000 0.000000 0.000000 0.000000 0.000000 0.021095
#
#
# Mechanical properties :
#
#
# Convention : Reuss Voigt Hill
#
# Bulk Modulus (GPa) = 33.66790 39.88990 36.77890
# Shear Modulus (GPa) = 25.08398 31.11889 28.10143
#
# Velocity S-wave (km/s) = 3.32991 3.70891 3.52451
# Velocity P-wave (km/s) = 5.44676 5.99788 5.72895
#
# Compressibility (1/GPa) = 0.02970188
#
# Stress axis : x y z
#
# Youngs Moduli (GPa) = 60.86996 49.54771 63.54894
#
# Poissons Ratio (x) = 0.57071 -0.02822
# Poissons Ratio (y) = 0.70112 0.01577
# Poissons Ratio (z) = -0.02703 0.01230
#
# Static dielectric constant tensor:
#      x y z
#    x 1.860620 0.000000 0.000000 
#    y 0.000000 1.841500 0.000000 
#    z 0.000000 0.000000 1.878430 
# 
# From -- ./inp_files/11593.got.cif
#   From: 2010.05.17/outbox.cif.g08.bks.cpg/sg47_6_cif.got.tgz:11593.got - 2010.06.03 20:15:42.
