data_PCOD9385116
_publ_section_title
;
Structure prediction by ZEFSAII (Michael W. Deem and Ramdas Pophale) SiO2 
 PCOD9385116
Probable space group: P M M M
;
_chemical_formula_sum "Si O2"
_cell_formula_units_Z 52
_cell_length_a 9.525141
_cell_length_b 34.502651
_cell_length_c 7.452753
_cell_angle_alpha 90.000000
_cell_angle_beta 90.000000
_cell_angle_gamma 90.000000
_cell_volume 2449.292240
_symmetry_space_group_name_H-M "P M M M"
_symmetry_group_IT_number 47
_symmetry_cell_setting 'orthorhombic'
loop_
_space_group_symop_operation_xyz
x,y,z
-x,-y,z
x,-y,-z
-x,y,-z
-x,-y,-z
x,y,-z
-x,y,z
x,-y,z
loop_
_atom_site_type_symbol
_atom_site_label
_atom_site_fract_x
_atom_site_fract_y
_atom_site_fract_z
Si Si1 0.661509 0.043716 0.781422
Si Si2 0.838567 0.882559 0.780393
Si Si3 0.659599 0.808797 0.214751
Si Si4 0.340163 0.426853 0.214806
Si Si5 0.660169 0.660499 0.714415
Si Si6 0.160863 0.500000 0.219913
Si Si7 0.840975 0.732366 0.715121
O O1 0.500000 0.051528 0.728126
O O2 0.765310 0.077494 0.722707
O O3 0.698813 0.000000 0.724591
O O4 0.662816 0.043771 0.000000
O O5 0.746070 0.846046 0.719611
O O6 0.000000 0.879518 0.723457
O O7 0.838523 0.882363 0.000000
O O8 0.500000 0.806756 0.284036
O O9 0.746581 0.769908 0.249530
O O10 0.650302 0.813022 0.000000
O O11 0.500000 0.430173 0.284213
O O12 0.289664 0.383282 0.252126
O O13 0.242351 0.461463 0.279950
O O14 0.347201 0.430759 0.000000
O O15 0.652158 0.665261 0.500000
O O16 0.500000 0.663928 0.784477
O O17 0.761648 0.694034 0.784056
O O18 0.000000 0.500000 0.277095
O O19 0.161390 0.500000 0.000000
O O20 0.850448 0.728592 0.500000
O O21 0.000000 0.736559 0.783935
#
# Coordination Sequence:
#
# PCOD9385116 Si02
#       7
#     8   8   8   8   8   4   8
#     4   8  13  21  33  50  76 113 154 191 228 276
#     4   9  16  25  38  58  86 118 151 191 239 286
#     4  10  20  33  50  71  95 125 161 200 241 286
#     4   9  17  30  49  71  94 122 157 194 229 269
#     4   9  18  33  51  70  94 124 156 191 233 280
#     4   9  17  29  46  69  96 124 154 189 230 274
#     4  10  21  36  53  73  98 128 160 196 241 291
#
# _framework density 21.230623999999999
#
# number of rings (size 3 to 8) (size 9 to 14) (size 15 to 20)
#    0.000    2.846    0.000    2.077    0.000    6.154 
#    0.000    3.462    0.000    2.308    0.000    0.000 
#    0.000    0.615    0.000    6.462    0.000    8.923 
#
# Total GULP energy -290372.373872 kJ/mol
# GULP energy per Si atom -5584.084113 kJ/mol
# Density = 2.118230 g / cm^3
# Si number density = 21.230624 Si / 1000 Ang^3
#
#
#
# Elastic Constant Matrix: (Units=GPa)
#
#
# Indices 1 2 3 4 5 6 
#
# 1 195.0275 158.4285 6.9689 0.0000 0.0000 0.0000
# 2 158.4285 228.4179 -0.1323 0.0000 0.0000 0.0000
# 3 6.9689 -0.1323 64.2386 0.0000 0.0000 0.0000
# 4 0.0000 0.0000 0.0000 24.2544 0.0000 0.0000
# 5 0.0000 0.0000 0.0000 0.0000 4.2531 0.0000
# 6 0.0000 0.0000 0.0000 0.0000 0.0000 127.0897
#
#
#
# Elastic Compliance Matrix: (Units=1/GPa)
#
#
# Indices 1 2 3 4 5 6 
#
# 1 0.011853 -0.008222 -0.001303 0.000000 0.000000 0.000000
# 2 -0.008222 0.010081 0.000913 0.000000 0.000000 0.000000
# 3 -0.001303 0.000913 0.015710 0.000000 0.000000 0.000000
# 4 0.000000 0.000000 0.000000 0.041230 0.000000 0.000000
# 5 0.000000 0.000000 0.000000 0.000000 0.235123 0.000000
# 6 0.000000 0.000000 0.000000 0.000000 0.000000 0.007868
#
#
# Mechanical properties :
#
#
# Convention : Reuss Voigt Hill
#
# Bulk Modulus (GPa) = 48.97080 90.91267 69.94174
# Shear Modulus (GPa) = 14.45522 52.61404 33.53463
#
# Velocity S-wave (km/s) = 2.61217 4.98357 3.97865
# Velocity P-wave (km/s) = 5.67575 8.71946 7.35674
#
# Compressibility (1/GPa) = 0.02042033
#
# Stress axis : x y z
#
# Youngs Moduli (GPa) = 84.36703 99.19579 63.65296
#
# Poissons Ratio (x) = 0.81557 0.08293
# Poissons Ratio (y) = 0.69365 -0.05810
# Poissons Ratio (z) = 0.10991 -0.09054
#
# Static dielectric constant tensor:
#      x y z
#    x 1.764170 0.000000 0.000000 
#    y 0.000000 1.724480 0.000000 
#    z 0.000000 0.000000 1.827090 
# 
# From -- ./inp_files/15635.got.cif
#   From: 2010.05.17/outbox.cif.g08.bks.cpg/sg47_8_cif.got.tgz:15635.got - 2010.06.03 20:15:42.
