data_PCOD9385904
_publ_section_title
;
Structure prediction by ZEFSAII (Michael W. Deem and Ramdas Pophale) SiO2 
 PCOD9385904
Probable space group: P M M M
;
_chemical_formula_sum "Si O2"
_cell_formula_units_Z 64
_cell_length_a 7.857315
_cell_length_b 15.306732
_cell_length_c 25.759722
_cell_angle_alpha 90.000000
_cell_angle_beta 90.000000
_cell_angle_gamma 90.000000
_cell_volume 3098.116998
_symmetry_space_group_name_H-M "P M M M"
_symmetry_group_IT_number 47
_symmetry_cell_setting 'orthorhombic'
loop_
_space_group_symop_operation_xyz
x,y,z
-x,-y,z
x,-y,-z
-x,y,-z
-x,-y,-z
x,y,-z
-x,y,z
x,-y,z
loop_
_atom_site_type_symbol
_atom_site_label
_atom_site_fract_x
_atom_site_fract_y
_atom_site_fract_z
Si Si1 0.297488 0.746671 0.364518
Si Si2 0.791899 0.600897 0.841476
Si Si3 0.800504 0.734790 0.753905
Si Si4 0.794621 0.100987 0.558406
Si Si5 0.195663 0.095810 0.924057
Si Si6 0.707765 0.598212 0.558892
Si Si7 0.305117 0.094115 0.809722
Si Si8 0.207968 0.710271 0.943048
O O1 0.500000 0.738452 0.359589
O O2 0.225080 0.731458 0.307437
O O3 0.262351 0.836741 0.394993
O O4 0.230040 0.670840 0.402103
O O5 0.735270 0.500000 0.841617
O O6 0.738013 0.654583 0.789933
O O7 0.736950 0.654191 0.893123
O O8 0.000000 0.599255 0.842122
O O9 0.718763 0.824377 0.773229
O O10 0.000000 0.741948 0.764977
O O11 0.737419 0.129504 0.500000
O O12 0.000000 0.101973 0.557882
O O13 0.740641 0.000000 0.565347
O O14 0.196059 0.101215 0.861590
O O15 0.270041 0.188932 0.940837
O O16 0.000000 0.094291 0.941842
O O17 0.271095 0.000000 0.937498
O O18 0.762474 0.615695 0.500000
O O19 0.500000 0.600216 0.558893
O O20 0.758738 0.500000 0.573193
O O21 0.500000 0.093482 0.827938
O O22 0.269215 0.000000 0.784303
O O23 0.000000 0.713436 0.940267
O O24 0.252749 0.673770 0.000000
#
# Coordination Sequence:
#
# PCOD9385904 Si02
#       8
#     8   8   8   8   8   8   8   8
#     4  11  22  34  53  83 113 141 180 228 272 316
#     4   9  18  33  52  75 104 138 178 226 278 328
#     4  11  22  37  55  75 104 143 181 219 269 327
#     4   9  19  37  59  82 112 152 192 226 266 319
#     4   9  16  28  48  75 107 141 173 206 254 315
#     4   8  15  30  52  77 106 139 172 209 258 314
#     4  10  20  34  54  78 102 131 170 216 261 308
#     4   9  16  27  47  78 111 140 175 220 268 320
#
# _framework density 20.657710000000002
#
# number of rings (size 3 to 8) (size 9 to 14) (size 15 to 20)
#    0.000    2.500    1.250    2.250    0.000    3.250 
#    0.000    3.125    0.000    2.625    0.000    6.125 
#    0.000    1.000    0.000    0.000    0.000    0.000 
#
# Total GULP energy -356944.546256 kJ/mol
# GULP energy per Si atom -5577.258535 kJ/mol
# Density = 2.061069 g / cm^3
# Si number density = 20.657710 Si / 1000 Ang^3
#
#
#
# Elastic Constant Matrix: (Units=GPa)
#
#
# Indices 1 2 3 4 5 6 
#
# 1 31.8222 5.8334 1.2946 0.0000 0.0000 0.0000
# 2 5.8334 154.0264 90.9277 0.0000 0.0000 0.0000
# 3 1.2946 90.9277 128.3326 0.0000 0.0000 0.0000
# 4 0.0000 0.0000 0.0000 37.2556 0.0000 0.0000
# 5 0.0000 0.0000 0.0000 0.0000 9.2039 0.0000
# 6 0.0000 0.0000 0.0000 0.0000 0.0000 -6.4109
#
#
#
# Elastic Compliance Matrix: (Units=1/GPa)
#
#
# Indices 1 2 3 4 5 6 
#
# 1 0.031706 -0.001740 0.000913 0.000000 0.000000 0.000000
# 2 -0.001740 0.011256 -0.007958 0.000000 0.000000 0.000000
# 3 0.000913 -0.007958 0.013421 0.000000 0.000000 0.000000
# 4 0.000000 0.000000 0.000000 0.026842 0.000000 0.000000
# 5 0.000000 0.000000 0.000000 0.000000 0.108650 0.000000
# 6 0.000000 0.000000 0.000000 0.000000 0.000000 -0.155984
#
#
# Mechanical properties :
#
#
# Convention : Reuss Voigt Hill
#
# Bulk Modulus (GPa) = 25.76353 56.69917 41.23135
# Shear Modulus (GPa) = 75.30307 22.41809 48.86058
#
# Velocity S-wave (km/s) = 6.04416 3.29784 4.86866
# Velocity P-wave (km/s) = 7.82355 6.48132 7.18385
#
# Compressibility (1/GPa) = 0.03881456
#
# Stress axis : x y z
#
# Youngs Moduli (GPa) = 31.53940 88.84145 74.50829
#
# Poissons Ratio (x) = 0.15455 -0.06801
# Poissons Ratio (y) = 0.05487 0.59291
# Poissons Ratio (z) = -0.02879 0.70697
#
# Static dielectric constant tensor:
#      x y z
#    x 1.767710 0.000000 0.000000 
#    y 0.000000 1.745480 0.000000 
#    z 0.000000 0.000000 1.732980 
# 
# From -- ./inp_files/32115.got.cif
#   From: 2010.05.17/outbox.cif.g08.bks.cpg/sg47_17_cif.got.tgz:32115.got - 2010.06.03 20:15:42.
