data_PCOD9385939
_publ_section_title
;
Structure prediction by ZEFSAII (Michael W. Deem and Ramdas Pophale) SiO2 
 PCOD9385939
Probable space group: P M M M
;
_chemical_formula_sum "Si O2"
_cell_formula_units_Z 48
_cell_length_a 9.389168
_cell_length_b 8.151193
_cell_length_c 32.366032
_cell_angle_alpha 90.000000
_cell_angle_beta 90.000000
_cell_angle_gamma 90.000000
_cell_volume 2477.066953
_symmetry_space_group_name_H-M "P M M M"
_symmetry_group_IT_number 47
_symmetry_cell_setting 'orthorhombic'
loop_
_space_group_symop_operation_xyz
x,y,z
-x,-y,z
x,-y,-z
-x,y,-z
-x,-y,-z
x,y,-z
-x,y,z
x,-y,z
loop_
_atom_site_type_symbol
_atom_site_label
_atom_site_fract_x
_atom_site_fract_y
_atom_site_fract_z
Si Si1 0.664415 0.700580 0.918405
Si Si2 0.662517 0.804333 0.332917
Si Si3 0.336162 0.302585 0.756781
Si Si4 0.837467 0.695361 0.412268
Si Si5 0.163868 0.804735 0.500000
Si Si6 0.835971 0.299173 0.163073
Si Si7 0.164569 0.700615 0.000000
O O1 0.500000 0.753737 0.919278
O O2 0.663421 0.500000 0.918482
O O3 0.745341 0.752318 0.876821
O O4 0.751285 0.752603 0.958958
O O5 0.500000 0.740929 0.336581
O O6 0.718834 0.744403 0.288582
O O7 0.751781 0.751384 0.372402
O O8 0.658459 0.000000 0.331822
O O9 0.500000 0.242510 0.760556
O O10 0.340449 0.500000 0.758990
O O11 0.240031 0.244342 0.794726
O O12 0.843619 0.500000 0.412103
O O13 0.772693 0.748768 0.456385
O O14 0.000000 0.761435 0.410193
O O15 0.000000 0.738902 0.500000
O O16 0.159469 0.000000 0.500000
O O17 0.835965 0.500000 0.163176
O O18 0.000000 0.246673 0.160551
O O19 0.163606 0.500000 0.000000
O O20 0.000000 0.753573 0.000000
#
# Coordination Sequence:
#
# PCOD9385939 Si02
#       7
#     8   8   8   8   4   8   4
#     4   9  15  22  32  47  70 103 143 184 228 281
#     4  10  21  36  53  74 101 132 165 203 249 299
#     4   9  17  30  47  65  87 118 154 191 234 286
#     4  10  20  34  54  79 105 134 170 210 250 295
#     4   9  17  31  52  77 106 139 172 208 252 299
#     4   9  16  25  38  57  80 106 141 187 234 279
#     4   9  15  21  29  43  67 101 142 187 232 277
#
# _framework density 19.377756999999999
#
# number of rings (size 3 to 8) (size 9 to 14) (size 15 to 20)
#    0.000    2.667    0.000    2.500    0.000    8.667 
#    0.000    2.083    0.000    2.500    0.000    0.000 
#    0.000    0.000    0.000    0.750    0.000   16.333 
#
# Total GULP energy -267772.614827 kJ/mol
# GULP energy per Si atom -5578.596142 kJ/mol
# Density = 1.933365 g / cm^3
# Si number density = 19.377757 Si / 1000 Ang^3
#
#
#
# Elastic Constant Matrix: (Units=GPa)
#
#
# Indices 1 2 3 4 5 6 
#
# 1 124.5275 8.4839 113.8843 0.0000 0.0000 0.0000
# 2 8.4839 13.9973 15.0640 0.0000 0.0000 0.0000
# 3 113.8843 15.0640 239.9775 0.0000 0.0000 0.0000
# 4 0.0000 0.0000 0.0000 -31.5954 0.0000 0.0000
# 5 0.0000 0.0000 0.0000 0.0000 40.5858 0.0000
# 6 0.0000 0.0000 0.0000 0.0000 0.0000 8.6831
#
#
#
# Elastic Compliance Matrix: (Units=1/GPa)
#
#
# Indices 1 2 3 4 5 6 
#
# 1 0.014216 -0.001454 -0.006655 0.000000 0.000000 0.000000
# 2 -0.001454 0.076767 -0.004129 0.000000 0.000000 0.000000
# 3 -0.006655 -0.004129 0.007584 0.000000 0.000000 0.000000
# 4 0.000000 0.000000 0.000000 -0.031650 0.000000 0.000000
# 5 0.000000 0.000000 0.000000 0.000000 0.024639 0.000000
# 6 0.000000 0.000000 0.000000 0.000000 0.000000 0.115166
#
#
# Mechanical properties :
#
#
# Convention : Reuss Voigt Hill
#
# Bulk Modulus (GPa) = 13.49684 72.59631 43.04657
# Shear Modulus (GPa) = 19.53927 19.60603 19.57265
#
# Velocity S-wave (km/s) = 3.17887 3.18430 3.18159
# Velocity P-wave (km/s) = 4.52260 7.14596 5.97991
#
# Compressibility (1/GPa) = 0.07409141
#
# Stress axis : x y z
#
# Youngs Moduli (GPa) = 70.34574 13.02642 131.84985
#
# Poissons Ratio (x) = 0.01894 0.87744
# Poissons Ratio (y) = 0.10229 0.54438
# Poissons Ratio (z) = 0.46814 0.05378
#
# Static dielectric constant tensor:
#      x y z
#    x 1.682180 0.000000 0.000000 
#    y 0.000000 1.672210 0.000000 
#    z 0.000000 0.000000 1.663370 
# 
# From -- ./inp_files/34091.got.cif
#   From: 2010.05.17/outbox.cif.g08.bks.cpg/sg47_18_cif.got.tgz:34091.got - 2010.06.03 20:15:42.
