data_PCOD9385860
_publ_section_title
;
Structure prediction by ZEFSAII (Michael W. Deem and Ramdas Pophale) SiO2 
 PCOD9385860
Probable space group: P M M M
;
_chemical_formula_sum "Si O2"
_cell_formula_units_Z 56
_cell_length_a 15.917097
_cell_length_b 8.839374
_cell_length_c 20.617206
_cell_angle_alpha 90.000000
_cell_angle_beta 90.000000
_cell_angle_gamma 90.000000
_cell_volume 2900.782607
_symmetry_space_group_name_H-M "P M M M"
_symmetry_group_IT_number 47
_symmetry_cell_setting 'orthorhombic'
loop_
_space_group_symop_operation_xyz
x,y,z
-x,-y,z
x,-y,-z
-x,y,-z
-x,-y,-z
x,y,-z
-x,y,z
x,-y,z
loop_
_atom_site_type_symbol
_atom_site_label
_atom_site_fract_x
_atom_site_fract_y
_atom_site_fract_z
Si Si1 0.594960 0.680223 0.892465
Si Si2 0.902508 0.684265 0.186861
Si Si3 0.599435 0.169008 0.243037
Si Si4 0.000000 0.820266 0.573711
Si Si5 0.599908 0.180665 0.500000
Si Si6 0.778956 0.315421 0.928745
Si Si7 0.865359 0.324864 0.334308
Si Si8 0.329032 0.674815 0.369418
O O1 0.500000 0.738893 0.909253
O O2 0.591278 0.500000 0.902646
O O3 0.611346 0.719225 0.817252
O O4 0.681226 0.735595 0.925091
O O5 0.900451 0.500000 0.185485
O O6 0.837713 0.736097 0.130894
O O7 0.874594 0.729629 0.259715
O O8 0.000000 0.729297 0.176101
O O9 0.500000 0.158040 0.251666
O O10 0.635460 0.233798 0.308770
O O11 0.632026 0.000000 0.228244
O O12 0.921160 0.765963 0.615431
O O13 0.000000 0.759535 0.500000
O O14 0.000000 0.000000 0.570210
O O15 0.500000 0.211276 0.500000
O O16 0.641182 0.251886 0.436189
O O17 0.611637 0.000000 0.500000
O O18 0.776846 0.500000 0.925145
O O19 0.812890 0.274725 0.000000
O O20 0.893945 0.500000 0.334099
O O21 0.770618 0.321378 0.359253
O O22 0.357008 0.500000 0.366858
#
# Coordination Sequence:
#
# PCOD9385860 Si02
#       8
#     8   8   8   4   4   8   8   8
#     4   9  17  30  49  73 104 142 182 228 282 337
#     4   9  16  29  51  76 106 144 183 225 276 334
#     4  10  20  34  53  78 108 143 183 229 283 338
#     4  11  25  41  59  87 118 145 178 228 287 341
#     4  11  25  43  59  78 113 158 195 231 280 335
#     4   9  17  28  45  75 112 144 181 232 285 339
#     4  10  21  39  61  84 112 149 189 229 280 340
#     4  11  23  37  58  85 110 142 187 236 284 335
#
# _framework density 19.305133999999999
#
# number of rings (size 3 to 8) (size 9 to 14) (size 15 to 20)
#    0.000    2.143    0.714    2.571    1.000    7.714 
#    0.000    2.857    0.000    0.429    0.000    2.000 
#    0.000    0.571    0.000    0.000    0.000    0.000 
#
# Total GULP energy -312307.664804 kJ/mol
# GULP energy per Si atom -5576.922586 kJ/mol
# Density = 1.926120 g / cm^3
# Si number density = 19.305134 Si / 1000 Ang^3
#
#
#
# Elastic Constant Matrix: (Units=GPa)
#
#
# Indices 1 2 3 4 5 6 
#
# 1 78.7446 14.0501 73.7129 0.0000 0.0000 0.0000
# 2 14.0501 13.8292 13.9879 0.0000 0.0000 0.0000
# 3 73.7129 13.9879 131.6311 0.0000 0.0000 0.0000
# 4 0.0000 0.0000 0.0000 -14.3309 0.0000 0.0000
# 5 0.0000 0.0000 0.0000 0.0000 48.7236 0.0000
# 6 0.0000 0.0000 0.0000 0.0000 0.0000 104.1187
#
#
#
# Elastic Compliance Matrix: (Units=1/GPa)
#
#
# Indices 1 2 3 4 5 6 
#
# 1 0.029125 -0.014670 -0.014751 0.000000 0.000000 0.000000
# 2 -0.014670 0.088409 -0.001180 0.000000 0.000000 0.000000
# 3 -0.014751 -0.001180 0.015983 0.000000 0.000000 0.000000
# 4 0.000000 0.000000 0.000000 -0.069779 0.000000 0.000000
# 5 0.000000 0.000000 0.000000 0.000000 0.020524 0.000000
# 6 0.000000 0.000000 0.000000 0.000000 0.000000 0.009604
#
#
# Mechanical properties :
#
#
# Convention : Reuss Voigt Hill
#
# Bulk Modulus (GPa) = 13.82839 47.52298 30.67569
# Shear Modulus (GPa) = 27.90599 35.86589 31.88594
#
# Velocity S-wave (km/s) = 3.80613 4.31494 4.06850
# Velocity P-wave (km/s) = 5.14724 7.03528 6.16398
#
# Compressibility (1/GPa) = 0.07231499
#
# Stress axis : x y z
#
# Youngs Moduli (GPa) = 34.33421 11.31112 62.56663
#
# Poissons Ratio (x) = 0.16594 0.92293
# Poissons Ratio (y) = 0.50369 0.07380
# Poissons Ratio (z) = 0.50647 0.01334
#
# Static dielectric constant tensor:
#      x y z
#    x 1.718040 0.000000 0.000000 
#    y 0.000000 1.676530 0.000000 
#    z 0.000000 0.000000 1.810910 
# 
# From -- ./inp_files/30997.got.cif
#   From: 2010.05.17/outbox.cif.g08.bks.cpg/sg47_16_cif.got.tgz:30997.got - 2010.06.03 20:15:42.
