data_PCOD9385077
_publ_section_title
;
Structure prediction by ZEFSAII (Michael W. Deem and Ramdas Pophale) SiO2 
 PCOD9385077
Probable space group: P M M M
;
_chemical_formula_sum "Si O2"
_cell_formula_units_Z 40
_cell_length_a 9.542018
_cell_length_b 28.653890
_cell_length_c 7.510522
_cell_angle_alpha 90.000000
_cell_angle_beta 90.000000
_cell_angle_gamma 90.000000
_cell_volume 2053.496389
_symmetry_space_group_name_H-M "P M M M"
_symmetry_group_IT_number 47
_symmetry_cell_setting 'orthorhombic'
loop_
_space_group_symop_operation_xyz
x,y,z
-x,-y,z
x,-y,-z
-x,y,-z
-x,-y,-z
x,y,-z
-x,y,z
x,-y,z
loop_
_atom_site_type_symbol
_atom_site_label
_atom_site_fract_x
_atom_site_fract_y
_atom_site_fract_z
Si Si1 0.670460 0.946892 0.500000
Si Si2 0.838167 0.782235 0.216567
Si Si3 0.838729 0.500000 0.718372
Si Si4 0.839817 0.322088 0.214498
Si Si5 0.332347 0.872518 0.790881
Si Si6 0.658092 0.587838 0.711190
O O1 0.500000 0.948877 0.500000
O O2 0.711308 0.916540 0.327909
O O3 0.721955 0.000000 0.500000
O O4 0.797598 0.729984 0.275402
O O5 0.742313 0.825162 0.272801
O O6 0.000000 0.789677 0.267956
O O7 0.833352 0.781822 0.000000
O O8 0.840946 0.500000 0.500000
O O9 0.755506 0.545947 0.779373
O O10 0.000000 0.500000 0.776116
O O11 0.734873 0.362911 0.264862
O O12 0.000000 0.331336 0.275793
O O13 0.844192 0.320858 0.000000
O O14 0.500000 0.866932 0.774209
O O15 0.300487 0.879686 0.000000
O O16 0.647020 0.579893 0.500000
O O17 0.500000 0.587566 0.784180
#
# Coordination Sequence:
#
# PCOD9385077 Si02
#       6
#     4   8   4   8   8   8
#     4   9  18  32  49  73 105 135 167 214 261 298
#     4   8  15  30  51  72  96 128 163 199 243 295
#     4   9  17  31  52  71  90 125 168 208 250 297
#     4   9  18  33  52  73  98 129 164 202 247 300
#     4   9  17  30  50  74  98 130 171 210 253 306
#     4  10  20  33  49  72 100 128 161 203 251 301
#
# _framework density 19.478971999999999
#
# number of rings (size 3 to 8) (size 9 to 14) (size 15 to 20)
#    0.000    3.000    0.000    2.100    0.000    4.000 
#    1.800    5.000    0.000    4.200    0.000    2.800 
#    0.000    0.000    0.000    0.000    0.000    0.000 
#
# Total GULP energy -223105.536317 kJ/mol
# GULP energy per Si atom -5577.638408 kJ/mol
# Density = 1.943464 g / cm^3
# Si number density = 19.478972 Si / 1000 Ang^3
#
#
#
# Elastic Constant Matrix: (Units=GPa)
#
#
# Indices 1 2 3 4 5 6 
#
# 1 103.7807 104.9931 27.2992 0.0000 0.0000 0.0000
# 2 104.9931 207.7469 38.1298 0.0000 0.0000 0.0000
# 3 27.2992 38.1298 61.0483 0.0000 0.0000 0.0000
# 4 0.0000 0.0000 0.0000 26.5151 0.0000 0.0000
# 5 0.0000 0.0000 0.0000 0.0000 10.7393 0.0000
# 6 0.0000 0.0000 0.0000 0.0000 0.0000 39.8543
#
#
#
# Elastic Compliance Matrix: (Units=1/GPa)
#
#
# Indices 1 2 3 4 5 6 
#
# 1 0.020192 -0.009654 -0.002999 0.000000 0.000000 0.000000
# 2 -0.009654 0.010053 -0.001962 0.000000 0.000000 0.000000
# 3 -0.002999 -0.001962 0.018947 0.000000 0.000000 0.000000
# 4 0.000000 0.000000 0.000000 0.037714 0.000000 0.000000
# 5 0.000000 0.000000 0.000000 0.000000 0.093116 0.000000
# 6 0.000000 0.000000 0.000000 0.000000 0.000000 0.025091
#
#
# Mechanical properties :
#
#
# Convention : Reuss Voigt Hill
#
# Bulk Modulus (GPa) = 50.09787 79.26890 64.68338
# Shear Modulus (GPa) = 20.74716 28.89864 24.82290
#
# Velocity S-wave (km/s) = 3.26714 3.85591 3.57367
# Velocity P-wave (km/s) = 6.32511 7.78505 7.09274
#
# Compressibility (1/GPa) = 0.01996093
#
# Stress axis : x y z
#
# Youngs Moduli (GPa) = 49.52571 99.47606 52.77894
#
# Poissons Ratio (x) = 0.96035 0.15830
# Poissons Ratio (y) = 0.47813 0.10354
# Poissons Ratio (z) = 0.14854 0.19514
#
# Static dielectric constant tensor:
#      x y z
#    x 1.660890 0.000000 0.000000 
#    y 0.000000 1.660720 0.000000 
#    z 0.000000 0.000000 1.739640 
# 
# From -- ./inp_files/1775.got.cif
#   From: 2010.05.17/outbox.cif.g08.bks.cpg/sg47_1_cif.got.tgz:1775.got - 2010.06.03 20:15:42.
