data_PCOD9385611
_publ_section_title
;
Structure prediction by ZEFSAII (Michael W. Deem and Ramdas Pophale) SiO2 
 PCOD9385611
Probable space group: P M M M
;
_chemical_formula_sum "Si O2"
_cell_formula_units_Z 64
_cell_length_a 8.976825
_cell_length_b 20.471457
_cell_length_c 20.400317
_cell_angle_alpha 90.000000
_cell_angle_beta 90.000000
_cell_angle_gamma 90.000000
_cell_volume 3748.939469
_symmetry_space_group_name_H-M "P M M M"
_symmetry_group_IT_number 47
_symmetry_cell_setting 'orthorhombic'
loop_
_space_group_symop_operation_xyz
x,y,z
-x,-y,z
x,-y,-z
-x,y,-z
-x,-y,-z
x,y,-z
-x,y,z
x,-y,z
loop_
_atom_site_type_symbol
_atom_site_label
_atom_site_fract_x
_atom_site_fract_y
_atom_site_fract_z
Si Si1 0.825003 0.574267 0.206742
Si Si2 0.678666 0.664655 0.685093
Si Si3 0.179759 0.928178 0.784165
Si Si4 0.675308 0.203257 0.743978
Si Si5 0.178234 0.893093 0.070399
Si Si6 0.322431 0.389287 0.926566
Si Si7 0.178326 0.425359 0.422624
Si Si8 0.672987 0.761702 0.104151
O O1 0.804991 0.500000 0.230562
O O2 0.735568 0.623561 0.252529
O O3 0.766614 0.578874 0.132575
O O4 0.000000 0.590009 0.209340
O O5 0.500000 0.664143 0.684594
O O6 0.727703 0.739974 0.694860
O O7 0.742229 0.627841 0.621996
O O8 0.242226 0.865916 0.745764
O O9 0.231715 0.922335 0.860465
O O10 0.000000 0.924361 0.784380
O O11 0.223160 0.000000 0.759350
O O12 0.500000 0.191642 0.733269
O O13 0.690691 0.233523 0.817266
O O14 0.222277 0.816996 0.074513
O O15 0.000000 0.900876 0.070491
O O16 0.233619 0.918919 0.000000
O O17 0.500000 0.400550 0.917878
O O18 0.298034 0.311197 0.920159
O O19 0.281468 0.410549 0.000000
O O20 0.206755 0.416080 0.500000
O O21 0.223838 0.500000 0.405703
O O22 0.000000 0.421391 0.412437
O O23 0.500000 0.777430 0.088881
#
# Coordination Sequence:
#
# PCOD9385611 Si02
#       8
#     8   8   8   8   8   8   8   8
#     4  11  24  38  51  69  95 128 166 210 261 314
#     4  11  21  35  56  81 106 134 174 219 255 294
#     4   9  18  31  46  66  93 125 161 202 250 305
#     4   9  18  32  50  71  96 125 161 205 252 298
#     4   9  17  27  40  61  87 115 150 192 242 302
#     4  10  20  34  51  68  88 118 158 208 266 320
#     4   9  19  36  56  81 117 155 183 207 243 295
#     4   9  16  30  47  63  86 115 149 195 250 303
#
# _framework density 17.071494999999999
#
# number of rings (size 3 to 8) (size 9 to 14) (size 15 to 20)
#    0.000    2.375    1.250    1.875    0.000    6.250 
#    0.000    3.125    0.000    0.000    0.000    3.500 
#    0.000    0.500    0.000    5.500    0.000    4.000 
#
# Total GULP energy -356972.951542 kJ/mol
# GULP energy per Si atom -5577.702368 kJ/mol
# Density = 1.703264 g / cm^3
# Si number density = 17.071495 Si / 1000 Ang^3
#
#
#
# Elastic Constant Matrix: (Units=GPa)
#
#
# Indices 1 2 3 4 5 6 
#
# 1 24.2032 42.2025 27.9990 0.0000 0.0000 0.0000
# 2 42.2025 119.2016 52.9845 0.0000 0.0000 0.0000
# 3 27.9990 52.9845 59.8496 0.0000 0.0000 0.0000
# 4 0.0000 0.0000 0.0000 12.7284 0.0000 0.0000
# 5 0.0000 0.0000 0.0000 0.0000 22.6236 0.0000
# 6 0.0000 0.0000 0.0000 0.0000 0.0000 23.9245
#
#
#
# Elastic Compliance Matrix: (Units=1/GPa)
#
#
# Indices 1 2 3 4 5 6 
#
# 1 0.144729 -0.034864 -0.036843 0.000000 0.000000 0.000000
# 2 -0.034864 0.022231 -0.003371 0.000000 0.000000 0.000000
# 3 -0.036843 -0.003371 0.036928 0.000000 0.000000 0.000000
# 4 0.000000 0.000000 0.000000 0.078564 0.000000 0.000000
# 5 0.000000 0.000000 0.000000 0.000000 0.044202 0.000000
# 6 0.000000 0.000000 0.000000 0.000000 0.000000 0.041798
#
#
# Mechanical properties :
#
#
# Convention : Reuss Voigt Hill
#
# Bulk Modulus (GPa) = 18.61032 49.95849 34.28441
# Shear Modulus (GPa) = 9.31935 17.19319 13.25627
#
# Velocity S-wave (km/s) = 2.33899 3.17697 2.78963
# Velocity P-wave (km/s) = 4.26844 6.54105 5.52290
#
# Compressibility (1/GPa) = 0.05373361
#
# Stress axis : x y z
#
# Youngs Moduli (GPa) = 6.90946 44.98302 27.07941
#
# Poissons Ratio (x) = 1.56828 0.99768
# Poissons Ratio (y) = 0.24089 0.09127
# Poissons Ratio (z) = 0.25456 0.15162
#
# Static dielectric constant tensor:
#      x y z
#    x 1.573010 0.000000 0.000000 
#    y 0.000000 1.590900 0.000000 
#    z 0.000000 0.000000 1.582590 
# 
# From -- ./inp_files/30171.got.cif
#   From: 2010.05.17/outbox.cif.g08.bks.cpg/sg47_16_cif.got.tgz:30171.got - 2010.06.03 20:15:42.
