data_PCOD9385938
_publ_section_title
;
Structure prediction by ZEFSAII (Michael W. Deem and Ramdas Pophale) SiO2 
 PCOD9385938
Probable space group: P M M M
;
_chemical_formula_sum "Si O2"
_cell_formula_units_Z 44
_cell_length_a 29.298994
_cell_length_b 9.705210
_cell_length_c 8.667625
_cell_angle_alpha 90.000000
_cell_angle_beta 90.000000
_cell_angle_gamma 90.000000
_cell_volume 2464.664214
_symmetry_space_group_name_H-M "P M M M"
_symmetry_group_IT_number 47
_symmetry_cell_setting 'orthorhombic'
loop_
_space_group_symop_operation_xyz
x,y,z
-x,-y,z
x,-y,-z
-x,y,-z
-x,-y,-z
x,y,-z
-x,y,z
x,-y,z
loop_
_atom_site_type_symbol
_atom_site_label
_atom_site_fract_x
_atom_site_fract_y
_atom_site_fract_z
Si Si1 0.596379 0.339371 0.815623
Si Si2 0.222979 0.840011 0.186213
Si Si3 0.678594 0.160251 0.315513
Si Si4 0.500000 0.332831 0.320994
Si Si5 0.863401 0.658556 0.188671
Si Si6 0.948371 0.158623 0.188030
O O1 0.601134 0.500000 0.767681
O O2 0.637828 0.251632 0.749447
O O3 0.547113 0.287438 0.757058
O O4 0.596974 0.334535 0.000000
O O5 0.271869 0.796398 0.252408
O O6 0.181404 0.743375 0.236587
O O7 0.214789 0.000000 0.230675
O O8 0.225271 0.835531 0.000000
O O9 0.678810 0.167525 0.500000
O O10 0.672251 0.000000 0.269341
O O11 0.500000 0.500000 0.309649
O O12 0.500000 0.294561 0.500000
O O13 0.862423 0.500000 0.238389
O O14 0.908949 0.738447 0.240076
O O15 0.863734 0.659207 0.000000
O O16 0.000000 0.194607 0.236682
O O17 0.938974 0.000000 0.233164
O O18 0.948179 0.160556 0.000000
#
# Coordination Sequence:
#
# PCOD9385938 Si02
#       6
#     8   8   8   4   8   8
#     4  10  20  34  54  79 105 134 169 207 246 292
#     4   9  17  30  47  64  86 120 157 191 233 288
#     4  10  21  36  53  74 100 129 163 205 252 299
#     4   9  17  31  52  77 106 139 172 206 246 291
#     4   9  16  24  36  57  84 113 148 192 237 279
#     4   8  13  21  33  50  76 113 153 188 226 278
#
# _framework density 17.852329999999998
#
# number of rings (size 3 to 8) (size 9 to 14) (size 15 to 20)
#    0.000    2.818    0.000    2.455    0.000    6.545 
#    0.000    4.091    0.000    2.727    0.000    0.000 
#    0.000    0.727    0.000    8.364    0.000   10.727 
#
# Total GULP energy -245335.490707 kJ/mol
# GULP energy per Si atom -5575.806607 kJ/mol
# Density = 1.781170 g / cm^3
# Si number density = 17.852330 Si / 1000 Ang^3
#
#
#
# Elastic Constant Matrix: (Units=GPa)
#
#
# Indices 1 2 3 4 5 6 
#
# 1 213.5151 117.1574 34.3208 0.0000 0.0000 0.0000
# 2 117.1574 97.1192 22.4582 0.0000 0.0000 0.0000
# 3 34.3208 22.4582 12.0455 0.0000 0.0000 0.0000
# 4 0.0000 0.0000 0.0000 13.0827 0.0000 0.0000
# 5 0.0000 0.0000 0.0000 0.0000 -16.3733 0.0000
# 6 0.0000 0.0000 0.0000 0.0000 0.0000 45.2981
#
#
#
# Elastic Compliance Matrix: (Units=1/GPa)
#
#
# Indices 1 2 3 4 5 6 
#
# 1 0.015490 -0.014907 -0.016341 0.000000 0.000000 0.000000
# 2 -0.014907 0.032446 -0.018021 0.000000 0.000000 0.000000
# 3 -0.016341 -0.018021 0.163180 0.000000 0.000000 0.000000
# 4 0.000000 0.000000 0.000000 0.076437 0.000000 0.000000
# 5 0.000000 0.000000 0.000000 0.000000 -0.061075 0.000000
# 6 0.000000 0.000000 0.000000 0.000000 0.000000 0.022076
#
#
# Mechanical properties :
#
#
# Convention : Reuss Voigt Hill
#
# Bulk Modulus (GPa) = 8.88281 74.50583 41.69432
# Shear Modulus (GPa) = 12.99991 18.31773 15.65882
#
# Velocity S-wave (km/s) = 2.70143 3.20671 2.96485
# Velocity P-wave (km/s) = 3.83625 7.45223 5.92674
#
# Compressibility (1/GPa) = 0.11257701
#
# Stress axis : x y z
#
# Youngs Moduli (GPa) = 64.55887 30.82012 6.12821
#
# Poissons Ratio (x) = 0.45943 0.10014
# Poissons Ratio (y) = 0.96237 0.11044
# Poissons Ratio (z) = 1.05499 0.55541
#
# Static dielectric constant tensor:
#      x y z
#    x 1.593100 0.000000 0.000000 
#    y 0.000000 1.602640 0.000000 
#    z 0.000000 0.000000 1.597540 
# 
# From -- ./inp_files/1963.got.cif
#   From: 2010.05.17/outbox.cif.g08.bks.cpg/sg47_1_cif.got.tgz:1963.got - 2010.06.03 20:15:42.
