data_PCOD9385131
_publ_section_title
;
Structure prediction by ZEFSAII (Michael W. Deem and Ramdas Pophale) SiO2 
 PCOD9385131
Probable space group: P M M M
;
_chemical_formula_sum "Si O2"
_cell_formula_units_Z 56
_cell_length_a 13.275217
_cell_length_b 14.678755
_cell_length_c 14.046214
_cell_angle_alpha 90.000000
_cell_angle_beta 90.000000
_cell_angle_gamma 90.000000
_cell_volume 2737.096640
_symmetry_space_group_name_H-M "P M M M"
_symmetry_group_IT_number 47
_symmetry_cell_setting 'orthorhombic'
loop_
_space_group_symop_operation_xyz
x,y,z
-x,-y,z
x,-y,-z
-x,y,-z
-x,-y,-z
x,y,-z
-x,y,z
x,-y,z
loop_
_atom_site_type_symbol
_atom_site_label
_atom_site_fract_x
_atom_site_fract_y
_atom_site_fract_z
Si Si1 0.890631 0.105497 0.689008
Si Si2 0.680259 0.889356 0.608757
Si Si3 0.715153 0.602325 0.747080
Si Si4 0.111320 0.632114 0.891092
Si Si5 0.182292 0.838437 0.108213
Si Si6 0.611769 0.785784 0.206741
Si Si7 0.110703 0.389226 0.610117
O O1 0.795906 0.140813 0.629616
O O2 0.864079 0.109471 0.801510
O O3 0.000000 0.148243 0.672171
O O4 0.897226 0.000000 0.662083
O O5 0.651309 0.867399 0.500000
O O6 0.620376 0.841035 0.693801
O O7 0.673884 0.000000 0.619239
O O8 0.677462 0.500000 0.725450
O O9 0.795197 0.595602 0.832813
O O10 0.634777 0.679516 0.771262
O O11 0.790012 0.640149 0.665381
O O12 0.125876 0.741184 0.890014
O O13 0.000000 0.607888 0.854856
O O14 0.116949 0.603340 0.000000
O O15 0.298809 0.820257 0.137530
O O16 0.174051 0.875004 0.000000
O O17 0.500000 0.797145 0.166987
O O18 0.117574 0.364753 0.500000
O O19 0.111600 0.500000 0.616812
O O20 0.000000 0.359656 0.645233
#
# Coordination Sequence:
#
# PCOD9385131 Si02
#       7
#     8   8   8   8   8   8   8
#     4   9  17  29  49  81 117 147 173 201 239 299
#     4   9  19  37  60  84 109 137 170 211 259 307
#     4  10  20  33  50  72 101 136 170 208 258 313
#     4   9  17  29  47  72 101 134 172 212 254 303
#     4   9  18  33  51  71 101 140 179 220 264 310
#     4  10  22  38  55  76 100 129 174 230 277 318
#     4   8  14  26  45  68  94 126 162 196 234 289
#
# _framework density 20.459636
#
# number of rings (size 3 to 8) (size 9 to 14) (size 15 to 20)
#    0.000    2.857    0.000    1.286    0.000    4.286 
#    0.000    4.286    0.000    0.000    0.000   11.000 
#    0.000    0.000    0.000    0.000    0.000    0.000 
#
# Total GULP energy -312197.633906 kJ/mol
# GULP energy per Si atom -5574.957748 kJ/mol
# Density = 2.041307 g / cm^3
# Si number density = 20.459636 Si / 1000 Ang^3
#
#
#
# Elastic Constant Matrix: (Units=GPa)
#
#
# Indices 1 2 3 4 5 6 
#
# 1 80.3682 2.0762 -13.7288 0.0000 0.0000 0.0000
# 2 2.0762 61.3843 3.5011 0.0000 0.0000 0.0000
# 3 -13.7288 3.5011 69.0294 0.0000 0.0000 0.0000
# 4 0.0000 0.0000 0.0000 18.6916 0.0000 0.0000
# 5 0.0000 0.0000 0.0000 0.0000 8.4326 0.0000
# 6 0.0000 0.0000 0.0000 0.0000 0.0000 15.8403
#
#
#
# Elastic Compliance Matrix: (Units=1/GPa)
#
#
# Indices 1 2 3 4 5 6 
#
# 1 0.012901 -0.000584 0.002595 0.000000 0.000000 0.000000
# 2 -0.000584 0.016365 -0.000946 0.000000 0.000000 0.000000
# 3 0.002595 -0.000946 0.015051 0.000000 0.000000 0.000000
# 4 0.000000 0.000000 0.000000 0.053500 0.000000 0.000000
# 5 0.000000 0.000000 0.000000 0.000000 0.118588 0.000000
# 6 0.000000 0.000000 0.000000 0.000000 0.000000 0.063130
#
#
# Mechanical properties :
#
#
# Convention : Reuss Voigt Hill
#
# Bulk Modulus (GPa) = 21.53025 21.60875 21.56950
# Shear Modulus (GPa) = 17.07145 23.18846 20.12996
#
# Velocity S-wave (km/s) = 2.89173 3.37022 3.14010
# Velocity P-wave (km/s) = 4.65785 5.07238 4.86953
#
# Compressibility (1/GPa) = 0.04644628
#
# Stress axis : x y z
#
# Youngs Moduli (GPa) = 77.51214 61.10773 66.44177
#
# Poissons Ratio (x) = 0.03571 -0.17245
# Poissons Ratio (y) = 0.04530 0.06287
# Poissons Ratio (z) = -0.20118 0.05782
#
# Static dielectric constant tensor:
#      x y z
#    x 1.734640 0.000000 0.000000 
#    y 0.000000 1.772270 0.000000 
#    z 0.000000 0.000000 1.736010 
# 
# From -- ./inp_files/17676.got.cif
#   From: 2010.05.17/outbox.cif.g08.bks.cpg/sg47_9_cif.got.tgz:17676.got - 2010.06.03 20:15:42.
