data_PCOD9385466
_publ_section_title
;
Structure prediction by ZEFSAII (Michael W. Deem and Ramdas Pophale) SiO2 
 PCOD9385466
Probable space group: P M M M
;
_chemical_formula_sum "Si O2"
_cell_formula_units_Z 64
_cell_length_a 21.345923
_cell_length_b 7.491148
_cell_length_c 18.337672
_cell_angle_alpha 90.000000
_cell_angle_beta 90.000000
_cell_angle_gamma 90.000000
_cell_volume 2932.294030
_symmetry_space_group_name_H-M "P M M M"
_symmetry_group_IT_number 47
_symmetry_cell_setting 'orthorhombic'
loop_
_space_group_symop_operation_xyz
x,y,z
-x,-y,z
x,-y,-z
-x,y,-z
-x,-y,-z
x,y,-z
-x,y,z
x,-y,z
loop_
_atom_site_type_symbol
_atom_site_label
_atom_site_fract_x
_atom_site_fract_y
_atom_site_fract_z
Si Si1 0.789363 0.785304 0.421194
Si Si2 0.596971 0.216923 0.919727
Si Si3 0.567286 0.709747 0.754211
Si Si4 0.868622 0.219879 0.922788
Si Si5 0.073260 0.201354 0.222486
Si Si6 0.293938 0.711155 0.721869
Si Si7 0.929343 0.781049 0.386177
Si Si8 0.734271 0.207112 0.115933
O O1 0.762914 0.726578 0.500000
O O2 0.747343 0.738901 0.350705
O O3 0.862549 0.726174 0.419046
O O4 0.791497 0.000000 0.420819
O O5 0.568506 0.274052 0.842475
O O6 0.668729 0.281326 0.911571
O O7 0.594384 0.000000 0.918755
O O8 0.573209 0.272224 0.000000
O O9 0.500000 0.785953 0.729343
O O10 0.566778 0.500000 0.736148
O O11 0.633752 0.781505 0.723247
O O12 0.898054 0.287491 0.848335
O O13 0.796883 0.279130 0.918680
O O14 0.871477 0.000000 0.920530
O O15 0.897315 0.273029 0.000000
O O16 0.078023 0.280483 0.302434
O O17 0.000000 0.185552 0.207855
O O18 0.100329 0.000000 0.229725
O O19 0.298125 0.500000 0.733202
O O20 0.262694 0.783360 0.796060
O O21 0.000000 0.726517 0.411360
O O22 0.931156 0.000000 0.388973
O O23 0.732298 0.000000 0.095072
#
# Coordination Sequence:
#
# PCOD9385466 Si02
#       8
#     8   8   8   8   8   8   8   8
#     4  10  20  33  52  79 107 132 157 188 231 284
#     4   9  17  28  43  67  99 130 160 199 248 299
#     4   9  19  35  52  70  93 125 168 212 250 291
#     4   9  15  21  33  55  82 115 155 196 237 279
#     4   8  13  20  30  48  79 117 151 185 228 273
#     4  10  20  34  53  74  96 125 160 199 243 290
#     4   8  14  26  45  70 100 132 164 195 227 269
#     4   9  16  28  46  65  88 121 161 201 239 282
#
# _framework density 21.825915999999999
#
# number of rings (size 3 to 8) (size 9 to 14) (size 15 to 20)
#    0.000    3.000    0.000    2.250    0.000    5.500 
#    0.000    3.750    0.000    1.875    0.000    3.500 
#    0.000    0.000    0.000    4.500    0.000    4.000 
#
# Total GULP energy -356513.747928 kJ/mol
# GULP energy per Si atom -5570.527311 kJ/mol
# Density = 2.177624 g / cm^3
# Si number density = 21.825916 Si / 1000 Ang^3
#
#
#
# Elastic Constant Matrix: (Units=GPa)
#
#
# Indices 1 2 3 4 5 6 
#
# 1 83.3673 -0.6932 70.2577 0.0000 0.0000 0.0000
# 2 -0.6932 61.1216 -7.9598 0.0000 0.0000 0.0000
# 3 70.2577 -7.9598 115.8151 0.0000 0.0000 0.0000
# 4 0.0000 0.0000 0.0000 23.0760 0.0000 0.0000
# 5 0.0000 0.0000 0.0000 0.0000 -33.0499 0.0000
# 6 0.0000 0.0000 0.0000 0.0000 0.0000 3.0161
#
#
#
# Elastic Compliance Matrix: (Units=1/GPa)
#
#
# Indices 1 2 3 4 5 6 
#
# 1 0.024713 -0.001687 -0.015108 0.000000 0.000000 0.000000
# 2 -0.001687 0.016624 0.002166 0.000000 0.000000 0.000000
# 3 -0.015108 0.002166 0.017948 0.000000 0.000000 0.000000
# 4 0.000000 0.000000 0.000000 0.043335 0.000000 0.000000
# 5 0.000000 0.000000 0.000000 0.000000 -0.030257 0.000000
# 6 0.000000 0.000000 0.000000 0.000000 0.000000 0.331551
#
#
# Mechanical properties :
#
#
# Convention : Reuss Voigt Hill
#
# Bulk Modulus (GPa) = 33.30311 42.61258 37.95784
# Shear Modulus (GPa) = 11.28207 11.85506 11.56856
#
# Velocity S-wave (km/s) = 2.27604 2.33312 2.30475
# Velocity P-wave (km/s) = 4.71156 5.17920 4.95090
#
# Compressibility (1/GPa) = 0.03002723
#
# Stress axis : x y z
#
# Youngs Moduli (GPa) = 40.46406 60.15477 55.71542
#
# Poissons Ratio (x) = 0.10149 0.84175
# Poissons Ratio (y) = 0.06827 -0.12068
# Poissons Ratio (z) = 0.61133 -0.13030
#
# Static dielectric constant tensor:
#      x y z
#    x 1.832990 0.000000 0.000000 
#    y 0.000000 1.853940 0.000000 
#    z 0.000000 0.000000 1.829250 
# 
# From -- ./inp_files/28804.got.cif
#   From: 2010.05.17/outbox.cif.g08.bks.cpg/sg47_15_cif.got.tgz:28804.got - 2010.06.03 20:15:42.
