data_PCOD9385174
_publ_section_title
;
Structure prediction by ZEFSAII (Michael W. Deem and Ramdas Pophale) SiO2 
 PCOD9385174
Probable space group: P M M M
;
_chemical_formula_sum "Si O2"
_cell_formula_units_Z 52
_cell_length_a 7.527705
_cell_length_b 35.617651
_cell_length_c 9.278069
_cell_angle_alpha 90.000000
_cell_angle_beta 90.000000
_cell_angle_gamma 90.000000
_cell_volume 2487.628155
_symmetry_space_group_name_H-M "P M M M"
_symmetry_group_IT_number 47
_symmetry_cell_setting 'orthorhombic'
loop_
_space_group_symop_operation_xyz
x,y,z
-x,-y,z
x,-y,-z
-x,y,-z
-x,-y,-z
x,y,-z
-x,y,z
x,-y,z
loop_
_atom_site_type_symbol
_atom_site_label
_atom_site_fract_x
_atom_site_fract_y
_atom_site_fract_z
Si Si1 0.713103 0.149463 0.163321
Si Si2 0.217605 0.000000 0.833907
Si Si3 0.787359 0.540325 0.833105
Si Si4 0.287908 0.378856 0.165364
Si Si5 0.717597 0.222992 0.665841
Si Si6 0.787108 0.073649 0.663492
Si Si7 0.283496 0.297174 0.831290
O O1 0.500000 0.152952 0.155176
O O2 0.777720 0.186638 0.245137
O O3 0.750696 0.111991 0.252521
O O4 0.781542 0.146845 0.000000
O O5 0.277491 0.962602 0.751224
O O6 0.000000 0.000000 0.833914
O O7 0.273859 0.000000 0.000000
O O8 0.725663 0.500000 0.771557
O O9 0.747006 0.580701 0.764206
O O10 0.000000 0.538761 0.838808
O O11 0.721558 0.541550 0.000000
O O12 0.500000 0.376156 0.157151
O O13 0.225983 0.338515 0.223738
O O14 0.218610 0.380838 0.000000
O O15 0.772619 0.220686 0.500000
O O16 0.500000 0.223011 0.667561
O O17 0.777132 0.261613 0.740231
O O18 0.718147 0.074841 0.500000
O O19 0.000000 0.069823 0.655129
O O20 0.500000 0.296393 0.827760
O O21 0.233680 0.293776 0.000000
#
# Coordination Sequence:
#
# PCOD9385174 Si02
#       7
#     8   4   8   8   8   8   8
#     4  10  20  33  50  73 100 129 161 197 236 278
#     4   9  17  31  52  75  98 127 164 202 238 281
#     4   8  13  20  29  43  67  99 130 159 196 244
#     4   8  13  20  31  48  69  95 128 164 201 243
#     4   9  16  26  42  64  89 117 149 184 222 267
#     4  10  20  34  53  76 101 129 161 198 240 284
#     4   8  13  22  36  54  77 105 138 175 213 254
#
# _framework density 20.903445000000001
#
# number of rings (size 3 to 8) (size 9 to 14) (size 15 to 20)
#    0.000    3.154    0.000    3.000    0.000    4.923 
#    0.000    1.923    0.000    3.231    0.000    2.154 
#    0.000    0.615    0.000    7.692    0.000    8.923 
#
# Total GULP energy -289838.148587 kJ/mol
# GULP energy per Si atom -5573.810550 kJ/mol
# Density = 2.085587 g / cm^3
# Si number density = 20.903445 Si / 1000 Ang^3
#
#
#
# Elastic Constant Matrix: (Units=GPa)
#
#
# Indices 1 2 3 4 5 6 
#
# 1 50.3589 5.4390 5.4476 0.0000 0.0000 0.0000
# 2 5.4390 276.0045 113.9932 0.0000 0.0000 0.0000
# 3 5.4476 113.9932 133.4681 0.0000 0.0000 0.0000
# 4 0.0000 0.0000 0.0000 -54.0266 0.0000 0.0000
# 5 0.0000 0.0000 0.0000 0.0000 4.6872 0.0000
# 6 0.0000 0.0000 0.0000 0.0000 0.0000 26.3893
#
#
#
# Elastic Compliance Matrix: (Units=1/GPa)
#
#
# Indices 1 2 3 4 5 6 
#
# 1 0.019947 -0.000088 -0.000739 0.000000 0.000000 0.000000
# 2 -0.000088 0.005598 -0.004778 0.000000 0.000000 0.000000
# 3 -0.000739 -0.004778 0.011603 0.000000 0.000000 0.000000
# 4 0.000000 0.000000 0.000000 -0.018509 0.000000 0.000000
# 5 0.000000 0.000000 0.000000 0.000000 0.213348 0.000000
# 6 0.000000 0.000000 0.000000 0.000000 0.000000 0.037894
#
#
# Mechanical properties :
#
#
# Convention : Reuss Voigt Hill
#
# Bulk Modulus (GPa) = 38.55213 78.84344 58.69779
# Shear Modulus (GPa) = 17.25705 17.74009 17.49857
#
# Velocity S-wave (km/s) = 2.87637 2.91635 2.89643
# Velocity P-wave (km/s) = 5.43271 7.00999 6.27114
#
# Compressibility (1/GPa) = 0.02593890
#
# Stress axis : x y z
#
# Youngs Moduli (GPa) = 50.13306 178.63217 86.18360
#
# Poissons Ratio (x) = 0.01568 0.06370
# Poissons Ratio (y) = 0.00440 0.41176
# Poissons Ratio (z) = 0.03706 0.85345
#
# Static dielectric constant tensor:
#      x y z
#    x 1.813730 0.000000 0.000000 
#    y 0.000000 1.776030 0.000000 
#    z 0.000000 0.000000 1.705790 
# 
# From -- ./inp_files/4558.got.cif
#   From: 2010.05.17/outbox.cif.g08.bks.cpg/sg47_3_cif.got.tgz:4558.got - 2010.06.03 20:15:42.
