data_PCOD9385940
_publ_section_title
;
Structure prediction by ZEFSAII (Michael W. Deem and Ramdas Pophale) SiO2 
 PCOD9385940
Probable space group: P M M M
;
_chemical_formula_sum "Si O2"
_cell_formula_units_Z 40
_cell_length_a 7.557107
_cell_length_b 26.607250
_cell_length_c 9.441947
_cell_angle_alpha 90.000000
_cell_angle_beta 90.000000
_cell_angle_gamma 90.000000
_cell_volume 1898.528495
_symmetry_space_group_name_H-M "P M M M"
_symmetry_group_IT_number 47
_symmetry_cell_setting 'orthorhombic'
loop_
_space_group_symop_operation_xyz
x,y,z
-x,-y,z
x,-y,-z
-x,y,-z
-x,-y,-z
x,y,-z
-x,y,z
x,-y,z
loop_
_atom_site_type_symbol
_atom_site_label
_atom_site_fract_x
_atom_site_fract_y
_atom_site_fract_z
Si Si1 0.783005 0.500000 0.662245
Si Si2 0.212252 0.404003 0.161418
Si Si3 0.711896 0.708508 0.838163
Si Si4 0.216754 0.000000 0.336296
Si Si5 0.287351 0.196936 0.339449
Si Si6 0.787858 0.902801 0.838610
O O1 0.726849 0.500000 0.500000
O O2 0.723618 0.449813 0.743203
O O3 0.000000 0.500000 0.663520
O O4 0.251971 0.347895 0.214270
O O5 0.000000 0.408421 0.154987
O O6 0.280316 0.407799 0.000000
O O7 0.500000 0.713982 0.845670
O O8 0.779969 0.752826 0.738306
O O9 0.780548 0.712632 0.000000
O O10 0.276013 0.049591 0.252197
O O11 0.273240 0.000000 0.500000
O O12 0.000000 0.000000 0.337360
O O13 0.219989 0.191383 0.500000
O O14 0.500000 0.201210 0.347959
O O15 0.249229 0.148507 0.244108
O O16 0.000000 0.907908 0.847140
O O17 0.719728 0.902025 0.000000
#
# Coordination Sequence:
#
# PCOD9385940 Si02
#       6
#     4   8   8   4   8   8
#     4   9  17  29  46  69  96 124 154 191 238 288
#     4   9  17  30  49  71  94 122 158 198 238 284
#     4   9  18  33  51  70  95 128 163 200 245 295
#     4   9  17  31  52  77 106 137 166 202 252 303
#     4  10  21  36  53  74 102 136 171 208 253 302
#     4  10  20  34  54  79 105 134 170 210 250 296
#
# _framework density 21.068947999999999
#
# number of rings (size 3 to 8) (size 9 to 14) (size 15 to 20)
#    0.000    2.600    0.000    1.800    0.000    6.400 
#    0.000    3.000    0.000    6.000    0.000    0.000 
#    0.000    0.000    0.000    0.000    0.000    0.000 
#
# Total GULP energy -223386.443903 kJ/mol
# GULP energy per Si atom -5584.661098 kJ/mol
# Density = 2.102099 g / cm^3
# Si number density = 21.068948 Si / 1000 Ang^3
#
#
#
# Elastic Constant Matrix: (Units=GPa)
#
#
# Indices 1 2 3 4 5 6 
#
# 1 49.6379 -1.8382 6.7435 0.0000 0.0000 0.0000
# 2 -1.8382 241.1161 149.9796 0.0000 0.0000 0.0000
# 3 6.7435 149.9796 190.3901 0.0000 0.0000 0.0000
# 4 0.0000 0.0000 0.0000 115.1437 0.0000 0.0000
# 5 0.0000 0.0000 0.0000 0.0000 10.9488 0.0000
# 6 0.0000 0.0000 0.0000 0.0000 0.0000 28.7009
#
#
#
# Elastic Compliance Matrix: (Units=1/GPa)
#
#
# Indices 1 2 3 4 5 6 
#
# 1 0.020415 0.001187 -0.001658 0.000000 0.000000 0.000000
# 2 0.001187 0.008201 -0.006502 0.000000 0.000000 0.000000
# 3 -0.001658 -0.006502 0.010433 0.000000 0.000000 0.000000
# 4 0.000000 0.000000 0.000000 0.008685 0.000000 0.000000
# 5 0.000000 0.000000 0.000000 0.000000 0.091335 0.000000
# 6 0.000000 0.000000 0.000000 0.000000 0.000000 0.034842
#
#
# Mechanical properties :
#
#
# Convention : Reuss Voigt Hill
#
# Bulk Modulus (GPa) = 39.83669 87.87932 63.85800
# Shear Modulus (GPa) = 25.48085 52.70928 39.09507
#
# Velocity S-wave (km/s) = 3.48142 5.00718 4.31231
# Velocity P-wave (km/s) = 5.92530 8.67352 7.42762
#
# Compressibility (1/GPa) = 0.02510249
#
# Stress axis : x y z
#
# Youngs Moduli (GPa) = 48.98322 121.93483 95.84591
#
# Poissons Ratio (x) = -0.14475 0.15893
# Poissons Ratio (y) = -0.05815 0.62323
# Poissons Ratio (z) = 0.08123 0.79288
#
# Static dielectric constant tensor:
#      x y z
#    x 1.799850 0.000000 0.000000 
#    y 0.000000 1.716260 0.000000 
#    z 0.000000 0.000000 1.740490 
# 
# From -- ./inp_files/1710.got.cif
#   From: 2010.05.17/outbox.cif.g08.bks.cpg/sg47_1_cif.got.tgz:1710.got - 2010.06.03 20:15:42.
