data_PCOD9385699
_publ_section_title
;
Structure prediction by ZEFSAII (Michael W. Deem and Ramdas Pophale) SiO2 
 PCOD9385699
Probable space group: P M M M
;
_chemical_formula_sum "Si O2"
_cell_formula_units_Z 56
_cell_length_a 7.852808
_cell_length_b 14.855707
_cell_length_c 22.072029
_cell_angle_alpha 90.000000
_cell_angle_beta 90.000000
_cell_angle_gamma 90.000000
_cell_volume 2574.901157
_symmetry_space_group_name_H-M "P M M M"
_symmetry_group_IT_number 47
_symmetry_cell_setting 'orthorhombic'
loop_
_space_group_symop_operation_xyz
x,y,z
-x,-y,z
x,-y,-z
-x,y,-z
-x,-y,-z
x,y,-z
-x,y,z
x,-y,z
loop_
_atom_site_type_symbol
_atom_site_label
_atom_site_fract_x
_atom_site_fract_y
_atom_site_fract_z
Si Si1 0.298142 0.849748 0.659052
Si Si2 0.708507 0.643880 0.670022
Si Si3 0.692876 0.351387 0.802740
Si Si4 0.292131 0.500000 0.570325
Si Si5 0.202569 0.902943 0.914799
Si Si6 0.202500 0.000000 0.433080
Si Si7 0.703437 0.695252 0.933942
Si Si8 0.194666 0.155923 0.784541
O O1 0.500000 0.847818 0.665670
O O2 0.237197 0.746434 0.657111
O O3 0.221463 0.889728 0.720567
O O4 0.254887 0.911219 0.602913
O O5 0.500000 0.641014 0.672826
O O6 0.766809 0.614054 0.738127
O O7 0.759911 0.583742 0.612862
O O8 0.500000 0.386976 0.807467
O O9 0.770235 0.350741 0.871245
O O10 0.689313 0.244207 0.789097
O O11 0.500000 0.500000 0.567909
O O12 0.234097 0.500000 0.500000
O O13 0.269246 0.804054 0.932664
O O14 0.227217 0.903066 0.842686
O O15 0.000000 0.901184 0.927676
O O16 0.269448 0.000000 0.936876
O O17 0.276726 0.000000 0.500000
O O18 0.000000 0.000000 0.436260
O O19 0.500000 0.681204 0.932611
O O20 0.768430 0.663603 0.000000
O O21 0.000000 0.188666 0.789112
#
# Coordination Sequence:
#
# PCOD9385699 Si02
#       8
#     8   8   8   4   8   4   8   8
#     4  10  20  34  52  74  98 128 166 209 254 297
#     4   8  15  28  47  72 103 134 163 197 243 299
#     4   8  14  27  44  62  88 119 156 200 241 290
#     4   9  16  26  44  76 112 138 160 191 239 301
#     4   9  18  29  39  55  81 115 150 189 242 299
#     4  11  25  41  53  69  95 129 170 211 252 301
#     4   9  17  28  41  57  78 109 153 203 249 292
#     4   9  16  27  45  66  88 116 154 199 243 291
#
# _framework density 21.748408000000001
#
# number of rings (size 3 to 8) (size 9 to 14) (size 15 to 20)
#    0.000    3.000    0.000    1.929    1.000    2.571 
#    0.000    2.857    0.000    0.000    0.000   13.000 
#    0.000   19.429    0.000    0.000    0.000   39.643 
#
# Total GULP energy -311786.489361 kJ/mol
# GULP energy per Si atom -5567.615881 kJ/mol
# Density = 2.169891 g / cm^3
# Si number density = 21.748408 Si / 1000 Ang^3
#
#
#
# Elastic Constant Matrix: (Units=GPa)
#
#
# Indices 1 2 3 4 5 6 
#
# 1 29.1249 5.7763 5.2620 0.0000 0.0000 0.0000
# 2 5.7763 66.6767 63.4620 0.0000 0.0000 0.0000
# 3 5.2620 63.4620 257.2738 0.0000 0.0000 0.0000
# 4 0.0000 0.0000 0.0000 418.4563 0.0000 0.0000
# 5 0.0000 0.0000 0.0000 0.0000 56.9047 0.0000
# 6 0.0000 0.0000 0.0000 0.0000 0.0000 12.4526
#
#
#
# Elastic Compliance Matrix: (Units=1/GPa)
#
#
# Indices 1 2 3 4 5 6 
#
# 1 0.034936 -0.003066 0.000042 0.000000 0.000000 0.000000
# 2 -0.003066 0.019868 -0.004838 0.000000 0.000000 0.000000
# 3 0.000042 -0.004838 0.005080 0.000000 0.000000 0.000000
# 4 0.000000 0.000000 0.000000 0.002390 0.000000 0.000000
# 5 0.000000 0.000000 0.000000 0.000000 0.017573 0.000000
# 6 0.000000 0.000000 0.000000 0.000000 0.000000 0.080305
#
#
# Mechanical properties :
#
#
# Convention : Reuss Voigt Hill
#
# Bulk Modulus (GPa) = 22.64602 55.78622 39.21612
# Shear Modulus (GPa) = 26.23352 116.13438 71.18395
#
# Velocity S-wave (km/s) = 3.47685 7.31539 5.72728
# Velocity P-wave (km/s) = 5.15299 9.85189 7.86171
#
# Compressibility (1/GPa) = 0.04415787
#
# Stress axis : x y z
#
# Youngs Moduli (GPa) = 28.62416 50.33125 196.86945
#
# Poissons Ratio (x) = 0.15433 -0.00824
# Poissons Ratio (y) = 0.08777 0.95250
# Poissons Ratio (z) = -0.00120 0.24351
#
# Static dielectric constant tensor:
#      x y z
#    x 1.791480 0.000000 0.000000 
#    y 0.000000 1.789340 0.000000 
#    z 0.000000 0.000000 1.857570 
# 
# From -- ./inp_files/29760.got.cif
#   From: 2010.05.17/outbox.cif.g08.bks.cpg/sg47_15_cif.got.tgz:29760.got - 2010.06.03 20:15:42.
