data_PCOD9385387
_publ_section_title
;
Structure prediction by ZEFSAII (Michael W. Deem and Ramdas Pophale) SiO2 
 PCOD9385387
Probable space group: P M M M
;
_chemical_formula_sum "Si O2"
_cell_formula_units_Z 45
_cell_length_a 15.029412
_cell_length_b 20.506206
_cell_length_c 7.585251
_cell_angle_alpha 90.000000
_cell_angle_beta 90.000000
_cell_angle_gamma 90.000000
_cell_volume 2337.745675
_symmetry_space_group_name_H-M "P M M M"
_symmetry_group_IT_number 47
_symmetry_cell_setting 'orthorhombic'
loop_
_space_group_symop_operation_xyz
x,y,z
-x,-y,z
x,-y,-z
-x,y,-z
-x,-y,-z
x,y,-z
-x,y,z
x,-y,z
loop_
_atom_site_type_symbol
_atom_site_label
_atom_site_fract_x
_atom_site_fract_y
_atom_site_fract_z
Si Si1 0.816505 0.428205 0.500000
Si Si2 0.100797 0.201493 0.789661
Si Si3 0.217541 0.675421 0.797836
Si Si4 0.000000 0.500000 0.500000
Si Si5 0.598538 0.737452 0.712809
Si Si6 0.791242 0.929625 0.712497
Si Si7 0.402537 0.891237 0.714152
O O1 0.771986 0.500000 0.500000
O O2 0.793364 0.385827 0.670782
O O3 0.921045 0.444427 0.500000
O O4 0.158270 0.263597 0.728258
O O5 0.151618 0.133642 0.758473
O O6 0.000000 0.200421 0.719283
O O7 0.095745 0.208949 0.000000
O O8 0.319108 0.699739 0.792691
O O9 0.192078 0.660753 0.000000
O O10 0.604978 0.732715 0.500000
O O11 0.500000 0.714596 0.765456
O O12 0.604188 0.814312 0.755795
O O13 0.787829 0.930327 0.500000
O O14 0.689123 0.922741 0.776330
O O15 0.827489 0.000000 0.771681
O O16 0.403506 0.897212 0.500000
O O17 0.500000 0.914805 0.775325
#
# Coordination Sequence:
#
# PCOD9385387 Si02
#       7
#     4   8   8   1   8   8   8
#     4  10  24  44  65  96 131 161 197 236 286 366
#     4  10  23  39  55  79 106 143 198 250 299 353
#     4  11  22  38  65  95 124 159 203 250 296 350
#     4   8  24  48  66 100 130 166 214 212 302 388
#     4   9  16  30  56  89 123 158 199 248 297 352
#     4  10  20  33  51  77 108 145 191 243 299 357
#     4   8  14  26  47  75 108 147 188 235 293 352
#
# _framework density 19.249313999999998
#
# number of rings (size 3 to 8) (size 9 to 14) (size 15 to 20)
#    0.267    2.133    2.667    1.067    2.489    2.133 
#    0.000    4.000    0.000    1.600    0.000    2.489 
#    0.000    0.000    0.000    0.000    0.000    0.000 
#
# Total GULP energy -250733.656397 kJ/mol
# GULP energy per Si atom -5571.859031 kJ/mol
# Density = 1.920550 g / cm^3
# Si number density = 19.249314 Si / 1000 Ang^3
#
#
#
# Elastic Constant Matrix: (Units=GPa)
#
#
# Indices 1 2 3 4 5 6 
#
# 1 127.1216 63.9503 17.7753 0.0000 0.0000 0.0000
# 2 63.9503 143.7429 39.0829 0.0000 0.0000 0.0000
# 3 17.7753 39.0829 64.5063 0.0000 0.0000 0.0000
# 4 0.0000 0.0000 0.0000 3.6367 0.0000 0.0000
# 5 0.0000 0.0000 0.0000 0.0000 13.4634 0.0000
# 6 0.0000 0.0000 0.0000 0.0000 0.0000 0.8276
#
#
#
# Elastic Compliance Matrix: (Units=1/GPa)
#
#
# Indices 1 2 3 4 5 6 
#
# 1 0.010135 -0.004489 -0.000073 0.000000 0.000000 0.000000
# 2 -0.004489 0.010317 -0.005014 0.000000 0.000000 0.000000
# 3 -0.000073 -0.005014 0.018560 0.000000 0.000000 0.000000
# 4 0.000000 0.000000 0.000000 0.274977 0.000000 0.000000
# 5 0.000000 0.000000 0.000000 0.000000 0.074276 0.000000
# 6 0.000000 0.000000 0.000000 0.000000 0.000000 1.208352
#
#
# Mechanical properties :
#
#
# Convention : Reuss Voigt Hill
#
# Bulk Modulus (GPa) = 50.35119 64.10976 57.23048
# Shear Modulus (GPa) = 3.08187 17.88967 10.48577
#
# Velocity S-wave (km/s) = 1.26669 3.05186 2.33649
# Velocity P-wave (km/s) = 5.32480 6.76725 6.08889
#
# Compressibility (1/GPa) = 0.01986050
#
# Stress axis : x y z
#
# Youngs Moduli (GPa) = 98.66771 96.92404 53.87835
#
# Poissons Ratio (x) = 0.43511 0.00393
# Poissons Ratio (y) = 0.44294 0.27015
# Poissons Ratio (z) = 0.00719 0.48598
#
# Static dielectric constant tensor:
#      x y z
#    x 1.683230 0.000000 0.000000 
#    y 0.000000 1.653070 0.000000 
#    z 0.000000 0.000000 1.759630 
# 
# From -- ./inp_files/6851.got.cif
#   From: 2010.05.17/outbox.cif.g08.bks.cpg/sg47_4_cif.got.tgz:6851.got - 2010.06.03 20:15:42.
