data_PCOD9385283
_publ_section_title
;
Structure prediction by ZEFSAII (Michael W. Deem and Ramdas Pophale) SiO2 
 PCOD9385283
Probable space group: P M M M
;
_chemical_formula_sum "Si O2"
_cell_formula_units_Z 48
_cell_length_a 9.716024
_cell_length_b 7.561164
_cell_length_c 31.715251
_cell_angle_alpha 90.000000
_cell_angle_beta 90.000000
_cell_angle_gamma 90.000000
_cell_volume 2329.943500
_symmetry_space_group_name_H-M "P M M M"
_symmetry_group_IT_number 47
_symmetry_cell_setting 'orthorhombic'
loop_
_space_group_symop_operation_xyz
x,y,z
-x,-y,z
x,-y,-z
-x,y,-z
-x,-y,-z
x,y,-z
-x,y,z
x,-y,z
loop_
_atom_site_type_symbol
_atom_site_label
_atom_site_fract_x
_atom_site_fract_y
_atom_site_fract_z
Si Si1 0.340536 0.784189 0.453262
Si Si2 0.841288 0.784345 0.375346
Si Si3 0.655516 0.213392 0.951944
Si Si4 0.345388 0.208471 0.204673
Si Si5 0.155420 0.707648 0.126161
Si Si6 0.158886 0.783751 0.719286
O O1 0.292027 0.729282 0.500000
O O2 0.500000 0.732834 0.448865
O O3 0.251638 0.721705 0.413852
O O4 0.337027 0.000000 0.452860
O O5 0.799204 0.730056 0.328073
O O6 0.000000 0.732700 0.381322
O O7 0.837435 0.000000 0.375662
O O8 0.500000 0.272093 0.940068
O O9 0.769703 0.267266 0.918552
O O10 0.653102 0.000000 0.952272
O O11 0.682443 0.272297 0.000000
O O12 0.500000 0.281394 0.199822
O O13 0.255127 0.222450 0.162556
O O14 0.259274 0.281784 0.244159
O O15 0.359376 0.000000 0.213037
O O16 0.144908 0.500000 0.133894
O O17 0.000000 0.782327 0.127049
O O18 0.000000 0.730242 0.726577
O O19 0.158650 0.000000 0.719979
#
# Coordination Sequence:
#
# PCOD9385283 Si02
#       6
#     8   8   8   8   8   8
#     4   8  13  19  25  35  55  86 124 166 213 263
#     4   8  13  20  30  45  65  91 126 169 216 265
#     4   9  19  37  60  84 108 134 166 203 241 282
#     4  10  20  33  51  74  96 121 158 201 243 289
#     4  11  24  38  52  74 104 136 168 201 239 284
#     4   8  14  25  40  58  81 108 139 180 231 281
#
# _framework density 20.601358999999999
#
# number of rings (size 3 to 8) (size 9 to 14) (size 15 to 20)
#    0.000    3.000    0.000    3.500    0.000    6.333 
#    0.000    7.500    0.000    0.000    0.000    0.000 
#    0.000    0.000    0.000    0.000    0.000    0.833 
#
# Total GULP energy -267775.840496 kJ/mol
# GULP energy per Si atom -5578.663344 kJ/mol
# Density = 2.055447 g / cm^3
# Si number density = 20.601359 Si / 1000 Ang^3
#
#
#
# Elastic Constant Matrix: (Units=GPa)
#
#
# Indices 1 2 3 4 5 6 
#
# 1 154.8637 2.9505 120.3943 0.0000 0.0000 0.0000
# 2 2.9505 45.8330 -3.7883 0.0000 0.0000 0.0000
# 3 120.3943 -3.7883 164.5521 0.0000 0.0000 0.0000
# 4 0.0000 0.0000 0.0000 -50.7452 0.0000 0.0000
# 5 0.0000 0.0000 0.0000 0.0000 42.5442 0.0000
# 6 0.0000 0.0000 0.0000 0.0000 0.0000 23.2871
#
#
#
# Elastic Compliance Matrix: (Units=1/GPa)
#
#
# Indices 1 2 3 4 5 6 
#
# 1 0.015137 -0.001893 -0.011119 0.000000 0.000000 0.000000
# 2 -0.001893 0.022097 0.001894 0.000000 0.000000 0.000000
# 3 -0.011119 0.001894 0.014256 0.000000 0.000000 0.000000
# 4 0.000000 0.000000 0.000000 -0.019706 0.000000 0.000000
# 5 0.000000 0.000000 0.000000 0.000000 0.023505 0.000000
# 6 0.000000 0.000000 0.000000 0.000000 0.000000 0.042942
#
#
# Mechanical properties :
#
#
# Convention : Reuss Voigt Hill
#
# Bulk Modulus (GPa) = 34.18399 67.15130 50.66764
# Shear Modulus (GPa) = 38.39703 19.39671 28.89687
#
# Velocity S-wave (km/s) = 4.32187 3.07176 3.74928
# Velocity P-wave (km/s) = 6.44468 6.72661 6.58715
#
# Compressibility (1/GPa) = 0.02925346
#
# Stress axis : x y z
#
# Youngs Moduli (GPa) = 66.06163 45.25547 70.14696
#
# Poissons Ratio (x) = 0.08569 0.77995
# Poissons Ratio (y) = 0.12509 -0.13286
# Poissons Ratio (z) = 0.73453 -0.08572
#
# Static dielectric constant tensor:
#      x y z
#    x 1.721560 0.000000 0.000000 
#    y 0.000000 1.818560 0.000000 
#    z 0.000000 0.000000 1.715160 
# 
# From -- ./inp_files/13794.got.cif
#   From: 2010.05.17/outbox.cif.g08.bks.cpg/sg47_7_cif.got.tgz:13794.got - 2010.06.03 20:15:42.
