data_PCOD9385532
_publ_section_title
;
Structure prediction by ZEFSAII (Michael W. Deem and Ramdas Pophale) SiO2 
 PCOD9385532
Probable space group: P M M M
;
_chemical_formula_sum "Si O2"
_cell_formula_units_Z 40
_cell_length_a 11.854145
_cell_length_b 9.009845
_cell_length_c 20.744217
_cell_angle_alpha 90.000000
_cell_angle_beta 90.000000
_cell_angle_gamma 90.000000
_cell_volume 2215.565540
_symmetry_space_group_name_H-M "P M M M"
_symmetry_group_IT_number 47
_symmetry_cell_setting 'orthorhombic'
loop_
_space_group_symop_operation_xyz
x,y,z
-x,-y,z
x,-y,-z
-x,y,-z
-x,-y,-z
x,y,-z
-x,y,z
x,-y,z
loop_
_atom_site_type_symbol
_atom_site_label
_atom_site_fract_x
_atom_site_fract_y
_atom_site_fract_z
Si Si1 0.131705 0.321650 0.574476
Si Si2 0.000000 0.325725 0.901954
Si Si3 0.365642 0.674753 0.808907
Si Si4 0.234009 0.828129 0.305021
Si Si5 0.000000 0.833852 0.772138
Si Si6 0.237468 0.176993 0.071492
O O1 0.156797 0.284194 0.500000
O O2 0.138328 0.500000 0.581112
O O3 0.213108 0.245287 0.625707
O O4 0.000000 0.280014 0.586482
O O5 0.000000 0.292463 0.825594
O O6 0.886722 0.248381 0.926770
O O7 0.000000 0.500000 0.915911
O O8 0.500000 0.692943 0.812048
O O9 0.338207 0.500000 0.811411
O O10 0.317745 0.743039 0.742790
O O11 0.307750 0.754582 0.869825
O O12 0.111928 0.822758 0.270096
O O13 0.267160 0.000000 0.310967
O O14 0.000000 0.000000 0.802856
O O15 0.228885 0.000000 0.080233
O O16 0.286703 0.205711 0.000000
#
# Coordination Sequence:
#
# PCOD9385532 Si02
#       6
#     8   4   8   8   4   8
#     4   9  18  32  52  82 121 160 193 227 273 333
#     4  12  23  35  58  88 119 153 188 230 282 342
#     4  11  25  43  62  84 110 145 193 245 292 341
#     4  11  21  35  58  85 117 153 189 233 284 340
#     4  10  20  33  52  83 118 151 186 229 285 344
#     4  11  24  41  61  85 116 152 188 232 287 346
#
# _framework density 18.054082000000001
#
# number of rings (size 3 to 8) (size 9 to 14) (size 15 to 20)
#    0.000    1.400    3.000    3.600    0.000    6.000 
#    0.000    3.000    0.000    0.600    0.000    4.200 
#    0.000    0.000    0.000    0.000    0.000    0.000 
#
# Total GULP energy -223464.807098 kJ/mol
# GULP energy per Si atom -5586.620177 kJ/mol
# Density = 1.801299 g / cm^3
# Si number density = 18.054082 Si / 1000 Ang^3
#
#
#
# Elastic Constant Matrix: (Units=GPa)
#
#
# Indices 1 2 3 4 5 6 
#
# 1 60.9182 55.0846 49.4122 0.0000 0.0000 0.0000
# 2 55.0846 120.9202 85.0060 0.0000 0.0000 0.0000
# 3 49.4122 85.0060 158.0528 0.0000 0.0000 0.0000
# 4 0.0000 0.0000 0.0000 36.1245 0.0000 0.0000
# 5 0.0000 0.0000 0.0000 0.0000 105.4451 0.0000
# 6 0.0000 0.0000 0.0000 0.0000 0.0000 15.6910
#
#
#
# Elastic Compliance Matrix: (Units=1/GPa)
#
#
# Indices 1 2 3 4 5 6 
#
# 1 0.028850 -0.010937 -0.003137 0.000000 0.000000 0.000000
# 2 -0.010937 0.017444 -0.005963 0.000000 0.000000 0.000000
# 3 -0.003137 -0.005963 0.010515 0.000000 0.000000 0.000000
# 4 0.000000 0.000000 0.000000 0.027682 0.000000 0.000000
# 5 0.000000 0.000000 0.000000 0.000000 0.009484 0.000000
# 6 0.000000 0.000000 0.000000 0.000000 0.000000 0.063731
#
#
# Mechanical properties :
#
#
# Convention : Reuss Voigt Hill
#
# Bulk Modulus (GPa) = 59.75563 79.87740 69.81652
# Shear Modulus (GPa) = 24.58738 41.47800 33.03269
#
# Velocity S-wave (km/s) = 3.69436 4.79835 4.28208
# Velocity P-wave (km/s) = 7.16713 8.66247 7.95003
#
# Compressibility (1/GPa) = 0.01673482
#
# Stress axis : x y z
#
# Youngs Moduli (GPa) = 34.66255 57.32654 95.10546
#
# Poissons Ratio (x) = 0.62698 0.29835
# Poissons Ratio (y) = 0.37910 0.56708
# Poissons Ratio (z) = 0.10874 0.34182
#
# Static dielectric constant tensor:
#      x y z
#    x 1.592820 0.000000 0.000000 
#    y 0.000000 1.614630 0.000000 
#    z 0.000000 0.000000 1.626710 
# 
# From -- ./inp_files/29359.got.cif
#   From: 2010.05.17/outbox.cif.g08.bks.cpg/sg47_15_cif.got.tgz:29359.got - 2010.06.03 20:15:42.
