data_PCOD9385313
_publ_section_title
;
Structure prediction by ZEFSAII (Michael W. Deem and Ramdas Pophale) SiO2 
 PCOD9385313
Probable space group: P M M M
;
_chemical_formula_sum "Si O2"
_cell_formula_units_Z 64
_cell_length_a 20.459973
_cell_length_b 21.357182
_cell_length_c 7.692590
_cell_angle_alpha 90.000000
_cell_angle_beta 90.000000
_cell_angle_gamma 90.000000
_cell_volume 3361.410798
_symmetry_space_group_name_H-M "P M M M"
_symmetry_group_IT_number 47
_symmetry_cell_setting 'orthorhombic'
loop_
_space_group_symop_operation_xyz
x,y,z
-x,-y,z
x,-y,-z
-x,y,-z
-x,-y,-z
x,y,-z
-x,y,z
x,-y,z
loop_
_atom_site_type_symbol
_atom_site_label
_atom_site_fract_x
_atom_site_fract_y
_atom_site_fract_z
Si Si1 0.072307 0.253993 0.204572
Si Si2 0.709267 0.809440 0.713024
Si Si3 0.571922 0.239734 0.289573
Si Si4 0.788606 0.069158 0.287032
Si Si5 0.206253 0.690759 0.705734
Si Si6 0.072248 0.888375 0.701908
Si Si7 0.571817 0.386532 0.206540
Si Si8 0.288769 0.568698 0.209429
O O1 0.131741 0.300687 0.236148
O O2 0.083836 0.186615 0.292707
O O3 0.000000 0.276544 0.258655
O O4 0.070497 0.240785 0.000000
O O5 0.709787 0.809197 0.500000
O O6 0.634525 0.799394 0.768979
O O7 0.743288 0.873505 0.769984
O O8 0.751174 0.749432 0.774122
O O9 0.572371 0.240005 0.500000
O O10 0.500000 0.217969 0.231822
O O11 0.579194 0.311896 0.232318
O O12 0.790180 0.071581 0.500000
O O13 0.862988 0.080079 0.224206
O O14 0.765923 0.000000 0.236985
O O15 0.206013 0.697372 0.500000
O O16 0.241018 0.625622 0.747272
O O17 0.068895 0.907495 0.500000
O O18 0.000000 0.900237 0.778954
O O19 0.500000 0.404516 0.277594
O O20 0.637661 0.417770 0.276581
O O21 0.569984 0.399273 0.000000
O O22 0.266909 0.500000 0.269158
O O23 0.292719 0.567554 0.000000
#
# Coordination Sequence:
#
# PCOD9385313 Si02
#       8
#     8   8   8   8   8   8   8   8
#     4  10  20  33  51  76 103 130 161 198 245 298
#     4   9  16  27  44  69  95 122 160 205 249 290
#     4   9  16  27  45  67  93 125 160 202 251 296
#     4   9  16  26  42  66  96 128 162 204 251 293
#     4  11  20  33  54  76  99 128 166 210 249 289
#     4   9  16  27  44  68  97 127 162 200 238 287
#     4   9  17  29  46  70  99 130 166 203 239 285
#     4  10  21  35  50  72 104 138 169 202 245 297
#
# _framework density 19.039624
#
# number of rings (size 3 to 8) (size 9 to 14) (size 15 to 20)
#    0.000    2.500    2.500    0.750    0.000    1.500 
#    0.000    2.500    0.000    1.125    0.000    9.625 
#    0.000    0.000    0.000    3.125    0.000    3.250 
#
# Total GULP energy -356937.654397 kJ/mol
# GULP energy per Si atom -5577.150850 kJ/mol
# Density = 1.899629 g / cm^3
# Si number density = 19.039624 Si / 1000 Ang^3
#
#
#
# Elastic Constant Matrix: (Units=GPa)
#
#
# Indices 1 2 3 4 5 6 
#
# 1 134.2644 70.0582 4.7824 0.0000 0.0000 0.0000
# 2 70.0582 106.1204 0.0026 0.0000 0.0000 0.0000
# 3 4.7824 0.0026 35.4183 0.0000 0.0000 0.0000
# 4 0.0000 0.0000 0.0000 18.8823 0.0000 0.0000
# 5 0.0000 0.0000 0.0000 0.0000 8.2182 0.0000
# 6 0.0000 0.0000 0.0000 0.0000 0.0000 24.2015
#
#
#
# Elastic Compliance Matrix: (Units=1/GPa)
#
#
# Indices 1 2 3 4 5 6 
#
# 1 0.011446 -0.007556 -0.001545 0.000000 0.000000 0.000000
# 2 -0.007556 0.014412 0.001019 0.000000 0.000000 0.000000
# 3 -0.001545 0.001019 0.028443 0.000000 0.000000 0.000000
# 4 0.000000 0.000000 0.000000 0.052960 0.000000 0.000000
# 5 0.000000 0.000000 0.000000 0.000000 0.121681 0.000000
# 6 0.000000 0.000000 0.000000 0.000000 0.000000 0.041320
#
#
# Mechanical properties :
#
#
# Convention : Reuss Voigt Hill
#
# Bulk Modulus (GPa) = 26.22182 47.27661 36.74921
# Shear Modulus (GPa) = 16.71481 23.65775 20.18628
#
# Velocity S-wave (km/s) = 2.96615 3.52881 3.25964
# Velocity P-wave (km/s) = 5.05300 6.44111 5.78881
#
# Compressibility (1/GPa) = 0.03813618
#
# Stress axis : x y z
#
# Youngs Moduli (GPa) = 87.36841 69.38827 35.15862
#
# Poissons Ratio (x) = 0.52431 0.05432
# Poissons Ratio (y) = 0.66017 -0.03583
# Poissons Ratio (z) = 0.13498 -0.07072
#
# Static dielectric constant tensor:
#      x y z
#    x 1.701820 0.000000 0.000000 
#    y 0.000000 1.647600 0.000000 
#    z 0.000000 0.000000 1.707220 
# 
# From -- ./inp_files/11809.got.cif
#   From: 2010.05.17/outbox.cif.g08.bks.cpg/sg47_6_cif.got.tgz:11809.got - 2010.06.03 20:15:42.
