data_PCOD9385689
_publ_section_title
;
Structure prediction by ZEFSAII (Michael W. Deem and Ramdas Pophale) SiO2 
 PCOD9385689
Probable space group: P M M M
;
_chemical_formula_sum "Si O2"
_cell_formula_units_Z 64
_cell_length_a 24.390040
_cell_length_b 9.105750
_cell_length_c 15.292509
_cell_angle_alpha 90.000000
_cell_angle_beta 90.000000
_cell_angle_gamma 90.000000
_cell_volume 3396.307310
_symmetry_space_group_name_H-M "P M M M"
_symmetry_group_IT_number 47
_symmetry_cell_setting 'orthorhombic'
loop_
_space_group_symop_operation_xyz
x,y,z
-x,-y,z
x,-y,-z
-x,y,-z
-x,-y,-z
x,y,-z
-x,y,z
x,-y,z
loop_
_atom_site_type_symbol
_atom_site_label
_atom_site_fract_x
_atom_site_fract_y
_atom_site_fract_z
Si Si1 0.273738 0.826543 0.597708
Si Si2 0.940554 0.675305 0.399199
Si Si3 0.060984 0.668759 0.105359
Si Si4 0.159630 0.163681 0.339228
Si Si5 0.701545 0.822916 0.099549
Si Si6 0.824124 0.832923 0.861142
Si Si7 0.351176 0.324978 0.731973
Si Si8 0.565500 0.173991 0.399056
O O1 0.295705 0.807555 0.500000
O O2 0.209184 0.794816 0.598406
O O3 0.302348 0.723149 0.666972
O O4 0.279931 0.000000 0.621400
O O5 0.932275 0.722639 0.500000
O O6 0.941433 0.500000 0.399186
O O7 0.891383 0.731078 0.342281
O O8 0.000000 0.729075 0.369619
O O9 0.065105 0.500000 0.137030
O O10 0.117879 0.751714 0.125185
O O11 0.000000 0.725530 0.134499
O O12 0.058603 0.665648 0.000000
O O13 0.184116 0.161175 0.242741
O O14 0.140473 0.000000 0.362142
O O15 0.765905 0.773653 0.103918
O O16 0.664889 0.746780 0.174461
O O17 0.701872 0.000000 0.114844
O O18 0.682188 0.796489 0.000000
O O19 0.830519 0.000000 0.894274
O O20 0.355848 0.500000 0.740234
O O21 0.402885 0.258266 0.678127
O O22 0.578014 0.221169 0.500000
O O23 0.500000 0.188181 0.388659
O O24 0.579370 0.000000 0.393560
#
# Coordination Sequence:
#
# PCOD9385689 Si02
#       8
#     8   8   8   8   8   8   8   8
#     4  10  20  36  57  78 108 152 195 235 280 334
#     4   9  19  35  51  67  92 129 172 218 271 335
#     4   9  19  35  52  71  98 132 169 213 274 351
#     4  10  20  34  52  74 101 131 171 226 279 330
#     4  10  21  40  64  84 109 152 203 251 298 351
#     4  10  20  35  55  78 104 133 175 233 290 344
#     4  12  24  36  56  89 128 162 194 240 294 346
#     4   9  19  38  65  95 128 170 215 251 284 329
#
# _framework density 18.843996000000001
#
# number of rings (size 3 to 8) (size 9 to 14) (size 15 to 20)
#    0.000    2.125    1.250    3.375    0.000    6.500 
#    0.000    4.375    0.000    0.375    0.000    2.625 
#    0.000    0.000    0.000    0.000    0.000    0.000 
#
# Total GULP energy -356740.389448 kJ/mol
# GULP energy per Si atom -5574.068585 kJ/mol
# Density = 1.880111 g / cm^3
# Si number density = 18.843996 Si / 1000 Ang^3
#
#
#
# Elastic Constant Matrix: (Units=GPa)
#
#
# Indices 1 2 3 4 5 6 
#
# 1 98.9677 42.7246 50.0282 0.0000 0.0000 0.0000
# 2 42.7246 58.5242 44.7489 0.0000 0.0000 0.0000
# 3 50.0282 44.7489 116.3555 0.0000 0.0000 0.0000
# 4 0.0000 0.0000 0.0000 18.6957 0.0000 0.0000
# 5 0.0000 0.0000 0.0000 0.0000 40.5585 0.0000
# 6 0.0000 0.0000 0.0000 0.0000 0.0000 27.1869
#
#
#
# Elastic Compliance Matrix: (Units=1/GPa)
#
#
# Indices 1 2 3 4 5 6 
#
# 1 0.015599 -0.008867 -0.003297 0.000000 0.000000 0.000000
# 2 -0.008867 0.029245 -0.007435 0.000000 0.000000 0.000000
# 3 -0.003297 -0.007435 0.012871 0.000000 0.000000 0.000000
# 4 0.000000 0.000000 0.000000 0.053488 0.000000 0.000000
# 5 0.000000 0.000000 0.000000 0.000000 0.024656 0.000000
# 6 0.000000 0.000000 0.000000 0.000000 0.000000 0.036782
#
#
# Mechanical properties :
#
#
# Convention : Reuss Voigt Hill
#
# Bulk Modulus (GPa) = 54.00171 60.98343 57.49257
# Shear Modulus (GPa) = 22.93468 26.37791 24.65630
#
# Velocity S-wave (km/s) = 3.49245 3.74546 3.62116
# Velocity P-wave (km/s) = 6.70690 7.15102 6.93252
#
# Compressibility (1/GPa) = 0.01851793
#
# Stress axis : x y z
#
# Youngs Moduli (GPa) = 64.10829 34.19406 77.69311
#
# Poissons Ratio (x) = 0.30319 0.25613
# Poissons Ratio (y) = 0.56843 0.57764
# Poissons Ratio (z) = 0.21135 0.25423
#
# Static dielectric constant tensor:
#      x y z
#    x 1.666970 0.000000 0.000000 
#    y 0.000000 1.652210 0.000000 
#    z 0.000000 0.000000 1.725450 
# 
# From -- ./inp_files/25553.got.cif
#   From: 2010.05.17/outbox.cif.g08.bks.cpg/sg47_13_cif.got.tgz:25553.got - 2010.06.03 20:15:42.
