data_PCOD9385273
_publ_section_title
;
Structure prediction by ZEFSAII (Michael W. Deem and Ramdas Pophale) SiO2 
 PCOD9385273
Probable space group: P M M M
;
_chemical_formula_sum "Si O2"
_cell_formula_units_Z 56
_cell_length_a 18.002768
_cell_length_b 8.560711
_cell_length_c 20.811471
_cell_angle_alpha 90.000000
_cell_angle_beta 90.000000
_cell_angle_gamma 90.000000
_cell_volume 3207.390947
_symmetry_space_group_name_H-M "P M M M"
_symmetry_group_IT_number 47
_symmetry_cell_setting 'orthorhombic'
loop_
_space_group_symop_operation_xyz
x,y,z
-x,-y,z
x,-y,-z
-x,y,-z
-x,-y,-z
x,y,-z
-x,y,z
x,-y,z
loop_
_atom_site_type_symbol
_atom_site_label
_atom_site_fract_x
_atom_site_fract_y
_atom_site_fract_z
Si Si1 0.086755 0.188430 0.427249
Si Si2 0.411507 0.317958 0.500000
Si Si3 0.837975 0.310583 0.925892
Si Si4 0.581184 0.187257 0.768102
Si Si5 0.365576 0.315545 0.636402
Si Si6 0.803499 0.682026 0.680789
Si Si7 0.257415 0.186868 0.811283
Si Si8 0.000000 0.679181 0.078022
O O1 0.109709 0.238967 0.500000
O O2 0.137046 0.251474 0.369512
O O3 0.000000 0.232607 0.419032
O O4 0.090411 0.000000 0.426280
O O5 0.385850 0.500000 0.500000
O O6 0.500000 0.317342 0.500000
O O7 0.383745 0.248806 0.566593
O O8 0.840696 0.500000 0.925175
O O9 0.777577 0.252322 0.876137
O O10 0.920192 0.250998 0.904865
O O11 0.824666 0.263500 0.000000
O O12 0.500000 0.245655 0.790363
O O13 0.591760 0.230403 0.693504
O O14 0.657585 0.245521 0.800794
O O15 0.580993 0.000000 0.774831
O O16 0.386296 0.500000 0.638545
O O17 0.277989 0.303649 0.648990
O O18 0.819411 0.500000 0.691923
O O19 0.792503 0.762919 0.750005
O O20 0.259137 0.000000 0.813364
O O21 0.000000 0.500000 0.101728
O O22 0.000000 0.672670 0.000000
#
# Coordination Sequence:
#
# PCOD9385273 Si02
#       8
#     8   4   8   8   8   8   8   4
#     4   9  19  36  55  73  96 129 169 213 261 310
#     4   9  16  26  41  63  92 121 148 184 237 295
#     4   9  17  32  55  80 106 135 168 206 248 297
#     4   9  18  33  51  69  93 127 167 209 249 293
#     4   9  18  30  46  68  93 123 158 199 245 297
#     4  10  20  33  51  73  99 129 168 213 253 300
#     4  10  20  34  52  75 105 136 169 209 255 304
#     4   7  12  26  49  75 101 131 162 191 228 279
#
# _framework density 17.459675000000001
#
# number of rings (size 3 to 8) (size 9 to 14) (size 15 to 20)
#    0.000    2.857    0.000    2.571    1.000    2.857 
#    1.286    1.429    0.000    3.000    0.000    3.000 
#    0.000    0.000    0.000    0.000    0.000    0.000 
#
# Total GULP energy -311895.519457 kJ/mol
# GULP energy per Si atom -5569.562847 kJ/mol
# Density = 1.741994 g / cm^3
# Si number density = 17.459675 Si / 1000 Ang^3
#
#
#
# Elastic Constant Matrix: (Units=GPa)
#
#
# Indices 1 2 3 4 5 6 
#
# 1 108.5015 23.3057 72.1079 0.0000 0.0000 0.0000
# 2 23.3057 18.6832 22.0286 0.0000 0.0000 0.0000
# 3 72.1079 22.0286 114.0817 0.0000 0.0000 0.0000
# 4 0.0000 0.0000 0.0000 19.8111 0.0000 0.0000
# 5 0.0000 0.0000 0.0000 0.0000 17.8154 0.0000
# 6 0.0000 0.0000 0.0000 0.0000 0.0000 17.6553
#
#
#
# Elastic Compliance Matrix: (Units=1/GPa)
#
#
# Indices 1 2 3 4 5 6 
#
# 1 0.017598 -0.011442 -0.008914 0.000000 0.000000 0.000000
# 2 -0.011442 0.076742 -0.007586 0.000000 0.000000 0.000000
# 3 -0.008914 -0.007586 0.015865 0.000000 0.000000 0.000000
# 4 0.000000 0.000000 0.000000 0.050477 0.000000 0.000000
# 5 0.000000 0.000000 0.000000 0.000000 0.056131 0.000000
# 6 0.000000 0.000000 0.000000 0.000000 0.000000 0.056640
#
#
# Mechanical properties :
#
#
# Convention : Reuss Voigt Hill
#
# Bulk Modulus (GPa) = 18.40940 52.90564 35.65752
# Shear Modulus (GPa) = 14.39082 19.31132 16.85107
#
# Velocity S-wave (km/s) = 2.87406 3.32935 3.11004
# Velocity P-wave (km/s) = 4.64548 6.71914 5.77613
#
# Compressibility (1/GPa) = 0.05432009
#
# Stress axis : x y z
#
# Youngs Moduli (GPa) = 56.82404 13.03074 63.03288
#
# Poissons Ratio (x) = 0.14910 0.56187
# Poissons Ratio (y) = 0.65019 0.47818
# Poissons Ratio (z) = 0.50652 0.09885
#
# Static dielectric constant tensor:
#      x y z
#    x 1.620320 0.000000 0.000000 
#    y 0.000000 1.605760 0.000000 
#    z 0.000000 0.000000 1.578490 
# 
# From -- ./inp_files/31001.got.cif
#   From: 2010.05.17/outbox.cif.g08.bks.cpg/sg47_16_cif.got.tgz:31001.got - 2010.06.03 20:15:42.
