data_PCOD9385373
_publ_section_title
;
Structure prediction by ZEFSAII (Michael W. Deem and Ramdas Pophale) SiO2 
 PCOD9385373
Probable space group: P M M M
;
_chemical_formula_sum "Si O2"
_cell_formula_units_Z 48
_cell_length_a 31.752781
_cell_length_b 9.020500
_cell_length_c 9.459140
_cell_angle_alpha 90.000000
_cell_angle_beta 90.000000
_cell_angle_gamma 90.000000
_cell_volume 2709.343265
_symmetry_space_group_name_H-M "P M M M"
_symmetry_group_IT_number 47
_symmetry_cell_setting 'orthorhombic'
loop_
_space_group_symop_operation_xyz
x,y,z
-x,-y,z
x,-y,-z
-x,y,-z
-x,-y,-z
x,y,-z
-x,y,z
x,-y,z
loop_
_atom_site_type_symbol
_atom_site_label
_atom_site_fract_x
_atom_site_fract_y
_atom_site_fract_z
Si Si1 0.747736 0.679052 0.335672
Si Si2 0.500000 0.322869 0.664499
Si Si3 0.575644 0.822397 0.166374
Si Si4 0.672264 0.178354 0.835022
Si Si5 0.913144 0.678383 0.333937
Si Si6 0.830496 0.319261 0.837223
Si Si7 0.000000 0.829227 0.328065
O O1 0.751037 0.721468 0.500000
O O2 0.745772 0.500000 0.328976
O O3 0.706427 0.745613 0.263432
O O4 0.789133 0.727352 0.248987
O O5 0.500000 0.500000 0.675113
O O6 0.500000 0.280497 0.500000
O O7 0.541176 0.258582 0.740699
O O8 0.623961 0.781358 0.200784
O O9 0.571616 0.000000 0.183912
O O10 0.568846 0.790601 0.000000
O O11 0.675484 0.000000 0.824348
O O12 0.679535 0.217803 0.000000
O O13 0.906563 0.715555 0.500000
O O14 0.916569 0.500000 0.325449
O O15 0.873108 0.727003 0.242376
O O16 0.957002 0.748960 0.284161
O O17 0.830578 0.500000 0.836940
O O18 0.829172 0.270531 0.000000
O O19 0.000000 0.823748 0.500000
O O20 0.000000 0.000000 0.284368
#
# Coordination Sequence:
#
# PCOD9385373 Si02
#       7
#     8   4   8   8   8   8   4
#     4  10  20  33  51  77 107 137 169 207 252 301
#     4  11  24  37  50  76 112 141 168 209 258 304
#     4   9  19  37  59  79 100 132 175 216 253 300
#     4   9  19  36  56  78 104 134 170 212 255 300
#     4   9  16  28  48  71  93 120 158 201 241 285
#     4   9  17  30  49  72  97 127 165 207 248 291
#     4   9  17  29  46  69  96 124 154 191 238 292
#
# _framework density 17.716470999999999
#
# number of rings (size 3 to 8) (size 9 to 14) (size 15 to 20)
#    0.000    2.667    0.000    2.750    0.000    7.667 
#    0.000    6.250    0.000    6.000    0.000    0.000 
#    0.000    0.000    0.000    0.000    0.000    0.000 
#
# Total GULP energy -267765.439721 kJ/mol
# GULP energy per Si atom -5578.446661 kJ/mol
# Density = 1.767615 g / cm^3
# Si number density = 17.716471 Si / 1000 Ang^3
#
#
#
# Elastic Constant Matrix: (Units=GPa)
#
#
# Indices 1 2 3 4 5 6 
#
# 1 196.3646 50.4487 126.3673 0.0000 0.0000 0.0000
# 2 50.4487 18.0980 42.5414 0.0000 0.0000 0.0000
# 3 126.3673 42.5414 131.1667 0.0000 0.0000 0.0000
# 4 0.0000 0.0000 0.0000 21.2470 0.0000 0.0000
# 5 0.0000 0.0000 0.0000 0.0000 35.5486 0.0000
# 6 0.0000 0.0000 0.0000 0.0000 0.0000 63.2085
#
#
#
# Elastic Compliance Matrix: (Units=1/GPa)
#
#
# Indices 1 2 3 4 5 6 
#
# 1 0.018589 -0.040908 -0.004641 0.000000 0.000000 0.000000
# 2 -0.040908 0.322550 -0.065202 0.000000 0.000000 0.000000
# 3 -0.004641 -0.065202 0.033242 0.000000 0.000000 0.000000
# 4 0.000000 0.000000 0.000000 0.047066 0.000000 0.000000
# 5 0.000000 0.000000 0.000000 0.000000 0.028130 0.000000
# 6 0.000000 0.000000 0.000000 0.000000 0.000000 0.015821
#
#
# Mechanical properties :
#
#
# Convention : Reuss Voigt Hill
#
# Bulk Modulus (GPa) = 6.54109 87.14934 46.84522
# Shear Modulus (GPa) = 6.77635 32.41896 19.59765
#
# Velocity S-wave (km/s) = 1.95785 4.28235 3.32954
# Velocity P-wave (km/s) = 2.96834 8.58774 6.42496
#
# Compressibility (1/GPa) = 0.15287971
#
# Stress axis : x y z
#
# Youngs Moduli (GPa) = 53.79462 3.10029 30.08208
#
# Poissons Ratio (x) = 0.12683 0.13962
# Poissons Ratio (y) = 2.20062 1.96141
# Poissons Ratio (z) = 0.24968 0.20214
#
# Static dielectric constant tensor:
#      x y z
#    x 1.584370 0.000000 0.000000 
#    y 0.000000 1.591870 0.000000 
#    z 0.000000 0.000000 1.591900 
# 
# From -- ./inp_files/2750.got.cif
#   From: 2010.05.17/outbox.cif.g08.bks.cpg/sg47_2_cif.got.tgz:2750.got - 2010.06.03 20:15:42.
