data_PCOD9385319
_publ_section_title
;
Structure prediction by ZEFSAII (Michael W. Deem and Ramdas Pophale) SiO2 
 PCOD9385319
Probable space group: P M M M
;
_chemical_formula_sum "Si O2"
_cell_formula_units_Z 40
_cell_length_a 12.884372
_cell_length_b 18.726862
_cell_length_c 7.514211
_cell_angle_alpha 90.000000
_cell_angle_beta 90.000000
_cell_angle_gamma 90.000000
_cell_volume 1813.057808
_symmetry_space_group_name_H-M "P M M M"
_symmetry_group_IT_number 47
_symmetry_cell_setting 'orthorhombic'
loop_
_space_group_symop_operation_xyz
x,y,z
-x,-y,z
x,-y,-z
-x,y,-z
-x,-y,-z
x,y,-z
-x,y,z
x,-y,z
loop_
_atom_site_type_symbol
_atom_site_label
_atom_site_fract_x
_atom_site_fract_y
_atom_site_fract_z
Si Si1 0.834410 0.577742 0.709279
Si Si2 0.000000 0.308947 0.282204
Si Si3 0.778325 0.920320 0.210655
Si Si4 0.617767 0.197106 0.783108
Si Si5 0.000000 0.854327 0.287154
Si Si6 0.616286 0.360689 0.214915
O O1 0.858905 0.574824 0.500000
O O2 0.861604 0.500000 0.785708
O O3 0.900519 0.644763 0.777825
O O4 0.712262 0.591636 0.727707
O O5 0.000000 0.227434 0.219550
O O6 0.000000 0.305003 0.500000
O O7 0.701555 0.859499 0.283028
O O8 0.896277 0.894918 0.230956
O O9 0.763934 0.000000 0.284699
O O10 0.756581 0.924304 0.000000
O O11 0.500000 0.177484 0.733452
O O12 0.636270 0.278825 0.725982
O O13 0.621543 0.198508 0.000000
O O14 0.000000 0.852147 0.500000
O O15 0.500000 0.381486 0.273889
O O16 0.615158 0.361121 0.000000
#
# Coordination Sequence:
#
# PCOD9385319 Si02
#       6
#     8   4   8   8   4   8
#     4  10  20  34  53  75  99 127 160 202 250 296
#     4   9  19  36  55  74  96 125 164 206 248 293
#     4  10  20  33  51  76 104 131 161 202 249 292
#     4   8  15  30  52  76 100 128 165 205 243 286
#     4  11  22  35  53  73  96 131 170 204 240 289
#     4   9  18  33  52  73 100 134 167 200 240 286
#
# _framework density 22.062176999999998
#
# number of rings (size 3 to 8) (size 9 to 14) (size 15 to 20)
#    0.000    2.600    0.000    3.300    0.000    4.400 
#    0.000    5.500    0.000    3.000    0.000    1.400 
#    0.000    0.000    0.000    0.000    0.000    0.000 
#
# Total GULP energy -223405.364748 kJ/mol
# GULP energy per Si atom -5585.134119 kJ/mol
# Density = 2.201196 g / cm^3
# Si number density = 22.062177 Si / 1000 Ang^3
#
#
#
# Elastic Constant Matrix: (Units=GPa)
#
#
# Indices 1 2 3 4 5 6 
#
# 1 74.8203 10.9097 -14.2728 0.0000 0.0000 0.0000
# 2 10.9097 59.5974 -2.3385 0.0000 0.0000 0.0000
# 3 -14.2728 -2.3385 56.8235 0.0000 0.0000 0.0000
# 4 0.0000 0.0000 0.0000 9.5417 0.0000 0.0000
# 5 0.0000 0.0000 0.0000 0.0000 11.2991 0.0000
# 6 0.0000 0.0000 0.0000 0.0000 0.0000 -100.3858
#
#
#
# Elastic Compliance Matrix: (Units=1/GPa)
#
#
# Indices 1 2 3 4 5 6 
#
# 1 0.014400 -0.002498 0.003514 0.000000 0.000000 0.000000
# 2 -0.002498 0.017240 0.000082 0.000000 0.000000 0.000000
# 3 0.003514 0.000082 0.018484 0.000000 0.000000 0.000000
# 4 0.000000 0.000000 0.000000 0.104803 0.000000 0.000000
# 5 0.000000 0.000000 0.000000 0.000000 0.088502 0.000000
# 6 0.000000 0.000000 0.000000 0.000000 0.000000 -0.009962
#
#
# Mechanical properties :
#
#
# Convention : Reuss Voigt Hill
#
# Bulk Modulus (GPa) = 19.11307 19.98200 19.54754
# Shear Modulus (GPa) = 20.10355 -2.77948 8.66203
#
# Velocity S-wave (km/s) = 3.02192 -1.12364 1.98361
# Velocity P-wave (km/s) = 4.56707 2.71907 3.75842
#
# Compressibility (1/GPa) = 0.05232022
#
# Stress axis : x y z
#
# Youngs Moduli (GPa) = 69.44456 58.00536 54.09965
#
# Poissons Ratio (x) = 0.14491 -0.19011
# Poissons Ratio (y) = 0.17348 -0.00444
# Poissons Ratio (z) = -0.24404 -0.00476
#
# Static dielectric constant tensor:
#      x y z
#    x 1.779760 0.000000 0.000000 
#    y 0.000000 1.802550 0.000000 
#    z 0.000000 0.000000 1.859880 
# 
# From -- ./inp_files/4122.got.cif
#   From: 2010.05.17/outbox.cif.g08.bks.cpg/sg47_3_cif.got.tgz:4122.got - 2010.06.03 20:15:42.
