data_PCOD9385054
_publ_section_title
;
Structure prediction by ZEFSAII (Michael W. Deem and Ramdas Pophale) SiO2 
 PCOD9385054
Probable space group: P M M M
;
_chemical_formula_sum "Si O2"
_cell_formula_units_Z 45
_cell_length_a 29.191100
_cell_length_b 7.337897
_cell_length_c 9.769203
_cell_angle_alpha 90.000000
_cell_angle_beta 90.000000
_cell_angle_gamma 90.000000
_cell_volume 2092.575837
_symmetry_space_group_name_H-M "P M M M"
_symmetry_group_IT_number 47
_symmetry_cell_setting 'orthorhombic'
loop_
_space_group_symop_operation_xyz
x,y,z
-x,-y,z
x,-y,-z
-x,y,-z
-x,-y,-z
x,y,-z
-x,y,z
x,-y,z
loop_
_atom_site_type_symbol
_atom_site_label
_atom_site_fract_x
_atom_site_fract_y
_atom_site_fract_z
Si Si1 0.399943 0.779618 0.351229
Si Si2 0.149334 0.719283 0.157411
Si Si3 0.236776 0.215531 0.344890
Si Si4 0.320238 0.222875 0.843374
Si Si5 0.500000 0.500000 0.000000
Si Si6 0.500000 0.220022 0.747514
Si Si7 0.950746 0.717365 0.835010
O O1 0.383282 0.716984 0.500000
O O2 0.367492 0.718646 0.228133
O O3 0.453050 0.735817 0.331028
O O4 0.397087 0.000000 0.351455
O O5 0.146466 0.500000 0.150091
O O6 0.189917 0.762970 0.260598
O O7 0.099273 0.785991 0.207795
O O8 0.157836 0.782214 0.000000
O O9 0.234728 0.288409 0.500000
O O10 0.278326 0.285796 0.251482
O O11 0.245048 0.000000 0.356953
O O12 0.319632 0.000000 0.845931
O O13 0.316115 0.282842 0.000000
O O14 0.500000 0.340193 0.882040
O O15 0.500000 0.000000 0.773225
O O16 0.951339 0.500000 0.808630
O O17 0.000000 0.789470 0.784416
O O18 0.950628 0.740011 0.000000
#
# Coordination Sequence:
#
# PCOD9385054 Si02
#       7
#     8   8   8   8   1   4   8
#     4   9  17  32  57  87 115 144 181 224 273 330
#     4   9  17  29  48  73  99 125 159 206 259 311
#     4  10  20  33  49  70  99 137 178 215 255 308
#     4   9  17  29  50  80 108 135 173 222 269 315
#     4  12  26  40  58  90 128 160 196 248 288 330
#     4  10  22  39  63  89 120 159 198 238 286 340
#     4   7  10  19  38  65  93 119 150 194 249 306
#
# _framework density 21.504597
#
# number of rings (size 3 to 8) (size 9 to 14) (size 15 to 20)
#    0.000    3.022    0.000    3.067    1.244    4.622 
#    0.000    0.889    1.956    1.067    0.000    6.222 
#    0.000    0.000    0.000    0.000    0.000    0.000 
#
# Total GULP energy -250722.635835 kJ/mol
# GULP energy per Si atom -5571.614130 kJ/mol
# Density = 2.145565 g / cm^3
# Si number density = 21.504597 Si / 1000 Ang^3
#
#
#
# Elastic Constant Matrix: (Units=GPa)
#
#
# Indices 1 2 3 4 5 6 
#
# 1 195.4145 0.3508 98.6687 0.0000 0.0000 0.0000
# 2 0.3508 80.8191 10.3308 0.0000 0.0000 0.0000
# 3 98.6687 10.3308 167.6108 0.0000 0.0000 0.0000
# 4 0.0000 0.0000 0.0000 -51.2934 0.0000 0.0000
# 5 0.0000 0.0000 0.0000 0.0000 -2.2316 0.0000
# 6 0.0000 0.0000 0.0000 0.0000 0.0000 8.3853
#
#
#
# Elastic Compliance Matrix: (Units=1/GPa)
#
#
# Indices 1 2 3 4 5 6 
#
# 1 0.007303 0.000522 -0.004332 0.000000 0.000000 0.000000
# 2 0.000522 0.012509 -0.001078 0.000000 0.000000 0.000000
# 3 -0.004332 -0.001078 0.008583 0.000000 0.000000 0.000000
# 4 0.000000 0.000000 0.000000 -0.019496 0.000000 0.000000
# 5 0.000000 0.000000 0.000000 0.000000 -0.448114 0.000000
# 6 0.000000 0.000000 0.000000 0.000000 0.000000 0.119257
#
#
# Mechanical properties :
#
#
# Convention : Reuss Voigt Hill
#
# Bulk Modulus (GPa) = 53.70801 73.61613 63.66207
# Shear Modulus (GPa) = -16.44864 13.27167 -1.58848
#
# Velocity S-wave (km/s) = -2.76866 2.48696 -0.86039
# Velocity P-wave (km/s) = 3.84820 6.52332 5.35548
#
# Compressibility (1/GPa) = 0.01861920
#
# Stress axis : x y z
#
# Youngs Moduli (GPa) = 136.92087 79.94326 116.51534
#
# Poissons Ratio (x) = -0.04173 0.50469
# Poissons Ratio (y) = -0.07147 0.12564
# Poissons Ratio (z) = 0.59308 0.08620
#
# Static dielectric constant tensor:
#      x y z
#    x 1.807640 0.000000 0.000000 
#    y 0.000000 1.901180 0.000000 
#    z 0.000000 0.000000 1.729200 
# 
# From -- ./inp_files/13722.got.cif
#   From: 2010.05.17/outbox.cif.g08.bks.cpg/sg47_7_cif.got.tgz:13722.got - 2010.06.03 20:15:42.
