data_PCOD9385639
_publ_section_title
;
Structure prediction by ZEFSAII (Michael W. Deem and Ramdas Pophale) SiO2 
 PCOD9385639
Probable space group: P M M M
;
_chemical_formula_sum "Si O2"
_cell_formula_units_Z 48
_cell_length_a 7.409605
_cell_length_b 29.982131
_cell_length_c 9.897513
_cell_angle_alpha 90.000000
_cell_angle_beta 90.000000
_cell_angle_gamma 90.000000
_cell_volume 2198.789402
_symmetry_space_group_name_H-M "P M M M"
_symmetry_group_IT_number 47
_symmetry_cell_setting 'orthorhombic'
loop_
_space_group_symop_operation_xyz
x,y,z
-x,-y,z
x,-y,-z
-x,y,-z
-x,-y,-z
x,y,-z
-x,y,z
x,-y,z
loop_
_atom_site_type_symbol
_atom_site_label
_atom_site_fract_x
_atom_site_fract_y
_atom_site_fract_z
Si Si1 0.221843 0.948369 0.000000
Si Si2 0.709342 0.207446 0.652846
Si Si3 0.717711 0.051425 0.500000
Si Si4 0.204931 0.110427 0.245982
Si Si5 0.720675 0.713986 0.156170
Si Si6 0.279893 0.630755 0.343968
Si Si7 0.280202 0.448864 0.153280
O O1 0.284196 0.919345 0.873119
O O2 0.000000 0.949985 0.000000
O O3 0.280194 0.000000 0.000000
O O4 0.787129 0.208800 0.500000
O O5 0.500000 0.220122 0.638796
O O6 0.713561 0.157337 0.709758
O O7 0.783245 0.242042 0.762732
O O8 0.500000 0.053939 0.500000
O O9 0.789436 0.077607 0.627860
O O10 0.770979 0.000000 0.500000
O O11 0.000000 0.121244 0.207406
O O12 0.500000 0.714101 0.150721
O O13 0.773748 0.671951 0.248524
O O14 0.780668 0.711941 0.000000
O O15 0.220592 0.634308 0.500000
O O16 0.500000 0.630759 0.346995
O O17 0.221738 0.585702 0.267410
O O18 0.500000 0.448535 0.153784
O O19 0.224070 0.500000 0.176782
O O20 0.226153 0.435879 0.000000
#
# Coordination Sequence:
#
# PCOD9385639 Si02
#       7
#     4   8   4   8   8   8   8
#     4   9  20  38  57  79 107 137 171 211 250 293
#     4  10  20  34  51  72 102 132 162 207 257 302
#     4  11  23  39  59  85 115 143 175 215 256 299
#     4  11  22  37  59  83 108 141 177 212 254 306
#     4   9  17  28  43  62  83 115 157 199 247 304
#     4   9  15  22  33  50  74 104 143 193 247 303
#     4   8  13  20  29  42  64  98 141 191 244 296
#
# _framework density 21.830193999999999
#
# number of rings (size 3 to 8) (size 9 to 14) (size 15 to 20)
#    0.000    2.500    0.833    2.750    1.167    5.667 
#    0.000    2.917    0.000    3.000    0.000    0.000 
#    0.000    0.000    0.000    0.000    0.000    0.833 
#
# Total GULP energy -267973.155268 kJ/mol
# GULP energy per Si atom -5582.774068 kJ/mol
# Density = 2.178051 g / cm^3
# Si number density = 21.830194 Si / 1000 Ang^3
#
#
#
# Elastic Constant Matrix: (Units=GPa)
#
#
# Indices 1 2 3 4 5 6 
#
# 1 69.9191 -2.5723 0.5288 0.0000 0.0000 0.0000
# 2 -2.5723 176.5911 134.7010 0.0000 0.0000 0.0000
# 3 0.5288 134.7010 249.7613 0.0000 0.0000 0.0000
# 4 0.0000 0.0000 0.0000 38.2803 0.0000 0.0000
# 5 0.0000 0.0000 0.0000 0.0000 -2.4722 0.0000
# 6 0.0000 0.0000 0.0000 0.0000 0.0000 -11.5055
#
#
#
# Elastic Compliance Matrix: (Units=1/GPa)
#
#
# Indices 1 2 3 4 5 6 
#
# 1 0.014319 0.000394 -0.000243 0.000000 0.000000 0.000000
# 2 0.000394 0.009631 -0.005195 0.000000 0.000000 0.000000
# 3 -0.000243 -0.005195 0.006806 0.000000 0.000000 0.000000
# 4 0.000000 0.000000 0.000000 0.026123 0.000000 0.000000
# 5 0.000000 0.000000 0.000000 0.000000 -0.404496 0.000000
# 6 0.000000 0.000000 0.000000 0.000000 0.000000 -0.086915
#
#
# Mechanical properties :
#
#
# Convention : Reuss Voigt Hill
#
# Bulk Modulus (GPa) = 48.38458 84.62074 66.50266
# Shear Modulus (GPa) = -11.97449 29.10146 8.56348
#
# Velocity S-wave (km/s) = -2.34461 3.65510 1.98275
# Velocity P-wave (km/s) = 3.85780 7.52731 5.98093
#
# Compressibility (1/GPa) = 0.02066774
#
# Stress axis : x y z
#
# Youngs Moduli (GPa) = 69.83947 103.82751 146.92464
#
# Poissons Ratio (x) = -0.04087 0.03564
# Poissons Ratio (y) = -0.02749 0.76330
# Poissons Ratio (z) = 0.01694 0.53941
#
# Static dielectric constant tensor:
#      x y z
#    x 1.920730 0.000000 0.000000 
#    y 0.000000 1.744540 0.000000 
#    z 0.000000 0.000000 1.744700 
# 
# From -- ./inp_files/2790.got.cif
#   From: 2010.05.17/outbox.cif.g08.bks.cpg/sg47_2_cif.got.tgz:2790.got - 2010.06.03 20:15:42.
