data_PCOD9385388
_publ_section_title
;
Structure prediction by ZEFSAII (Michael W. Deem and Ramdas Pophale) SiO2 
 PCOD9385388
Probable space group: P M M M
;
_chemical_formula_sum "Si O2"
_cell_formula_units_Z 56
_cell_length_a 9.058965
_cell_length_b 21.465420
_cell_length_c 15.950045
_cell_angle_alpha 90.000000
_cell_angle_beta 90.000000
_cell_angle_gamma 90.000000
_cell_volume 3101.557842
_symmetry_space_group_name_H-M "P M M M"
_symmetry_group_IT_number 47
_symmetry_cell_setting 'orthorhombic'
loop_
_space_group_symop_operation_xyz
x,y,z
-x,-y,z
x,-y,-z
-x,y,-z
-x,-y,-z
x,y,-z
-x,y,z
x,-y,z
loop_
_atom_site_type_symbol
_atom_site_label
_atom_site_fract_x
_atom_site_fract_y
_atom_site_fract_z
Si Si1 0.322604 0.926113 0.500000
Si Si2 0.173305 0.739043 0.242580
Si Si3 0.679596 0.500000 0.099683
Si Si4 0.323484 0.607076 0.766790
Si Si5 0.831155 0.164261 0.092574
Si Si6 0.830994 0.574576 0.407354
Si Si7 0.176319 0.856738 0.655931
Si Si8 0.670033 0.073479 0.194385
O O1 0.500000 0.924504 0.500000
O O2 0.258786 0.888832 0.579148
O O3 0.279550 0.000000 0.500000
O O4 0.264940 0.677288 0.225813
O O5 0.187823 0.782695 0.161370
O O6 0.217271 0.785226 0.319481
O O7 0.000000 0.723477 0.253555
O O8 0.500000 0.500000 0.097179
O O9 0.724563 0.560122 0.157387
O O10 0.726832 0.500000 0.000000
O O11 0.500000 0.605207 0.766163
O O12 0.263376 0.588133 0.674930
O O13 0.718126 0.109132 0.111027
O O14 0.000000 0.140765 0.100461
O O15 0.812143 0.190022 0.000000
O O16 0.778490 0.596876 0.500000
O O17 0.837514 0.500000 0.412289
O O18 0.000000 0.597484 0.396082
O O19 0.222905 0.898466 0.735304
O O20 0.000000 0.858191 0.643936
O O21 0.500000 0.087534 0.216476
O O22 0.686302 0.000000 0.187828
#
# Coordination Sequence:
#
# PCOD9385388 Si02
#       8
#     4   8   4   8   8   8   8   8
#     4  11  23  37  57  87 121 152 185 236 295 343
#     4   9  20  38  57  78 108 146 185 230 282 334
#     4   9  20  38  56  81 120 156 187 231 286 345
#     4  11  21  35  58  85 113 149 190 235 285 338
#     4   9  19  36  56  77 103 138 181 228 274 325
#     4   9  18  34  57  83 111 145 180 219 274 333
#     4  10  21  38  58  79 106 145 192 235 276 332
#     4  10  20  33  51  77 109 141 173 218 277 333
#
# _framework density 18.055441999999999
#
# number of rings (size 3 to 8) (size 9 to 14) (size 15 to 20)
#    0.000    2.286    0.714    3.214    0.000    7.714 
#    1.286    2.143    0.000    3.000    0.000    0.000 
#    0.000    0.000    0.000    0.000    0.000    0.000 
#
# Total GULP energy -311902.657310 kJ/mol
# GULP energy per Si atom -5569.690309 kJ/mol
# Density = 1.801435 g / cm^3
# Si number density = 18.055442 Si / 1000 Ang^3
#
#
#
# Elastic Constant Matrix: (Units=GPa)
#
#
# Indices 1 2 3 4 5 6 
#
# 1 52.9466 48.0336 40.0023 0.0000 0.0000 0.0000
# 2 48.0336 97.4702 53.7029 0.0000 0.0000 0.0000
# 3 40.0023 53.7029 130.0751 0.0000 0.0000 0.0000
# 4 0.0000 0.0000 0.0000 11.2307 0.0000 0.0000
# 5 0.0000 0.0000 0.0000 0.0000 -77.4282 0.0000
# 6 0.0000 0.0000 0.0000 0.0000 0.0000 30.8142
#
#
#
# Elastic Compliance Matrix: (Units=1/GPa)
#
#
# Indices 1 2 3 4 5 6 
#
# 1 0.036428 -0.015248 -0.004907 0.000000 0.000000 0.000000
# 2 -0.015248 0.019663 -0.003429 0.000000 0.000000 0.000000
# 3 -0.004907 -0.003429 0.010613 0.000000 0.000000 0.000000
# 4 0.000000 0.000000 0.000000 0.089041 0.000000 0.000000
# 5 0.000000 0.000000 0.000000 0.000000 -0.012915 0.000000
# 6 0.000000 0.000000 0.000000 0.000000 0.000000 0.032453
#
#
# Mechanical properties :
#
#
# Convention : Reuss Voigt Hill
#
# Bulk Modulus (GPa) = 51.19015 62.66326 56.92671
# Shear Modulus (GPa) = 21.83771 2.17353 12.00562
#
# Velocity S-wave (km/s) = 3.48153 1.09837 2.58142
# Velocity P-wave (km/s) = 6.67642 6.03241 6.36257
#
# Compressibility (1/GPa) = 0.01953501
#
# Stress axis : x y z
#
# Youngs Moduli (GPa) = 27.45176 50.85729 94.22668
#
# Poissons Ratio (x) = 0.77546 0.46241
# Poissons Ratio (y) = 0.41858 0.32309
# Poissons Ratio (z) = 0.13472 0.17438
#
# Static dielectric constant tensor:
#      x y z
#    x 1.619380 0.000000 0.000000 
#    y 0.000000 1.617420 0.000000 
#    z 0.000000 0.000000 1.683650 
# 
# From -- ./inp_files/21623.got.cif
#   From: 2010.05.17/outbox.cif.g08.bks.cpg/sg47_11_cif.got.tgz:21623.got - 2010.06.03 20:15:42.
