data_PCOD9385275
_publ_section_title
;
Structure prediction by ZEFSAII (Michael W. Deem and Ramdas Pophale) SiO2 
 PCOD9385275
Probable space group: P M M M
;
_chemical_formula_sum "Si O2"
_cell_formula_units_Z 48
_cell_length_a 20.446729
_cell_length_b 8.756893
_cell_length_c 15.766860
_cell_angle_alpha 90.000000
_cell_angle_beta 90.000000
_cell_angle_gamma 90.000000
_cell_volume 2823.053414
_symmetry_space_group_name_H-M "P M M M"
_symmetry_group_IT_number 47
_symmetry_cell_setting 'orthorhombic'
loop_
_space_group_symop_operation_xyz
x,y,z
-x,-y,z
x,-y,-z
-x,y,-z
-x,-y,-z
x,y,-z
-x,y,z
x,-y,z
loop_
_atom_site_type_symbol
_atom_site_label
_atom_site_fract_x
_atom_site_fract_y
_atom_site_fract_z
Si Si1 0.572067 0.814394 0.361283
Si Si2 0.762226 0.822986 0.235161
Si Si3 0.388050 0.821697 0.820939
Si Si4 0.287738 0.682449 0.594028
Si Si5 0.577712 0.175201 0.000000
Si Si6 0.860855 0.317256 0.901357
Si Si7 0.000000 0.173670 0.897603
O O1 0.500000 0.774040 0.395451
O O2 0.576001 0.763302 0.262666
O O3 0.637882 0.746598 0.400814
O O4 0.577575 0.000000 0.364473
O O5 0.688628 0.816636 0.198281
O O6 0.754446 0.749114 0.328315
O O7 0.809514 0.744276 0.167245
O O8 0.780908 0.000000 0.243865
O O9 0.408944 0.000000 0.827285
O O10 0.401615 0.749424 0.911863
O O11 0.261991 0.720530 0.500000
O O12 0.290571 0.500000 0.602831
O O13 0.500000 0.165019 0.000000
O O14 0.605376 0.000000 0.000000
O O15 0.860011 0.500000 0.901362
O O16 0.932941 0.258675 0.875662
O O17 0.847846 0.266981 0.000000
O O18 0.000000 0.000000 0.865477
O O19 0.000000 0.168108 0.000000
#
# Coordination Sequence:
#
# PCOD9385275 Si02
#       7
#     8   8   8   8   4   8   4
#     4   9  17  30  47  67  92 121 157 204 258 314
#     4  10  20  33  51  74 100 131 170 214 255 301
#     4   8  15  25  38  60  89 120 155 201 249 292
#     4  10  21  36  52  70  95 126 163 211 265 322
#     4   9  14  20  34  56  83 116 153 194 241 289
#     4  10  20  33  51  77 112 149 179 207 247 296
#     4   9  17  31  51  77 108 143 182 219 249 281
#
# _framework density 17.002866999999998
#
# number of rings (size 3 to 8) (size 9 to 14) (size 15 to 20)
#    0.000    2.667    0.000    3.250    1.167    6.000 
#    0.000    1.667    0.000    0.000    0.000    0.583 
#    0.000   11.667    0.000    0.000    0.000    0.000 
#
# Total GULP energy -267349.941282 kJ/mol
# GULP energy per Si atom -5569.790443 kJ/mol
# Density = 1.696417 g / cm^3
# Si number density = 17.002867 Si / 1000 Ang^3
#
#
#
# Elastic Constant Matrix: (Units=GPa)
#
#
# Indices 1 2 3 4 5 6 
#
# 1 74.3058 33.7325 41.9839 0.0000 0.0000 0.0000
# 2 33.7325 59.2870 40.5576 0.0000 0.0000 0.0000
# 3 41.9839 40.5576 133.9454 0.0000 0.0000 0.0000
# 4 0.0000 0.0000 0.0000 17.2298 0.0000 0.0000
# 5 0.0000 0.0000 0.0000 0.0000 2.1699 0.0000
# 6 0.0000 0.0000 0.0000 0.0000 0.0000 19.6577
#
#
#
# Elastic Compliance Matrix: (Units=1/GPa)
#
#
# Indices 1 2 3 4 5 6 
#
# 1 0.019325 -0.008642 -0.003441 0.000000 0.000000 0.000000
# 2 -0.008642 0.025138 -0.004903 0.000000 0.000000 0.000000
# 3 -0.003441 -0.004903 0.010029 0.000000 0.000000 0.000000
# 4 0.000000 0.000000 0.000000 0.058039 0.000000 0.000000
# 5 0.000000 0.000000 0.000000 0.000000 0.460848 0.000000
# 6 0.000000 0.000000 0.000000 0.000000 0.000000 0.050871
#
#
# Mechanical properties :
#
#
# Convention : Reuss Voigt Hill
#
# Bulk Modulus (GPa) = 48.72988 55.56515 52.14751
# Shear Modulus (GPa) = 7.51812 17.89578 12.70695
#
# Velocity S-wave (km/s) = 2.10506 3.24777 2.73672
# Velocity P-wave (km/s) = 5.88476 6.84214 6.38143
#
# Compressibility (1/GPa) = 0.02052129
#
# Stress axis : x y z
#
# Youngs Moduli (GPa) = 51.74674 39.78050 99.71362
#
# Poissons Ratio (x) = 0.34377 0.34307
# Poissons Ratio (y) = 0.44717 0.48889
# Poissons Ratio (z) = 0.17804 0.19504
#
# Static dielectric constant tensor:
#      x y z
#    x 1.551510 0.000000 0.000000 
#    y 0.000000 1.587290 0.000000 
#    z 0.000000 0.000000 1.620670 
# 
# From -- ./inp_files/24476.got.cif
#   From: 2010.05.17/outbox.cif.g08.bks.cpg/sg47_13_cif.got.tgz:24476.got - 2010.06.03 20:15:42.
