data_PCOD9385269
_publ_section_title
;
Structure prediction by ZEFSAII (Michael W. Deem and Ramdas Pophale) SiO2 
 PCOD9385269
Probable space group: P M M M
;
_chemical_formula_sum "Si O2"
_cell_formula_units_Z 28
_cell_length_a 7.371043
_cell_length_b 15.981638
_cell_length_c 13.657183
_cell_angle_alpha 90.000000
_cell_angle_beta 90.000000
_cell_angle_gamma 90.000000
_cell_volume 1608.834470
_symmetry_space_group_name_H-M "P M M M"
_symmetry_group_IT_number 47
_symmetry_cell_setting 'orthorhombic'
loop_
_space_group_symop_operation_xyz
x,y,z
-x,-y,z
x,-y,-z
-x,y,-z
-x,-y,-z
x,y,-z
-x,y,z
x,-y,z
loop_
_atom_site_type_symbol
_atom_site_label
_atom_site_fract_x
_atom_site_fract_y
_atom_site_fract_z
Si Si1 0.000000 0.901501 0.190612
Si Si2 0.279685 0.500000 0.612943
Si Si3 0.284926 0.226136 0.888915
Si Si4 0.716896 0.679102 0.305677
Si Si5 0.000000 0.193912 0.389444
O O1 0.172201 0.855351 0.142066
O O2 0.000000 0.876216 0.305300
O O3 0.000000 0.000000 0.176184
O O4 0.500000 0.500000 0.612432
O O5 0.219869 0.500000 0.500000
O O6 0.225449 0.585650 0.665837
O O7 0.500000 0.209705 0.884401
O O8 0.244420 0.296196 0.807040
O O9 0.238960 0.250503 0.000000
O O10 0.500000 0.686468 0.321567
O O11 0.827037 0.746164 0.369469
O O12 0.000000 0.162557 0.500000
#
# Coordination Sequence:
#
# PCOD9385269 Si02
#       5
#     4   4   8   8   4
#     4  10  21  35  51  73  98 121 152 198 243 284
#     4   9  16  27  46  70  96 128 163 199 236 270
#     4   9  18  33  52  72  96 127 159 192 235 286
#     4   9  18  32  48  70 100 128 159 199 236 274
#     4  10  20  33  51  71  92 127 164 191 234 289
#
# _framework density 17.403905000000002
#
# number of rings (size 3 to 8) (size 9 to 14) (size 15 to 20)
#    0.000    2.714    0.000    1.286    0.000    4.286 
#    0.000    3.571    0.000    4.286    0.000   14.000 
#    0.000    0.000    0.000    0.000    0.000    0.000 
#
# Total GULP energy -156137.085238 kJ/mol
# GULP energy per Si atom -5576.324473 kJ/mol
# Density = 1.736429 g / cm^3
# Si number density = 17.403905 Si / 1000 Ang^3
#
#
#
# Elastic Constant Matrix: (Units=GPa)
#
#
# Indices 1 2 3 4 5 6 
#
# 1 61.1653 25.6050 31.0238 0.0000 0.0000 0.0000
# 2 25.6050 115.4401 53.4388 0.0000 0.0000 0.0000
# 3 31.0238 53.4388 143.7925 0.0000 0.0000 0.0000
# 4 0.0000 0.0000 0.0000 7.7367 0.0000 0.0000
# 5 0.0000 0.0000 0.0000 0.0000 9.6976 0.0000
# 6 0.0000 0.0000 0.0000 0.0000 0.0000 17.2142
#
#
#
# Elastic Compliance Matrix: (Units=1/GPa)
#
#
# Indices 1 2 3 4 5 6 
#
# 1 0.019084 -0.002810 -0.003073 0.000000 0.000000 0.000000
# 2 -0.002810 0.010876 -0.003436 0.000000 0.000000 0.000000
# 3 -0.003073 -0.003436 0.008894 0.000000 0.000000 0.000000
# 4 0.000000 0.000000 0.000000 0.129255 0.000000 0.000000
# 5 0.000000 0.000000 0.000000 0.000000 0.103118 0.000000
# 6 0.000000 0.000000 0.000000 0.000000 0.000000 0.058092
#
#
# Mechanical properties :
#
#
# Convention : Reuss Voigt Hill
#
# Bulk Modulus (GPa) = 49.46425 60.05924 54.76175
# Shear Modulus (GPa) = 14.09656 20.95171 17.52414
#
# Velocity S-wave (km/s) = 2.84908 3.47342 3.17662
# Velocity P-wave (km/s) = 6.26945 7.11830 6.70732
#
# Compressibility (1/GPa) = 0.02021662
#
# Stress axis : x y z
#
# Youngs Moduli (GPa) = 52.39901 91.94317 112.43114
#
# Poissons Ratio (x) = 0.25840 0.34551
# Poissons Ratio (y) = 0.14726 0.38628
# Poissons Ratio (z) = 0.16103 0.31589
#
# Static dielectric constant tensor:
#      x y z
#    x 1.627670 0.000000 0.000000 
#    y 0.000000 1.541630 0.000000 
#    z 0.000000 0.000000 1.599640 
# 
# From -- ./inp_files/14597.got.cif
#   From: 2010.05.17/outbox.cif.g08.bks.cpg/sg47_8_cif.got.tgz:14597.got - 2010.06.03 20:15:42.
