data_PCOD9385471
_publ_section_title
;
Structure prediction by ZEFSAII (Michael W. Deem and Ramdas Pophale) SiO2 
 PCOD9385471
Probable space group: P M M M
;
_chemical_formula_sum "Si O2"
_cell_formula_units_Z 48
_cell_length_a 9.406442
_cell_length_b 32.252461
_cell_length_c 8.024344
_cell_angle_alpha 90.000000
_cell_angle_beta 90.000000
_cell_angle_gamma 90.000000
_cell_volume 2434.432735
_symmetry_space_group_name_H-M "P M M M"
_symmetry_group_IT_number 47
_symmetry_cell_setting 'orthorhombic'
loop_
_space_group_symop_operation_xyz
x,y,z
-x,-y,z
x,-y,-z
-x,y,-z
-x,-y,-z
x,y,-z
-x,y,z
x,-y,z
loop_
_atom_site_type_symbol
_atom_site_label
_atom_site_fract_x
_atom_site_fract_y
_atom_site_fract_z
Si Si1 0.338807 0.214052 0.697158
Si Si2 0.160744 0.706440 0.199376
Si Si3 0.835518 0.546432 0.796759
Si Si4 0.336657 0.373272 0.204347
Si Si5 0.836107 0.865360 0.802567
Si Si6 0.168310 0.955210 0.700432
O O1 0.346081 0.220318 0.500000
O O2 0.500000 0.213962 0.764800
O O3 0.246504 0.251625 0.768309
O O4 0.260573 0.170661 0.729666
O O5 0.246523 0.666392 0.261941
O O6 0.000000 0.708624 0.266116
O O7 0.150899 0.701594 0.000000
O O8 0.792978 0.500000 0.743278
O O9 0.736557 0.583933 0.740914
O O10 0.000000 0.553299 0.748278
O O11 0.833008 0.546491 0.000000
O O12 0.500000 0.370358 0.256974
O O13 0.335540 0.373170 0.000000
O O14 0.777321 0.911533 0.767457
O O15 0.000000 0.862936 0.737836
O O16 0.842080 0.859398 0.000000
O O17 0.178819 0.954158 0.500000
O O18 0.000000 0.955589 0.743404
O O19 0.227409 0.000000 0.757285
#
# Coordination Sequence:
#
# PCOD9385471 Si02
#       6
#     8   8   8   8   8   8
#     4  11  24  39  54  73  98 129 165 205 251 302
#     4  10  20  34  53  75  98 126 162 203 248 300
#     4   8  13  21  33  51  80 120 163 204 245 290
#     4   9  16  25  39  61  90 124 160 199 245 296
#     4  10  20  33  52  79 107 135 169 208 251 299
#     4   8  14  26  46  73 105 140 175 210 249 292
#
# _framework density 19.717120000000001
#
# number of rings (size 3 to 8) (size 9 to 14) (size 15 to 20)
#    0.000    2.667    0.000    3.500    0.000    8.000 
#    0.000    3.333    0.000    0.500    0.000    3.500 
#    0.000    0.667    0.000    7.000    0.000    9.667 
#
# Total GULP energy -267721.418419 kJ/mol
# GULP energy per Si atom -5577.529550 kJ/mol
# Density = 1.967224 g / cm^3
# Si number density = 19.717120 Si / 1000 Ang^3
#
#
#
# Elastic Constant Matrix: (Units=GPa)
#
#
# Indices 1 2 3 4 5 6 
#
# 1 135.2577 100.7058 6.8214 0.0000 0.0000 0.0000
# 2 100.7058 173.0363 0.9035 0.0000 0.0000 0.0000
# 3 6.8214 0.9035 10.4896 0.0000 0.0000 0.0000
# 4 0.0000 0.0000 0.0000 135.9088 0.0000 0.0000
# 5 0.0000 0.0000 0.0000 0.0000 9.8018 0.0000
# 6 0.0000 0.0000 0.0000 0.0000 0.0000 -17.5187
#
#
#
# Elastic Compliance Matrix: (Units=1/GPa)
#
#
# Indices 1 2 3 4 5 6 
#
# 1 0.013724 -0.007944 -0.008240 0.000000 0.000000 0.000000
# 2 -0.007944 0.010380 0.004272 0.000000 0.000000 0.000000
# 3 -0.008240 0.004272 0.100323 0.000000 0.000000 0.000000
# 4 0.000000 0.000000 0.000000 0.007358 0.000000 0.000000
# 5 0.000000 0.000000 0.000000 0.000000 0.102022 0.000000
# 6 0.000000 0.000000 0.000000 0.000000 0.000000 -0.057082
#
#
# Mechanical properties :
#
#
# Convention : Reuss Voigt Hill
#
# Bulk Modulus (GPa) = 9.94012 59.51611 34.72811
# Shear Modulus (GPa) = 21.35986 39.66191 30.51089
#
# Velocity S-wave (km/s) = 3.29495 4.48989 3.93801
# Velocity P-wave (km/s) = 4.41904 7.55840 6.19101
#
# Compressibility (1/GPa) = 0.10060243
#
# Stress axis : x y z
#
# Youngs Moduli (GPa) = 72.86758 96.33768 9.96778
#
# Poissons Ratio (x) = 0.76530 0.08214
# Poissons Ratio (y) = 0.57886 -0.04258
# Poissons Ratio (z) = 0.60044 -0.41155
#
# Static dielectric constant tensor:
#      x y z
#    x 1.683720 0.000000 0.000000 
#    y 0.000000 1.686030 0.000000 
#    z 0.000000 0.000000 1.718850 
# 
# From -- ./inp_files/2418.got.cif
#   From: 2010.05.17/outbox.cif.g08.bks.cpg/sg47_2_cif.got.tgz:2418.got - 2010.06.03 20:15:42.
