data_PCOD9385511
_publ_section_title
;
Structure prediction by ZEFSAII (Michael W. Deem and Ramdas Pophale) SiO2 
 PCOD9385511
Probable space group: P M M M
;
_chemical_formula_sum "Si O2"
_cell_formula_units_Z 56
_cell_length_a 14.692352
_cell_length_b 22.009253
_cell_length_c 8.074530
_cell_angle_alpha 90.000000
_cell_angle_beta 90.000000
_cell_angle_gamma 90.000000
_cell_volume 2611.042133
_symmetry_space_group_name_H-M "P M M M"
_symmetry_group_IT_number 47
_symmetry_cell_setting 'orthorhombic'
loop_
_space_group_symop_operation_xyz
x,y,z
-x,-y,z
x,-y,-z
-x,y,-z
-x,-y,-z
x,y,-z
-x,y,z
x,-y,z
loop_
_atom_site_type_symbol
_atom_site_label
_atom_site_fract_x
_atom_site_fract_y
_atom_site_fract_z
Si Si1 0.099159 0.572744 0.188738
Si Si2 0.297382 0.432443 0.308532
Si Si3 0.102652 0.752814 0.197729
Si Si4 0.397353 0.185500 0.697954
Si Si5 0.897662 0.108656 0.695489
Si Si6 0.288552 0.303321 0.700952
Si Si7 0.707106 0.066028 0.194177
O O1 0.091895 0.500000 0.173118
O O2 0.188362 0.578534 0.298975
O O3 0.000000 0.594218 0.248524
O O4 0.113570 0.596614 0.000000
O O5 0.326036 0.435545 0.500000
O O6 0.315653 0.500000 0.234665
O O7 0.329405 0.367751 0.236816
O O8 0.116765 0.819136 0.277921
O O9 0.183734 0.708786 0.250237
O O10 0.000000 0.733198 0.242384
O O11 0.106062 0.760450 0.000000
O O12 0.402113 0.192983 0.500000
O O13 0.500000 0.181906 0.763654
O O14 0.343939 0.244628 0.762098
O O15 0.343026 0.123737 0.729872
O O16 0.893690 0.095704 0.500000
O O17 0.815066 0.074784 0.781648
O O18 0.000000 0.094397 0.755594
O O19 0.292164 0.305099 0.500000
O O20 0.680225 0.000000 0.263594
O O21 0.686722 0.066585 0.000000
#
# Coordination Sequence:
#
# PCOD9385511 Si02
#       7
#     8   8   8   8   8   8   8
#     4   8  14  25  40  59  88 128 172 216 261 310
#     4   9  18  31  47  70 101 137 177 222 275 335
#     4  10  20  33  52  80 113 149 190 236 284 333
#     4  10  22  41  64  87 110 142 189 242 293 347
#     4  10  20  35  57  85 119 159 200 238 276 323
#     4  10  20  35  56  80 108 145 187 233 286 341
#     4  11  24  40  60  89 124 158 191 232 282 334
#
# _framework density 21.447375999999998
#
# number of rings (size 3 to 8) (size 9 to 14) (size 15 to 20)
#    0.000    2.286    1.429    1.714    0.000    5.143 
#    0.000    7.143    0.000    0.429    0.000    3.000 
#    0.000    0.000    0.000    6.143    0.000    6.571 
#
# Total GULP energy -312329.571905 kJ/mol
# GULP energy per Si atom -5577.313784 kJ/mol
# Density = 2.139856 g / cm^3
# Si number density = 21.447376 Si / 1000 Ang^3
#
#
#
# Elastic Constant Matrix: (Units=GPa)
#
#
# Indices 1 2 3 4 5 6 
#
# 1 69.5570 53.3356 0.6659 0.0000 0.0000 0.0000
# 2 53.3356 164.7096 1.4594 0.0000 0.0000 0.0000
# 3 0.6659 1.4594 19.6800 0.0000 0.0000 0.0000
# 4 0.0000 0.0000 0.0000 173.3435 0.0000 0.0000
# 5 0.0000 0.0000 0.0000 0.0000 -20.7038 0.0000
# 6 0.0000 0.0000 0.0000 0.0000 0.0000 -3.3406
#
#
#
# Elastic Compliance Matrix: (Units=1/GPa)
#
#
# Indices 1 2 3 4 5 6 
#
# 1 0.019126 -0.006192 -0.000188 0.000000 0.000000 0.000000
# 2 -0.006192 0.008080 -0.000390 0.000000 0.000000 0.000000
# 3 -0.000188 -0.000390 0.050848 0.000000 0.000000 0.000000
# 4 0.000000 0.000000 0.000000 0.005769 0.000000 0.000000
# 5 0.000000 0.000000 0.000000 0.000000 -0.048300 0.000000
# 6 0.000000 0.000000 0.000000 0.000000 0.000000 -0.299348
#
#
# Mechanical properties :
#
#
# Convention : Reuss Voigt Hill
#
# Bulk Modulus (GPa) = 15.50016 40.54094 28.02055
# Shear Modulus (GPa) = -21.85492 43.09219 10.61864
#
# Velocity S-wave (km/s) = -3.19564 4.48728 2.22750
# Velocity P-wave (km/s) = 2.52457 6.76691 4.43946
#
# Compressibility (1/GPa) = 0.06451546
#
# Stress axis : x y z
#
# Youngs Moduli (GPa) = 52.28416 123.76659 19.66633
#
# Poissons Ratio (x) = 0.76633 0.00370
# Poissons Ratio (y) = 0.32373 0.00766
# Poissons Ratio (z) = 0.00983 0.04822
#
# Static dielectric constant tensor:
#      x y z
#    x 1.777240 0.000000 0.000000 
#    y 0.000000 1.850700 0.000000 
#    z 0.000000 0.000000 1.762390 
# 
# From -- ./inp_files/7308.got.cif
#   From: 2010.05.17/outbox.cif.g08.bks.cpg/sg47_4_cif.got.tgz:7308.got - 2010.06.03 20:15:42.
