data_PCOD9385149
_publ_section_title
;
Structure prediction by ZEFSAII (Michael W. Deem and Ramdas Pophale) SiO2 
 PCOD9385149
Probable space group: P M M M
;
_chemical_formula_sum "Si O2"
_cell_formula_units_Z 44
_cell_length_a 9.686933
_cell_length_b 29.637081
_cell_length_c 8.997791
_cell_angle_alpha 90.000000
_cell_angle_beta 90.000000
_cell_angle_gamma 90.000000
_cell_volume 2583.197575
_symmetry_space_group_name_H-M "P M M M"
_symmetry_group_IT_number 47
_symmetry_cell_setting 'orthorhombic'
loop_
_space_group_symop_operation_xyz
x,y,z
-x,-y,z
x,-y,-z
-x,y,-z
-x,-y,-z
x,y,-z
-x,y,z
x,-y,z
loop_
_atom_site_type_symbol
_atom_site_label
_atom_site_fract_x
_atom_site_fract_y
_atom_site_fract_z
Si Si1 0.159495 0.365476 0.818397
Si Si2 0.336602 0.906473 0.177237
Si Si3 0.832166 0.266191 0.828407
Si Si4 0.332270 0.000000 0.329000
Si Si5 0.163623 0.173348 0.323398
Si Si6 0.660311 0.550180 0.818984
O O1 0.212491 0.315753 0.773556
O O2 0.249043 0.407819 0.767177
O O3 0.000000 0.370689 0.772976
O O4 0.160810 0.364832 0.000000
O O5 0.500000 0.900666 0.211201
O O6 0.289978 0.954112 0.247242
O O7 0.250065 0.865509 0.244095
O O8 0.321790 0.908146 0.000000
O O9 0.791930 0.222826 0.733680
O O10 0.000000 0.268193 0.828461
O O11 0.788599 0.260024 0.000000
O O12 0.500000 0.000000 0.327106
O O13 0.286880 0.000000 0.500000
O O14 0.180515 0.170249 0.500000
O O15 0.000000 0.168453 0.289040
O O16 0.500000 0.555369 0.777066
O O17 0.707476 0.500000 0.772239
O O18 0.664928 0.550569 0.000000
#
# Coordination Sequence:
#
# PCOD9385149 Si02
#       6
#     8   8   8   4   8   8
#     4   8  13  21  34  51  70  98 138 177 211 253
#     4  10  20  34  53  76 100 127 161 198 235 278
#     4   8  14  26  43  61  84 115 148 183 225 272
#     4   9  17  31  52  75 100 131 162 194 236 281
#     4  10  20  33  50  72  97 126 159 194 236 285
#     4   8  13  20  29  44  71 105 134 163 208 263
#
# _framework density 17.033152999999999
#
# number of rings (size 3 to 8) (size 9 to 14) (size 15 to 20)
#    0.000    3.182    0.000    3.000    0.000    3.636 
#    0.000    3.182    0.000    6.000    0.000    0.000 
#    0.000    0.727    0.000    9.091    0.000   10.545 
#
# Total GULP energy -245021.270536 kJ/mol
# GULP energy per Si atom -5568.665239 kJ/mol
# Density = 1.699438 g / cm^3
# Si number density = 17.033153 Si / 1000 Ang^3
#
#
#
# Elastic Constant Matrix: (Units=GPa)
#
#
# Indices 1 2 3 4 5 6 
#
# 1 41.2806 72.3187 31.2808 0.0000 0.0000 0.0000
# 2 72.3187 210.9536 57.1831 0.0000 0.0000 0.0000
# 3 31.2808 57.1831 40.1855 0.0000 0.0000 0.0000
# 4 0.0000 0.0000 0.0000 -8.6014 0.0000 0.0000
# 5 0.0000 0.0000 0.0000 0.0000 13.3168 0.0000
# 6 0.0000 0.0000 0.0000 0.0000 0.0000 47.1907
#
#
#
# Elastic Compliance Matrix: (Units=1/GPa)
#
#
# Indices 1 2 3 4 5 6 
#
# 1 0.091205 -0.019571 -0.043146 0.000000 0.000000 0.000000
# 2 -0.019571 0.011917 -0.001723 0.000000 0.000000 0.000000
# 3 -0.043146 -0.001723 0.060921 0.000000 0.000000 0.000000
# 4 0.000000 0.000000 0.000000 -0.116260 0.000000 0.000000
# 5 0.000000 0.000000 0.000000 0.000000 0.075093 0.000000
# 6 0.000000 0.000000 0.000000 0.000000 0.000000 0.021191
#
#
# Mechanical properties :
#
#
# Convention : Reuss Voigt Hill
#
# Bulk Modulus (GPa) = 28.43840 68.22057 48.32948
# Shear Modulus (GPa) = 17.56434 19.15701 18.36068
#
# Velocity S-wave (km/s) = 3.21469 3.35728 3.28676
# Velocity P-wave (km/s) = 5.52369 7.42745 6.54516
#
# Compressibility (1/GPa) = 0.03516372
#
# Stress axis : x y z
#
# Youngs Moduli (GPa) = 10.96427 83.91522 16.41468
#
# Poissons Ratio (x) = 1.64234 0.70822
# Poissons Ratio (y) = 0.21459 0.02828
# Poissons Ratio (z) = 0.47306 0.14457
#
# Static dielectric constant tensor:
#      x y z
#    x 1.565540 0.000000 0.000000 
#    y 0.000000 1.587170 0.000000 
#    z 0.000000 0.000000 1.564840 
# 
# From -- ./inp_files/2082.got.cif
#   From: 2010.05.17/outbox.cif.g08.bks.cpg/sg47_2_cif.got.tgz:2082.got - 2010.06.03 20:15:42.
