data_PCOD9385607
_publ_section_title
;
Structure prediction by ZEFSAII (Michael W. Deem and Ramdas Pophale) SiO2 
 PCOD9385607
Probable space group: P M M M
;
_chemical_formula_sum "Si O2"
_cell_formula_units_Z 64
_cell_length_a 9.200290
_cell_length_b 14.798918
_cell_length_c 32.272099
_cell_angle_alpha 90.000000
_cell_angle_beta 90.000000
_cell_angle_gamma 90.000000
_cell_volume 4393.986252
_symmetry_space_group_name_H-M "P M M M"
_symmetry_group_IT_number 47
_symmetry_cell_setting 'orthorhombic'
loop_
_space_group_symop_operation_xyz
x,y,z
-x,-y,z
x,-y,-z
-x,y,-z
-x,-y,-z
x,y,-z
-x,y,z
x,-y,z
loop_
_atom_site_type_symbol
_atom_site_label
_atom_site_fract_x
_atom_site_fract_y
_atom_site_fract_z
Si Si1 0.167068 0.110021 0.628222
Si Si2 0.174982 0.207778 0.953663
Si Si3 0.669888 0.890221 0.454114
Si Si4 0.325131 0.600993 0.829309
Si Si5 0.323389 0.788995 0.794422
Si Si6 0.674621 0.106419 0.877928
Si Si7 0.174195 0.399446 0.918492
Si Si8 0.674755 0.106458 0.712631
O O1 0.240578 0.141723 0.585529
O O2 0.253222 0.136191 0.669589
O O3 0.000000 0.137969 0.630462
O O4 0.171004 0.000000 0.627301
O O5 0.249692 0.151209 0.917449
O O6 0.210921 0.313723 0.946615
O O7 0.000000 0.198825 0.950491
O O8 0.218764 0.179787 0.000000
O O9 0.720481 0.860906 0.500000
O O10 0.500000 0.866551 0.449711
O O11 0.676607 0.000000 0.454029
O O12 0.500000 0.605750 0.834410
O O13 0.289067 0.500000 0.813950
O O14 0.280418 0.684728 0.800662
O O15 0.252320 0.611808 0.874279
O O16 0.500000 0.792549 0.793509
O O17 0.278632 0.843815 0.835560
O O18 0.274182 0.836268 0.752196
O O19 0.500000 0.117427 0.881551
O O20 0.706103 0.000000 0.875422
O O21 0.211213 0.500000 0.934730
O O22 0.000000 0.397435 0.912192
O O23 0.500000 0.113972 0.709031
O O24 0.707411 0.000000 0.719420
#
# Coordination Sequence:
#
# PCOD9385607 Si02
#       8
#     8   8   8   8   8   8   8   8
#     4   9  16  24  33  48  73 101 130 169 213 249
#     4  10  21  35  49  66  88 112 136 163 199 242
#     4   8  13  21  33  48  66  93 133 176 212 247
#     4   9  16  27  46  69  89 107 127 157 200 245
#     4   9  16  28  46  66  84 103 131 166 201 240
#     4  10  20  34  51  68  85 107 138 174 206 238
#     4   9  17  30  48  68  88 109 133 160 192 235
#     4   9  16  26  40  55  73 102 137 168 199 236
#
# _framework density 14.565362
#
# number of rings (size 3 to 8) (size 9 to 14) (size 15 to 20)
#    0.000    2.875    1.250    1.125    0.000    4.250 
#    0.000    5.000    0.000    1.500    0.000    2.625 
#    0.000    0.000    0.000    0.000    0.000    0.625 
#
# Total GULP energy -356346.305067 kJ/mol
# GULP energy per Si atom -5567.911017 kJ/mol
# Density = 1.453221 g / cm^3
# Si number density = 14.565362 Si / 1000 Ang^3
#
#
#
# Elastic Constant Matrix: (Units=GPa)
#
#
# Indices 1 2 3 4 5 6 
#
# 1 18.9551 24.2516 38.3684 0.0000 0.0000 0.0000
# 2 24.2516 67.4618 54.6660 0.0000 0.0000 0.0000
# 3 38.3684 54.6660 139.1975 0.0000 0.0000 0.0000
# 4 0.0000 0.0000 0.0000 5.7380 0.0000 0.0000
# 5 0.0000 0.0000 0.0000 0.0000 -3.8517 0.0000
# 6 0.0000 0.0000 0.0000 0.0000 0.0000 13.1505
#
#
#
# Elastic Compliance Matrix: (Units=1/GPa)
#
#
# Indices 1 2 3 4 5 6 
#
# 1 0.152774 -0.030505 -0.030131 0.000000 0.000000 0.000000
# 2 -0.030505 0.027833 -0.002522 0.000000 0.000000 0.000000
# 3 -0.030131 -0.002522 0.016480 0.000000 0.000000 0.000000
# 4 0.000000 0.000000 0.000000 0.174277 0.000000 0.000000
# 5 0.000000 0.000000 0.000000 0.000000 -0.259628 0.000000
# 6 0.000000 0.000000 0.000000 0.000000 0.000000 0.076043
#
#
# Mechanical properties :
#
#
# Convention : Reuss Voigt Hill
#
# Bulk Modulus (GPa) = 14.12996 51.13183 32.63089
# Shear Modulus (GPa) = 14.80672 10.22926 12.51799
#
# Velocity S-wave (km/s) = 3.19183 2.65297 2.93479
# Velocity P-wave (km/s) = 4.82761 6.67575 5.82544
#
# Compressibility (1/GPa) = 0.07077160
#
# Stress axis : x y z
#
# Youngs Moduli (GPa) = 6.54562 35.92829 60.67992
#
# Poissons Ratio (x) = 1.09598 1.82833
# Poissons Ratio (y) = 0.19967 0.15306
# Poissons Ratio (z) = 0.19722 0.09063
#
# Static dielectric constant tensor:
#      x y z
#    x 1.483060 0.000000 0.000000 
#    y 0.000000 1.482880 0.000000 
#    z 0.000000 0.000000 1.473770 
# 
# From -- ./inp_files/25882.got.cif
#   From: 2010.05.17/outbox.cif.g08.bks.cpg/sg47_13_cif.got.tgz:25882.got - 2010.06.03 20:15:42.
