data_PCOD9385044
_publ_section_title
;
Structure prediction by ZEFSAII (Michael W. Deem and Ramdas Pophale) SiO2 
 PCOD9385044
Probable space group: P M M M
;
_chemical_formula_sum "Si O2"
_cell_formula_units_Z 56
_cell_length_a 9.375070
_cell_length_b 18.911515
_cell_length_c 19.345864
_cell_angle_alpha 90.000000
_cell_angle_beta 90.000000
_cell_angle_gamma 90.000000
_cell_volume 3429.959334
_symmetry_space_group_name_H-M "P M M M"
_symmetry_group_IT_number 47
_symmetry_cell_setting 'orthorhombic'
loop_
_space_group_symop_operation_xyz
x,y,z
-x,-y,z
x,-y,-z
-x,y,-z
-x,-y,-z
x,y,-z
-x,y,z
x,-y,z
loop_
_atom_site_type_symbol
_atom_site_label
_atom_site_fract_x
_atom_site_fract_y
_atom_site_fract_z
Si Si1 0.171128 0.581192 0.793892
Si Si2 0.168066 0.849671 0.211645
Si Si3 0.670362 0.649707 0.078460
Si Si4 0.670607 0.817925 0.077643
Si Si5 0.330650 0.788117 0.419359
Si Si6 0.830278 0.709745 0.698130
Si Si7 0.170377 0.081108 0.645391
O O1 0.207187 0.500000 0.778574
O O2 0.246539 0.607007 0.863657
O O3 0.209992 0.635836 0.733128
O O4 0.000000 0.586506 0.802733
O O5 0.254710 0.856375 0.141270
O O6 0.194660 0.772442 0.245967
O O7 0.202767 0.903547 0.273758
O O8 0.000000 0.854922 0.196861
O O9 0.500000 0.641141 0.087112
O O10 0.701084 0.733713 0.084290
O O11 0.707044 0.628003 0.000000
O O12 0.500000 0.826002 0.081968
O O13 0.715489 0.839604 0.000000
O O14 0.306558 0.773310 0.500000
O O15 0.500000 0.791428 0.406693
O O16 0.257717 0.730879 0.369320
O O17 0.257961 0.862629 0.398904
O O18 0.000000 0.710267 0.683024
O O19 0.000000 0.094238 0.636942
O O20 0.199948 0.000000 0.627677
#
# Coordination Sequence:
#
# PCOD9385044 Si02
#       7
#     8   8   8   8   8   8   8
#     4  10  20  33  49  70  97 128 164 209 255 294
#     4   9  16  28  48  71  92 120 162 205 241 279
#     4   9  18  31  45  64  94 131 168 205 247 297
#     4   9  17  28  43  65  92 123 161 205 249 289
#     4  10  21  35  53  79 106 130 158 195 236 278
#     4   9  18  33  51  72  97 126 163 202 241 291
#     4   9  19  35  53  75 105 137 164 191 230 284
#
# _framework density 16.326725
#
# number of rings (size 3 to 8) (size 9 to 14) (size 15 to 20)
#    0.000    2.714    1.429    2.143    0.000    5.714 
#    0.000    4.286    0.000    0.857    0.000    6.000 
#    0.000    0.000    0.000    0.000    0.000    0.000 
#
# Total GULP energy -312156.880927 kJ/mol
# GULP energy per Si atom -5574.230017 kJ/mol
# Density = 1.628956 g / cm^3
# Si number density = 16.326725 Si / 1000 Ang^3
#
#
#
# Elastic Constant Matrix: (Units=GPa)
#
#
# Indices 1 2 3 4 5 6 
#
# 1 35.6561 23.5243 56.1842 0.0000 0.0000 0.0000
# 2 23.5243 49.8294 35.6999 0.0000 0.0000 0.0000
# 3 56.1842 35.6999 116.9052 0.0000 0.0000 0.0000
# 4 0.0000 0.0000 0.0000 13.5322 0.0000 0.0000
# 5 0.0000 0.0000 0.0000 0.0000 36.2617 0.0000
# 6 0.0000 0.0000 0.0000 0.0000 0.0000 15.3267
#
#
#
# Elastic Compliance Matrix: (Units=1/GPa)
#
#
# Indices 1 2 3 4 5 6 
#
# 1 0.131358 -0.021485 -0.056569 0.000000 0.000000 0.000000
# 2 -0.021485 0.029203 0.001408 0.000000 0.000000 0.000000
# 3 -0.056569 0.001408 0.035311 0.000000 0.000000 0.000000
# 4 0.000000 0.000000 0.000000 0.073898 0.000000 0.000000
# 5 0.000000 0.000000 0.000000 0.000000 0.027577 0.000000
# 6 0.000000 0.000000 0.000000 0.000000 0.000000 0.065245
#
#
# Mechanical properties :
#
#
# Convention : Reuss Voigt Hill
#
# Bulk Modulus (GPa) = 23.48578 48.13417 35.80997
# Shear Modulus (GPa) = 9.43256 18.82295 14.12776
#
# Velocity S-wave (km/s) = 2.40622 3.39911 2.94481
# Velocity P-wave (km/s) = 4.70489 6.70456 5.79168
#
# Compressibility (1/GPa) = 0.04257896
#
# Stress axis : x y z
#
# Youngs Moduli (GPa) = 7.61277 34.24315 28.31980
#
# Poissons Ratio (x) = 0.73572 1.60203
# Poissons Ratio (y) = 0.16356 -0.03987
# Poissons Ratio (z) = 0.43065 -0.04821
#
# Static dielectric constant tensor:
#      x y z
#    x 1.540540 0.000000 0.000000 
#    y 0.000000 1.544450 0.000000 
#    z 0.000000 0.000000 1.538080 
# 
# From -- ./inp_files/9790.got.cif
#   From: 2010.05.17/outbox.cif.g08.bks.cpg/sg47_5_cif.got.tgz:9790.got - 2010.06.03 20:15:42.
