data_PCOD9385755
_publ_section_title
;
Structure prediction by ZEFSAII (Michael W. Deem and Ramdas Pophale) SiO2 
 PCOD9385755
Probable space group: P M M M
;
_chemical_formula_sum "Si O2"
_cell_formula_units_Z 44
_cell_length_a 7.573356
_cell_length_b 29.226835
_cell_length_c 9.348716
_cell_angle_alpha 90.000000
_cell_angle_beta 90.000000
_cell_angle_gamma 90.000000
_cell_volume 2069.293658
_symmetry_space_group_name_H-M "P M M M"
_symmetry_group_IT_number 47
_symmetry_cell_setting 'orthorhombic'
loop_
_space_group_symop_operation_xyz
x,y,z
-x,-y,z
x,-y,-z
-x,y,-z
-x,-y,-z
x,y,-z
-x,y,z
x,-y,z
loop_
_atom_site_type_symbol
_atom_site_label
_atom_site_fract_x
_atom_site_fract_y
_atom_site_fract_z
Si Si1 0.210117 0.411318 0.838059
Si Si2 0.289916 0.320160 0.337851
Si Si3 0.783640 0.859707 0.664292
Si Si4 0.784753 0.948829 0.165462
Si Si5 0.788902 0.771227 0.838120
Si Si6 0.783373 0.500000 0.665045
O O1 0.235994 0.364511 0.752188
O O2 0.277198 0.454680 0.748402
O O3 0.000000 0.418075 0.849798
O O4 0.281211 0.408883 0.000000
O O5 0.217413 0.320706 0.500000
O O6 0.500000 0.321376 0.347720
O O7 0.242273 0.274085 0.254045
O O8 0.728339 0.855832 0.500000
O O9 0.726025 0.907266 0.735717
O O10 0.722804 0.816296 0.756586
O O11 0.000000 0.859570 0.665502
O O12 0.000000 0.948748 0.167661
O O13 0.728446 0.000000 0.208929
O O14 0.732991 0.941485 0.000000
O O15 0.000000 0.776569 0.848563
O O16 0.719604 0.766993 0.000000
O O17 0.727356 0.500000 0.500000
O O18 0.000000 0.500000 0.664008
#
# Coordination Sequence:
#
# PCOD9385755 Si02
#       6
#     8   8   8   8   8   4
#     4  10  20  35  57  84 111 139 173 211 250 295
#     4  11  24  39  54  75 104 136 170 210 256 304
#     4   9  16  25  39  61  89 121 158 201 247 295
#     4   8  13  21  33  51  80 119 158 195 239 292
#     4  10  20  34  53  75  98 128 168 211 254 302
#     4   9  17  31  54  83 112 141 172 208 250 293
#
# _framework density 21.263293999999998
#
# number of rings (size 3 to 8) (size 9 to 14) (size 15 to 20)
#    0.000    2.455    0.000    3.545    0.000    9.455 
#    0.000    2.273    0.000    2.727    0.000    0.000 
#    0.000    0.727    0.000    7.636    0.000   10.545 
#
# Total GULP energy -245810.035240 kJ/mol
# GULP energy per Si atom -5586.591710 kJ/mol
# Density = 2.121490 g / cm^3
# Si number density = 21.263294 Si / 1000 Ang^3
#
#
#
# Elastic Constant Matrix: (Units=GPa)
#
#
# Indices 1 2 3 4 5 6 
#
# 1 48.0253 -1.7862 7.5521 0.0000 0.0000 0.0000
# 2 -1.7862 222.9968 148.9326 0.0000 0.0000 0.0000
# 3 7.5521 148.9326 235.9448 0.0000 0.0000 0.0000
# 4 0.0000 0.0000 0.0000 2.3163 0.0000 0.0000
# 5 0.0000 0.0000 0.0000 0.0000 -2.4766 0.0000
# 6 0.0000 0.0000 0.0000 0.0000 0.0000 -65.1464
#
#
#
# Elastic Compliance Matrix: (Units=1/GPa)
#
#
# Indices 1 2 3 4 5 6 
#
# 1 0.021075 0.001071 -0.001350 0.000000 0.000000 0.000000
# 2 0.001071 0.007807 -0.004962 0.000000 0.000000 0.000000
# 3 -0.001350 -0.004962 0.007414 0.000000 0.000000 0.000000
# 4 0.000000 0.000000 0.000000 0.431731 0.000000 0.000000
# 5 0.000000 0.000000 0.000000 0.000000 -0.403779 0.000000
# 6 0.000000 0.000000 0.000000 0.000000 0.000000 -0.015350
#
#
# Mechanical properties :
#
#
# Convention : Reuss Voigt Hill
#
# Bulk Modulus (GPa) = 38.74244 90.70712 64.72478
# Shear Modulus (GPa) = 73.54564 10.42321 41.98443
#
# Velocity S-wave (km/s) = 5.88754 2.21644 4.44836
# Velocity P-wave (km/s) = 8.02978 7.02152 7.54252
#
# Compressibility (1/GPa) = 0.02581149
#
# Stress axis : x y z
#
# Youngs Moduli (GPa) = 47.45061 128.08905 134.88445
#
# Poissons Ratio (x) = -0.13714 0.18215
# Poissons Ratio (y) = -0.05080 0.66933
# Poissons Ratio (z) = 0.06408 0.63561
#
# Static dielectric constant tensor:
#      x y z
#    x 1.803210 0.000000 0.000000 
#    y 0.000000 1.727990 0.000000 
#    z 0.000000 0.000000 1.746930 
# 
# From -- ./inp_files/2007.got.cif
#   From: 2010.05.17/outbox.cif.g08.bks.cpg/sg47_2_cif.got.tgz:2007.got - 2010.06.03 20:15:42.
