data_PCOD9385579
_publ_section_title
;
Structure prediction by ZEFSAII (Michael W. Deem and Ramdas Pophale) SiO2 
 PCOD9385579
Probable space group: P M M M
;
_chemical_formula_sum "Si O2"
_cell_formula_units_Z 48
_cell_length_a 9.092082
_cell_length_b 20.814800
_cell_length_c 14.753337
_cell_angle_alpha 90.000000
_cell_angle_beta 90.000000
_cell_angle_gamma 90.000000
_cell_volume 2792.067086
_symmetry_space_group_name_H-M "P M M M"
_symmetry_group_IT_number 47
_symmetry_cell_setting 'orthorhombic'
loop_
_space_group_symop_operation_xyz
x,y,z
-x,-y,z
x,-y,-z
-x,y,-z
-x,-y,-z
x,y,-z
-x,y,z
x,-y,z
loop_
_atom_site_type_symbol
_atom_site_label
_atom_site_fract_x
_atom_site_fract_y
_atom_site_fract_z
Si Si1 0.673164 0.828791 0.647546
Si Si2 0.671150 0.571910 0.608973
Si Si3 0.178136 0.077824 0.500000
Si Si4 0.825989 0.693479 0.306911
Si Si5 0.668466 0.846727 0.140304
Si Si6 0.173287 0.715873 0.899987
Si Si7 0.173856 0.069974 0.000000
O O1 0.500000 0.823984 0.621779
O O2 0.755498 0.880903 0.584516
O O3 0.745042 0.757142 0.652973
O O4 0.681189 0.851013 0.751868
O O5 0.676296 0.572848 0.500000
O O6 0.500000 0.581033 0.635452
O O7 0.717030 0.500000 0.638463
O O8 0.767325 0.629694 0.645870
O O9 0.000000 0.081847 0.500000
O O10 0.215029 0.000000 0.500000
O O11 0.800810 0.683782 0.198163
O O12 0.000000 0.702413 0.320446
O O13 0.500000 0.856897 0.114648
O O14 0.722898 0.777440 0.107074
O O15 0.771850 0.895236 0.089221
O O16 0.000000 0.734960 0.898654
O O17 0.197209 0.684728 0.000000
O O18 0.000000 0.068416 0.000000
O O19 0.239622 0.000000 0.000000
#
# Coordination Sequence:
#
# PCOD9385579 Si02
#       7
#     8   8   4   8   8   8   4
#     4  10  22  39  59  82 109 143 181 225 277 330
#     4   9  19  36  56  78 109 150 189 225 272 328
#     4  11  25  43  61  81 106 139 182 231 279 329
#     4  10  20  33  54  85 115 143 181 229 273 318
#     4  10  20  34  53  77 102 130 171 221 267 315
#     4   9  17  31  52  76 105 140 174 212 264 320
#     4  11  23  35  49  71 101 139 174 209 266 331
#
# _framework density 17.191564
#
# number of rings (size 3 to 8) (size 9 to 14) (size 15 to 20)
#    0.000    2.167    0.833    2.500    1.167    5.333 
#    0.000    4.167    0.000    0.500    0.000    3.500 
#    0.000    0.000    0.000    0.000    0.000    0.000 
#
# Total GULP energy -267305.659846 kJ/mol
# GULP energy per Si atom -5568.867913 kJ/mol
# Density = 1.715244 g / cm^3
# Si number density = 17.191564 Si / 1000 Ang^3
#
#
#
# Elastic Constant Matrix: (Units=GPa)
#
#
# Indices 1 2 3 4 5 6 
#
# 1 76.5228 55.4030 40.4730 0.0000 0.0000 0.0000
# 2 55.4030 108.9343 46.8677 0.0000 0.0000 0.0000
# 3 40.4730 46.8677 80.6916 0.0000 0.0000 0.0000
# 4 0.0000 0.0000 0.0000 16.7621 0.0000 0.0000
# 5 0.0000 0.0000 0.0000 0.0000 26.2411 0.0000
# 6 0.0000 0.0000 0.0000 0.0000 0.0000 29.2984
#
#
#
# Elastic Compliance Matrix: (Units=1/GPa)
#
#
# Indices 1 2 3 4 5 6 
#
# 1 0.022845 -0.008917 -0.006279 0.000000 0.000000 0.000000
# 2 -0.008917 0.015719 -0.004657 0.000000 0.000000 0.000000
# 3 -0.006279 -0.004657 0.018247 0.000000 0.000000 0.000000
# 4 0.000000 0.000000 0.000000 0.059659 0.000000 0.000000
# 5 0.000000 0.000000 0.000000 0.000000 0.038108 0.000000
# 6 0.000000 0.000000 0.000000 0.000000 0.000000 0.034132
#
#
# Mechanical properties :
#
#
# Convention : Reuss Voigt Hill
#
# Bulk Modulus (GPa) = 58.46582 61.29289 59.87935
# Shear Modulus (GPa) = 21.35670 22.68731 22.02200
#
# Velocity S-wave (km/s) = 3.52842 3.63668 3.58296
# Velocity P-wave (km/s) = 7.11912 7.30508 7.21270
#
# Compressibility (1/GPa) = 0.01710401
#
# Stress axis : x y z
#
# Youngs Moduli (GPa) = 43.77266 63.61806 54.80234
#
# Poissons Ratio (x) = 0.56730 0.34412
# Poissons Ratio (y) = 0.39034 0.25522
# Poissons Ratio (z) = 0.27486 0.29628
#
# Static dielectric constant tensor:
#      x y z
#    x 1.580240 0.000000 0.000000 
#    y 0.000000 1.555400 0.000000 
#    z 0.000000 0.000000 1.598310 
# 
# From -- ./inp_files/21038.got.cif
#   From: 2010.05.17/outbox.cif.g08.bks.cpg/sg47_11_cif.got.tgz:21038.got - 2010.06.03 20:15:42.
