data_PCOD9385400
_publ_section_title
;
Structure prediction by ZEFSAII (Michael W. Deem and Ramdas Pophale) SiO2 
 PCOD9385400
Probable space group: P M M M
;
_chemical_formula_sum "Si O2"
_cell_formula_units_Z 44
_cell_length_a 9.324691
_cell_length_b 8.103973
_cell_length_c 29.177928
_cell_angle_alpha 90.000000
_cell_angle_beta 90.000000
_cell_angle_gamma 90.000000
_cell_volume 2204.889772
_symmetry_space_group_name_H-M "P M M M"
_symmetry_group_IT_number 47
_symmetry_cell_setting 'orthorhombic'
loop_
_space_group_symop_operation_xyz
x,y,z
-x,-y,z
x,-y,-z
-x,y,-z
-x,-y,-z
x,y,-z
-x,y,z
x,-y,z
loop_
_atom_site_type_symbol
_atom_site_label
_atom_site_fract_x
_atom_site_fract_y
_atom_site_fract_z
Si Si1 0.664017 0.197250 0.590253
Si Si2 0.163965 0.698993 0.319627
Si Si3 0.835867 0.302687 0.500000
Si Si4 0.334888 0.297930 0.229468
Si Si5 0.837394 0.301593 0.859826
Si Si6 0.665138 0.800802 0.948538
O O1 0.500000 0.260911 0.589317
O O2 0.747296 0.255354 0.635362
O O3 0.750656 0.248658 0.545132
O O4 0.658123 0.000000 0.591151
O O5 0.158231 0.500000 0.317313
O O6 0.245585 0.756416 0.273891
O O7 0.000000 0.759936 0.321811
O O8 0.842357 0.500000 0.500000
O O9 0.000000 0.239054 0.500000
O O10 0.500000 0.244757 0.231739
O O11 0.334907 0.500000 0.229469
O O12 0.258656 0.242182 0.182719
O O13 0.842783 0.500000 0.856122
O O14 0.765614 0.259466 0.908098
O O15 0.000000 0.238487 0.856920
O O16 0.500000 0.747825 0.940657
O O17 0.666322 0.000000 0.948322
O O18 0.707192 0.746901 0.000000
#
# Coordination Sequence:
#
# PCOD9385400 Si02
#       6
#     8   8   4   8   8   8
#     4  11  24  40  58  83 115 149 185 225 270 319
#     4  10  20  35  57  84 112 143 181 223 267 318
#     4  11  24  41  62  88 114 143 184 229 272 322
#     4   9  17  31  53  79 107 141 179 219 265 315
#     4  10  20  33  51  78 110 140 173 217 267 318
#     4   9  19  36  55  74  99 134 176 220 266 318
#
# _framework density 19.955646000000002
#
# number of rings (size 3 to 8) (size 9 to 14) (size 15 to 20)
#    0.000    2.091    0.000    3.818    0.000   10.909 
#    0.000    3.636    0.000    5.455    0.000    0.000 
#    0.000    0.000    0.000    0.000    0.000    0.000 
#
# Total GULP energy -245819.085226 kJ/mol
# GULP energy per Si atom -5586.797392 kJ/mol
# Density = 1.991023 g / cm^3
# Si number density = 19.955646 Si / 1000 Ang^3
#
#
#
# Elastic Constant Matrix: (Units=GPa)
#
#
# Indices 1 2 3 4 5 6 
#
# 1 221.0765 16.6270 136.9376 0.0000 0.0000 0.0000
# 2 16.6270 13.0538 8.9835 0.0000 0.0000 0.0000
# 3 136.9376 8.9835 202.0470 0.0000 0.0000 0.0000
# 4 0.0000 0.0000 0.0000 88.5668 0.0000 0.0000
# 5 0.0000 0.0000 0.0000 0.0000 88.9963 0.0000
# 6 0.0000 0.0000 0.0000 0.0000 0.0000 16.1616
#
#
#
# Elastic Compliance Matrix: (Units=1/GPa)
#
#
# Indices 1 2 3 4 5 6 
#
# 1 0.008369 -0.006969 -0.005362 0.000000 0.000000 0.000000
# 2 -0.006969 0.084828 0.000952 0.000000 0.000000 0.000000
# 3 -0.005362 0.000952 0.008541 0.000000 0.000000 0.000000
# 4 0.000000 0.000000 0.000000 0.011291 0.000000 0.000000
# 5 0.000000 0.000000 0.000000 0.000000 0.011236 0.000000
# 6 0.000000 0.000000 0.000000 0.000000 0.000000 0.061875
#
#
# Mechanical properties :
#
#
# Convention : Reuss Voigt Hill
#
# Bulk Modulus (GPa) = 12.66166 84.58593 48.62380
# Shear Modulus (GPa) = 21.25616 56.98688 39.12152
#
# Velocity S-wave (km/s) = 3.26724 5.34965 4.43247
# Velocity P-wave (km/s) = 4.53782 8.97983 7.11439
#
# Compressibility (1/GPa) = 0.07897857
#
# Stress axis : x y z
#
# Youngs Moduli (GPa) = 119.49057 11.78858 117.07941
#
# Poissons Ratio (x) = 0.08216 0.62780
# Poissons Ratio (y) = 0.83278 -0.11145
# Poissons Ratio (z) = 0.64072 -0.01122
#
# Static dielectric constant tensor:
#      x y z
#    x 1.694200 0.000000 0.000000 
#    y 0.000000 1.712550 0.000000 
#    z 0.000000 0.000000 1.682480 
# 
# From -- ./inp_files/33873.got.cif
#   From: 2010.05.17/outbox.cif.g08.bks.cpg/sg47_17_cif.got.tgz:33873.got - 2010.06.03 20:15:42.
