data_PCOD9385662
_publ_section_title
;
Structure prediction by ZEFSAII (Michael W. Deem and Ramdas Pophale) SiO2 
 PCOD9385662
Probable space group: P M M M
;
_chemical_formula_sum "Si O2"
_cell_formula_units_Z 52
_cell_length_a 17.979627
_cell_length_b 18.242369
_cell_length_c 7.389689
_cell_angle_alpha 90.000000
_cell_angle_beta 90.000000
_cell_angle_gamma 90.000000
_cell_volume 2423.751413
_symmetry_space_group_name_H-M "P M M M"
_symmetry_group_IT_number 47
_symmetry_cell_setting 'orthorhombic'
loop_
_space_group_symop_operation_xyz
x,y,z
-x,-y,z
x,-y,-z
-x,y,-z
-x,-y,-z
x,y,-z
-x,y,z
x,-y,z
loop_
_atom_site_type_symbol
_atom_site_label
_atom_site_fract_x
_atom_site_fract_y
_atom_site_fract_z
Si Si1 0.660485 0.847793 0.720091
Si Si2 0.500000 0.136557 0.706934
Si Si3 0.814643 0.918246 0.717475
Si Si4 0.821681 0.642244 0.778018
Si Si5 0.916224 0.780761 0.214455
Si Si6 0.500000 0.309763 0.778342
Si Si7 0.660265 0.325829 0.210651
Si Si8 0.914467 0.500000 0.779472
O O1 0.658196 0.848102 0.500000
O O2 0.581448 0.881028 0.784509
O O3 0.733873 0.890162 0.780787
O O4 0.666717 0.762790 0.776948
O O5 0.500000 0.109868 0.500000
O O6 0.500000 0.225657 0.711343
O O7 0.810209 0.920865 0.500000
O O8 0.876793 0.858585 0.761364
O O9 0.830864 0.000000 0.783384
O O10 0.862813 0.716290 0.716224
O O11 0.736403 0.641594 0.713486
O O12 0.869912 0.572356 0.723933
O O13 0.819343 0.643423 0.000000
O O14 0.000000 0.778526 0.288028
O O15 0.921744 0.767877 0.000000
O O16 0.421923 0.344119 0.717156
O O17 0.500000 0.306464 0.000000
O O18 0.658513 0.346455 0.000000
O O19 0.000000 0.500000 0.719339
O O20 0.915869 0.500000 0.000000
#
# Coordination Sequence:
#
# PCOD9385662 Si02
#       8
#     8   4   8   8   8   4   8   4
#     4   9  16  28  45  66  91 120 154 190 229 272
#     4   8  14  24  41  64  89 115 148 190 228 265
#     4  10  21  35  49  67  94 126 157 191 234 284
#     4   9  16  27  45  69  96 123 151 187 231 276
#     4  10  20  34  52  72  92 116 153 199 240 278
#     4   8  14  22  36  62  91 119 149 182 222 268
#     4   9  15  25  43  66  92 120 152 188 226 270
#     4   9  16  26  42  67  98 126 151 185 233 283
#
# _framework density 21.454346000000001
#
# number of rings (size 3 to 8) (size 9 to 14) (size 15 to 20)
#    0.000    2.846    1.538    0.462    0.000    2.769 
#    0.000    1.923    0.000    2.769    0.000    5.385 
#    0.000   11.077    0.000   11.308    0.000    7.846 
#
# Total GULP energy -290064.737028 kJ/mol
# GULP energy per Si atom -5578.168020 kJ/mol
# Density = 2.140551 g / cm^3
# Si number density = 21.454346 Si / 1000 Ang^3
#
#
#
# Elastic Constant Matrix: (Units=GPa)
#
#
# Indices 1 2 3 4 5 6 
#
# 1 242.0928 81.3143 6.8230 0.0000 0.0000 0.0000
# 2 81.3143 80.1277 -9.6589 0.0000 0.0000 0.0000
# 3 6.8230 -9.6589 76.3544 0.0000 0.0000 0.0000
# 4 0.0000 0.0000 0.0000 15.3509 0.0000 0.0000
# 5 0.0000 0.0000 0.0000 0.0000 5.1984 0.0000
# 6 0.0000 0.0000 0.0000 0.0000 0.0000 133.2898
#
#
#
# Elastic Compliance Matrix: (Units=1/GPa)
#
#
# Indices 1 2 3 4 5 6 
#
# 1 0.006414 -0.006680 -0.001418 0.000000 0.000000 0.000000
# 2 -0.006680 0.019631 0.003080 0.000000 0.000000 0.000000
# 3 -0.001418 0.003080 0.013613 0.000000 0.000000 0.000000
# 4 0.000000 0.000000 0.000000 0.065143 0.000000 0.000000
# 5 0.000000 0.000000 0.000000 0.000000 0.192366 0.000000
# 6 0.000000 0.000000 0.000000 0.000000 0.000000 0.007502
#
#
# Mechanical properties :
#
#
# Convention : Reuss Voigt Hill
#
# Bulk Modulus (GPa) = 33.75921 61.72575 47.74248
# Shear Modulus (GPa) = 15.40450 52.10759 33.75605
#
# Velocity S-wave (km/s) = 2.68248 4.93360 3.97090
# Velocity P-wave (km/s) = 5.03625 7.82860 6.58221
#
# Compressibility (1/GPa) = 0.02962155
#
# Stress axis : x y z
#
# Youngs Moduli (GPa) = 155.89851 50.94068 73.45804
#
# Poissons Ratio (x) = 0.34030 0.10418
# Poissons Ratio (y) = 1.04146 -0.22627
# Poissons Ratio (z) = 0.22111 -0.15691
#
# Static dielectric constant tensor:
#      x y z
#    x 1.805800 0.000000 0.000000 
#    y 0.000000 1.720060 0.000000 
#    z 0.000000 0.000000 1.680720 
# 
# From -- ./inp_files/9637.got.cif
#   From: 2010.05.17/outbox.cif.g08.bks.cpg/sg47_5_cif.got.tgz:9637.got - 2010.06.03 20:15:42.
