data_PCOD9385905
_publ_section_title
;
Structure prediction by ZEFSAII (Michael W. Deem and Ramdas Pophale) SiO2 
 PCOD9385905
Probable space group: P M M M
;
_chemical_formula_sum "Si O2"
_cell_formula_units_Z 48
_cell_length_a 7.640774
_cell_length_b 8.768485
_cell_length_c 33.221419
_cell_angle_alpha 90.000000
_cell_angle_beta 90.000000
_cell_angle_gamma 90.000000
_cell_volume 2225.769036
_symmetry_space_group_name_H-M "P M M M"
_symmetry_group_IT_number 47
_symmetry_cell_setting 'orthorhombic'
loop_
_space_group_symop_operation_xyz
x,y,z
-x,-y,z
x,-y,-z
-x,y,-z
-x,-y,-z
x,y,-z
-x,y,z
x,-y,z
loop_
_atom_site_type_symbol
_atom_site_label
_atom_site_fract_x
_atom_site_fract_y
_atom_site_fract_z
Si Si1 0.785832 0.325686 0.500000
Si Si2 0.206528 0.177726 0.837237
Si Si3 0.708714 0.000000 0.952188
Si Si4 0.289494 0.329818 0.666108
Si Si5 0.297441 0.674004 0.082281
Si Si6 0.288582 0.174626 0.747810
Si Si7 0.210474 0.829507 0.417898
O O1 0.734043 0.500000 0.500000
O O2 0.725056 0.251451 0.458365
O O3 0.000000 0.318345 0.500000
O O4 0.289980 0.287438 0.870264
O O5 0.234960 0.233425 0.791637
O O6 0.000000 0.173965 0.845180
O O7 0.271535 0.000000 0.840383
O O8 0.777597 0.165471 0.936198
O O9 0.500000 0.000000 0.941983
O O10 0.728855 0.000000 0.000000
O O11 0.500000 0.334019 0.669528
O O12 0.220863 0.500000 0.662815
O O13 0.224330 0.256033 0.707551
O O14 0.250263 0.245708 0.624696
O O15 0.500000 0.668265 0.068768
O O16 0.226303 0.500000 0.074850
O O17 0.500000 0.175789 0.747069
O O18 0.228099 0.000000 0.746195
O O19 0.000000 0.833311 0.421181
O O20 0.279260 0.000000 0.417314
#
# Coordination Sequence:
#
# PCOD9385905 Si02
#       7
#     4   8   4   8   8   8   8
#     4   9  17  31  52  77 104 133 166 206 256 311
#     4  10  20  34  54  80 111 146 183 227 277 326
#     4   9  18  34  57  85 117 149 185 235 285 328
#     4  10  21  36  53  75 105 139 174 215 264 317
#     4  10  20  34  56  84 113 149 190 230 278 335
#     4   9  18  33  53  75 103 142 183 221 264 319
#     4  10  20  34  54  78 103 133 171 214 258 309
#
# _framework density 21.565580000000001
#
# number of rings (size 3 to 8) (size 9 to 14) (size 15 to 20)
#    0.000    2.333    0.833    1.750    0.000    5.667 
#    0.000    5.417    0.000    3.500    0.000    1.167 
#    0.000    0.000    0.000    0.000    0.000    0.000 
#
# Total GULP energy -267735.663412 kJ/mol
# GULP energy per Si atom -5577.826321 kJ/mol
# Density = 2.151650 g / cm^3
# Si number density = 21.565580 Si / 1000 Ang^3
#
#
#
# Elastic Constant Matrix: (Units=GPa)
#
#
# Indices 1 2 3 4 5 6 
#
# 1 43.3627 4.7809 -1.1561 0.0000 0.0000 0.0000
# 2 4.7809 166.1079 84.2755 0.0000 0.0000 0.0000
# 3 -1.1561 84.2755 123.6485 0.0000 0.0000 0.0000
# 4 0.0000 0.0000 0.0000 130.7798 0.0000 0.0000
# 5 0.0000 0.0000 0.0000 0.0000 26.7006 0.0000
# 6 0.0000 0.0000 0.0000 0.0000 0.0000 8.9168
#
#
#
# Elastic Compliance Matrix: (Units=1/GPa)
#
#
# Indices 1 2 3 4 5 6 
#
# 1 0.023220 -0.001190 0.001028 0.000000 0.000000 0.000000
# 2 -0.001190 0.009263 -0.006325 0.000000 0.000000 0.000000
# 3 0.001028 -0.006325 0.012408 0.000000 0.000000 0.000000
# 4 0.000000 0.000000 0.000000 0.007646 0.000000 0.000000
# 5 0.000000 0.000000 0.000000 0.000000 0.037452 0.000000
# 6 0.000000 0.000000 0.000000 0.000000 0.000000 0.112148
#
#
# Mechanical properties :
#
#
# Convention : Reuss Voigt Hill
#
# Bulk Modulus (GPa) = 31.33035 56.54662 43.93848
# Shear Modulus (GPa) = 22.14832 49.62735 35.88783
#
# Velocity S-wave (km/s) = 3.20819 4.80232 4.08380
# Velocity P-wave (km/s) = 5.31816 7.55165 6.53109
#
# Compressibility (1/GPa) = 0.03191793
#
# Stress axis : x y z
#
# Youngs Moduli (GPa) = 43.06653 107.95259 80.59417
#
# Poissons Ratio (x) = 0.12846 -0.08286
# Poissons Ratio (y) = 0.05125 0.50974
# Poissons Ratio (z) = -0.04428 0.68277
#
# Static dielectric constant tensor:
#      x y z
#    x 1.833880 0.000000 0.000000 
#    y 0.000000 1.798020 0.000000 
#    z 0.000000 0.000000 1.951480 
# 
# From -- ./inp_files/34101.got.cif
#   From: 2010.05.17/outbox.cif.g08.bks.cpg/sg47_18_cif.got.tgz:34101.got - 2010.06.03 20:15:42.
