data_PCOD9385747
_publ_section_title
;
Structure prediction by ZEFSAII (Michael W. Deem and Ramdas Pophale) SiO2 
 PCOD9385747
Probable space group: P M M M
;
_chemical_formula_sum "Si O2"
_cell_formula_units_Z 36
_cell_length_a 7.414725
_cell_length_b 24.496472
_cell_length_c 9.330987
_cell_angle_alpha 90.000000
_cell_angle_beta 90.000000
_cell_angle_gamma 90.000000
_cell_volume 1694.830123
_symmetry_space_group_name_H-M "P M M M"
_symmetry_group_IT_number 47
_symmetry_cell_setting 'orthorhombic'
loop_
_space_group_symop_operation_xyz
x,y,z
-x,-y,z
x,-y,-z
-x,y,-z
-x,-y,-z
x,y,-z
-x,y,z
x,-y,z
loop_
_atom_site_type_symbol
_atom_site_label
_atom_site_fract_x
_atom_site_fract_y
_atom_site_fract_z
Si Si1 0.716959 0.941308 0.171926
Si Si2 0.279258 0.285289 0.664770
Si Si3 0.720217 0.177734 0.833122
Si Si4 0.214127 0.500000 0.661948
Si Si5 0.286013 0.609376 0.838458
O O1 0.500000 0.941890 0.191578
O O2 0.780874 0.881936 0.222498
O O3 0.785235 0.000000 0.227274
O O4 0.747986 0.940956 0.000000
O O5 0.222756 0.288258 0.500000
O O6 0.500000 0.285494 0.665561
O O7 0.221912 0.229237 0.740410
O O8 0.216251 0.338024 0.753195
O O9 0.500000 0.177075 0.832101
O O10 0.772990 0.184026 0.000000
O O11 0.288878 0.500000 0.500000
O O12 0.263349 0.554170 0.749000
O O13 0.000000 0.500000 0.651028
O O14 0.500000 0.618010 0.850935
O O15 0.213416 0.604472 0.000000
#
# Coordination Sequence:
#
# PCOD9385747 Si02
#       5
#     8   8   8   4   8
#     4   7   9  13  22  37  57  84 122 167 211 253
#     4   9  16  25  38  57  81 108 138 176 223 269
#     4   8  12  18  29  45  66  93 128 172 217 259
#     4  11  24  39  54  74 100 127 152 179 218 270
#     4  10  20  34  53  75  96 120 154 193 229 266
#
# _framework density 21.241066
#
# number of rings (size 3 to 8) (size 9 to 14) (size 15 to 20)
#    0.000    3.222    0.000    4.000    0.000    6.222 
#    0.000    0.000    0.000    0.667    0.000    4.667 
#    0.000    0.000    0.000    0.000    0.000    1.111 
#
# Total GULP energy -200769.464474 kJ/mol
# GULP energy per Si atom -5576.929569 kJ/mol
# Density = 2.119272 g / cm^3
# Si number density = 21.241066 Si / 1000 Ang^3
#
#
#
# Elastic Constant Matrix: (Units=GPa)
#
#
# Indices 1 2 3 4 5 6 
#
# 1 66.5850 2.8458 6.4634 0.0000 0.0000 0.0000
# 2 2.8458 273.5742 127.0903 0.0000 0.0000 0.0000
# 3 6.4634 127.0903 154.6703 0.0000 0.0000 0.0000
# 4 0.0000 0.0000 0.0000 -10.6451 0.0000 0.0000
# 5 0.0000 0.0000 0.0000 0.0000 -26.6607 0.0000
# 6 0.0000 0.0000 0.0000 0.0000 0.0000 -43.5446
#
#
#
# Elastic Compliance Matrix: (Units=1/GPa)
#
#
# Indices 1 2 3 4 5 6 
#
# 1 0.015088 0.000220 -0.000811 0.000000 0.000000 0.000000
# 2 0.000220 0.005915 -0.004870 0.000000 0.000000 0.000000
# 3 -0.000811 -0.004870 0.010501 0.000000 0.000000 0.000000
# 4 0.000000 0.000000 0.000000 -0.093940 0.000000 0.000000
# 5 0.000000 0.000000 0.000000 0.000000 -0.037508 0.000000
# 6 0.000000 0.000000 0.000000 0.000000 0.000000 -0.022965
#
#
# Mechanical properties :
#
#
# Convention : Reuss Voigt Hill
#
# Bulk Modulus (GPa) = 48.58684 85.29205 66.93944
# Shear Modulus (GPa) = -47.56125 7.72526 -19.91799
#
# Velocity S-wave (km/s) = -4.73707 1.90915 -3.06553
# Velocity P-wave (km/s) = 2.64500 6.71575 4.36493
#
# Compressibility (1/GPa) = 0.02058171
#
# Stress axis : x y z
#
# Youngs Moduli (GPa) = 66.27895 169.05424 95.23267
#
# Poissons Ratio (x) = -0.03717 0.07725
# Poissons Ratio (y) = -0.01457 0.46375
# Poissons Ratio (z) = 0.05376 0.82324
#
# Static dielectric constant tensor:
#      x y z
#    x 1.815240 0.000000 0.000000 
#    y 0.000000 1.786750 0.000000 
#    z 0.000000 0.000000 1.725080 
# 
# From -- ./inp_files/1367.got.cif
#   From: 2010.05.17/outbox.cif.g08.bks.cpg/sg47_1_cif.got.tgz:1367.got - 2010.06.03 20:15:42.
