data_PCOD9385050
_publ_section_title
;
Structure prediction by ZEFSAII (Michael W. Deem and Ramdas Pophale) SiO2 
 PCOD9385050
Probable space group: P M M M
;
_chemical_formula_sum "Si O2"
_cell_formula_units_Z 52
_cell_length_a 8.519480
_cell_length_b 21.265431
_cell_length_c 16.839736
_cell_angle_alpha 90.000000
_cell_angle_beta 90.000000
_cell_angle_gamma 90.000000
_cell_volume 3050.861944
_symmetry_space_group_name_H-M "P M M M"
_symmetry_group_IT_number 47
_symmetry_cell_setting 'orthorhombic'
loop_
_space_group_symop_operation_xyz
x,y,z
-x,-y,z
x,-y,-z
-x,y,-z
-x,-y,-z
x,y,-z
-x,y,z
x,-y,z
loop_
_atom_site_type_symbol
_atom_site_label
_atom_site_fract_x
_atom_site_fract_y
_atom_site_fract_z
Si Si1 0.309884 0.802791 0.590486
Si Si2 0.690571 0.500000 0.907704
Si Si3 0.683702 0.855678 0.000000
Si Si4 0.312442 0.363084 0.854954
Si Si5 0.812508 0.866284 0.828736
Si Si6 0.187399 0.736283 0.743630
Si Si7 0.183636 0.717136 0.000000
Si Si8 0.689123 0.930392 0.673847
O O1 0.263771 0.790059 0.500000
O O2 0.500000 0.799909 0.595499
O O3 0.238667 0.756294 0.655698
O O4 0.260296 0.873262 0.617027
O O5 0.500000 0.500000 0.910191
O O6 0.736986 0.564320 0.864144
O O7 0.743841 0.500000 0.000000
O O8 0.756489 0.879768 0.917612
O O9 0.500000 0.867915 0.000000
O O10 0.718179 0.780987 0.000000
O O11 0.500000 0.359627 0.867508
O O12 0.267471 0.326973 0.774829
O O13 0.226645 0.324151 0.923923
O O14 0.765056 0.795470 0.800452
O O15 0.743131 0.912355 0.762392
O O16 0.000000 0.868772 0.825647
O O17 0.000000 0.730224 0.748588
O O18 0.000000 0.734135 0.000000
O O19 0.500000 0.930944 0.672350
O O20 0.745391 0.000000 0.651588
#
# Coordination Sequence:
#
# PCOD9385050 Si02
#       8
#     8   4   4   8   8   8   4   8
#     4   9  18  33  54  80 106 131 164 204 250 307
#     4   9  18  32  48  72 103 138 181 220 254 291
#     4  12  22  32  50  72  94 128 172 217 261 302
#     4  11  20  33  52  72 100 140 180 215 252 298
#     4  10  20  33  49  70  99 129 165 213 257 300
#     4  10  20  33  50  73 103 133 166 210 257 307
#     4  12  22  31  45  71 104 134 171 214 257 301
#     4   9  18  33  52  74 102 134 167 202 245 301
#
# _framework density 17.044364999999999
#
# number of rings (size 3 to 8) (size 9 to 14) (size 15 to 20)
#    0.000    1.923    2.308    2.769    0.000    2.154 
#    0.000    3.846    0.000    2.308    0.000    4.846 
#    0.000    4.308    0.000    0.000    0.000    0.000 
#
# Total GULP energy -290212.608303 kJ/mol
# GULP energy per Si atom -5581.011698 kJ/mol
# Density = 1.700557 g / cm^3
# Si number density = 17.044365 Si / 1000 Ang^3
#
#
#
# Elastic Constant Matrix: (Units=GPa)
#
#
# Indices 1 2 3 4 5 6 
#
# 1 13.0290 5.0572 5.5242 0.0000 0.0000 0.0000
# 2 5.0572 77.5615 27.5702 0.0000 0.0000 0.0000
# 3 5.5242 27.5702 103.0903 0.0000 0.0000 0.0000
# 4 0.0000 0.0000 0.0000 12.7971 0.0000 0.0000
# 5 0.0000 0.0000 0.0000 0.0000 9.5139 0.0000
# 6 0.0000 0.0000 0.0000 0.0000 0.0000 9.4973
#
#
#
# Elastic Compliance Matrix: (Units=1/GPa)
#
#
# Indices 1 2 3 4 5 6 
#
# 1 0.079679 -0.004064 -0.003183 0.000000 0.000000 0.000000
# 2 -0.004064 0.014455 -0.003648 0.000000 0.000000 0.000000
# 3 -0.003183 -0.003648 0.010846 0.000000 0.000000 0.000000
# 4 0.000000 0.000000 0.000000 0.078143 0.000000 0.000000
# 5 0.000000 0.000000 0.000000 0.000000 0.105109 0.000000
# 6 0.000000 0.000000 0.000000 0.000000 0.000000 0.105293
#
#
# Mechanical properties :
#
#
# Convention : Reuss Voigt Hill
#
# Bulk Modulus (GPa) = 12.02060 29.99824 21.00942
# Shear Modulus (GPa) = 11.28555 16.73027 14.00791
#
# Velocity S-wave (km/s) = 2.57598 3.13640 2.86990
# Velocity P-wave (km/s) = 3.98941 5.54566 4.83062
#
# Compressibility (1/GPa) = 0.08319049
#
# Stress axis : x y z
#
# Youngs Moduli (GPa) = 12.55038 69.18169 92.19656
#
# Poissons Ratio (x) = 0.28115 0.29345
# Poissons Ratio (y) = 0.05100 0.33633
# Poissons Ratio (z) = 0.03995 0.25237
#
# Static dielectric constant tensor:
#      x y z
#    x 1.574410 0.000000 0.000000 
#    y 0.000000 1.582710 0.000000 
#    z 0.000000 0.000000 1.571690 
# 
# From -- ./inp_files/11125.got.cif
#   From: 2010.05.17/outbox.cif.g08.bks.cpg/sg47_6_cif.got.tgz:11125.got - 2010.06.03 20:15:42.
