data_PCOD9385061
_publ_section_title
;
Structure prediction by ZEFSAII (Michael W. Deem and Ramdas Pophale) SiO2 
 PCOD9385061
Probable space group: P M M M
;
_chemical_formula_sum "Si O2"
_cell_formula_units_Z 48
_cell_length_a 7.508577
_cell_length_b 31.865705
_cell_length_c 9.278802
_cell_angle_alpha 90.000000
_cell_angle_beta 90.000000
_cell_angle_gamma 90.000000
_cell_volume 2220.102764
_symmetry_space_group_name_H-M "P M M M"
_symmetry_group_IT_number 47
_symmetry_cell_setting 'orthorhombic'
loop_
_space_group_symop_operation_xyz
x,y,z
-x,-y,z
x,-y,-z
-x,y,-z
-x,-y,-z
x,y,-z
-x,y,z
x,-y,z
loop_
_atom_site_type_symbol
_atom_site_label
_atom_site_fract_x
_atom_site_fract_y
_atom_site_fract_z
Si Si1 0.282487 0.000000 0.833807
Si Si2 0.781748 0.666416 0.833774
Si Si3 0.717882 0.083739 0.333718
Si Si4 0.286566 0.833897 0.836231
Si Si5 0.211948 0.415494 0.663015
Si Si6 0.711785 0.500000 0.163160
Si Si7 0.213458 0.748909 0.336263
O O1 0.226367 0.041871 0.750172
O O2 0.500000 0.000000 0.834342
O O3 0.225248 0.000000 0.000000
O O4 0.720393 0.624611 0.751445
O O5 0.722232 0.708063 0.749923
O O6 0.000000 0.666357 0.834194
O O7 0.725493 0.666665 0.000000
O O8 0.774437 0.083552 0.500000
O O9 0.500000 0.083934 0.333981
O O10 0.778555 0.125461 0.250796
O O11 0.500000 0.838211 0.844787
O O12 0.250424 0.791326 0.750310
O O13 0.217910 0.832115 0.000000
O O14 0.283368 0.418038 0.500000
O O15 0.237964 0.458371 0.749775
O O16 0.000000 0.409390 0.651383
O O17 0.500000 0.500000 0.152897
O O18 0.785173 0.500000 0.000000
O O19 0.282140 0.750810 0.500000
O O20 0.000000 0.744808 0.344754
#
# Coordination Sequence:
#
# PCOD9385061 Si02
#       7
#     4   8   8   8   8   4   8
#     4   9  15  23  37  59  88 121 158 201 248 297
#     4   9  17  31  53  79 105 133 166 207 253 297
#     4   9  16  26  41  62  90 124 161 202 249 299
#     4  10  20  33  49  71 100 133 168 207 252 301
#     4  10  20  35  57  83 107 133 169 211 253 299
#     4  11  24  39  54  76 108 143 176 211 252 298
#     4  10  20  34  53  77 104 134 169 209 252 299
#
# _framework density 21.620622000000001
#
# number of rings (size 3 to 8) (size 9 to 14) (size 15 to 20)
#    0.000    2.333    0.000    3.250    0.000    9.667 
#    0.000    0.833    0.000    5.000    0.000    0.583 
#    0.000    4.667    0.000    0.000    0.000    0.000 
#
# Total GULP energy -268317.850891 kJ/mol
# GULP energy per Si atom -5589.955227 kJ/mol
# Density = 2.157141 g / cm^3
# Si number density = 21.620622 Si / 1000 Ang^3
#
#
#
# Elastic Constant Matrix: (Units=GPa)
#
#
# Indices 1 2 3 4 5 6 
#
# 1 57.2128 -1.7806 7.7548 0.0000 0.0000 0.0000
# 2 -1.7806 263.3557 171.6488 0.0000 0.0000 0.0000
# 3 7.7548 171.6488 283.9655 0.0000 0.0000 0.0000
# 4 0.0000 0.0000 0.0000 48.6354 0.0000 0.0000
# 5 0.0000 0.0000 0.0000 0.0000 5.0346 0.0000
# 6 0.0000 0.0000 0.0000 0.0000 0.0000 15.2838
#
#
#
# Elastic Compliance Matrix: (Units=1/GPa)
#
#
# Indices 1 2 3 4 5 6 
#
# 1 0.017625 0.000714 -0.000913 0.000000 0.000000 0.000000
# 2 0.000714 0.006295 -0.003824 0.000000 0.000000 0.000000
# 3 -0.000913 -0.003824 0.005858 0.000000 0.000000 0.000000
# 4 0.000000 0.000000 0.000000 0.020561 0.000000 0.000000
# 5 0.000000 0.000000 0.000000 0.000000 0.198624 0.000000
# 6 0.000000 0.000000 0.000000 0.000000 0.000000 0.065429
#
#
# Mechanical properties :
#
#
# Convention : Reuss Voigt Hill
#
# Bulk Modulus (GPa) = 46.01715 106.64223 76.32969
# Shear Modulus (GPa) = 15.16615 42.25150 28.70882
#
# Velocity S-wave (km/s) = 2.65140 4.42545 3.64791
# Velocity P-wave (km/s) = 5.54106 8.69162 7.28861
#
# Compressibility (1/GPa) = 0.02173103
#
# Stress axis : x y z
#
# Youngs Moduli (GPa) = 56.73892 158.86511 170.69944
#
# Poissons Ratio (x) = -0.11347 0.15586
# Poissons Ratio (y) = -0.04053 0.65283
# Poissons Ratio (z) = 0.05181 0.60757
#
# Static dielectric constant tensor:
#      x y z
#    x 1.866140 0.000000 0.000000 
#    y 0.000000 1.729160 0.000000 
#    z 0.000000 0.000000 1.758740 
# 
# From -- ./inp_files/2597.got.cif
#   From: 2010.05.17/outbox.cif.g08.bks.cpg/sg47_2_cif.got.tgz:2597.got - 2010.06.03 20:15:42.
