data_PCOD9385383
_publ_section_title
;
Structure prediction by ZEFSAII (Michael W. Deem and Ramdas Pophale) SiO2 
 PCOD9385383
Probable space group: P M M M
;
_chemical_formula_sum "Si O2"
_cell_formula_units_Z 64
_cell_length_a 26.124685
_cell_length_b 7.750105
_cell_length_c 15.091784
_cell_angle_alpha 90.000000
_cell_angle_beta 90.000000
_cell_angle_gamma 90.000000
_cell_volume 3055.619197
_symmetry_space_group_name_H-M "P M M M"
_symmetry_group_IT_number 47
_symmetry_cell_setting 'orthorhombic'
loop_
_space_group_symop_operation_xyz
x,y,z
-x,-y,z
x,-y,-z
-x,y,-z
-x,-y,-z
x,y,-z
-x,y,z
x,-y,z
loop_
_atom_site_type_symbol
_atom_site_label
_atom_site_fract_x
_atom_site_fract_y
_atom_site_fract_z
Si Si1 0.749869 0.210968 0.224421
Si Si2 0.194672 0.208003 0.403823
Si Si3 0.843313 0.788613 0.102799
Si Si4 0.944781 0.202757 0.795297
Si Si5 0.557507 0.291540 0.897147
Si Si6 0.636482 0.197566 0.249260
Si Si7 0.557151 0.706163 0.399862
Si Si8 0.923330 0.299719 0.597363
O O1 0.772673 0.259903 0.319852
O O2 0.790721 0.268525 0.150413
O O3 0.691563 0.275876 0.223915
O O4 0.749530 0.000000 0.218059
O O5 0.217508 0.251136 0.500000
O O6 0.138165 0.285622 0.399688
O O7 0.188413 0.000000 0.399603
O O8 0.893322 0.728336 0.158133
O O9 0.843340 0.000000 0.105554
O O10 0.845995 0.737634 0.000000
O O11 0.941404 0.217023 0.688695
O O12 0.000000 0.277767 0.823069
O O13 0.945634 0.000000 0.817358
O O14 0.500000 0.239450 0.870696
O O15 0.559980 0.500000 0.889547
O O16 0.599865 0.212984 0.835031
O O17 0.564597 0.247096 0.000000
O O18 0.602692 0.261265 0.331590
O O19 0.647380 0.000000 0.270814
O O20 0.566916 0.771197 0.500000
O O21 0.500000 0.769172 0.371748
O O22 0.553346 0.500000 0.404919
O O23 0.938717 0.228809 0.500000
O O24 0.938280 0.500000 0.599660
#
# Coordination Sequence:
#
# PCOD9385383 Si02
#       8
#     8   8   8   8   8   8   8   8
#     4   9  18  32  49  75 108 141 174 207 258 321
#     4   9  16  30  54  76  97 132 176 216 250 294
#     4   9  17  32  55  79 104 135 172 217 266 312
#     4  10  20  34  55  82 107 134 175 222 263 310
#     4   9  19  37  58  76  99 138 183 221 263 320
#     4  11  22  32  50  83 115 140 173 221 274 324
#     4   9  19  37  58  77 103 146 193 228 264 317
#     4  10  20  33  51  77 108 140 171 206 256 312
#
# _framework density 20.945017
#
# number of rings (size 3 to 8) (size 9 to 14) (size 15 to 20)
#    0.000    2.500    1.250    1.875    0.000    5.000 
#    0.000    7.500    0.000    1.875    0.000    0.875 
#    0.000    0.000    0.000    0.000    0.000    0.000 
#
# Total GULP energy -356969.399310 kJ/mol
# GULP energy per Si atom -5577.646864 kJ/mol
# Density = 2.089735 g / cm^3
# Si number density = 20.945017 Si / 1000 Ang^3
#
#
#
# Elastic Constant Matrix: (Units=GPa)
#
#
# Indices 1 2 3 4 5 6 
#
# 1 189.2776 7.6157 98.2373 0.0000 0.0000 0.0000
# 2 7.6157 24.8600 4.7607 0.0000 0.0000 0.0000
# 3 98.2373 4.7607 127.9587 0.0000 0.0000 0.0000
# 4 0.0000 0.0000 0.0000 12.5942 0.0000 0.0000
# 5 0.0000 0.0000 0.0000 0.0000 -16.0019 0.0000
# 6 0.0000 0.0000 0.0000 0.0000 0.0000 32.1596
#
#
#
# Elastic Compliance Matrix: (Units=1/GPa)
#
#
# Indices 1 2 3 4 5 6 
#
# 1 0.008832 -0.001417 -0.006728 0.000000 0.000000 0.000000
# 2 -0.001417 0.040741 -0.000428 0.000000 0.000000 0.000000
# 3 -0.006728 -0.000428 0.012996 0.000000 0.000000 0.000000
# 4 0.000000 0.000000 0.000000 0.079402 0.000000 0.000000
# 5 0.000000 0.000000 0.000000 0.000000 -0.062492 0.000000
# 6 0.000000 0.000000 0.000000 0.000000 0.000000 0.031095
#
#
# Mechanical properties :
#
#
# Convention : Reuss Voigt Hill
#
# Bulk Modulus (GPa) = 22.01490 62.59152 42.30321
# Shear Modulus (GPa) = 34.99903 21.18254 28.09078
#
# Velocity S-wave (km/s) = 4.09222 3.18361 3.66617
# Velocity P-wave (km/s) = 5.73253 6.59260 6.17755
#
# Compressibility (1/GPa) = 0.04542378
#
# Stress axis : x y z
#
# Youngs Moduli (GPa) = 113.22257 24.54512 76.94576
#
# Poissons Ratio (x) = 0.03479 0.51769
# Poissons Ratio (y) = 0.16047 0.03291
# Poissons Ratio (z) = 0.76176 0.01050
#
# Static dielectric constant tensor:
#      x y z
#    x 1.767430 0.000000 0.000000 
#    y 0.000000 1.793080 0.000000 
#    z 0.000000 0.000000 1.733830 
# 
# From -- ./inp_files/25548.got.cif
#   From: 2010.05.17/outbox.cif.g08.bks.cpg/sg47_13_cif.got.tgz:25548.got - 2010.06.03 20:15:42.
