data_PCOD9385219
_publ_section_title
;
Structure prediction by ZEFSAII (Michael W. Deem and Ramdas Pophale) SiO2 
 PCOD9385219
Probable space group: P M M M
;
_chemical_formula_sum "Si O2"
_cell_formula_units_Z 40
_cell_length_a 28.256083
_cell_length_b 9.479161
_cell_length_c 7.877086
_cell_angle_alpha 90.000000
_cell_angle_beta 90.000000
_cell_angle_gamma 90.000000
_cell_volume 2109.829907
_symmetry_space_group_name_H-M "P M M M"
_symmetry_group_IT_number 47
_symmetry_cell_setting 'orthorhombic'
loop_
_space_group_symop_operation_xyz
x,y,z
-x,-y,z
x,-y,-z
-x,y,-z
-x,-y,-z
x,y,-z
-x,y,z
x,-y,z
loop_
_atom_site_type_symbol
_atom_site_label
_atom_site_fract_x
_atom_site_fract_y
_atom_site_fract_z
Si Si1 0.000000 0.337583 0.791850
Si Si2 0.379656 0.831483 0.190028
Si Si3 0.287752 0.333629 0.295648
Si Si4 0.554140 0.828102 0.500000
Si Si5 0.909450 0.159878 0.203591
Si Si6 0.181489 0.338668 0.704896
O O1 0.046823 0.254761 0.734411
O O2 0.000000 0.500000 0.736758
O O3 0.000000 0.338439 0.000000
O O4 0.329510 0.755993 0.215528
O O5 0.416408 0.784344 0.334091
O O6 0.373019 0.000000 0.209081
O O7 0.397534 0.804425 0.000000
O O8 0.290277 0.315546 0.500000
O O9 0.293996 0.500000 0.260105
O O10 0.234399 0.295585 0.239572
O O11 0.500000 0.778909 0.500000
O O12 0.552919 0.000000 0.500000
O O13 0.859997 0.235550 0.240939
O O14 0.911048 0.000000 0.270183
O O15 0.914414 0.152386 0.000000
O O16 0.182518 0.342161 0.500000
O O17 0.172501 0.500000 0.763398
#
# Coordination Sequence:
#
# PCOD9385219 Si02
#       6
#     4   8   8   4   8   8
#     4   9  17  31  52  73  94 129 174 216 262 315
#     4  10  20  33  53  82 111 141 182 228 273 326
#     4   9  18  34  55  76 102 140 180 218 266 323
#     4   9  18  34  55  79 111 149 185 226 277 324
#     4  10  20  33  50  74 103 132 166 212 264 317
#     4   9  19  35  53  74 101 134 173 213 255 309
#
# _framework density 18.958874000000002
#
# number of rings (size 3 to 8) (size 9 to 14) (size 15 to 20)
#    0.000    2.600    1.000    2.100    0.000    5.200 
#    0.000    8.500    0.000    4.200    0.000    1.400 
#    0.000    0.000    0.000    0.000    0.000    0.000 
#
# Total GULP energy -223205.001990 kJ/mol
# GULP energy per Si atom -5580.125050 kJ/mol
# Density = 1.891572 g / cm^3
# Si number density = 18.958874 Si / 1000 Ang^3
#
#
#
# Elastic Constant Matrix: (Units=GPa)
#
#
# Indices 1 2 3 4 5 6 
#
# 1 172.2531 80.4923 54.6135 0.0000 0.0000 0.0000
# 2 80.4923 83.9857 37.2601 0.0000 0.0000 0.0000
# 3 54.6135 37.2601 64.2222 0.0000 0.0000 0.0000
# 4 0.0000 0.0000 0.0000 19.2133 0.0000 0.0000
# 5 0.0000 0.0000 0.0000 0.0000 29.6000 0.0000
# 6 0.0000 0.0000 0.0000 0.0000 0.0000 35.9356
#
#
#
# Elastic Compliance Matrix: (Units=1/GPa)
#
#
# Indices 1 2 3 4 5 6 
#
# 1 0.011413 -0.008932 -0.004524 0.000000 0.000000 0.000000
# 2 -0.008932 0.023023 -0.005762 0.000000 0.000000 0.000000
# 3 -0.004524 -0.005762 0.022761 0.000000 0.000000 0.000000
# 4 0.000000 0.000000 0.000000 0.052047 0.000000 0.000000
# 5 0.000000 0.000000 0.000000 0.000000 0.033784 0.000000
# 6 0.000000 0.000000 0.000000 0.000000 0.000000 0.027828
#
#
# Mechanical properties :
#
#
# Convention : Reuss Voigt Hill
#
# Bulk Modulus (GPa) = 53.29829 73.91030 63.60430
# Shear Modulus (GPa) = 23.19694 26.82281 25.00987
#
# Velocity S-wave (km/s) = 3.50171 3.76545 3.63597
# Velocity P-wave (km/s) = 6.67255 7.61406 7.15880
#
# Compressibility (1/GPa) = 0.01876233
#
# Stress axis : x y z
#
# Youngs Moduli (GPa) = 87.61643 43.43428 43.93474
#
# Poissons Ratio (x) = 0.38794 0.19875
# Poissons Ratio (y) = 0.78256 0.25316
# Poissons Ratio (z) = 0.39636 0.25028
#
# Static dielectric constant tensor:
#      x y z
#    x 1.629380 0.000000 0.000000 
#    y 0.000000 1.639200 0.000000 
#    z 0.000000 0.000000 1.693570 
# 
# From -- ./inp_files/13023.got.cif
#   From: 2010.05.17/outbox.cif.g08.bks.cpg/sg47_7_cif.got.tgz:13023.got - 2010.06.03 20:15:42.
