data_PCOD9385743
_publ_section_title
;
Structure prediction by ZEFSAII (Michael W. Deem and Ramdas Pophale) SiO2 
 PCOD9385743
Probable space group: P M M M
;
_chemical_formula_sum "Si O2"
_cell_formula_units_Z 52
_cell_length_a 20.081759
_cell_length_b 8.059178
_cell_length_c 16.270913
_cell_angle_alpha 90.000000
_cell_angle_beta 90.000000
_cell_angle_gamma 90.000000
_cell_volume 2633.324755
_symmetry_space_group_name_H-M "P M M M"
_symmetry_group_IT_number 47
_symmetry_cell_setting 'orthorhombic'
loop_
_space_group_symop_operation_xyz
x,y,z
-x,-y,z
x,-y,-z
-x,y,-z
-x,-y,-z
x,y,-z
-x,y,z
x,-y,z
loop_
_atom_site_type_symbol
_atom_site_label
_atom_site_fract_x
_atom_site_fract_y
_atom_site_fract_z
Si Si1 0.282293 0.196057 0.911243
Si Si2 0.081007 0.189105 0.000000
Si Si3 0.574380 0.693731 0.133810
Si Si4 0.924339 0.203359 0.820074
Si Si5 0.425982 0.195611 0.680598
Si Si6 0.209675 0.200414 0.253563
Si Si7 0.294990 0.302249 0.408764
O O1 0.361773 0.218521 0.904075
O O2 0.249158 0.262880 0.827669
O O3 0.267445 0.000000 0.912127
O O4 0.259909 0.265201 0.000000
O O5 0.097331 0.262756 0.911407
O O6 0.000000 0.179960 0.000000
O O7 0.107310 0.000000 0.000000
O O8 0.500000 0.757079 0.112540
O O9 0.577160 0.500000 0.111616
O O10 0.581277 0.711541 0.232551
O O11 0.867170 0.251297 0.756900
O O12 0.000000 0.256850 0.802981
O O13 0.925686 0.000000 0.824345
O O14 0.500000 0.231270 0.647766
O O15 0.367288 0.239237 0.619308
O O16 0.421935 0.000000 0.700014
O O17 0.243982 0.254335 0.337221
O O18 0.212643 0.000000 0.251873
O O19 0.277958 0.239179 0.500000
O O20 0.297744 0.500000 0.411530
#
# Coordination Sequence:
#
# PCOD9385743 Si02
#       7
#     8   4   8   8   8   8   8
#     4  10  21  34  49  75 110 146 185 227 271 318
#     4   7  10  18  36  68 109 145 172 203 248 303
#     4  10  20  34  53  75 102 140 185 230 272 314
#     4   8  14  25  45  76 111 143 176 215 260 311
#     4  10  20  35  57  83 109 137 171 215 269 326
#     4  10  20  34  55  81 110 144 179 220 269 320
#     4  11  24  40  58  80 107 140 178 222 271 322
#
# _framework density 19.746898999999999
#
# number of rings (size 3 to 8) (size 9 to 14) (size 15 to 20)
#    0.000    2.385    1.538    2.308    1.077    4.000 
#    0.000    3.077    0.000    0.923    0.000    3.231 
#    0.000    1.846    0.000    0.000    0.000    0.000 
#
# Total GULP energy -290149.047236 kJ/mol
# GULP energy per Si atom -5579.789370 kJ/mol
# Density = 1.970195 g / cm^3
# Si number density = 19.746899 Si / 1000 Ang^3
#
#
#
# Elastic Constant Matrix: (Units=GPa)
#
#
# Indices 1 2 3 4 5 6 
#
# 1 121.1949 9.4150 70.8459 0.0000 0.0000 0.0000
# 2 9.4150 20.5613 10.7549 0.0000 0.0000 0.0000
# 3 70.8459 10.7549 132.6753 0.0000 0.0000 0.0000
# 4 0.0000 0.0000 0.0000 26.7540 0.0000 0.0000
# 5 0.0000 0.0000 0.0000 0.0000 14.8939 0.0000
# 6 0.0000 0.0000 0.0000 0.0000 0.0000 -12.0974
#
#
#
# Elastic Compliance Matrix: (Units=1/GPa)
#
#
# Indices 1 2 3 4 5 6 
#
# 1 0.012095 -0.002256 -0.006276 0.000000 0.000000 0.000000
# 2 -0.002256 0.051209 -0.002947 0.000000 0.000000 0.000000
# 3 -0.006276 -0.002947 0.011127 0.000000 0.000000 0.000000
# 4 0.000000 0.000000 0.000000 0.037378 0.000000 0.000000
# 5 0.000000 0.000000 0.000000 0.000000 0.067142 0.000000
# 6 0.000000 0.000000 0.000000 0.000000 0.000000 -0.082663
#
#
# Mechanical properties :
#
#
# Convention : Reuss Voigt Hill
#
# Bulk Modulus (GPa) = 19.42674 50.71812 35.07243
# Shear Modulus (GPa) = 36.65633 18.13782 27.39707
#
# Velocity S-wave (km/s) = 4.31316 3.03399 3.72884
# Velocity P-wave (km/s) = 5.88759 6.16549 6.02814
#
# Compressibility (1/GPa) = 0.05147543
#
# Stress axis : x y z
#
# Youngs Moduli (GPa) = 82.67983 19.52772 89.87087
#
# Poissons Ratio (x) = 0.04405 0.56399
# Poissons Ratio (y) = 0.18650 0.26482
# Poissons Ratio (z) = 0.51886 0.05754
#
# Static dielectric constant tensor:
#      x y z
#    x 1.714180 0.000000 0.000000 
#    y 0.000000 1.706450 0.000000 
#    z 0.000000 0.000000 1.704140 
# 
# From -- ./inp_files/25049.got.cif
#   From: 2010.05.17/outbox.cif.g08.bks.cpg/sg47_13_cif.got.tgz:25049.got - 2010.06.03 20:15:42.
