data_PCOD9385469
_publ_section_title
;
Structure prediction by ZEFSAII (Michael W. Deem and Ramdas Pophale) SiO2 
 PCOD9385469
Probable space group: P M M M
;
_chemical_formula_sum "Si O2"
_cell_formula_units_Z 48
_cell_length_a 32.101432
_cell_length_b 7.930886
_cell_length_c 9.539141
_cell_angle_alpha 90.000000
_cell_angle_beta 90.000000
_cell_angle_gamma 90.000000
_cell_volume 2428.596594
_symmetry_space_group_name_H-M "P M M M"
_symmetry_group_IT_number 47
_symmetry_cell_setting 'orthorhombic'
loop_
_space_group_symop_operation_xyz
x,y,z
-x,-y,z
x,-y,-z
-x,y,-z
-x,-y,-z
x,y,-z
-x,y,z
x,-y,z
loop_
_atom_site_type_symbol
_atom_site_label
_atom_site_fract_x
_atom_site_fract_y
_atom_site_fract_z
Si Si1 0.750772 0.796299 0.659914
Si Si2 0.500000 0.299746 0.656574
Si Si3 0.578774 0.797033 0.159300
Si Si4 0.672150 0.205777 0.837915
Si Si5 0.909911 0.702175 0.338870
Si Si6 0.831440 0.296466 0.839938
Si Si7 0.000000 0.799017 0.339072
O O1 0.754446 0.734901 0.500000
O O2 0.708652 0.735320 0.736017
O O3 0.790508 0.748693 0.752439
O O4 0.748816 0.000000 0.655485
O O5 0.500000 0.500000 0.646877
O O6 0.500000 0.226400 0.500000
O O7 0.541439 0.250438 0.739912
O O8 0.625281 0.739687 0.201362
O O9 0.580204 0.000000 0.154403
O O10 0.570815 0.737105 0.000000
O O11 0.672507 0.000000 0.835413
O O12 0.679828 0.255000 0.000000
O O13 0.907125 0.767493 0.500000
O O14 0.906329 0.500000 0.346349
O O15 0.872304 0.765957 0.243032
O O16 0.955755 0.742074 0.279102
O O17 0.833998 0.500000 0.845342
O O18 0.829376 0.234096 0.000000
O O19 0.000000 0.732073 0.500000
O O20 0.000000 0.000000 0.342759
#
# Coordination Sequence:
#
# PCOD9385469 Si02
#       7
#     8   4   8   8   8   8   4
#     4  10  20  33  52  79 107 135 168 206 251 303
#     4  11  24  37  48  70 106 141 172 209 254 302
#     4   9  18  34  57  81 101 127 169 214 253 301
#     4   8  15  30  52  77 104 132 164 206 253 300
#     4   9  17  31  51  72  96 129 167 205 248 298
#     4  10  21  36  53  74 101 135 175 215 254 298
#     4   9  17  29  48  75 102 126 158 203 250 297
#
# _framework density 19.764502
#
# number of rings (size 3 to 8) (size 9 to 14) (size 15 to 20)
#    0.000    2.667    0.000    2.750    0.000    6.333 
#    0.000    4.583    0.000    3.500    0.000    0.000 
#    0.000    0.000    0.000    0.000    0.000    0.000 
#
# Total GULP energy -267784.481901 kJ/mol
# GULP energy per Si atom -5578.843373 kJ/mol
# Density = 1.971952 g / cm^3
# Si number density = 19.764502 Si / 1000 Ang^3
#
#
#
# Elastic Constant Matrix: (Units=GPa)
#
#
# Indices 1 2 3 4 5 6 
#
# 1 221.1853 7.9629 134.7759 0.0000 0.0000 0.0000
# 2 7.9629 16.0209 10.0731 0.0000 0.0000 0.0000
# 3 134.7759 10.0731 151.4530 0.0000 0.0000 0.0000
# 4 0.0000 0.0000 0.0000 44.5175 0.0000 0.0000
# 5 0.0000 0.0000 0.0000 0.0000 36.8444 0.0000
# 6 0.0000 0.0000 0.0000 0.0000 0.0000 30.5015
#
#
#
# Elastic Compliance Matrix: (Units=1/GPa)
#
#
# Indices 1 2 3 4 5 6 
#
# 1 0.009883 0.000644 -0.008838 0.000000 0.000000 0.000000
# 2 0.000644 0.065185 -0.004909 0.000000 0.000000 0.000000
# 3 -0.008838 -0.004909 0.014794 0.000000 0.000000 0.000000
# 4 0.000000 0.000000 0.000000 0.022463 0.000000 0.000000
# 5 0.000000 0.000000 0.000000 0.000000 0.027141 0.000000
# 6 0.000000 0.000000 0.000000 0.000000 0.000000 0.032785
#
#
# Mechanical properties :
#
#
# Convention : Reuss Voigt Hill
#
# Bulk Modulus (GPa) = 15.70915 77.14257 46.42586
# Shear Modulus (GPa) = 22.76103 38.09583 30.42843
#
# Velocity S-wave (km/s) = 3.39722 4.39508 3.92797
# Velocity P-wave (km/s) = 4.83255 8.05427 6.64172
#
# Compressibility (1/GPa) = 0.06365717
#
# Stress axis : x y z
#
# Youngs Moduli (GPa) = 101.18478 15.34103 67.59679
#
# Poissons Ratio (x) = -0.00989 0.59739
# Poissons Ratio (y) = -0.06521 0.33183
# Poissons Ratio (z) = 0.89422 0.07531
#
# Static dielectric constant tensor:
#      x y z
#    x 1.687520 0.000000 0.000000 
#    y 0.000000 1.720560 0.000000 
#    z 0.000000 0.000000 1.693920 
# 
# From -- ./inp_files/13900.got.cif
#   From: 2010.05.17/outbox.cif.g08.bks.cpg/sg47_7_cif.got.tgz:13900.got - 2010.06.03 20:15:42.
