data_PCOD9385539
_publ_section_title
;
Structure prediction by ZEFSAII (Michael W. Deem and Ramdas Pophale) SiO2 
 PCOD9385539
Probable space group: P M M M
;
_chemical_formula_sum "Si O2"
_cell_formula_units_Z 64
_cell_length_a 14.558398
_cell_length_b 9.824932
_cell_length_c 23.624950
_cell_angle_alpha 90.000000
_cell_angle_beta 90.000000
_cell_angle_gamma 90.000000
_cell_volume 3379.201111
_symmetry_space_group_name_H-M "P M M M"
_symmetry_group_IT_number 47
_symmetry_cell_setting 'orthorhombic'
loop_
_space_group_symop_operation_xyz
x,y,z
-x,-y,z
x,-y,-z
-x,y,-z
-x,-y,-z
x,y,-z
-x,y,z
x,-y,z
loop_
_atom_site_type_symbol
_atom_site_label
_atom_site_fract_x
_atom_site_fract_y
_atom_site_fract_z
Si Si1 0.604104 0.836898 0.836576
Si Si2 0.395103 0.274204 0.710363
Si Si3 0.257611 0.160543 0.063011
Si Si4 0.109706 0.156345 0.776993
Si Si5 0.602740 0.154561 0.590897
Si Si6 0.771639 0.339912 0.438869
Si Si7 0.891301 0.660275 0.111971
Si Si8 0.193412 0.650429 0.685065
O O1 0.500000 0.798034 0.852452
O O2 0.621294 0.778382 0.773997
O O3 0.673940 0.798737 0.886287
O O4 0.607721 0.000000 0.831679
O O5 0.500000 0.332861 0.709181
O O6 0.395303 0.163947 0.659611
O O7 0.303890 0.356558 0.693860
O O8 0.170356 0.259064 0.067347
O O9 0.232900 0.000000 0.070771
O O10 0.299010 0.171781 0.000000
O O11 0.126252 0.254298 0.830534
O O12 0.156234 0.230273 0.724277
O O13 0.000000 0.151935 0.768682
O O14 0.141799 0.000000 0.785871
O O15 0.500000 0.195430 0.573617
O O16 0.679605 0.252391 0.566675
O O17 0.619146 0.000000 0.573564
O O18 0.815950 0.311165 0.500000
O O19 0.748526 0.500000 0.437463
O O20 0.826078 0.316555 0.380675
O O21 0.867844 0.500000 0.117300
O O22 0.000000 0.668804 0.099650
O O23 0.155401 0.500000 0.699252
#
# Coordination Sequence:
#
# PCOD9385539 Si02
#       8
#     8   8   8   8   8   8   8   8
#     4   9  17  30  49  72  99 134 176 219 261 306
#     4   9  17  29  47  73 105 138 172 213 264 318
#     4  10  21  35  52  77 108 142 180 221 264 309
#     4  10  21  37  58  84 112 138 164 202 258 320
#     4   9  17  28  43  66  95 126 166 219 272 318
#     4   9  19  34  48  65  94 133 176 218 259 305
#     4  10  21  37  58  83 109 137 170 210 257 310
#     4  10  20  33  53  79 105 138 177 217 260 305
#
# _framework density 18.939388000000001
#
# number of rings (size 3 to 8) (size 9 to 14) (size 15 to 20)
#    0.000    2.500    0.000    1.875    0.000    8.250 
#    0.000    6.250    0.000    1.500    0.000    3.500 
#    0.000    0.000    0.000    0.000    0.000    0.000 
#
# Total GULP energy -356539.594401 kJ/mol
# GULP energy per Si atom -5570.931163 kJ/mol
# Density = 1.889628 g / cm^3
# Si number density = 18.939388 Si / 1000 Ang^3
#
#
#
# Elastic Constant Matrix: (Units=GPa)
#
#
# Indices 1 2 3 4 5 6 
#
# 1 28.3773 25.7674 38.1157 0.0000 0.0000 0.0000
# 2 25.7674 62.8863 25.9754 0.0000 0.0000 0.0000
# 3 38.1157 25.9754 114.9891 0.0000 0.0000 0.0000
# 4 0.0000 0.0000 0.0000 16.5188 0.0000 0.0000
# 5 0.0000 0.0000 0.0000 0.0000 14.6551 0.0000
# 6 0.0000 0.0000 0.0000 0.0000 0.0000 0.2280
#
#
#
# Elastic Compliance Matrix: (Units=1/GPa)
#
#
# Indices 1 2 3 4 5 6 
#
# 1 0.094515 -0.028440 -0.024905 0.000000 0.000000 0.000000
# 2 -0.028440 0.026096 0.003532 0.000000 0.000000 0.000000
# 3 -0.024905 0.003532 0.016154 0.000000 0.000000 0.000000
# 4 0.000000 0.000000 0.000000 0.060537 0.000000 0.000000
# 5 0.000000 0.000000 0.000000 0.000000 0.068236 0.000000
# 6 0.000000 0.000000 0.000000 0.000000 0.000000 4.385322
#
#
# Mechanical properties :
#
#
# Convention : Reuss Voigt Hill
#
# Bulk Modulus (GPa) = 26.92542 42.88552 34.90547
# Shear Modulus (GPa) = 1.04979 14.03999 7.54489
#
# Velocity S-wave (km/s) = 0.74531 2.72566 1.99809
# Velocity P-wave (km/s) = 3.87145 5.70949 4.87783
#
# Compressibility (1/GPa) = 0.03713962
#
# Stress axis : x y z
#
# Youngs Moduli (GPa) = 10.58028 38.32001 61.90499
#
# Poissons Ratio (x) = 1.08983 1.54173
# Poissons Ratio (y) = 0.30091 -0.21866
# Poissons Ratio (z) = 0.26350 -0.13535
#
# Static dielectric constant tensor:
#      x y z
#    x 1.668490 0.000000 0.000000 
#    y 0.000000 1.646570 0.000000 
#    z 0.000000 0.000000 1.701940 
# 
# From -- ./inp_files/32761.got.cif
#   From: 2010.05.17/outbox.cif.g08.bks.cpg/sg47_17_cif.got.tgz:32761.got - 2010.06.03 20:15:42.
