data_PCOD9385493
_publ_section_title
;
Structure prediction by ZEFSAII (Michael W. Deem and Ramdas Pophale) SiO2 
 PCOD9385493
Probable space group: P M M M
;
_chemical_formula_sum "Si O2"
_cell_formula_units_Z 44
_cell_length_a 7.887115
_cell_length_b 14.498263
_cell_length_c 19.570838
_cell_angle_alpha 90.000000
_cell_angle_beta 90.000000
_cell_angle_gamma 90.000000
_cell_volume 2237.914905
_symmetry_space_group_name_H-M "P M M M"
_symmetry_group_IT_number 47
_symmetry_cell_setting 'orthorhombic'
loop_
_space_group_symop_operation_xyz
x,y,z
-x,-y,z
x,-y,-z
-x,y,-z
-x,-y,-z
x,y,-z
-x,y,z
x,-y,z
loop_
_atom_site_type_symbol
_atom_site_label
_atom_site_fract_x
_atom_site_fract_y
_atom_site_fract_z
Si Si1 0.295753 0.396727 0.278245
Si Si2 0.801095 0.396470 0.878804
Si Si3 0.697495 0.798811 0.074885
Si Si4 0.694315 0.209342 0.655966
Si Si5 0.197085 0.893303 0.212494
Si Si6 0.000000 0.892529 0.581808
O O1 0.500000 0.392768 0.269696
O O2 0.249743 0.500000 0.301175
O O3 0.218652 0.382828 0.202942
O O4 0.251059 0.314849 0.329463
O O5 0.737146 0.500000 0.894349
O O6 0.712705 0.311255 0.915059
O O7 0.000000 0.393150 0.895928
O O8 0.500000 0.824276 0.077683
O O9 0.785602 0.847447 0.138496
O O10 0.765692 0.823648 0.000000
O O11 0.500000 0.206332 0.630285
O O12 0.699555 0.161750 0.730695
O O13 0.831628 0.156872 0.610450
O O14 0.000000 0.888521 0.233401
O O15 0.248753 0.000000 0.209852
O O16 0.000000 0.889093 0.500000
O O17 0.000000 0.000000 0.603619
#
# Coordination Sequence:
#
# PCOD9385493 Si02
#       6
#     8   8   8   8   8   4
#     4   9  18  33  56  89 124 156 197 249 302 359
#     4  10  20  33  52  79 110 147 193 245 301 361
#     4  11  24  39  54  76 110 153 199 252 314 372
#     4  11  22  39  67  97 127 166 208 252 305 362
#     4  11  23  39  60  85 114 151 201 256 306 362
#     4  11  26  46  67  97 134 168 206 251 301 361
#
# _framework density 19.661159000000001
#
# number of rings (size 3 to 8) (size 9 to 14) (size 15 to 20)
#    0.000    1.545    2.727    2.182    1.273    6.182 
#    0.000    4.545    0.000    1.091    0.000    2.545 
#    0.000    0.000    0.000    0.000    0.000    0.000 
#
# Total GULP energy -245865.266161 kJ/mol
# GULP energy per Si atom -5587.846958 kJ/mol
# Density = 1.961641 g / cm^3
# Si number density = 19.661159 Si / 1000 Ang^3
#
#
#
# Elastic Constant Matrix: (Units=GPa)
#
#
# Indices 1 2 3 4 5 6 
#
# 1 59.3682 26.4458 24.0223 0.0000 0.0000 0.0000
# 2 26.4458 108.8661 33.2218 0.0000 0.0000 0.0000
# 3 24.0223 33.2218 67.5047 0.0000 0.0000 0.0000
# 4 0.0000 0.0000 0.0000 2.0809 0.0000 0.0000
# 5 0.0000 0.0000 0.0000 0.0000 -37.5958 0.0000
# 6 0.0000 0.0000 0.0000 0.0000 0.0000 44.9002
#
#
#
# Elastic Compliance Matrix: (Units=1/GPa)
#
#
# Indices 1 2 3 4 5 6 
#
# 1 0.020615 -0.003258 -0.005732 0.000000 0.000000 0.000000
# 2 -0.003258 0.011324 -0.004413 0.000000 0.000000 0.000000
# 3 -0.005732 -0.004413 0.019026 0.000000 0.000000 0.000000
# 4 0.000000 0.000000 0.000000 0.480550 0.000000 0.000000
# 5 0.000000 0.000000 0.000000 0.000000 -0.026599 0.000000
# 6 0.000000 0.000000 0.000000 0.000000 0.000000 0.022272
#
#
# Mechanical properties :
#
#
# Convention : Reuss Voigt Hill
#
# Bulk Modulus (GPa) = 41.39748 44.79099 43.09423
# Shear Modulus (GPa) = 8.89603 12.01367 10.45485
#
# Velocity S-wave (km/s) = 2.12944 2.47460 2.30848
# Velocity P-wave (km/s) = 5.21029 5.56738 5.39180
#
# Compressibility (1/GPa) = 0.02415606
#
# Stress axis : x y z
#
# Youngs Moduli (GPa) = 48.50814 88.30841 52.56030
#
# Poissons Ratio (x) = 0.28775 0.30130
# Poissons Ratio (y) = 0.15806 0.23197
# Poissons Ratio (z) = 0.27807 0.38974
#
# Static dielectric constant tensor:
#      x y z
#    x 1.687860 0.000000 0.000000 
#    y 0.000000 1.706740 0.000000 
#    z 0.000000 0.000000 1.663310 
# 
# From -- ./inp_files/9008.got.cif
#   From: 2010.05.17/outbox.cif.g08.bks.cpg/sg47_5_cif.got.tgz:9008.got - 2010.06.03 20:15:42.
