data_PCOD9385072
_publ_section_title
;
Structure prediction by ZEFSAII (Michael W. Deem and Ramdas Pophale) SiO2 
 PCOD9385072
Probable space group: P M M M
;
_chemical_formula_sum "Si O2"
_cell_formula_units_Z 56
_cell_length_a 16.611596
_cell_length_b 7.636387
_cell_length_c 20.149675
_cell_angle_alpha 90.000000
_cell_angle_beta 90.000000
_cell_angle_gamma 90.000000
_cell_volume 2556.038174
_symmetry_space_group_name_H-M "P M M M"
_symmetry_group_IT_number 47
_symmetry_cell_setting 'orthorhombic'
loop_
_space_group_symop_operation_xyz
x,y,z
-x,-y,z
x,-y,-z
-x,y,-z
-x,-y,-z
x,y,-z
-x,y,z
x,-y,z
loop_
_atom_site_type_symbol
_atom_site_label
_atom_site_fract_x
_atom_site_fract_y
_atom_site_fract_z
Si Si1 0.088617 0.702525 0.754163
Si Si2 0.337331 0.790729 0.146146
Si Si3 0.500000 0.785340 0.923239
Si Si4 0.914534 0.212629 0.601364
Si Si5 0.262109 0.293565 0.724388
Si Si6 0.823847 0.209624 0.924212
Si Si7 0.262011 0.210058 0.570897
Si Si8 0.000000 0.292443 0.923746
O O1 0.089461 0.500000 0.777429
O O2 0.084682 0.704798 0.673934
O O3 0.178834 0.785864 0.757214
O O4 0.000000 0.778818 0.773440
O O5 0.418642 0.724577 0.112560
O O6 0.331332 0.755151 0.224168
O O7 0.255310 0.720316 0.112153
O O8 0.336608 0.000000 0.136412
O O9 0.500000 0.000000 0.921325
O O10 0.500000 0.734287 0.000000
O O11 0.831592 0.265249 0.568837
O O12 0.000000 0.255430 0.569940
O O13 0.911265 0.000000 0.608171
O O14 0.248725 0.500000 0.726470
O O15 0.283288 0.252525 0.647758
O O16 0.912529 0.244617 0.893944
O O17 0.817199 0.000000 0.926791
O O18 0.825307 0.276951 0.000000
O O19 0.299254 0.273307 0.500000
O O20 0.266960 0.000000 0.568697
O O21 0.000000 0.500000 0.928298
O O22 0.000000 0.217709 0.000000
#
# Coordination Sequence:
#
# PCOD9385072 Si02
#       8
#     8   8   4   8   8   8   8   4
#     4   8  14  26  42  58  83 125 175 220 260 305
#     4  10  20  35  57  84 113 142 176 221 271 328
#     4   9  18  36  65  97 120 141 176 219 267 326
#     4   8  13  21  35  57  84 115 156 210 270 322
#     4  10  20  33  49  71 104 143 183 225 273 331
#     4   9  17  31  52  77 107 143 181 223 268 314
#     4   9  17  29  46  68  95 130 176 229 280 328
#     4   9  17  29  47  73 105 143 186 227 264 309
#
# _framework density 21.908905000000001
#
# number of rings (size 3 to 8) (size 9 to 14) (size 15 to 20)
#    0.000    3.000    0.000    1.071    0.000    4.286 
#    1.286    1.786    0.000    1.714    0.000   10.500 
#    0.000    4.000    0.000    0.000    0.000    0.000 
#
# Total GULP energy -311854.864722 kJ/mol
# GULP energy per Si atom -5568.836870 kJ/mol
# Density = 2.185904 g / cm^3
# Si number density = 21.908905 Si / 1000 Ang^3
#
#
#
# Elastic Constant Matrix: (Units=GPa)
#
#
# Indices 1 2 3 4 5 6 
#
# 1 125.0004 10.8175 95.4266 0.0000 0.0000 0.0000
# 2 10.8175 45.1715 2.9549 0.0000 0.0000 0.0000
# 3 95.4266 2.9549 146.8810 0.0000 0.0000 0.0000
# 4 0.0000 0.0000 0.0000 32.4066 0.0000 0.0000
# 5 0.0000 0.0000 0.0000 0.0000 134.0309 0.0000
# 6 0.0000 0.0000 0.0000 0.0000 0.0000 2.1624
#
#
#
# Elastic Compliance Matrix: (Units=1/GPa)
#
#
# Indices 1 2 3 4 5 6 
#
# 1 0.016327 -0.003220 -0.010543 0.000000 0.000000 0.000000
# 2 -0.003220 0.022802 0.001633 0.000000 0.000000 0.000000
# 3 -0.010543 0.001633 0.013625 0.000000 0.000000 0.000000
# 4 0.000000 0.000000 0.000000 0.030858 0.000000 0.000000
# 5 0.000000 0.000000 0.000000 0.000000 0.007461 0.000000
# 6 0.000000 0.000000 0.000000 0.000000 0.000000 0.462457
#
#
# Mechanical properties :
#
#
# Convention : Reuss Voigt Hill
#
# Bulk Modulus (GPa) = 35.09384 59.49453 47.29419
# Shear Modulus (GPa) = 8.51372 47.57692 28.04532
#
# Velocity S-wave (km/s) = 1.97342 4.66508 3.58171
# Velocity P-wave (km/s) = 4.60927 7.49877 6.22403
#
# Compressibility (1/GPa) = 0.02849503
#
# Stress axis : x y z
#
# Youngs Moduli (GPa) = 61.24813 43.85542 73.39562
#
# Poissons Ratio (x) = 0.14123 0.77379
# Poissons Ratio (y) = 0.19724 -0.11989
# Poissons Ratio (z) = 0.64572 -0.07164
#
# Static dielectric constant tensor:
#      x y z
#    x 1.826390 0.000000 0.000000 
#    y 0.000000 1.807370 0.000000 
#    z 0.000000 0.000000 1.890010 
# 
# From -- ./inp_files/31080.got.cif
#   From: 2010.05.17/outbox.cif.g08.bks.cpg/sg47_16_cif.got.tgz:31080.got - 2010.06.03 20:15:42.
