data_PCOD9385224
_publ_section_title
;
Structure prediction by ZEFSAII (Michael W. Deem and Ramdas Pophale) SiO2 
 PCOD9385224
Probable space group: P M M M
;
_chemical_formula_sum "Si O2"
_cell_formula_units_Z 44
_cell_length_a 7.537719
_cell_length_b 29.094754
_cell_length_c 9.375576
_cell_angle_alpha 90.000000
_cell_angle_beta 90.000000
_cell_angle_gamma 90.000000
_cell_volume 2056.139572
_symmetry_space_group_name_H-M "P M M M"
_symmetry_group_IT_number 47
_symmetry_cell_setting 'orthorhombic'
loop_
_space_group_symop_operation_xyz
x,y,z
-x,-y,z
x,-y,-z
-x,y,-z
-x,-y,-z
x,y,-z
-x,y,z
x,-y,z
loop_
_atom_site_type_symbol
_atom_site_label
_atom_site_fract_x
_atom_site_fract_y
_atom_site_fract_z
Si Si1 0.782965 0.090964 0.664758
Si Si2 0.787148 0.819626 0.162437
Si Si3 0.710694 0.641418 0.160232
Si Si4 0.783325 0.000000 0.164729
Si Si5 0.786248 0.551506 0.662640
Si Si6 0.712929 0.727772 0.338629
O O1 0.726209 0.090281 0.500000
O O2 0.722829 0.136686 0.747003
O O3 0.000000 0.091166 0.663799
O O4 0.727791 0.045609 0.750782
O O5 0.749401 0.772573 0.244703
O O6 0.000000 0.824163 0.154426
O O7 0.719253 0.819001 0.000000
O O8 0.500000 0.649271 0.149787
O O9 0.734133 0.592040 0.232643
O O10 0.782428 0.682141 0.259998
O O11 0.784077 0.642799 0.000000
O O12 0.000000 0.000000 0.163381
O O13 0.725901 0.000000 0.000000
O O14 0.725691 0.560810 0.500000
O O15 0.725971 0.500000 0.702919
O O16 0.000000 0.550531 0.659721
O O17 0.781646 0.732386 0.500000
O O18 0.500000 0.723481 0.348429
#
# Coordination Sequence:
#
# PCOD9385224 Si02
#       6
#     8   8   8   4   8   8
#     4   9  16  26  41  63  93 128 165 205 249 297
#     4  10  20  33  50  74 103 133 166 206 253 303
#     4  10  21  36  54  77 104 133 167 208 252 298
#     4   9  15  23  37  59  90 127 164 203 250 301
#     4   9  19  36  56  78 105 137 172 208 247 294
#     4  10  21  37  56  76  99 131 171 211 252 300
#
# _framework density 21.399324
#
# number of rings (size 3 to 8) (size 9 to 14) (size 15 to 20)
#    0.000    2.455    0.000    3.000    0.000    8.364 
#    0.000    2.727    0.000    0.000    0.000    0.636 
#    0.000    5.091    0.000    0.000    0.000    0.000 
#
# Total GULP energy -245840.034492 kJ/mol
# GULP energy per Si atom -5587.273511 kJ/mol
# Density = 2.135062 g / cm^3
# Si number density = 21.399324 Si / 1000 Ang^3
#
#
#
# Elastic Constant Matrix: (Units=GPa)
#
#
# Indices 1 2 3 4 5 6 
#
# 1 52.0821 -2.6269 7.4449 0.0000 0.0000 0.0000
# 2 -2.6269 198.1849 144.1295 0.0000 0.0000 0.0000
# 3 7.4449 144.1295 243.7902 0.0000 0.0000 0.0000
# 4 0.0000 0.0000 0.0000 44.5506 0.0000 0.0000
# 5 0.0000 0.0000 0.0000 0.0000 12.5146 0.0000
# 6 0.0000 0.0000 0.0000 0.0000 0.0000 25.9099
#
#
#
# Elastic Compliance Matrix: (Units=1/GPa)
#
#
# Indices 1 2 3 4 5 6 
#
# 1 0.019449 0.001210 -0.001309 0.000000 0.000000 0.000000
# 2 0.001210 0.008927 -0.005314 0.000000 0.000000 0.000000
# 3 -0.001309 -0.005314 0.007284 0.000000 0.000000 0.000000
# 4 0.000000 0.000000 0.000000 0.022446 0.000000 0.000000
# 5 0.000000 0.000000 0.000000 0.000000 0.079907 0.000000
# 6 0.000000 0.000000 0.000000 0.000000 0.000000 0.038595
#
#
# Mechanical properties :
#
#
# Convention : Reuss Voigt Hill
#
# Bulk Modulus (GPa) = 40.27124 87.99469 64.13296
# Shear Modulus (GPa) = 25.54767 39.60232 32.57500
#
# Velocity S-wave (km/s) = 3.45897 4.30657 3.90583
# Velocity P-wave (km/s) = 5.90020 8.12024 7.09756
#
# Compressibility (1/GPa) = 0.02483162
#
# Stress axis : x y z
#
# Youngs Moduli (GPa) = 51.41754 112.02246 137.29071
#
# Poissons Ratio (x) = -0.13554 0.17975
# Poissons Ratio (y) = -0.06221 0.72963
# Poissons Ratio (z) = 0.06732 0.59534
#
# Static dielectric constant tensor:
#      x y z
#    x 1.830100 0.000000 0.000000 
#    y 0.000000 1.721710 0.000000 
#    z 0.000000 0.000000 1.749450 
# 
# From -- ./inp_files/2192.got.cif
#   From: 2010.05.17/outbox.cif.g08.bks.cpg/sg47_2_cif.got.tgz:2192.got - 2010.06.03 20:15:42.
