data_PCOD9385695
_publ_section_title
;
Structure prediction by ZEFSAII (Michael W. Deem and Ramdas Pophale) SiO2 
 PCOD9385695
Probable space group: P M M M
;
_chemical_formula_sum "Si O2"
_cell_formula_units_Z 40
_cell_length_a 7.579290
_cell_length_b 10.056972
_cell_length_c 24.788719
_cell_angle_alpha 90.000000
_cell_angle_beta 90.000000
_cell_angle_gamma 90.000000
_cell_volume 1889.512850
_symmetry_space_group_name_H-M "P M M M"
_symmetry_group_IT_number 47
_symmetry_cell_setting 'orthorhombic'
loop_
_space_group_symop_operation_xyz
x,y,z
-x,-y,z
x,-y,-z
-x,y,-z
-x,-y,-z
x,y,-z
-x,y,z
x,-y,z
loop_
_atom_site_type_symbol
_atom_site_label
_atom_site_fract_x
_atom_site_fract_y
_atom_site_fract_z
Si Si1 0.710529 0.500000 0.562290
Si Si2 0.285166 0.850204 0.937966
Si Si3 0.207650 0.242133 0.632127
Si Si4 0.706051 0.152372 0.749658
Si Si5 0.783612 0.000000 0.438954
Si Si6 0.716342 0.346035 0.844081
O O1 0.500000 0.500000 0.558585
O O2 0.778753 0.500000 0.500000
O O3 0.765438 0.624991 0.598323
O O4 0.500000 0.850230 0.937689
O O5 0.229387 0.733683 0.897889
O O6 0.231428 0.000000 0.920555
O O7 0.229592 0.830984 0.000000
O O8 0.283860 0.223088 0.691532
O O9 0.277769 0.126840 0.593697
O O10 0.000000 0.221817 0.639564
O O11 0.500000 0.137814 0.763227
O O12 0.778742 0.253584 0.794418
O O13 0.778597 0.000000 0.747614
O O14 0.723425 0.000000 0.500000
O O15 0.000000 0.000000 0.439994
O O16 0.500000 0.349367 0.843127
O O17 0.773856 0.500000 0.841601
#
# Coordination Sequence:
#
# PCOD9385695 Si02
#       6
#     4   8   8   8   4   8
#     4  11  25  43  61  85 117 149 180 217 266 327
#     4   8  13  22  37  58  88 128 173 220 271 328
#     4  11  22  38  60  85 112 144 183 226 273 325
#     4  10  20  34  52  74 105 143 181 224 276 332
#     4   9  18  34  57  83 109 135 170 219 270 320
#     4   9  17  27  41  64  94 133 178 223 273 326
#
# _framework density 21.169478000000002
#
# number of rings (size 3 to 8) (size 9 to 14) (size 15 to 20)
#    0.000    2.400    1.000    2.700    1.400    4.400 
#    0.000    2.000    0.000    2.400    0.000    0.000 
#    0.000    0.800    0.000    6.000    0.000    7.800 
#
# Total GULP energy -223215.143802 kJ/mol
# GULP energy per Si atom -5580.378595 kJ/mol
# Density = 2.112130 g / cm^3
# Si number density = 21.169478 Si / 1000 Ang^3
#
#
#
# Elastic Constant Matrix: (Units=GPa)
#
#
# Indices 1 2 3 4 5 6 
#
# 1 46.4800 -4.5619 -5.2999 0.0000 0.0000 0.0000
# 2 -4.5619 214.0865 119.1926 0.0000 0.0000 0.0000
# 3 -5.2999 119.1926 168.6837 0.0000 0.0000 0.0000
# 4 0.0000 0.0000 0.0000 36.0549 0.0000 0.0000
# 5 0.0000 0.0000 0.0000 0.0000 -62.2208 0.0000
# 6 0.0000 0.0000 0.0000 0.0000 0.0000 -8.2804
#
#
#
# Elastic Compliance Matrix: (Units=1/GPa)
#
#
# Indices 1 2 3 4 5 6 
#
# 1 0.021594 0.000136 0.000582 0.000000 0.000000 0.000000
# 2 0.000136 0.007701 -0.005437 0.000000 0.000000 0.000000
# 3 0.000582 -0.005437 0.009789 0.000000 0.000000 0.000000
# 4 0.000000 0.000000 0.000000 0.027736 0.000000 0.000000
# 5 0.000000 0.000000 0.000000 0.000000 -0.016072 0.000000
# 6 0.000000 0.000000 0.000000 0.000000 0.000000 -0.120767
#
#
# Mechanical properties :
#
#
# Convention : Reuss Voigt Hill
#
# Bulk Modulus (GPa) = 33.73131 71.99020 52.86076
# Shear Modulus (GPa) = -98.62077 14.43870 -42.09103
#
# Velocity S-wave (km/s) = -6.83282 2.61445 -4.46386
# Velocity P-wave (km/s) = 6.80304 6.57223 1.24241
#
# Compressibility (1/GPa) = 0.02964604
#
# Stress axis : x y z
#
# Youngs Moduli (GPa) = 46.30836 129.85012 102.15901
#
# Poissons Ratio (x) = -0.01764 -0.05950
# Poissons Ratio (y) = -0.00629 0.55548
# Poissons Ratio (z) = -0.02697 0.70605
#
# Static dielectric constant tensor:
#      x y z
#    x 1.814390 0.000000 0.000000 
#    y 0.000000 1.759040 0.000000 
#    z 0.000000 0.000000 1.743710 
# 
# From -- ./inp_files/33041.got.cif
#   From: 2010.05.17/outbox.cif.g08.bks.cpg/sg47_17_cif.got.tgz:33041.got - 2010.06.03 20:15:42.
