data_PCOD9385870
_publ_section_title
;
Structure prediction by ZEFSAII (Michael W. Deem and Ramdas Pophale) SiO2 
 PCOD9385870
Probable space group: P M M M
;
_chemical_formula_sum "Si O2"
_cell_formula_units_Z 56
_cell_length_a 7.778542
_cell_length_b 16.248775
_cell_length_c 20.596505
_cell_angle_alpha 90.000000
_cell_angle_beta 90.000000
_cell_angle_gamma 90.000000
_cell_volume 2603.228904
_symmetry_space_group_name_H-M "P M M M"
_symmetry_group_IT_number 47
_symmetry_cell_setting 'orthorhombic'
loop_
_space_group_symop_operation_xyz
x,y,z
-x,-y,z
x,-y,-z
-x,y,-z
-x,-y,-z
x,y,-z
-x,y,z
x,-y,z
loop_
_atom_site_type_symbol
_atom_site_label
_atom_site_fract_x
_atom_site_fract_y
_atom_site_fract_z
Si Si1 0.803182 0.193248 0.126467
Si Si2 0.210658 0.905139 0.000000
Si Si3 0.695499 0.096207 0.248553
Si Si4 0.792999 0.726676 0.571047
Si Si5 0.707088 0.405802 0.318199
Si Si6 0.698678 0.366807 0.826209
Si Si7 0.799023 0.907743 0.396090
Si Si8 0.288445 0.500000 0.926166
O O1 0.794848 0.137326 0.190189
O O2 0.707245 0.274956 0.147707
O O3 0.000000 0.215663 0.111941
O O4 0.734230 0.143566 0.064520
O O5 0.000000 0.907120 0.000000
O O6 0.268040 0.000000 0.000000
O O7 0.500000 0.129682 0.252655
O O8 0.782475 0.103082 0.318517
O O9 0.684718 0.000000 0.234180
O O10 0.738802 0.695081 0.500000
O O11 0.749668 0.663417 0.628429
O O12 0.726450 0.821177 0.577839
O O13 0.000000 0.733287 0.571809
O O14 0.500000 0.408200 0.316409
O O15 0.766086 0.500000 0.332305
O O16 0.772163 0.379386 0.246202
O O17 0.500000 0.391945 0.819621
O O18 0.771434 0.423231 0.883154
O O19 0.000000 0.911103 0.414553
O O20 0.726580 0.000000 0.411732
O O21 0.500000 0.500000 0.929606
O O22 0.227907 0.500000 0.000000
#
# Coordination Sequence:
#
# PCOD9385870 Si02
#       8
#     8   4   8   8   8   8   8   4
#     4  11  22  35  54  79 108 143 186 230 278 335
#     4   9  20  38  55  72 103 150 194 229 271 327
#     4  10  20  34  53  79 109 140 179 229 279 324
#     4  10  22  38  56  83 117 149 187 237 288 338
#     4  10  21  39  61  83 111 149 194 238 282 342
#     4  10  20  37  60  86 114 145 185 231 280 334
#     4   9  18  34  57  83 112 148 186 223 273 341
#     4   9  18  34  59  87 114 147 182 222 277 341
#
# _framework density 21.511747
#
# number of rings (size 3 to 8) (size 9 to 14) (size 15 to 20)
#    0.000    2.143    0.714    2.143    1.000    6.000 
#    0.000    4.286    0.000    3.000    0.000    3.000 
#    0.000    0.000    0.000    0.000    0.000    0.000 
#
# Total GULP energy -312402.809334 kJ/mol
# GULP energy per Si atom -5578.621595 kJ/mol
# Density = 2.146278 g / cm^3
# Si number density = 21.511747 Si / 1000 Ang^3
#
#
#
# Elastic Constant Matrix: (Units=GPa)
#
#
# Indices 1 2 3 4 5 6 
#
# 1 36.0075 6.0002 3.7675 0.0000 0.0000 0.0000
# 2 6.0002 148.7983 104.8361 0.0000 0.0000 0.0000
# 3 3.7675 104.8361 174.4015 0.0000 0.0000 0.0000
# 4 0.0000 0.0000 0.0000 32.5993 0.0000 0.0000
# 5 0.0000 0.0000 0.0000 0.0000 20.0544 0.0000
# 6 0.0000 0.0000 0.0000 0.0000 0.0000 80.5008
#
#
#
# Elastic Compliance Matrix: (Units=1/GPa)
#
#
# Indices 1 2 3 4 5 6 
#
# 1 0.027961 -0.001218 0.000128 0.000000 0.000000 0.000000
# 2 -0.001218 0.011711 -0.007013 0.000000 0.000000 0.000000
# 3 0.000128 -0.007013 0.009947 0.000000 0.000000 0.000000
# 4 0.000000 0.000000 0.000000 0.030675 0.000000 0.000000
# 5 0.000000 0.000000 0.000000 0.000000 0.049864 0.000000
# 6 0.000000 0.000000 0.000000 0.000000 0.000000 0.012422
#
#
# Mechanical properties :
#
#
# Convention : Reuss Voigt Hill
#
# Bulk Modulus (GPa) = 29.92830 65.37945 47.65387
# Shear Modulus (GPa) = 29.42472 42.93781 36.18127
#
# Velocity S-wave (km/s) = 3.70245 4.47253 4.10558
# Velocity P-wave (km/s) = 5.67629 7.55842 6.68394
#
# Compressibility (1/GPa) = 0.03341319
#
# Stress axis : x y z
#
# Youngs Moduli (GPa) = 35.76348 85.39085 100.53309
#
# Poissons Ratio (x) = 0.10398 -0.01286
# Poissons Ratio (y) = 0.04355 0.70507
# Poissons Ratio (z) = -0.00457 0.59887
#
# Static dielectric constant tensor:
#      x y z
#    x 1.825310 0.000000 0.000000 
#    y 0.000000 1.869920 0.000000 
#    z 0.000000 0.000000 1.758980 
# 
# From -- ./inp_files/7405.got.cif
#   From: 2010.05.17/outbox.cif.g08.bks.cpg/sg47_4_cif.got.tgz:7405.got - 2010.06.03 20:15:42.
