data_PCOD9385614
_publ_section_title
;
Structure prediction by ZEFSAII (Michael W. Deem and Ramdas Pophale) SiO2 
 PCOD9385614
Probable space group: P M M M
;
_chemical_formula_sum "Si O2"
_cell_formula_units_Z 60
_cell_length_a 21.753880
_cell_length_b 18.156883
_cell_length_c 8.420105
_cell_angle_alpha 90.000000
_cell_angle_beta 90.000000
_cell_angle_gamma 90.000000
_cell_volume 3325.795419
_symmetry_space_group_name_H-M "P M M M"
_symmetry_group_IT_number 47
_symmetry_cell_setting 'orthorhombic'
loop_
_space_group_symop_operation_xyz
x,y,z
-x,-y,z
x,-y,-z
-x,y,-z
-x,-y,-z
x,y,-z
-x,y,z
x,-y,z
loop_
_atom_site_type_symbol
_atom_site_label
_atom_site_fract_x
_atom_site_fract_y
_atom_site_fract_z
Si Si1 0.500000 0.587836 0.684994
Si Si2 0.431356 0.085151 0.808853
Si Si3 0.798538 0.739727 0.307078
Si Si4 0.624871 0.652366 0.187262
Si Si5 0.752245 0.418072 0.809403
Si Si6 0.329342 0.804253 0.686087
Si Si7 0.931074 0.262518 0.685785
Si Si8 0.073402 0.580803 0.180202
O O1 0.500000 0.500000 0.693943
O O2 0.500000 0.609614 0.500000
O O3 0.439781 0.618501 0.768913
O O4 0.500000 0.111073 0.755131
O O5 0.373673 0.133838 0.757058
O O6 0.424664 0.000000 0.757551
O O7 0.432618 0.085967 0.000000
O O8 0.798792 0.740312 0.500000
O O9 0.786092 0.654890 0.255068
O O10 0.740299 0.788822 0.251649
O O11 0.865845 0.767612 0.250307
O O12 0.680398 0.596676 0.224679
O O13 0.637170 0.726681 0.283112
O O14 0.628175 0.669719 0.000000
O O15 0.768908 0.500000 0.750563
O O16 0.759607 0.418095 0.000000
O O17 0.323820 0.818942 0.500000
O O18 0.934335 0.244015 0.500000
O O19 0.919416 0.350103 0.706131
O O20 0.000000 0.246958 0.754292
O O21 0.095834 0.500000 0.230670
O O22 0.000000 0.574851 0.166703
O O23 0.096525 0.595683 0.000000
#
# Coordination Sequence:
#
# PCOD9385614 Si02
#       8
#     4   8   8   8   8   8   8   8
#     4  11  23  35  47  67  94 121 156 207 261 305
#     4   9  19  36  57  81 109 138 165 191 222 267
#     4   9  19  33  46  65  92 123 159 198 246 295
#     4  10  20  34  51  68  89 122 162 203 247 294
#     4   9  18  32  48  64  82 110 155 206 250 295
#     4  10  20  34  52  74 103 133 162 199 238 283
#     4   9  17  29  44  60  81 112 151 194 237 285
#     4   8  14  24  36  51  74 104 138 181 237 294
#
# _framework density 18.040797999999999
#
# number of rings (size 3 to 8) (size 9 to 14) (size 15 to 20)
#    0.000    2.733    0.000    2.200    0.933    4.267 
#    0.000    4.667    0.000    0.000    0.000    0.000 
#    0.000    0.533    0.000    6.667    0.000    1.067 
#
# Total GULP energy -334087.214248 kJ/mol
# GULP energy per Si atom -5568.120237 kJ/mol
# Density = 1.799974 g / cm^3
# Si number density = 18.040798 Si / 1000 Ang^3
#
#
#
# Elastic Constant Matrix: (Units=GPa)
#
#
# Indices 1 2 3 4 5 6 
#
# 1 192.4669 48.5446 11.5221 0.0000 0.0000 0.0000
# 2 48.5446 52.3857 8.1511 0.0000 0.0000 0.0000
# 3 11.5221 8.1511 8.2157 0.0000 0.0000 0.0000
# 4 0.0000 0.0000 0.0000 5.6632 0.0000 0.0000
# 5 0.0000 0.0000 0.0000 0.0000 1.2902 0.0000
# 6 0.0000 0.0000 0.0000 0.0000 0.0000 -6.1275
#
#
#
# Elastic Compliance Matrix: (Units=1/GPa)
#
#
# Indices 1 2 3 4 5 6 
#
# 1 0.006886 -0.005769 -0.003934 0.000000 0.000000 0.000000
# 2 -0.005769 0.027408 -0.019101 0.000000 0.000000 0.000000
# 3 -0.003934 -0.019101 0.146187 0.000000 0.000000 0.000000
# 4 0.000000 0.000000 0.000000 0.176577 0.000000 0.000000
# 5 0.000000 0.000000 0.000000 0.000000 0.775091 0.000000
# 6 0.000000 0.000000 0.000000 0.000000 0.000000 -0.163198
#
#
# Mechanical properties :
#
#
# Convention : Reuss Voigt Hill
#
# Bulk Modulus (GPa) = 8.13852 43.27819 25.70836
# Shear Modulus (GPa) = 4.68377 12.48855 8.58616
#
# Velocity S-wave (km/s) = 1.61302 2.63390 2.18395
# Velocity P-wave (km/s) = 2.82668 5.76984 4.54319
#
# Compressibility (1/GPa) = 0.12287246
#
# Stress axis : x y z
#
# Youngs Moduli (GPa) = 145.21474 36.48633 6.84057
#
# Poissons Ratio (x) = 0.21050 0.02691
# Poissons Ratio (y) = 0.83779 0.13066
# Poissons Ratio (z) = 0.57125 0.69692
#
# Static dielectric constant tensor:
#      x y z
#    x 1.694370 0.000000 0.000000 
#    y 0.000000 1.598010 0.000000 
#    z 0.000000 0.000000 1.632680 
# 
# From -- ./inp_files/11659.got.cif
#   From: 2010.05.17/outbox.cif.g08.bks.cpg/sg47_6_cif.got.tgz:11659.got - 2010.06.03 20:15:42.
