data_PCOD9385553
_publ_section_title
;
Structure prediction by ZEFSAII (Michael W. Deem and Ramdas Pophale) SiO2 
 PCOD9385553
Probable space group: P M M M
;
_chemical_formula_sum "Si O2"
_cell_formula_units_Z 48
_cell_length_a 13.299480
_cell_length_b 16.060470
_cell_length_c 12.089351
_cell_angle_alpha 90.000000
_cell_angle_beta 90.000000
_cell_angle_gamma 90.000000
_cell_volume 2582.235802
_symmetry_space_group_name_H-M "P M M M"
_symmetry_group_IT_number 47
_symmetry_cell_setting 'orthorhombic'
loop_
_space_group_symop_operation_xyz
x,y,z
-x,-y,z
x,-y,-z
-x,y,-z
-x,-y,-z
x,y,-z
-x,y,z
x,-y,z
loop_
_atom_site_type_symbol
_atom_site_label
_atom_site_fract_x
_atom_site_fract_y
_atom_site_fract_z
Si Si1 0.378704 0.410709 0.369358
Si Si2 0.881533 0.099447 0.000000
Si Si3 0.620278 0.776968 0.632708
Si Si4 0.878736 0.662534 0.735625
Si Si5 0.795766 0.846946 0.766447
Si Si6 0.121569 0.595706 0.500000
Si Si7 0.880092 0.000000 0.374092
Si Si8 0.877178 0.500000 0.127489
O O1 0.354476 0.410123 0.500000
O O2 0.500000 0.413873 0.362692
O O3 0.341676 0.500000 0.322866
O O4 0.355716 0.318023 0.328210
O O5 0.819068 0.126093 0.891771
O O6 0.000000 0.130299 0.000000
O O7 0.888622 0.000000 0.000000
O O8 0.645492 0.784956 0.500000
O O9 0.500000 0.789529 0.640834
O O10 0.684874 0.835731 0.713025
O O11 0.844002 0.755223 0.759769
O O12 0.846646 0.639319 0.611583
O O13 0.845012 0.585771 0.813071
O O14 0.000000 0.662046 0.739660
O O15 0.846947 0.917214 0.690327
O O16 0.151110 0.500000 0.500000
O O17 0.000000 0.596560 0.500000
O O18 0.840928 0.000000 0.500000
O O19 0.000000 0.000000 0.377728
O O20 0.000000 0.500000 0.131909
O O21 0.846445 0.500000 0.000000
#
# Coordination Sequence:
#
# PCOD9385553 Si02
#       8
#     8   4   8   8   8   4   4   4
#     4   7  10  21  45  76 112 156 201 245 295 347
#     4  11  24  46  71  92 120 157 203 264 322 376
#     4   9  19  37  60  89 127 167 207 254 308 367
#     4  10  20  33  53  81 115 156 199 247 306 369
#     4  12  24  40  63  91 120 158 210 255 309 371
#     4   9  16  30  48  71 114 162 195 233 298 373
#     4  11  24  41  62  92 127 155 189 248 316 386
#     4   9  18  33  51  75 112 158 202 248 295 353
#
# _framework density 18.588542
#
# number of rings (size 3 to 8) (size 9 to 14) (size 15 to 20)
#    0.000    2.333    1.667    3.500    3.500    0.000 
#    1.500    0.833    0.000    2.000    0.000    0.000 
#    0.000    3.333    0.000    0.000    0.000    0.000 
#
# Total GULP energy -267585.479066 kJ/mol
# GULP energy per Si atom -5574.697481 kJ/mol
# Density = 1.854623 g / cm^3
# Si number density = 18.588542 Si / 1000 Ang^3
#
#
#
# Elastic Constant Matrix: (Units=GPa)
#
#
# Indices 1 2 3 4 5 6 
#
# 1 91.8790 34.1850 42.2700 0.0000 0.0000 0.0000
# 2 34.1850 132.3709 75.7236 0.0000 0.0000 0.0000
# 3 42.2700 75.7236 152.0165 0.0000 0.0000 0.0000
# 4 0.0000 0.0000 0.0000 23.1663 0.0000 0.0000
# 5 0.0000 0.0000 0.0000 0.0000 29.7726 0.0000
# 6 0.0000 0.0000 0.0000 0.0000 0.0000 29.5423
#
#
#
# Elastic Compliance Matrix: (Units=1/GPa)
#
#
# Indices 1 2 3 4 5 6 
#
# 1 0.012771 -0.001771 -0.002669 0.000000 0.000000 0.000000
# 2 -0.001771 0.010811 -0.004893 0.000000 0.000000 0.000000
# 3 -0.002669 -0.004893 0.009757 0.000000 0.000000 0.000000
# 4 0.000000 0.000000 0.000000 0.043166 0.000000 0.000000
# 5 0.000000 0.000000 0.000000 0.000000 0.033588 0.000000
# 6 0.000000 0.000000 0.000000 0.000000 0.000000 0.033850
#
#
# Mechanical properties :
#
#
# Convention : Reuss Voigt Hill
#
# Bulk Modulus (GPa) = 68.14965 75.62486 71.88726
# Shear Modulus (GPa) = 29.85084 31.43542 30.64313
#
# Velocity S-wave (km/s) = 4.01168 4.11678 4.06457
# Velocity P-wave (km/s) = 7.62889 7.96047 7.79644
#
# Compressibility (1/GPa) = 0.01467359
#
# Stress axis : x y z
#
# Youngs Moduli (GPa) = 78.30420 92.49947 102.48595
#
# Poissons Ratio (x) = 0.16386 0.27350
# Poissons Ratio (y) = 0.13871 0.50143
# Poissons Ratio (z) = 0.20897 0.45257
#
# Static dielectric constant tensor:
#      x y z
#    x 1.703310 0.000000 0.000000 
#    y 0.000000 1.545640 0.000000 
#    z 0.000000 0.000000 1.627930 
# 
# From -- ./inp_files/17629.got.cif
#   From: 2010.05.17/outbox.cif.g08.bks.cpg/sg47_9_cif.got.tgz:17629.got - 2010.06.03 20:15:42.
