data_PCOD9385809
_publ_section_title
;
Structure prediction by ZEFSAII (Michael W. Deem and Ramdas Pophale) SiO2 
 PCOD9385809
Probable space group: P M M M
;
_chemical_formula_sum "Si O2"
_cell_formula_units_Z 40
_cell_length_a 8.280553
_cell_length_b 8.184108
_cell_length_c 29.073934
_cell_angle_alpha 90.000000
_cell_angle_beta 90.000000
_cell_angle_gamma 90.000000
_cell_volume 1970.309690
_symmetry_space_group_name_H-M "P M M M"
_symmetry_group_IT_number 47
_symmetry_cell_setting 'orthorhombic'
loop_
_space_group_symop_operation_xyz
x,y,z
-x,-y,z
x,-y,-z
-x,y,-z
-x,-y,-z
x,y,-z
-x,y,z
x,-y,z
loop_
_atom_site_type_symbol
_atom_site_label
_atom_site_fract_x
_atom_site_fract_y
_atom_site_fract_z
Si Si1 0.179665 0.693364 0.500000
Si Si2 0.312812 0.198107 0.110465
Si Si3 0.000000 0.695922 0.947136
Si Si4 0.691596 0.814647 0.596315
Si Si5 0.191589 0.810948 0.691794
Si Si6 0.306605 0.187480 0.212454
O O1 0.168308 0.500000 0.500000
O O2 0.264628 0.740856 0.452662
O O3 0.000000 0.766365 0.500000
O O4 0.500000 0.249278 0.099253
O O5 0.166205 0.247530 0.077401
O O6 0.270073 0.258914 0.162237
O O7 0.317489 0.000000 0.112312
O O8 0.000000 0.500000 0.946610
O O9 0.000000 0.753549 0.000000
O O10 0.500000 0.819391 0.600260
O O11 0.755800 0.734442 0.643308
O O12 0.757619 0.000000 0.595433
O O13 0.247993 0.734609 0.739976
O O14 0.000000 0.817883 0.692410
O O15 0.257112 0.000000 0.691523
O O16 0.500000 0.179507 0.214489
O O17 0.241691 0.000000 0.212161
#
# Coordination Sequence:
#
# PCOD9385809 Si02
#       6
#     4   8   4   8   8   8
#     4  11  24  39  54  72  96 129 170 217 268 318
#     4   9  19  36  60  89 118 150 191 241 294 345
#     4  11  25  41  57  81 115 157 201 242 289 344
#     4  10  20  34  53  77 104 134 170 212 257 308
#     4   9  16  25  43  75 110 140 168 204 256 314
#     4   8  14  26  46  76 111 141 171 213 267 323
#
# _framework density 20.301378
#
# number of rings (size 3 to 8) (size 9 to 14) (size 15 to 20)
#    0.000    2.600    0.000    3.300    1.400    7.200 
#    0.000    2.000    0.000    1.200    0.000    2.800 
#    0.000    0.000    0.000    0.000    0.000    0.000 
#
# Total GULP energy -222839.116040 kJ/mol
# GULP energy per Si atom -5570.977901 kJ/mol
# Density = 2.025517 g / cm^3
# Si number density = 20.301378 Si / 1000 Ang^3
#
#
#
# Elastic Constant Matrix: (Units=GPa)
#
#
# Indices 1 2 3 4 5 6 
#
# 1 88.3407 10.2678 93.5379 0.0000 0.0000 0.0000
# 2 10.2678 16.6168 21.0952 0.0000 0.0000 0.0000
# 3 93.5379 21.0952 228.3393 0.0000 0.0000 0.0000
# 4 0.0000 0.0000 0.0000 -15.6198 0.0000 0.0000
# 5 0.0000 0.0000 0.0000 0.0000 39.8322 0.0000
# 6 0.0000 0.0000 0.0000 0.0000 0.0000 6.7875
#
#
#
# Elastic Compliance Matrix: (Units=1/GPa)
#
#
# Indices 1 2 3 4 5 6 
#
# 1 0.020063 -0.002224 -0.008013 0.000000 0.000000 0.000000
# 2 -0.002224 0.068423 -0.005410 0.000000 0.000000 0.000000
# 3 -0.008013 -0.005410 0.008162 0.000000 0.000000 0.000000
# 4 0.000000 0.000000 0.000000 -0.064021 0.000000 0.000000
# 5 0.000000 0.000000 0.000000 0.000000 0.025105 0.000000
# 6 0.000000 0.000000 0.000000 0.000000 0.000000 0.147330
#
#
# Mechanical properties :
#
#
# Convention : Reuss Voigt Hill
#
# Bulk Modulus (GPa) = 15.30170 64.78875 40.04522
# Shear Modulus (GPa) = 19.36925 20.09302 19.73114
#
# Velocity S-wave (km/s) = 3.09218 3.14942 3.12093
# Velocity P-wave (km/s) = 4.50582 6.72368 5.72321
#
# Compressibility (1/GPa) = 0.06535223
#
# Stress axis : x y z
#
# Youngs Moduli (GPa) = 49.84312 14.61501 122.52194
#
# Poissons Ratio (x) = 0.03251 0.98179
# Poissons Ratio (y) = 0.11087 0.66285
# Poissons Ratio (z) = 0.39940 0.07907
#
# Static dielectric constant tensor:
#      x y z
#    x 1.692110 0.000000 0.000000 
#    y 0.000000 1.740350 0.000000 
#    z 0.000000 0.000000 1.801340 
# 
# From -- ./inp_files/33031.got.cif
#   From: 2010.05.17/outbox.cif.g08.bks.cpg/sg47_17_cif.got.tgz:33031.got - 2010.06.03 20:15:42.
