data_PCOD9385931
_publ_section_title
;
Structure prediction by ZEFSAII (Michael W. Deem and Ramdas Pophale) SiO2 
 PCOD9385931
Probable space group: P M M M
;
_chemical_formula_sum "Si O2"
_cell_formula_units_Z 40
_cell_length_a 12.982874
_cell_length_b 18.453285
_cell_length_c 7.494534
_cell_angle_alpha 90.000000
_cell_angle_beta 90.000000
_cell_angle_gamma 90.000000
_cell_volume 1795.515529
_symmetry_space_group_name_H-M "P M M M"
_symmetry_group_IT_number 47
_symmetry_cell_setting 'orthorhombic'
loop_
_space_group_symop_operation_xyz
x,y,z
-x,-y,z
x,-y,-z
-x,y,-z
-x,-y,-z
x,y,-z
-x,y,z
x,-y,z
loop_
_atom_site_type_symbol
_atom_site_label
_atom_site_fract_x
_atom_site_fract_y
_atom_site_fract_z
Si Si1 0.779733 0.581305 0.718133
Si Si2 0.000000 0.359467 0.281966
Si Si3 0.835857 0.921308 0.292670
Si Si4 0.614553 0.130854 0.792740
Si Si5 0.000000 0.806933 0.281560
Si Si6 0.615957 0.299711 0.284140
O O1 0.778169 0.582197 0.500000
O O2 0.751961 0.500000 0.773965
O O3 0.895372 0.601310 0.773829
O O4 0.700474 0.643097 0.777763
O O5 0.000000 0.275914 0.221977
O O6 0.000000 0.359974 0.500000
O O7 0.865645 0.924995 0.500000
O O8 0.714066 0.907315 0.286311
O O9 0.900861 0.853507 0.221742
O O10 0.859721 0.000000 0.212159
O O11 0.500000 0.115589 0.717420
O O12 0.631615 0.217386 0.777902
O O13 0.612425 0.110770 0.000000
O O14 0.000000 0.802087 0.500000
O O15 0.620361 0.297249 0.500000
O O16 0.500000 0.321565 0.232449
#
# Coordination Sequence:
#
# PCOD9385931 Si02
#       6
#     8   4   8   8   4   8
#     4   9  16  25  40  67 101 130 157 195 244 293
#     4   9  15  23  39  64  96 131 160 190 234 289
#     4  10  20  34  54  79 105 132 164 205 252 301
#     4  10  21  36  53  73 100 135 172 210 252 298
#     4   9  17  31  52  77 104 133 166 204 248 297
#     4   9  17  30  49  71  95 126 165 207 248 292
#
# _framework density 22.277723000000002
#
# number of rings (size 3 to 8) (size 9 to 14) (size 15 to 20)
#    0.000    2.600    0.000    2.400    0.000    8.000 
#    0.000    4.500    0.000    1.800    0.000    2.800 
#    0.000    3.200    0.000    0.000    0.000    0.000 
#
# Total GULP energy -223412.359363 kJ/mol
# GULP energy per Si atom -5585.308984 kJ/mol
# Density = 2.222702 g / cm^3
# Si number density = 22.277723 Si / 1000 Ang^3
#
#
#
# Elastic Constant Matrix: (Units=GPa)
#
#
# Indices 1 2 3 4 5 6 
#
# 1 79.5050 1.5561 -2.4810 0.0000 0.0000 0.0000
# 2 1.5561 39.8005 -5.8839 0.0000 0.0000 0.0000
# 3 -2.4810 -5.8839 58.6700 0.0000 0.0000 0.0000
# 4 0.0000 0.0000 0.0000 -77.7838 0.0000 0.0000
# 5 0.0000 0.0000 0.0000 0.0000 38.8947 0.0000
# 6 0.0000 0.0000 0.0000 0.0000 0.0000 207.2789
#
#
#
# Elastic Compliance Matrix: (Units=1/GPa)
#
#
# Indices 1 2 3 4 5 6 
#
# 1 0.012601 -0.000420 0.000491 0.000000 0.000000 0.000000
# 2 -0.000420 0.025517 0.002541 0.000000 0.000000 0.000000
# 3 0.000491 0.002541 0.017320 0.000000 0.000000 0.000000
# 4 0.000000 0.000000 0.000000 -0.012856 0.000000 0.000000
# 5 0.000000 0.000000 0.000000 0.000000 0.025710 0.000000
# 6 0.000000 0.000000 0.000000 0.000000 0.000000 0.004824
#
#
# Mechanical properties :
#
#
# Convention : Reuss Voigt Hill
#
# Bulk Modulus (GPa) = 16.48457 18.26200 17.37328
# Shear Modulus (GPa) = 56.74425 45.99690 51.37057
#
# Velocity S-wave (km/s) = 5.05238 4.54883 4.80721
# Velocity P-wave (km/s) = 6.43825 5.98368 6.21512
#
# Compressibility (1/GPa) = 0.06066278
#
# Stress axis : x y z
#
# Youngs Moduli (GPa) = 79.35655 39.18891 57.73633
#
# Poissons Ratio (x) = 0.01646 -0.02833
# Poissons Ratio (y) = 0.03334 -0.14673
# Poissons Ratio (z) = -0.03894 -0.09959
#
# Static dielectric constant tensor:
#      x y z
#    x 1.798540 0.000000 0.000000 
#    y 0.000000 1.786900 0.000000 
#    z 0.000000 0.000000 1.884230 
# 
# From -- ./inp_files/4123.got.cif
#   From: 2010.05.17/outbox.cif.g08.bks.cpg/sg47_3_cif.got.tgz:4123.got - 2010.06.03 20:15:42.
