data_PCOD9385527
_publ_section_title
;
Structure prediction by ZEFSAII (Michael W. Deem and Ramdas Pophale) SiO2 
 PCOD9385527
Probable space group: P M M M
;
_chemical_formula_sum "Si O2"
_cell_formula_units_Z 56
_cell_length_a 24.104228
_cell_length_b 7.772687
_cell_length_c 14.232136
_cell_angle_alpha 90.000000
_cell_angle_beta 90.000000
_cell_angle_gamma 90.000000
_cell_volume 2666.456427
_symmetry_space_group_name_H-M "P M M M"
_symmetry_group_IT_number 47
_symmetry_cell_setting 'orthorhombic'
loop_
_space_group_symop_operation_xyz
x,y,z
-x,-y,z
x,-y,-z
-x,y,-z
-x,-y,-z
x,y,-z
-x,y,z
x,-y,z
loop_
_atom_site_type_symbol
_atom_site_label
_atom_site_fract_x
_atom_site_fract_y
_atom_site_fract_z
Si Si1 0.560762 0.208382 0.796414
Si Si2 0.386794 0.789718 0.606877
Si Si3 0.934124 0.704002 0.771610
Si Si4 0.143742 0.297771 0.605254
Si Si5 0.734901 0.800761 0.614325
Si Si6 0.246064 0.000000 0.884792
Si Si7 0.881473 0.000000 0.888378
Si Si8 0.676095 0.690010 0.113346
O O1 0.500000 0.265478 0.829242
O O2 0.569967 0.256811 0.687149
O O3 0.613782 0.275455 0.852134
O O4 0.562457 0.000000 0.802031
O O5 0.397963 0.732830 0.500000
O O6 0.325553 0.729132 0.640115
O O7 0.384197 0.000000 0.603927
O O8 0.922014 0.500000 0.788009
O O9 0.901202 0.765955 0.678892
O O10 0.000000 0.720497 0.760006
O O11 0.912265 0.829501 0.852234
O O12 0.140660 0.221006 0.500000
O O13 0.132883 0.500000 0.596409
O O14 0.206706 0.279287 0.642110
O O15 0.733645 0.793032 0.500000
O O16 0.736916 0.000000 0.642046
O O17 0.182497 0.000000 0.853847
O O18 0.281015 0.834329 0.853096
O O19 0.245808 0.000000 0.000000
O O20 0.880443 0.000000 0.000000
O O21 0.694095 0.500000 0.142291
O O22 0.675558 0.697813 0.000000
#
# Coordination Sequence:
#
# PCOD9385527 Si02
#       8
#     8   8   8   8   8   4   4   8
#     4  10  20  33  52  81 116 154 198 245 289 340
#     4   8  15  29  48  72 105 147 193 238 287 342
#     4  10  23  42  62  90 127 164 208 254 293 348
#     4   9  18  33  54  83 120 159 197 241 296 355
#     4   8  14  26  46  72 104 144 189 236 286 341
#     4   9  20  41  65  92 121 147 186 242 300 362
#     4  11  25  44  68  93 120 157 201 253 311 364
#     4  10  21  39  63  88 118 154 187 230 295 362
#
# _framework density 21.001656000000001
#
# number of rings (size 3 to 8) (size 9 to 14) (size 15 to 20)
#    0.000    2.714    0.714    1.071    1.000    3.714 
#    0.000    8.571    0.000    2.143    0.000    1.000 
#    0.000    0.000    0.000    0.000    0.000    0.000 
#
# Total GULP energy -312578.660315 kJ/mol
# GULP energy per Si atom -5581.761791 kJ/mol
# Density = 2.095386 g / cm^3
# Si number density = 21.001656 Si / 1000 Ang^3
#
#
#
# Elastic Constant Matrix: (Units=GPa)
#
#
# Indices 1 2 3 4 5 6 
#
# 1 106.7985 38.9882 17.1481 0.0000 0.0000 0.0000
# 2 38.9882 74.5475 19.8476 0.0000 0.0000 0.0000
# 3 17.1481 19.8476 36.6485 0.0000 0.0000 0.0000
# 4 0.0000 0.0000 0.0000 13.6802 0.0000 0.0000
# 5 0.0000 0.0000 0.0000 0.0000 26.9279 0.0000
# 6 0.0000 0.0000 0.0000 0.0000 0.0000 -14.3190
#
#
#
# Elastic Compliance Matrix: (Units=1/GPa)
#
#
# Indices 1 2 3 4 5 6 
#
# 1 0.011772 -0.005480 -0.002540 0.000000 0.000000 0.000000
# 2 -0.005480 0.018226 -0.007306 0.000000 0.000000 0.000000
# 3 -0.002540 -0.007306 0.032432 0.000000 0.000000 0.000000
# 4 0.000000 0.000000 0.000000 0.073098 0.000000 0.000000
# 5 0.000000 0.000000 0.000000 0.000000 0.037136 0.000000
# 6 0.000000 0.000000 0.000000 0.000000 0.000000 -0.069837
#
#
# Mechanical properties :
#
#
# Convention : Reuss Voigt Hill
#
# Bulk Modulus (GPa) = 31.47043 41.10690 36.28866
# Shear Modulus (GPa) = 34.70487 14.72519 24.71503
#
# Velocity S-wave (km/s) = 4.06948 2.65079 3.43419
# Velocity P-wave (km/s) = 6.09083 5.38373 5.74816
#
# Compressibility (1/GPa) = 0.03177586
#
# Stress axis : x y z
#
# Youngs Moduli (GPa) = 84.94738 54.86758 30.83416
#
# Poissons Ratio (x) = 0.30070 0.07832
# Poissons Ratio (y) = 0.46555 0.22528
# Poissons Ratio (z) = 0.21578 0.40087
#
# Static dielectric constant tensor:
#      x y z
#    x 1.724000 0.000000 0.000000 
#    y 0.000000 1.769980 0.000000 
#    z 0.000000 0.000000 1.801010 
# 
# From -- ./inp_files/25245.got.cif
#   From: 2010.05.17/outbox.cif.g08.bks.cpg/sg47_13_cif.got.tgz:25245.got - 2010.06.03 20:15:42.
