data_PCOD9385218
_publ_section_title
;
Structure prediction by ZEFSAII (Michael W. Deem and Ramdas Pophale) SiO2 
 PCOD9385218
Probable space group: P M M M
;
_chemical_formula_sum "Si O2"
_cell_formula_units_Z 40
_cell_length_a 28.103992
_cell_length_b 8.660079
_cell_length_c 7.529388
_cell_angle_alpha 90.000000
_cell_angle_beta 90.000000
_cell_angle_gamma 90.000000
_cell_volume 1832.523465
_symmetry_space_group_name_H-M "P M M M"
_symmetry_group_IT_number 47
_symmetry_cell_setting 'orthorhombic'
loop_
_space_group_symop_operation_xyz
x,y,z
-x,-y,z
x,-y,-z
-x,y,-z
-x,-y,-z
x,y,-z
-x,y,z
x,-y,z
loop_
_atom_site_type_symbol
_atom_site_label
_atom_site_fract_x
_atom_site_fract_y
_atom_site_fract_z
Si Si1 0.802313 0.824798 0.286666
Si Si2 0.000000 0.823910 0.217328
Si Si3 0.556301 0.000000 0.213506
Si Si4 0.400655 0.674559 0.206309
Si Si5 0.902723 0.329276 0.212220
Si Si6 0.697690 0.817782 0.284990
O O1 0.799776 0.827843 0.500000
O O2 0.851446 0.744796 0.241316
O O3 0.750562 0.764769 0.227658
O O4 0.805337 0.000000 0.221341
O O5 0.049586 0.751796 0.279947
O O6 0.000000 0.000000 0.269183
O O7 0.000000 0.815931 0.000000
O O8 0.576709 0.165177 0.282176
O O9 0.500000 0.000000 0.240812
O O10 0.566233 0.000000 0.000000
O O11 0.410077 0.500000 0.279241
O O12 0.344510 0.711813 0.215426
O O13 0.415853 0.668758 0.000000
O O14 0.901308 0.500000 0.286482
O O15 0.908616 0.335826 0.000000
O O16 0.695457 0.813764 0.500000
O O17 0.691367 0.000000 0.234258
#
# Coordination Sequence:
#
# PCOD9385218 Si02
#       6
#     8   4   4   8   8   8
#     4   9  19  35  53  74 101 134 173 213 253 303
#     4   9  17  31  52  73  94 125 166 208 252 305
#     4   9  18  34  55  79 111 147 179 218 269 314
#     4  10  20  33  53  82 111 140 179 223 265 314
#     4  10  20  33  50  74 103 132 164 206 256 308
#     4   9  18  34  55  76 102 140 180 217 263 316
#
# _framework density 21.827824
#
# number of rings (size 3 to 8) (size 9 to 14) (size 15 to 20)
#    0.000    2.600    1.000    2.100    0.000    5.200 
#    0.000    8.500    0.000    4.200    0.000    1.400 
#    0.000    0.000    0.000    0.000    0.000    0.000 
#
# Total GULP energy -222995.331060 kJ/mol
# GULP energy per Si atom -5574.883277 kJ/mol
# Density = 2.177814 g / cm^3
# Si number density = 21.827824 Si / 1000 Ang^3
#
#
#
# Elastic Constant Matrix: (Units=GPa)
#
#
# Indices 1 2 3 4 5 6 
#
# 1 123.8675 89.1418 -3.7451 0.0000 0.0000 0.0000
# 2 89.1418 159.5081 5.5725 0.0000 0.0000 0.0000
# 3 -3.7451 5.5725 53.9615 0.0000 0.0000 0.0000
# 4 0.0000 0.0000 0.0000 -52.3966 0.0000 0.0000
# 5 0.0000 0.0000 0.0000 0.0000 31.9996 0.0000
# 6 0.0000 0.0000 0.0000 0.0000 0.0000 -10.4942
#
#
#
# Elastic Compliance Matrix: (Units=1/GPa)
#
#
# Indices 1 2 3 4 5 6 
#
# 1 0.013666 -0.007698 0.001743 0.000000 0.000000 0.000000
# 2 -0.007698 0.010628 -0.001632 0.000000 0.000000 0.000000
# 3 0.001743 -0.001632 0.018821 0.000000 0.000000 0.000000
# 4 0.000000 0.000000 0.000000 -0.019085 0.000000 0.000000
# 5 0.000000 0.000000 0.000000 0.000000 0.031250 0.000000
# 6 0.000000 0.000000 0.000000 0.000000 0.000000 -0.095291
#
#
# Mechanical properties :
#
#
# Convention : Reuss Voigt Hill
#
# Bulk Modulus (GPa) = 35.78792 57.69730 46.74261
# Shear Modulus (GPa) = -322.10835 10.24629 -155.93103
#
# Velocity S-wave (km/s) = -12.16093 2.16895 -8.46120
# Velocity P-wave (km/s) = 13.44444 5.72387 8.60204
#
# Compressibility (1/GPa) = 0.02794239
#
# Stress axis : x y z
#
# Youngs Moduli (GPa) = 73.17516 94.08743 53.13146
#
# Poissons Ratio (x) = 0.72430 -0.09263
# Poissons Ratio (y) = 0.56331 0.08670
# Poissons Ratio (z) = -0.12757 0.15354
#
# Static dielectric constant tensor:
#      x y z
#    x 1.949590 0.000000 0.000000 
#    y 0.000000 1.810310 0.000000 
#    z 0.000000 0.000000 1.840800 
# 
# From -- ./inp_files/1765.got.cif
#   From: 2010.05.17/outbox.cif.g08.bks.cpg/sg47_1_cif.got.tgz:1765.got - 2010.06.03 20:15:42.
