data_PCOD9385042
_publ_section_title
;
Structure prediction by ZEFSAII (Michael W. Deem and Ramdas Pophale) SiO2 
 PCOD9385042
Probable space group: P M M M
;
_chemical_formula_sum "Si O2"
_cell_formula_units_Z 52
_cell_length_a 20.497940
_cell_length_b 15.551845
_cell_length_c 9.394286
_cell_angle_alpha 90.000000
_cell_angle_beta 90.000000
_cell_angle_gamma 90.000000
_cell_volume 2994.717872
_symmetry_space_group_name_H-M "P M M M"
_symmetry_group_IT_number 47
_symmetry_cell_setting 'orthorhombic'
loop_
_space_group_symop_operation_xyz
x,y,z
-x,-y,z
x,-y,-z
-x,y,-z
-x,-y,-z
x,y,-z
-x,y,z
x,-y,z
loop_
_atom_site_type_symbol
_atom_site_label
_atom_site_fract_x
_atom_site_fract_y
_atom_site_fract_z
Si Si1 0.688935 0.777036 0.827238
Si Si2 0.253840 0.400475 0.828684
Si Si3 0.000000 0.600331 0.843928
Si Si4 0.574955 0.097936 0.173404
Si Si5 0.876484 0.654497 0.663633
Si Si6 0.197726 0.094838 0.830622
Si Si7 0.076443 0.851294 0.662495
O O1 0.695562 0.676219 0.791305
O O2 0.625772 0.829906 0.777066
O O3 0.753065 0.830623 0.779927
O O4 0.688417 0.781212 0.000000
O O5 0.271749 0.500000 0.797366
O O6 0.188627 0.374266 0.744383
O O7 0.242102 0.395518 0.000000
O O8 0.936683 0.620012 0.753191
O O9 0.000000 0.500000 0.865059
O O10 0.000000 0.643980 0.000000
O O11 0.500000 0.114123 0.216290
O O12 0.592708 0.000000 0.215935
O O13 0.576073 0.098600 0.000000
O O14 0.875387 0.624383 0.500000
O O15 0.892415 0.755940 0.661074
O O16 0.126572 0.098808 0.761395
O O17 0.226810 0.000000 0.804265
O O18 0.190651 0.105315 0.000000
O O19 0.077946 0.883881 0.500000
O O20 0.000000 0.848752 0.706369
#
# Coordination Sequence:
#
# PCOD9385042 Si02
#       7
#     8   8   4   8   8   8   8
#     4   9  16  28  46  68  98 133 163 201 247 288
#     4  10  20  33  49  70  96 128 165 201 246 302
#     4  11  23  35  49  71  96 123 158 203 261 322
#     4   8  13  22  40  69 103 136 168 201 241 291
#     4  11  21  35  52  70  93 123 162 208 255 301
#     4  10  20  33  51  74  95 121 162 205 245 292
#     4  10  21  37  52  67  91 124 160 199 249 304
#
# _framework density 17.363906
#
# number of rings (size 3 to 8) (size 9 to 14) (size 15 to 20)
#    0.000    2.231    2.308    2.077    0.000    6.154 
#    0.000    1.538    0.000    0.462    0.000    3.231 
#    0.000    2.462    0.000    9.846    0.000    9.231 
#
# Total GULP energy -289603.574707 kJ/mol
# GULP energy per Si atom -5569.299514 kJ/mol
# Density = 1.732438 g / cm^3
# Si number density = 17.363906 Si / 1000 Ang^3
#
#
#
# Elastic Constant Matrix: (Units=GPa)
#
#
# Indices 1 2 3 4 5 6 
#
# 1 111.0940 69.7490 22.6856 0.0000 0.0000 0.0000
# 2 69.7490 126.5093 32.4053 0.0000 0.0000 0.0000
# 3 22.6856 32.4053 31.1060 0.0000 0.0000 0.0000
# 4 0.0000 0.0000 0.0000 8.9303 0.0000 0.0000
# 5 0.0000 0.0000 0.0000 0.0000 -21.8212 0.0000
# 6 0.0000 0.0000 0.0000 0.0000 0.0000 -69.2174
#
#
#
# Elastic Compliance Matrix: (Units=1/GPa)
#
#
# Indices 1 2 3 4 5 6 
#
# 1 0.013962 -0.006942 -0.002951 0.000000 0.000000 0.000000
# 2 -0.006942 0.014233 -0.009765 0.000000 0.000000 0.000000
# 3 -0.002951 -0.009765 0.044473 0.000000 0.000000 0.000000
# 4 0.000000 0.000000 0.000000 0.111978 0.000000 0.000000
# 5 0.000000 0.000000 0.000000 0.000000 -0.045827 0.000000
# 6 0.000000 0.000000 0.000000 0.000000 0.000000 -0.014447
#
#
# Mechanical properties :
#
#
# Convention : Reuss Voigt Hill
#
# Bulk Modulus (GPa) = 29.98220 57.59880 43.79050
# Shear Modulus (GPa) = 28.60316 -6.83038 10.88639
#
# Velocity S-wave (km/s) = 4.06307 -1.98550 2.50662
# Velocity P-wave (km/s) = 6.27023 5.29030 5.80100
#
# Compressibility (1/GPa) = 0.03335313
#
# Stress axis : x y z
#
# Youngs Moduli (GPa) = 71.62043 70.25769 22.48563
#
# Poissons Ratio (x) = 0.48774 0.06635
# Poissons Ratio (y) = 0.49720 0.21957
# Poissons Ratio (z) = 0.21133 0.68606
#
# Static dielectric constant tensor:
#      x y z
#    x 1.575190 0.000000 0.000000 
#    y 0.000000 1.644410 0.000000 
#    z 0.000000 0.000000 1.597400 
# 
# From -- ./inp_files/6967.got.cif
#   From: 2010.05.17/outbox.cif.g08.bks.cpg/sg47_4_cif.got.tgz:6967.got - 2010.06.03 20:15:42.
