data_PCOD9385548
_publ_section_title
;
Structure prediction by ZEFSAII (Michael W. Deem and Ramdas Pophale) SiO2 
 PCOD9385548
Probable space group: P M M M
;
_chemical_formula_sum "Si O2"
_cell_formula_units_Z 64
_cell_length_a 20.010686
_cell_length_b 8.884370
_cell_length_c 21.229436
_cell_angle_alpha 90.000000
_cell_angle_beta 90.000000
_cell_angle_gamma 90.000000
_cell_volume 3774.218775
_symmetry_space_group_name_H-M "P M M M"
_symmetry_group_IT_number 47
_symmetry_cell_setting 'orthorhombic'
loop_
_space_group_symop_operation_xyz
x,y,z
-x,-y,z
x,-y,-z
-x,y,-z
-x,-y,-z
x,y,-z
-x,y,z
x,-y,z
loop_
_atom_site_type_symbol
_atom_site_label
_atom_site_fract_x
_atom_site_fract_y
_atom_site_fract_z
Si Si1 0.790368 0.179909 0.314267
Si Si2 0.704439 0.818342 0.810206
Si Si3 0.925003 0.680648 0.881562
Si Si4 0.924388 0.680599 0.732261
Si Si5 0.709389 0.320369 0.570548
Si Si6 0.575865 0.819933 0.382626
Si Si7 0.209224 0.818732 0.069813
Si Si8 0.576171 0.321510 0.756276
O O1 0.748509 0.221917 0.251338
O O2 0.865297 0.239397 0.304780
O O3 0.754440 0.249139 0.374904
O O4 0.789825 0.000000 0.318855
O O5 0.743057 0.769118 0.873134
O O6 0.632548 0.743259 0.801703
O O7 0.697679 0.000000 0.811001
O O8 0.920738 0.500000 0.888415
O O9 0.917727 0.714782 0.806936
O O10 0.864938 0.757426 0.917953
O O11 0.000000 0.726820 0.901006
O O12 0.918285 0.500000 0.725699
O O13 0.000000 0.723201 0.713356
O O14 0.733490 0.284138 0.500000
O O15 0.708383 0.500000 0.578050
O O16 0.634437 0.257507 0.578654
O O17 0.500000 0.783686 0.403312
O O18 0.582993 0.762184 0.310828
O O19 0.583925 0.000000 0.384120
O O20 0.206989 0.000000 0.072220
O O21 0.232120 0.773138 0.000000
O O22 0.500000 0.297035 0.778390
O O23 0.585640 0.500000 0.746522
#
# Coordination Sequence:
#
# PCOD9385548 Si02
#       8
#     8   8   8   8   8   8   8   8
#     4  11  21  34  56  83 108 138 177 223 269 312
#     4  10  20  34  53  79 106 137 177 219 266 314
#     4   9  18  32  50  74 105 141 179 216 256 307
#     4   9  18  33  54  80 109 141 177 218 265 315
#     4  11  24  39  55  77 107 144 182 219 262 314
#     4  10  20  34  53  78 109 144 179 215 258 309
#     4  10  21  36  52  73 105 142 179 219 262 312
#     4  10  20  33  53  81 108 136 173 217 265 315
#
# _framework density 16.957153000000002
#
# number of rings (size 3 to 8) (size 9 to 14) (size 15 to 20)
#    0.000    2.000    2.500    2.250    0.000    4.750 
#    0.000    3.750    0.000    0.750    0.000    5.250 
#    0.000    0.000    0.000    0.000    0.000    0.000 
#
# Total GULP energy -357230.057125 kJ/mol
# GULP energy per Si atom -5581.719643 kJ/mol
# Density = 1.691856 g / cm^3
# Si number density = 16.957153 Si / 1000 Ang^3
#
#
#
# Elastic Constant Matrix: (Units=GPa)
#
#
# Indices 1 2 3 4 5 6 
#
# 1 111.1354 38.6721 68.0268 0.0000 0.0000 0.0000
# 2 38.6721 31.7883 41.5741 0.0000 0.0000 0.0000
# 3 68.0268 41.5741 115.2481 0.0000 0.0000 0.0000
# 4 0.0000 0.0000 0.0000 20.4571 0.0000 0.0000
# 5 0.0000 0.0000 0.0000 0.0000 20.9314 0.0000
# 6 0.0000 0.0000 0.0000 0.0000 0.0000 32.9611
#
#
#
# Elastic Compliance Matrix: (Units=1/GPa)
#
#
# Indices 1 2 3 4 5 6 
#
# 1 0.016924 -0.014245 -0.004851 0.000000 0.000000 0.000000
# 2 -0.014245 0.071545 -0.017401 0.000000 0.000000 0.000000
# 3 -0.004851 -0.017401 0.017817 0.000000 0.000000 0.000000
# 4 0.000000 0.000000 0.000000 0.048883 0.000000 0.000000
# 5 0.000000 0.000000 0.000000 0.000000 0.047775 0.000000
# 6 0.000000 0.000000 0.000000 0.000000 0.000000 0.030339
#
#
# Mechanical properties :
#
#
# Convention : Reuss Voigt Hill
#
# Bulk Modulus (GPa) = 30.03592 61.63531 45.83562
# Shear Modulus (GPa) = 15.75430 22.19651 18.97540
#
# Velocity S-wave (km/s) = 3.05136 3.62190 3.34881
# Velocity P-wave (km/s) = 5.49233 7.34285 6.48395
#
# Compressibility (1/GPa) = 0.03329347
#
# Stress axis : x y z
#
# Youngs Moduli (GPa) = 59.08681 13.97729 56.12470
#
# Poissons Ratio (x) = 0.19910 0.27228
# Poissons Ratio (y) = 0.84167 0.97660
# Poissons Ratio (z) = 0.28665 0.24321
#
# Static dielectric constant tensor:
#      x y z
#    x 1.567400 0.000000 0.000000 
#    y 0.000000 1.564590 0.000000 
#    z 0.000000 0.000000 1.569820 
# 
# From -- ./inp_files/10029.got.cif
#   From: 2010.05.17/outbox.cif.g08.bks.cpg/sg47_6_cif.got.tgz:10029.got - 2010.06.03 20:15:42.
