data_PCOD9385470
_publ_section_title
;
Structure prediction by ZEFSAII (Michael W. Deem and Ramdas Pophale) SiO2 
 PCOD9385470
Probable space group: P M M M
;
_chemical_formula_sum "Si O2"
_cell_formula_units_Z 48
_cell_length_a 31.490289
_cell_length_b 7.962832
_cell_length_c 9.803435
_cell_angle_alpha 90.000000
_cell_angle_beta 90.000000
_cell_angle_gamma 90.000000
_cell_volume 2458.229766
_symmetry_space_group_name_H-M "P M M M"
_symmetry_group_IT_number 47
_symmetry_cell_setting 'orthorhombic'
loop_
_space_group_symop_operation_xyz
x,y,z
-x,-y,z
x,-y,-z
-x,y,-z
-x,-y,-z
x,y,-z
-x,y,z
x,-y,z
loop_
_atom_site_type_symbol
_atom_site_label
_atom_site_fract_x
_atom_site_fract_y
_atom_site_fract_z
Si Si1 0.749383 0.798697 0.654323
Si Si2 0.500000 0.300562 0.653380
Si Si3 0.577102 0.797739 0.154402
Si Si4 0.673341 0.205154 0.843805
Si Si5 0.922442 0.797482 0.155502
Si Si6 0.826519 0.299703 0.845014
Si Si7 0.000000 0.794100 0.343172
O O1 0.751496 0.732632 0.500000
O O2 0.708857 0.733854 0.739274
O O3 0.791736 0.764637 0.740001
O O4 0.744634 0.000000 0.646166
O O5 0.500000 0.500000 0.643406
O O6 0.500000 0.228770 0.500000
O O7 0.541617 0.251164 0.738231
O O8 0.625096 0.741511 0.188337
O O9 0.578042 0.000000 0.149716
O O10 0.566863 0.738946 0.000000
O O11 0.673699 0.000000 0.841750
O O12 0.683074 0.254998 0.000000
O O13 0.874610 0.747878 0.193338
O O14 0.958288 0.738979 0.260188
O O15 0.924406 0.000000 0.152802
O O16 0.930439 0.737809 0.000000
O O17 0.823553 0.500000 0.848902
O O18 0.818937 0.234762 0.000000
O O19 0.000000 0.739427 0.500000
O O20 0.000000 0.000000 0.343537
#
# Coordination Sequence:
#
# PCOD9385470 Si02
#       7
#     8   4   8   8   8   8   4
#     4  10  20  33  52  79 107 135 168 206 251 304
#     4  11  24  37  48  70 106 143 176 209 248 298
#     4   9  18  34  57  82 103 127 166 213 257 303
#     4   8  15  30  53  79 104 129 162 208 256 300
#     4   9  17  31  52  75  98 127 164 206 252 299
#     4  10  21  36  53  74 101 135 175 215 254 298
#     4   9  17  29  48  75 102 126 158 203 250 297
#
# _framework density 19.526247000000001
#
# number of rings (size 3 to 8) (size 9 to 14) (size 15 to 20)
#    0.000    2.667    0.000    2.750    0.000    6.333 
#    0.000    4.583    0.000    3.500    0.000    0.000 
#    0.000    0.000    0.000    0.000    0.000    0.000 
#
# Total GULP energy -267852.663923 kJ/mol
# GULP energy per Si atom -5580.263832 kJ/mol
# Density = 1.948180 g / cm^3
# Si number density = 19.526247 Si / 1000 Ang^3
#
#
#
# Elastic Constant Matrix: (Units=GPa)
#
#
# Indices 1 2 3 4 5 6 
#
# 1 181.2937 7.6317 155.3945 0.0000 0.0000 0.0000
# 2 7.6317 15.4955 12.0862 0.0000 0.0000 0.0000
# 3 155.3945 12.0862 181.9515 0.0000 0.0000 0.0000
# 4 0.0000 0.0000 0.0000 8.1892 0.0000 0.0000
# 5 0.0000 0.0000 0.0000 0.0000 -58.3144 0.0000
# 6 0.0000 0.0000 0.0000 0.0000 0.0000 -62.5636
#
#
#
# Elastic Compliance Matrix: (Units=1/GPa)
#
#
# Indices 1 2 3 4 5 6 
#
# 1 0.020795 0.003808 -0.018013 0.000000 0.000000 0.000000
# 2 0.003808 0.068758 -0.007819 0.000000 0.000000 0.000000
# 3 -0.018013 -0.007819 0.021399 0.000000 0.000000 0.000000
# 4 0.000000 0.000000 0.000000 0.122111 0.000000 0.000000
# 5 0.000000 0.000000 0.000000 0.000000 -0.017148 0.000000
# 6 0.000000 0.000000 0.000000 0.000000 0.000000 -0.015984
#
#
# Mechanical properties :
#
#
# Convention : Reuss Voigt Hill
#
# Bulk Modulus (GPa) = 14.94680 80.99616 47.97148
# Shear Modulus (GPa) = 18.77700 -8.96252 4.90724
#
# Velocity S-wave (km/s) = 3.10438 -2.14475 1.58701
# Velocity P-wave (km/s) = 4.53000 5.95294 5.28953
#
# Compressibility (1/GPa) = 0.06690395
#
# Stress axis : x y z
#
# Youngs Moduli (GPa) = 48.08738 14.54367 46.73023
#
# Poissons Ratio (x) = -0.05538 0.84176
# Poissons Ratio (y) = -0.18311 0.36540
# Poissons Ratio (z) = 0.86621 0.11372
#
# Static dielectric constant tensor:
#      x y z
#    x 1.659020 0.000000 0.000000 
#    y 0.000000 1.695010 0.000000 
#    z 0.000000 0.000000 1.684830 
# 
# From -- ./inp_files/13899.got.cif
#   From: 2010.05.17/outbox.cif.g08.bks.cpg/sg47_7_cif.got.tgz:13899.got - 2010.06.03 20:15:42.
