data_PCOD9385215
_publ_section_title
;
Structure prediction by ZEFSAII (Michael W. Deem and Ramdas Pophale) SiO2 
 PCOD9385215
Probable space group: P M M M
;
_chemical_formula_sum "Si O2"
_cell_formula_units_Z 48
_cell_length_a 7.479186
_cell_length_b 16.247894
_cell_length_c 17.680745
_cell_angle_alpha 90.000000
_cell_angle_beta 90.000000
_cell_angle_gamma 90.000000
_cell_volume 2148.582190
_symmetry_space_group_name_H-M "P M M M"
_symmetry_group_IT_number 47
_symmetry_cell_setting 'orthorhombic'
loop_
_space_group_symop_operation_xyz
x,y,z
-x,-y,z
x,-y,-z
-x,y,-z
-x,-y,-z
x,y,-z
-x,y,z
x,-y,z
loop_
_atom_site_type_symbol
_atom_site_label
_atom_site_fract_x
_atom_site_fract_y
_atom_site_fract_z
Si Si1 0.781016 0.000000 0.410720
Si Si2 0.297568 0.753951 0.820739
Si Si3 0.785768 0.672393 0.410390
Si Si4 0.781989 0.500000 0.410474
Si Si5 0.212166 0.910692 0.910156
Si Si6 0.282067 0.405512 0.088150
Si Si7 0.207927 0.832109 0.336756
O O1 0.719243 0.919453 0.364165
O O2 0.728758 0.000000 0.500000
O O3 0.000000 0.000000 0.410851
O O4 0.500000 0.734346 0.797806
O O5 0.297405 0.826884 0.881948
O O6 0.221209 0.669578 0.857358
O O7 0.212368 0.800892 0.749358
O O8 0.764099 0.669822 0.500000
O O9 0.717994 0.586102 0.377239
O O10 0.706834 0.755932 0.380505
O O11 0.000000 0.673331 0.395357
O O12 0.736247 0.500000 0.500000
O O13 0.000000 0.500000 0.408037
O O14 0.000000 0.906056 0.893360
O O15 0.276162 0.000000 0.879391
O O16 0.232896 0.913745 0.000000
O O17 0.500000 0.403458 0.088933
O O18 0.229472 0.500000 0.108538
O O19 0.228941 0.391367 0.000000
O O20 0.000000 0.836838 0.359066
#
# Coordination Sequence:
#
# PCOD9385215 Si02
#       7
#     4   8   8   4   8   8   8
#     4   9  18  34  57  79  96 127 182 233 265 310
#     4  11  22  34  51  78 111 142 176 217 261 312
#     4   8  13  24  44  68  93 122 162 210 256 307
#     4   7  10  18  36  64  93 117 144 191 256 311
#     4   9  19  36  57  79 104 137 174 211 256 310
#     4   8  15  31  55  78 100 134 182 227 261 299
#     4  10  20  33  50  74 102 135 172 216 270 318
#
# _framework density 22.340312999999998
#
# number of rings (size 3 to 8) (size 9 to 14) (size 15 to 20)
#    0.000    3.000    0.000    3.500    1.167    3.333 
#    1.500    0.833    0.000    4.000    0.000    5.833 
#    0.000    2.000    0.000    0.000    0.000    0.000 
#
# Total GULP energy -267313.917427 kJ/mol
# GULP energy per Si atom -5569.039946 kJ/mol
# Density = 2.228947 g / cm^3
# Si number density = 22.340313 Si / 1000 Ang^3
#
#
#
# Elastic Constant Matrix: (Units=GPa)
#
#
# Indices 1 2 3 4 5 6 
#
# 1 55.7226 15.8667 -0.3598 0.0000 0.0000 0.0000
# 2 15.8667 269.1891 104.0386 0.0000 0.0000 0.0000
# 3 -0.3598 104.0386 -28.0390 0.0000 0.0000 0.0000
# 4 0.0000 0.0000 0.0000 21.2056 0.0000 0.0000
# 5 0.0000 0.0000 0.0000 0.0000 0.2633 0.0000
# 6 0.0000 0.0000 0.0000 0.0000 0.0000 8.0513
#
#
#
# Elastic Compliance Matrix: (Units=1/GPa)
#
#
# Indices 1 2 3 4 5 6 
#
# 1 0.018049 -0.000400 -0.001717 0.000000 0.000000 0.000000
# 2 -0.000400 0.001535 0.005701 0.000000 0.000000 0.000000
# 3 -0.001717 0.005701 -0.014489 0.000000 0.000000 0.000000
# 4 0.000000 0.000000 0.000000 0.047157 0.000000 0.000000
# 5 0.000000 0.000000 0.000000 0.000000 3.797812 0.000000
# 6 0.000000 0.000000 0.000000 0.000000 0.000000 0.124204
#
#
# Mechanical properties :
#
#
# Convention : Reuss Voigt Hill
#
# Bulk Modulus (GPa) = 81.54789 59.55152 70.54970
# Shear Modulus (GPa) = 1.25907 17.72585 9.49246
#
# Velocity S-wave (km/s) = 0.75154 2.81987 2.06355
# Velocity P-wave (km/s) = 6.11023 6.10874 6.10948
#
# Compressibility (1/GPa) = 0.01226273
#
# Stress axis : x y z
#
# Youngs Moduli (GPa) = 55.40492 651.43445 -69.01810
#
# Poissons Ratio (x) = 0.26076 -0.11850
# Poissons Ratio (y) = 0.02218 0.39347
# Poissons Ratio (z) = 0.09512 -3.71384
#
# Static dielectric constant tensor:
#      x y z
#    x 1.883170 0.000000 0.000000 
#    y 0.000000 1.894370 0.000000 
#    z 0.000000 0.000000 1.127750 
# 
# From -- ./inp_files/6434.got.cif
#   From: 2010.05.17/outbox.cif.g08.bks.cpg/sg47_4_cif.got.tgz:6434.got - 2010.06.03 20:15:42.
