data_PCOD9385606
_publ_section_title
;
Structure prediction by ZEFSAII (Michael W. Deem and Ramdas Pophale) SiO2 
 PCOD9385606
Probable space group: P M M M
;
_chemical_formula_sum "Si O2"
_cell_formula_units_Z 44
_cell_length_a 17.690277
_cell_length_b 13.981609
_cell_length_c 9.977346
_cell_angle_alpha 90.000000
_cell_angle_beta 90.000000
_cell_angle_gamma 90.000000
_cell_volume 2467.782154
_symmetry_space_group_name_H-M "P M M M"
_symmetry_group_IT_number 47
_symmetry_cell_setting 'orthorhombic'
loop_
_space_group_symop_operation_xyz
x,y,z
-x,-y,z
x,-y,-z
-x,y,-z
-x,-y,-z
x,y,-z
-x,y,z
x,-y,z
loop_
_atom_site_type_symbol
_atom_site_label
_atom_site_fract_x
_atom_site_fract_y
_atom_site_fract_z
Si Si1 0.660304 0.391186 0.837626
Si Si2 0.309015 0.884977 0.247359
Si Si3 0.500000 0.616521 0.843244
Si Si4 0.908997 0.610868 0.343365
Si Si5 0.195277 0.261873 0.837992
Si Si6 0.588375 0.116570 0.500000
Si Si7 0.413525 0.884305 0.000000
O O1 0.670653 0.500000 0.791471
O O2 0.580030 0.353277 0.783813
O O3 0.733108 0.330158 0.809345
O O4 0.653441 0.393964 0.000000
O O5 0.227465 0.837180 0.222642
O O6 0.359084 0.856622 0.374776
O O7 0.301164 0.000000 0.247857
O O8 0.363323 0.855490 0.125090
O O9 0.500000 0.500000 0.840016
O O10 0.500000 0.642804 0.000000
O O11 0.887808 0.627921 0.500000
O O12 0.887706 0.500000 0.310244
O O13 0.872130 0.687344 0.242729
O O14 0.000000 0.616057 0.335653
O O15 0.183127 0.255757 0.000000
O O16 0.500000 0.149401 0.500000
O O17 0.583370 0.000000 0.500000
O O18 0.500000 0.851066 0.000000
O O19 0.417238 0.000000 0.000000
#
# Coordination Sequence:
#
# PCOD9385606 Si02
#       7
#     8   8   4   8   8   4   4
#     4   8  14  25  40  62  94 130 168 211 251 295
#     4  10  20  34  50  75 110 149 191 235 283 327
#     4   7  10  20  36  52  82 128 167 200 243 287
#     4   9  20  40  64  87 111 139 171 214 271 332
#     4  11  21  32  51  83 112 143 180 219 270 331
#     4   9  18  34  54  72  96 141 202 256 292 323
#     4   9  16  30  50  70 102 147 190 236 286 325
#
# _framework density 17.829774
#
# number of rings (size 3 to 8) (size 9 to 14) (size 15 to 20)
#    0.000    2.818    0.909    2.727    1.273    3.636 
#    3.273    0.909    0.000    0.545    0.000    2.545 
#    0.000    5.091    0.000    0.000    0.000    0.000 
#
# Total GULP energy -245002.834287 kJ/mol
# GULP energy per Si atom -5568.246234 kJ/mol
# Density = 1.778919 g / cm^3
# Si number density = 17.829774 Si / 1000 Ang^3
#
#
#
# Elastic Constant Matrix: (Units=GPa)
#
#
# Indices 1 2 3 4 5 6 
#
# 1 67.0864 30.0850 38.3303 0.0000 0.0000 0.0000
# 2 30.0850 71.7336 29.9158 0.0000 0.0000 0.0000
# 3 38.3303 29.9158 111.8833 0.0000 0.0000 0.0000
# 4 0.0000 0.0000 0.0000 -3.9077 0.0000 0.0000
# 5 0.0000 0.0000 0.0000 0.0000 25.1813 0.0000
# 6 0.0000 0.0000 0.0000 0.0000 0.0000 15.6123
#
#
#
# Elastic Compliance Matrix: (Units=1/GPa)
#
#
# Indices 1 2 3 4 5 6 
#
# 1 0.020929 -0.006514 -0.005428 0.000000 0.000000 0.000000
# 2 -0.006514 0.017717 -0.002506 0.000000 0.000000 0.000000
# 3 -0.005428 -0.002506 0.011468 0.000000 0.000000 0.000000
# 4 0.000000 0.000000 0.000000 -0.255906 0.000000 0.000000
# 5 0.000000 0.000000 0.000000 0.000000 0.039712 0.000000
# 6 0.000000 0.000000 0.000000 0.000000 0.000000 0.064052
#
#
# Mechanical properties :
#
#
# Convention : Reuss Voigt Hill
#
# Bulk Modulus (GPa) = 47.12973 49.70727 48.41850
# Shear Modulus (GPa) = -75.68883 17.53534 -29.07675
#
# Velocity S-wave (km/s) = -6.52250 3.13946 -4.04269
# Velocity P-wave (km/s) = 5.49849 6.40944 2.32890
#
# Compressibility (1/GPa) = 0.02121803
#
# Stress axis : x y z
#
# Youngs Moduli (GPa) = 47.78115 56.44207 87.20208
#
# Poissons Ratio (x) = 0.36764 0.47337
# Poissons Ratio (y) = 0.31123 0.21851
# Poissons Ratio (z) = 0.25937 0.14143
#
# Static dielectric constant tensor:
#      x y z
#    x 1.615450 0.000000 0.000000 
#    y 0.000000 1.679130 0.000000 
#    z 0.000000 0.000000 1.583840 
# 
# From -- ./inp_files/9074.got.cif
#   From: 2010.05.17/outbox.cif.g08.bks.cpg/sg47_5_cif.got.tgz:9074.got - 2010.06.03 20:15:42.
