data_PCOD9385418
_publ_section_title
;
Structure prediction by ZEFSAII (Michael W. Deem and Ramdas Pophale) SiO2 
 PCOD9385418
Probable space group: P M M M
;
_chemical_formula_sum "Si O2"
_cell_formula_units_Z 48
_cell_length_a 8.896114
_cell_length_b 10.332520
_cell_length_c 30.121153
_cell_angle_alpha 90.000000
_cell_angle_beta 90.000000
_cell_angle_gamma 90.000000
_cell_volume 2768.714571
_symmetry_space_group_name_H-M "P M M M"
_symmetry_group_IT_number 47
_symmetry_cell_setting 'orthorhombic'
loop_
_space_group_symop_operation_xyz
x,y,z
-x,-y,z
x,-y,-z
-x,y,-z
-x,-y,-z
x,y,-z
-x,y,z
x,-y,z
loop_
_atom_site_type_symbol
_atom_site_label
_atom_site_fract_x
_atom_site_fract_y
_atom_site_fract_z
Si Si1 0.174764 0.656792 0.049035
Si Si2 0.678117 0.846625 0.307926
Si Si3 0.677770 0.000000 0.446994
Si Si4 0.182741 0.500000 0.449169
Si Si5 0.180200 0.150481 0.788306
Si Si6 0.819274 0.757211 0.602937
Si Si7 0.679369 0.347771 0.141440
O O1 0.177876 0.500000 0.047822
O O2 0.270307 0.693440 0.091864
O O3 0.000000 0.694746 0.054901
O O4 0.225487 0.701627 0.000000
O O5 0.500000 0.822782 0.306147
O O6 0.751954 0.820982 0.260249
O O7 0.753941 0.768230 0.347636
O O8 0.700756 0.000000 0.317503
O O9 0.754441 0.124315 0.425315
O O10 0.500000 0.000000 0.436706
O O11 0.696662 0.000000 0.500000
O O12 0.236992 0.500000 0.500000
O O13 0.227462 0.626866 0.422179
O O14 0.000000 0.500000 0.450896
O O15 0.244428 0.252409 0.823420
O O16 0.000000 0.159095 0.786775
O O17 0.219912 0.000000 0.799103
O O18 0.000000 0.764190 0.604566
O O19 0.500000 0.340622 0.145466
O O20 0.723278 0.500000 0.147679
#
# Coordination Sequence:
#
# PCOD9385418 Si02
#       7
#     8   8   4   4   8   8   8
#     4   8  14  26  46  72 103 141 183 225 270 319
#     4  10  20  36  58  82 111 141 173 219 271 321
#     4  11  23  37  55  83 115 143 177 223 270 315
#     4   9  20  38  57  81 113 145 179 219 262 311
#     4  10  21  37  58  81 105 139 184 226 269 324
#     4  11  21  36  60  84 109 142 181 222 265 317
#     4  10  20  33  51  79 113 145 180 223 274 327
#
# _framework density 17.336563999999999
#
# number of rings (size 3 to 8) (size 9 to 14) (size 15 to 20)
#    0.000    2.167    0.833    3.250    0.000    4.333 
#    1.500    3.333    0.000    3.500    0.000    3.500 
#    0.000    0.000    0.000    0.000    0.000    0.000 
#
# Total GULP energy -267818.362603 kJ/mol
# GULP energy per Si atom -5579.549221 kJ/mol
# Density = 1.729710 g / cm^3
# Si number density = 17.336564 Si / 1000 Ang^3
#
#
#
# Elastic Constant Matrix: (Units=GPa)
#
#
# Indices 1 2 3 4 5 6 
#
# 1 72.6224 50.3092 71.6554 0.0000 0.0000 0.0000
# 2 50.3092 111.1067 91.0788 0.0000 0.0000 0.0000
# 3 71.6554 91.0788 168.7473 0.0000 0.0000 0.0000
# 4 0.0000 0.0000 0.0000 28.6262 0.0000 0.0000
# 5 0.0000 0.0000 0.0000 0.0000 28.1946 0.0000
# 6 0.0000 0.0000 0.0000 0.0000 0.0000 1.2600
#
#
#
# Elastic Compliance Matrix: (Units=1/GPa)
#
#
# Indices 1 2 3 4 5 6 
#
# 1 0.024994 -0.004694 -0.008080 0.000000 0.000000 0.000000
# 2 -0.004694 0.017024 -0.007195 0.000000 0.000000 0.000000
# 3 -0.008080 -0.007195 0.013240 0.000000 0.000000 0.000000
# 4 0.000000 0.000000 0.000000 0.034933 0.000000 0.000000
# 5 0.000000 0.000000 0.000000 0.000000 0.035468 0.000000
# 6 0.000000 0.000000 0.000000 0.000000 0.000000 0.793670
#
#
# Mechanical properties :
#
#
# Convention : Reuss Voigt Hill
#
# Bulk Modulus (GPa) = 65.27232 86.50702 75.88967
# Shear Modulus (GPa) = 5.18472 20.91168 13.04820
#
# Velocity S-wave (km/s) = 1.73122 3.47683 2.74641
# Velocity P-wave (km/s) = 6.45972 8.13171 7.34346
#
# Compressibility (1/GPa) = 0.01532043
#
# Stress axis : x y z
#
# Youngs Moduli (GPa) = 40.01032 58.74039 75.52649
#
# Poissons Ratio (x) = 0.27573 0.61022
# Poissons Ratio (y) = 0.18781 0.54343
# Poissons Ratio (z) = 0.32327 0.42265
#
# Static dielectric constant tensor:
#      x y z
#    x 1.578020 0.000000 0.000000 
#    y 0.000000 1.574210 0.000000 
#    z 0.000000 0.000000 1.581560 
# 
# From -- ./inp_files/34058.got.cif
#   From: 2010.05.17/outbox.cif.g08.bks.cpg/sg47_18_cif.got.tgz:34058.got - 2010.06.03 20:15:42.
