data_PCOD9385501
_publ_section_title
;
Structure prediction by ZEFSAII (Michael W. Deem and Ramdas Pophale) SiO2 
 PCOD9385501
Probable space group: P M M M
;
_chemical_formula_sum "Si O2"
_cell_formula_units_Z 48
_cell_length_a 32.376232
_cell_length_b 8.011902
_cell_length_c 9.397420
_cell_angle_alpha 90.000000
_cell_angle_beta 90.000000
_cell_angle_gamma 90.000000
_cell_volume 2437.645621
_symmetry_space_group_name_H-M "P M M M"
_symmetry_group_IT_number 47
_symmetry_cell_setting 'orthorhombic'
loop_
_space_group_symop_operation_xyz
x,y,z
-x,-y,z
x,-y,-z
-x,y,-z
-x,-y,-z
x,y,-z
-x,y,z
x,-y,z
loop_
_atom_site_type_symbol
_atom_site_label
_atom_site_fract_x
_atom_site_fract_y
_atom_site_fract_z
Si Si1 0.955608 0.801748 0.172418
Si Si2 0.374950 0.700527 0.660741
Si Si3 0.704882 0.801452 0.838659
Si Si4 0.214929 0.300856 0.661869
Si Si5 0.546298 0.703778 0.164607
Si Si6 0.134371 0.797818 0.164756
O O1 0.910756 0.736011 0.217558
O O2 0.000000 0.731043 0.221343
O O3 0.956235 0.000000 0.205539
O O4 0.955099 0.789350 0.000000
O O5 0.370533 0.765032 0.500000
O O6 0.378704 0.500000 0.652934
O O7 0.334743 0.737196 0.753706
O O8 0.416471 0.763889 0.737237
O O9 0.746655 0.761222 0.754509
O O10 0.701268 0.000000 0.846610
O O11 0.706248 0.733926 0.000000
O O12 0.216588 0.235355 0.500000
O O13 0.217913 0.500000 0.656026
O O14 0.172158 0.254884 0.737913
O O15 0.500000 0.755930 0.207831
O O16 0.546615 0.500000 0.167090
O O17 0.552885 0.752734 0.000000
O O18 0.132766 0.000000 0.162744
O O19 0.140553 0.743939 0.000000
#
# Coordination Sequence:
#
# PCOD9385501 Si02
#       6
#     8   8   8   8   8   8
#     4   7  10  19  39  69 102 131 160 200 248 292
#     4  10  20  33  52  80 111 141 173 209 252 302
#     4  11  24  40  58  79 101 128 166 210 256 307
#     4  11  24  39  54  74 101 133 169 207 250 303
#     4   8  14  26  46  73 105 141 179 216 253 293
#     4   9  17  30  51  79 106 132 167 209 252 300
#
# _framework density 19.691132
#
# number of rings (size 3 to 8) (size 9 to 14) (size 15 to 20)
#    0.000    2.667    0.000    4.500    0.000    8.333 
#    0.000    1.667    0.000    1.500    0.000    9.333 
#    0.000    0.000    0.000    0.000    0.000    0.000 
#
# Total GULP energy -267682.225298 kJ/mol
# GULP energy per Si atom -5576.713027 kJ/mol
# Density = 1.964631 g / cm^3
# Si number density = 19.691132 Si / 1000 Ang^3
#
#
#
# Elastic Constant Matrix: (Units=GPa)
#
#
# Indices 1 2 3 4 5 6 
#
# 1 203.5325 1.7563 106.7858 0.0000 0.0000 0.0000
# 2 1.7563 16.0582 7.4406 0.0000 0.0000 0.0000
# 3 106.7858 7.4406 136.6145 0.0000 0.0000 0.0000
# 4 0.0000 0.0000 0.0000 18.2111 0.0000 0.0000
# 5 0.0000 0.0000 0.0000 0.0000 -13.8260 0.0000
# 6 0.0000 0.0000 0.0000 0.0000 0.0000 18.9841
#
#
#
# Elastic Compliance Matrix: (Units=1/GPa)
#
#
# Indices 1 2 3 4 5 6 
#
# 1 0.008403 0.002179 -0.006687 0.000000 0.000000 0.000000
# 2 0.002179 0.064451 -0.005214 0.000000 0.000000 0.000000
# 3 -0.006687 -0.005214 0.012831 0.000000 0.000000 0.000000
# 4 0.000000 0.000000 0.000000 0.054911 0.000000 0.000000
# 5 0.000000 0.000000 0.000000 0.000000 -0.072327 0.000000
# 6 0.000000 0.000000 0.000000 0.000000 0.000000 0.052676
#
#
# Mechanical properties :
#
#
# Convention : Reuss Voigt Hill
#
# Bulk Modulus (GPa) = 15.09615 65.35230 40.22423
# Shear Modulus (GPa) = 30.77545 20.68867 25.73206
#
# Velocity S-wave (km/s) = 3.95765 3.24490 3.61887
# Velocity P-wave (km/s) = 5.34482 6.87750 6.15902
#
# Compressibility (1/GPa) = 0.06624204
#
# Stress axis : x y z
#
# Youngs Moduli (GPa) = 119.00958 15.51563 77.93891
#
# Poissons Ratio (x) = -0.03381 0.52116
# Poissons Ratio (y) = -0.25936 0.40636
# Poissons Ratio (z) = 0.79578 0.08090
#
# Static dielectric constant tensor:
#      x y z
#    x 1.702760 0.000000 0.000000 
#    y 0.000000 1.722960 0.000000 
#    z 0.000000 0.000000 1.678960 
# 
# From -- ./inp_files/2522.got.cif
#   From: 2010.05.17/outbox.cif.g08.bks.cpg/sg47_2_cif.got.tgz:2522.got - 2010.06.03 20:15:42.
