data_PCOD9385276
_publ_section_title
;
Structure prediction by ZEFSAII (Michael W. Deem and Ramdas Pophale) SiO2 
 PCOD9385276
Probable space group: P M M M
;
_chemical_formula_sum "Si O2"
_cell_formula_units_Z 64
_cell_length_a 15.146922
_cell_length_b 7.539020
_cell_length_c 24.725789
_cell_angle_alpha 90.000000
_cell_angle_beta 90.000000
_cell_angle_gamma 90.000000
_cell_volume 2823.510735
_symmetry_space_group_name_H-M "P M M M"
_symmetry_group_IT_number 47
_symmetry_cell_setting 'orthorhombic'
loop_
_space_group_symop_operation_xyz
x,y,z
-x,-y,z
x,-y,-z
-x,y,-z
-x,-y,-z
x,y,-z
-x,y,z
x,-y,z
loop_
_atom_site_type_symbol
_atom_site_label
_atom_site_fract_x
_atom_site_fract_y
_atom_site_fract_z
Si Si1 0.901074 0.710892 0.158217
Si Si2 0.757039 0.196790 0.752224
Si Si3 0.356782 0.206865 0.559818
Si Si4 0.210930 0.289735 0.061239
Si Si5 0.149984 0.714587 0.442375
Si Si6 0.595023 0.786644 0.936701
Si Si7 0.095040 0.285118 0.326681
Si Si8 0.599825 0.783501 0.680680
O O1 0.910329 0.500000 0.152564
O O2 0.822638 0.731566 0.201869
O O3 0.861787 0.783911 0.102032
O O4 0.000000 0.779582 0.171131
O O5 0.823538 0.195157 0.701643
O O6 0.670156 0.282517 0.725264
O O7 0.731507 0.000000 0.770555
O O8 0.383546 0.280515 0.500000
O O9 0.250613 0.220435 0.561284
O O10 0.386662 0.279771 0.618313
O O11 0.383359 0.000000 0.559218
O O12 0.196047 0.500000 0.056957
O O13 0.310020 0.269105 0.085257
O O14 0.209179 0.216032 0.000000
O O15 0.112972 0.772375 0.500000
O O16 0.153185 0.500000 0.442254
O O17 0.098224 0.765086 0.389267
O O18 0.500000 0.726233 0.913626
O O19 0.594370 0.000000 0.935638
O O20 0.595783 0.730707 0.000000
O O21 0.104755 0.500000 0.321798
O O22 0.000000 0.238687 0.302793
O O23 0.500000 0.743795 0.696726
O O24 0.610637 0.000000 0.678667
#
# Coordination Sequence:
#
# PCOD9385276 Si02
#       8
#     8   8   8   8   8   8   8   8
#     4  10  22  40  60  81 108 142 176 214 264 321
#     4  11  22  37  57  79 103 134 174 221 264 308
#     4   9  16  28  49  75 102 133 170 213 263 318
#     4   9  18  33  55  84 114 143 178 222 270 318
#     4   9  17  29  46  69  99 134 170 210 257 310
#     4   8  14  26  46  74 110 151 188 217 250 297
#     4  10  20  33  51  74 100 134 174 216 264 314
#     4   9  18  33  53  78 106 135 171 217 268 317
#
# _framework density 22.666817999999999
#
# number of rings (size 3 to 8) (size 9 to 14) (size 15 to 20)
#    0.000    2.625    1.250    1.125    0.000    3.500 
#    0.000    5.625    0.000    5.625    0.000    7.000 
#    0.000    0.000    0.000    0.000    0.000    0.000 
#
# Total GULP energy -356653.979764 kJ/mol
# GULP energy per Si atom -5572.718434 kJ/mol
# Density = 2.261523 g / cm^3
# Si number density = 22.666818 Si / 1000 Ang^3
#
#
#
# Elastic Constant Matrix: (Units=GPa)
#
#
# Indices 1 2 3 4 5 6 
#
# 1 160.3358 4.7269 75.0127 0.0000 0.0000 0.0000
# 2 4.7269 51.5906 7.7393 0.0000 0.0000 0.0000
# 3 75.0127 7.7393 104.5295 0.0000 0.0000 0.0000
# 4 0.0000 0.0000 0.0000 20.7063 0.0000 0.0000
# 5 0.0000 0.0000 0.0000 0.0000 -39.4850 0.0000
# 6 0.0000 0.0000 0.0000 0.0000 0.0000 13.2192
#
#
#
# Elastic Compliance Matrix: (Units=1/GPa)
#
#
# Indices 1 2 3 4 5 6 
#
# 1 0.009390 0.000152 -0.006750 0.000000 0.000000 0.000000
# 2 0.000152 0.019604 -0.001561 0.000000 0.000000 0.000000
# 3 -0.006750 -0.001561 0.014526 0.000000 0.000000 0.000000
# 4 0.000000 0.000000 0.000000 0.048294 0.000000 0.000000
# 5 0.000000 0.000000 0.000000 0.000000 -0.025326 0.000000
# 6 0.000000 0.000000 0.000000 0.000000 0.000000 0.075648
#
#
# Mechanical properties :
#
#
# Convention : Reuss Voigt Hill
#
# Bulk Modulus (GPa) = 36.76042 54.60153 45.68098
# Shear Modulus (GPa) = 29.84702 14.15322 22.00012
#
# Velocity S-wave (km/s) = 3.63267 2.50152 3.11880
# Velocity P-wave (km/s) = 5.81790 5.69952 5.75901
#
# Compressibility (1/GPa) = 0.02720317
#
# Stress axis : x y z
#
# Youngs Moduli (GPa) = 106.49156 51.01120 68.84110
#
# Poissons Ratio (x) = -0.00777 0.46468
# Poissons Ratio (y) = -0.01621 0.10744
# Poissons Ratio (z) = 0.71882 0.07961
#
# Static dielectric constant tensor:
#      x y z
#    x 1.829610 0.000000 0.000000 
#    y 0.000000 1.888350 0.000000 
#    z 0.000000 0.000000 1.876800 
# 
# From -- ./inp_files/32755.got.cif
#   From: 2010.05.17/outbox.cif.g08.bks.cpg/sg47_17_cif.got.tgz:32755.got - 2010.06.03 20:15:42.
