data_PCOD9385830
_publ_section_title
;
Structure prediction by ZEFSAII (Michael W. Deem and Ramdas Pophale) SiO2 
 PCOD9385830
Probable space group: P M M M
;
_chemical_formula_sum "Si O2"
_cell_formula_units_Z 36
_cell_length_a 10.729371
_cell_length_b 9.088942
_cell_length_c 20.291166
_cell_angle_alpha 90.000000
_cell_angle_beta 90.000000
_cell_angle_gamma 90.000000
_cell_volume 1978.766724
_symmetry_space_group_name_H-M "P M M M"
_symmetry_group_IT_number 47
_symmetry_cell_setting 'orthorhombic'
loop_
_space_group_symop_operation_xyz
x,y,z
-x,-y,z
x,-y,-z
-x,y,-z
-x,-y,-z
x,y,-z
-x,y,z
x,-y,z
loop_
_atom_site_type_symbol
_atom_site_label
_atom_site_fract_x
_atom_site_fract_y
_atom_site_fract_z
Si Si1 0.858052 0.324726 0.921166
Si Si2 0.645905 0.664083 0.300159
Si Si3 0.000000 0.666815 0.579232
Si Si4 0.647775 0.176196 0.833152
Si Si5 0.742691 0.824109 0.423362
O O1 0.846830 0.500000 0.908366
O O2 0.745264 0.241773 0.885440
O O3 0.000000 0.280171 0.901100
O O4 0.849721 0.303540 0.000000
O O5 0.500000 0.647690 0.288210
O O6 0.702646 0.500000 0.303054
O O7 0.689578 0.758552 0.237761
O O8 0.658243 0.747372 0.369246
O O9 0.878156 0.760118 0.594794
O O10 0.000000 0.500000 0.605930
O O11 0.000000 0.654005 0.500000
O O12 0.500000 0.213867 0.845517
O O13 0.654812 0.000000 0.831928
O O14 0.715224 0.785667 0.500000
O O15 0.739201 0.000000 0.418355
#
# Coordination Sequence:
#
# PCOD9385830 Si02
#       5
#     8   8   4   8   8
#     4   9  19  37  60  86 117 151 187 229 275 325
#     4  10  21  37  56  77 104 140 182 228 275 324
#     4   9  17  31  51  73  99 131 168 213 264 317
#     4  10  21  37  57  82 114 150 188 232 281 335
#     4  10  20  34  53  77 106 139 176 222 276 331
#
# _framework density 18.193149999999999
#
# number of rings (size 3 to 8) (size 9 to 14) (size 15 to 20)
#    0.000    2.333    0.000    3.000    0.000    7.111 
#    2.000    5.556    0.000    0.000    0.000    0.000 
#    0.000    0.000    0.000    0.000    0.000    0.000 
#
# Total GULP energy -200544.025812 kJ/mol
# GULP energy per Si atom -5570.667384 kJ/mol
# Density = 1.815174 g / cm^3
# Si number density = 18.193150 Si / 1000 Ang^3
#
#
#
# Elastic Constant Matrix: (Units=GPa)
#
#
# Indices 1 2 3 4 5 6 
#
# 1 76.3971 51.1980 50.5809 0.0000 0.0000 0.0000
# 2 51.1980 101.3928 59.7588 0.0000 0.0000 0.0000
# 3 50.5809 59.7588 85.0907 0.0000 0.0000 0.0000
# 4 0.0000 0.0000 0.0000 29.3898 0.0000 0.0000
# 5 0.0000 0.0000 0.0000 0.0000 -276.0332 0.0000
# 6 0.0000 0.0000 0.0000 0.0000 0.0000 30.3882
#
#
#
# Elastic Compliance Matrix: (Units=1/GPa)
#
#
# Indices 1 2 3 4 5 6 
#
# 1 0.023699 -0.006252 -0.009697 0.000000 0.000000 0.000000
# 2 -0.006252 0.018477 -0.009260 0.000000 0.000000 0.000000
# 3 -0.009697 -0.009260 0.024020 0.000000 0.000000 0.000000
# 4 0.000000 0.000000 0.000000 0.034025 0.000000 0.000000
# 5 0.000000 0.000000 0.000000 0.000000 -0.003623 0.000000
# 6 0.000000 0.000000 0.000000 0.000000 0.000000 0.032908
#
#
# Mechanical properties :
#
#
# Convention : Reuss Voigt Hill
#
# Bulk Modulus (GPa) = 63.37817 65.10621 64.24219
# Shear Modulus (GPa) = 27.00008 -36.49485 -4.74738
#
# Velocity S-wave (km/s) = 3.85655 -4.48366 -1.61713
# Velocity P-wave (km/s) = 7.39882 3.00990 5.64810
#
# Compressibility (1/GPa) = 0.01577830
#
# Stress axis : x y z
#
# Youngs Moduli (GPa) = 42.19509 54.12090 41.63185
#
# Poissons Ratio (x) = 0.33834 0.40372
# Poissons Ratio (y) = 0.26378 0.38552
# Poissons Ratio (z) = 0.40918 0.50117
#
# Static dielectric constant tensor:
#      x y z
#    x 1.703100 0.000000 0.000000 
#    y 0.000000 1.632840 0.000000 
#    z 0.000000 0.000000 1.606870 
# 
# From -- ./inp_files/3724.got.cif
#   From: 2010.05.17/outbox.cif.g08.bks.cpg/sg47_2_cif.got.tgz:3724.got - 2010.06.03 20:15:42.
