data_PCOD9385076
_publ_section_title
;
Structure prediction by ZEFSAII (Michael W. Deem and Ramdas Pophale) SiO2 
 PCOD9385076
Probable space group: P M M M
;
_chemical_formula_sum "Si O2"
_cell_formula_units_Z 64
_cell_length_a 15.162606
_cell_length_b 9.331652
_cell_length_c 21.732112
_cell_angle_alpha 90.000000
_cell_angle_beta 90.000000
_cell_angle_gamma 90.000000
_cell_volume 3074.923525
_symmetry_space_group_name_H-M "P M M M"
_symmetry_group_IT_number 47
_symmetry_cell_setting 'orthorhombic'
loop_
_space_group_symop_operation_xyz
x,y,z
-x,-y,z
x,-y,-z
-x,y,-z
-x,-y,-z
x,y,-z
-x,y,z
x,-y,z
loop_
_atom_site_type_symbol
_atom_site_label
_atom_site_fract_x
_atom_site_fract_y
_atom_site_fract_z
Si Si1 0.642661 0.666059 0.566643
Si Si2 0.142339 0.666859 0.431374
Si Si3 0.847641 0.330143 0.189726
Si Si4 0.640972 0.162600 0.315623
Si Si5 0.857386 0.834192 0.310443
Si Si6 0.334966 0.829655 0.816147
Si Si7 0.105199 0.161943 0.931572
Si Si8 0.394563 0.661680 0.930978
O O1 0.615473 0.727225 0.500000
O O2 0.617836 0.500000 0.567873
O O3 0.750173 0.671870 0.568095
O O4 0.610819 0.740770 0.628308
O O5 0.113425 0.712244 0.500000
O O6 0.118000 0.500000 0.422798
O O7 0.112413 0.761308 0.373915
O O8 0.857668 0.500000 0.193957
O O9 0.887543 0.252337 0.249964
O O10 0.747320 0.276292 0.190850
O O11 0.878241 0.268963 0.124139
O O12 0.749123 0.169328 0.312467
O O13 0.609943 0.195884 0.246360
O O14 0.617274 0.000000 0.329770
O O15 0.883054 0.000000 0.306081
O O16 0.374298 0.781283 0.880741
O O17 0.312319 0.000000 0.815648
O O18 0.000000 0.151366 0.935935
O O19 0.139048 0.000000 0.917838
O O20 0.137927 0.204170 0.000000
O O21 0.500000 0.652758 0.934209
O O22 0.362434 0.500000 0.914084
O O23 0.361605 0.694374 0.000000
#
# Coordination Sequence:
#
# PCOD9385076 Si02
#       8
#     8   8   8   8   8   8   8   8
#     4   8  13  20  31  49  74 107 146 183 220 267
#     4   8  13  21  33  51  78 113 152 191 232 280
#     4  11  21  32  49  72  99 130 162 198 241 286
#     4   8  15  25  36  54  81 113 148 187 228 268
#     4   9  16  26  39  57  85 119 156 196 236 280
#     4  10  20  33  49  71  98 127 162 200 237 282
#     4   9  19  37  58  76  96 124 156 192 237 287
#     4   9  19  36  55  74  97 124 155 193 237 285
#
# _framework density 20.813524999999998
#
# number of rings (size 3 to 8) (size 9 to 14) (size 15 to 20)
#    0.000    3.000    0.000    4.125    0.000    5.500 
#    0.000    3.750    0.000    0.000    0.000    0.000 
#    0.000    1.000    0.000   10.750    0.000   15.250 
#
# Total GULP energy -356652.076121 kJ/mol
# GULP energy per Si atom -5572.688689 kJ/mol
# Density = 2.076615 g / cm^3
# Si number density = 20.813525 Si / 1000 Ang^3
#
#
#
# Elastic Constant Matrix: (Units=GPa)
#
#
# Indices 1 2 3 4 5 6 
#
# 1 26.0397 7.2755 9.1119 0.0000 0.0000 0.0000
# 2 7.2755 141.1929 128.0075 0.0000 0.0000 0.0000
# 3 9.1119 128.0075 222.3838 0.0000 0.0000 0.0000
# 4 0.0000 0.0000 0.0000 44.2709 0.0000 0.0000
# 5 0.0000 0.0000 0.0000 0.0000 76.4068 0.0000
# 6 0.0000 0.0000 0.0000 0.0000 0.0000 6.7152
#
#
#
# Elastic Compliance Matrix: (Units=1/GPa)
#
#
# Indices 1 2 3 4 5 6 
#
# 1 0.039054 -0.001175 -0.000924 0.000000 0.000000 0.000000
# 2 -0.001175 0.014848 -0.008499 0.000000 0.000000 0.000000
# 3 -0.000924 -0.008499 0.009427 0.000000 0.000000 0.000000
# 4 0.000000 0.000000 0.000000 0.022588 0.000000 0.000000
# 5 0.000000 0.000000 0.000000 0.000000 0.013088 0.000000
# 6 0.000000 0.000000 0.000000 0.000000 0.000000 0.148915
#
#
# Mechanical properties :
#
#
# Convention : Reuss Voigt Hill
#
# Bulk Modulus (GPa) = 23.73364 75.37846 49.55605
# Shear Modulus (GPa) = 17.65791 41.82668 29.74229
#
# Velocity S-wave (km/s) = 2.91587 4.48771 3.78430
# Velocity P-wave (km/s) = 4.77118 7.94654 6.55407
#
# Compressibility (1/GPa) = 0.04213429
#
# Stress axis : x y z
#
# Youngs Moduli (GPa) = 25.60531 67.34922 106.08376
#
# Poissons Ratio (x) = 0.07911 0.09803
# Poissons Ratio (y) = 0.03008 0.90156
# Poissons Ratio (z) = 0.02366 0.57237
#
# Static dielectric constant tensor:
#      x y z
#    x 1.806600 0.000000 0.000000 
#    y 0.000000 1.706630 0.000000 
#    z 0.000000 0.000000 1.793380 
# 
# From -- ./inp_files/11581.got.cif
#   From: 2010.05.17/outbox.cif.g08.bks.cpg/sg47_6_cif.got.tgz:11581.got - 2010.06.03 20:15:42.
