data_PCOD9385791
_publ_section_title
;
Structure prediction by ZEFSAII (Michael W. Deem and Ramdas Pophale) SiO2 
 PCOD9385791
Probable space group: P M M M
;
_chemical_formula_sum "Si O2"
_cell_formula_units_Z 48
_cell_length_a 31.950100
_cell_length_b 9.273401
_cell_length_c 7.345516
_cell_angle_alpha 90.000000
_cell_angle_beta 90.000000
_cell_angle_gamma 90.000000
_cell_volume 2176.374209
_symmetry_space_group_name_H-M "P M M M"
_symmetry_group_IT_number 47
_symmetry_cell_setting 'orthorhombic'
loop_
_space_group_symop_operation_xyz
x,y,z
-x,-y,z
x,-y,-z
-x,y,-z
-x,-y,-z
x,y,-z
-x,y,z
x,-y,z
loop_
_atom_site_type_symbol
_atom_site_label
_atom_site_fract_x
_atom_site_fract_y
_atom_site_fract_z
Si Si1 0.749532 0.833739 0.777972
Si Si2 0.500000 0.336936 0.715979
Si Si3 0.584611 0.837261 0.215322
Si Si4 0.665972 0.333824 0.777459
Si Si5 0.916490 0.833605 0.222133
Si Si6 0.832983 0.333620 0.777856
Si Si7 0.000000 0.666400 0.222134
O O1 0.707561 0.751222 0.721291
O O2 0.791142 0.749408 0.720273
O O3 0.749751 0.000000 0.719958
O O4 0.749636 0.834072 0.000000
O O5 0.500000 0.500000 0.791060
O O6 0.500000 0.348136 0.500000
O O7 0.541594 0.249373 0.764775
O O8 0.624195 0.747622 0.286048
O O9 0.581613 0.000000 0.288910
O O10 0.591905 0.850308 0.000000
O O11 0.666578 0.500000 0.719738
O O12 0.665742 0.334758 0.000000
O O13 0.874689 0.750280 0.279580
O O14 0.958231 0.749919 0.279593
O O15 0.916545 0.000000 0.279754
O O16 0.916493 0.833773 0.000000
O O17 0.833125 0.500000 0.720259
O O18 0.832975 0.333751 0.000000
O O19 0.000000 0.500000 0.279748
O O20 0.000000 0.666232 0.000000
#
# Coordination Sequence:
#
# PCOD9385791 Si02
#       7
#     8   4   8   8   8   8   4
#     4   9  15  22  32  47  68  92 117 147 184 228
#     4  11  24  39  54  74 100 129 160 193 230 272
#     4  10  20  34  53  76  99 124 156 192 229 271
#     4   9  16  26  41  61  84 109 136 167 204 246
#     4   9  15  21  27  34  44  60  85 119 161 210
#     4   9  15  21  28  38  53  74 100 130 168 218
#     4   9  15  21  27  33  41  55  79 115 159 207
#
# _framework density 22.055029000000001
#
# number of rings (size 3 to 8) (size 9 to 14) (size 15 to 20)
#    0.000    2.667    0.000    3.250    0.000   11.667 
#    0.000    0.000    0.000    0.000    0.000    0.000 
#    0.000    0.000    0.000    0.000    0.000    0.000 
#
# Total GULP energy -268361.884953 kJ/mol
# GULP energy per Si atom -5590.872603 kJ/mol
# Density = 2.200483 g / cm^3
# Si number density = 22.055029 Si / 1000 Ang^3
#
#
#
# Elastic Constant Matrix: (Units=GPa)
#
#
# Indices 1 2 3 4 5 6 
#
# 1 276.7294 181.7608 1.2336 0.0000 0.0000 0.0000
# 2 181.7608 291.5567 7.2880 0.0000 0.0000 0.0000
# 3 1.2336 7.2880 83.1717 0.0000 0.0000 0.0000
# 4 0.0000 0.0000 0.0000 -23.4277 0.0000 0.0000
# 5 0.0000 0.0000 0.0000 0.0000 -40.0425 0.0000
# 6 0.0000 0.0000 0.0000 0.0000 0.0000 48.9299
#
#
#
# Elastic Compliance Matrix: (Units=1/GPa)
#
#
# Indices 1 2 3 4 5 6 
#
# 1 0.006124 -0.003824 0.000244 0.000000 0.000000 0.000000
# 2 -0.003824 0.005825 -0.000454 0.000000 0.000000 0.000000
# 3 0.000244 -0.000454 0.012059 0.000000 0.000000 0.000000
# 4 0.000000 0.000000 0.000000 -0.042684 0.000000 0.000000
# 5 0.000000 0.000000 0.000000 0.000000 -0.024973 0.000000
# 6 0.000000 0.000000 0.000000 0.000000 0.000000 0.020437
#
#
# Mechanical properties :
#
#
# Convention : Reuss Voigt Hill
#
# Bulk Modulus (GPa) = 62.72801 114.66918 88.69859
# Shear Modulus (GPa) = -508.61548 27.83697 -240.38926
#
# Velocity S-wave (km/s) = -15.20239 3.55654 -10.45140
# Velocity P-wave (km/s) = 16.72265 8.30485 10.26344
#
# Compressibility (1/GPa) = 0.01594184
#
# Stress axis : x y z
#
# Youngs Moduli (GPa) = 163.28508 171.66852 82.92250
#
# Poissons Ratio (x) = 0.65647 -0.02025
# Poissons Ratio (y) = 0.62441 0.03762
# Poissons Ratio (z) = -0.03988 0.07789
#
# Static dielectric constant tensor:
#      x y z
#    x 1.751870 0.000000 0.000000 
#    y 0.000000 1.754720 0.000000 
#    z 0.000000 0.000000 1.848640 
# 
# From -- ./inp_files/13897.got.cif
#   From: 2010.05.17/outbox.cif.g08.bks.cpg/sg47_7_cif.got.tgz:13897.got - 2010.06.03 20:15:42.
