data_PCOD9385352
_publ_section_title
;
Structure prediction by ZEFSAII (Michael W. Deem and Ramdas Pophale) SiO2 
 PCOD9385352
Probable space group: P M M M
;
_chemical_formula_sum "Si O2"
_cell_formula_units_Z 53
_cell_length_a 9.307288
_cell_length_b 33.970504
_cell_length_c 9.925203
_cell_angle_alpha 90.000000
_cell_angle_beta 90.000000
_cell_angle_gamma 90.000000
_cell_volume 3138.083831
_symmetry_space_group_name_H-M "P M M M"
_symmetry_group_IT_number 47
_symmetry_cell_setting 'orthorhombic'
loop_
_space_group_symop_operation_xyz
x,y,z
-x,-y,z
x,-y,-z
-x,y,-z
-x,-y,-z
x,y,-z
-x,y,z
x,-y,z
loop_
_atom_site_type_symbol
_atom_site_label
_atom_site_fract_x
_atom_site_fract_y
_atom_site_fract_z
Si Si1 0.841065 0.000000 0.775031
Si Si2 0.335135 0.689057 0.663587
Si Si3 0.828711 0.843629 0.159400
Si Si4 0.829115 0.390500 0.660488
Si Si5 0.171477 0.231634 0.340963
Si Si6 0.000000 0.000000 0.500000
Si Si7 0.329262 0.546261 0.841799
Si Si8 0.662875 0.921961 0.838398
O O1 0.752788 0.039009 0.808507
O O2 0.877797 0.000000 0.618155
O O3 0.000000 0.000000 0.842343
O O4 0.336289 0.689174 0.500000
O O5 0.500000 0.687409 0.710020
O O6 0.246960 0.650279 0.703041
O O7 0.256750 0.729430 0.702948
O O8 0.791651 0.805824 0.249366
O O9 0.744133 0.882387 0.206449
O O10 0.000000 0.850662 0.172480
O O11 0.799805 0.836658 0.000000
O O12 0.802893 0.396097 0.500000
O O13 0.761338 0.425817 0.745517
O O14 0.000000 0.387887 0.680098
O O15 0.201034 0.224170 0.500000
O O16 0.000000 0.238710 0.329065
O O17 0.500000 0.552681 0.820330
O O18 0.300380 0.500000 0.817102
O O19 0.299467 0.554013 0.000000
O O20 0.500000 0.924301 0.785861
O O21 0.655346 0.919089 0.000000
#
# Coordination Sequence:
#
# PCOD9385352 Si02
#       8
#     4   8   8   8   8   1   8   8
#     4  10  20  38  56  74 103 135 171 208 251 300
#     4   9  17  30  50  73  99 130 168 212 256 304
#     4   9  18  33  51  74 104 137 170 208 255 304
#     4  10  20  33  51  77 105 134 169 214 261 305
#     4   9  17  31  50  73  97 129 169 210 252 302
#     4   8  24  40  52  76 104 140 174 214 248 300
#     4   9  19  36  55  74 100 135 172 210 254 307
#     4  10  20  34  55  82 106 130 167 215 261 304
#
# _framework density 16.889288000000001
#
# number of rings (size 3 to 8) (size 9 to 14) (size 15 to 20)
#    0.226    2.415    0.000    2.264    0.000    6.038 
#    1.358    3.774    0.000    2.717    0.000    0.000 
#    0.000    0.000    0.000    0.000    0.000    0.000 
#
# Total GULP energy -295114.626638 kJ/mol
# GULP energy per Si atom -5568.200503 kJ/mol
# Density = 1.685085 g / cm^3
# Si number density = 16.889288 Si / 1000 Ang^3
#
#
#
# Elastic Constant Matrix: (Units=GPa)
#
#
# Indices 1 2 3 4 5 6 
#
# 1 113.0265 108.3603 51.5417 0.0000 0.0000 0.0000
# 2 108.3603 171.9159 62.8391 0.0000 0.0000 0.0000
# 3 51.5417 62.8391 45.8914 0.0000 0.0000 0.0000
# 4 0.0000 0.0000 0.0000 146.9063 0.0000 0.0000
# 5 0.0000 0.0000 0.0000 0.0000 21.7217 0.0000
# 6 0.0000 0.0000 0.0000 0.0000 0.0000 -46.3613
#
#
#
# Elastic Compliance Matrix: (Units=1/GPa)
#
#
# Indices 1 2 3 4 5 6 
#
# 1 0.025965 -0.011425 -0.013518 0.000000 0.000000 0.000000
# 2 -0.011425 0.016673 -0.009998 0.000000 0.000000 0.000000
# 3 -0.013518 -0.009998 0.050663 0.000000 0.000000 0.000000
# 4 0.000000 0.000000 0.000000 0.006807 0.000000 0.000000
# 5 0.000000 0.000000 0.000000 0.000000 0.046037 0.000000
# 6 0.000000 0.000000 0.000000 0.000000 0.000000 -0.021570
#
#
# Mechanical properties :
#
#
# Convention : Reuss Voigt Hill
#
# Bulk Modulus (GPa) = 42.70032 86.25733 64.47882
# Shear Modulus (GPa) = 24.72029 31.65953 28.18991
#
# Velocity S-wave (km/s) = 3.82994 4.33428 4.08989
# Velocity P-wave (km/s) = 6.70039 8.73104 7.78224
#
# Compressibility (1/GPa) = 0.02341903
#
# Stress axis : x y z
#
# Youngs Moduli (GPa) = 38.51322 59.97843 19.73829
#
# Poissons Ratio (x) = 0.68526 0.26682
# Poissons Ratio (y) = 0.44002 0.19735
# Poissons Ratio (z) = 0.52061 0.59967
#
# Static dielectric constant tensor:
#      x y z
#    x 1.581260 0.000000 0.000000 
#    y 0.000000 1.551200 0.000000 
#    z 0.000000 0.000000 1.553770 
# 
# From -- ./inp_files/15501.got.cif
#   From: 2010.05.17/outbox.cif.g08.bks.cpg/sg47_8_cif.got.tgz:15501.got - 2010.06.03 20:15:42.
