data_PCOD9385311
_publ_section_title
;
Structure prediction by ZEFSAII (Michael W. Deem and Ramdas Pophale) SiO2 
 PCOD9385311
Probable space group: P M M M
;
_chemical_formula_sum "Si O2"
_cell_formula_units_Z 48
_cell_length_a 7.448598
_cell_length_b 33.959042
_cell_length_c 9.518631
_cell_angle_alpha 90.000000
_cell_angle_beta 90.000000
_cell_angle_gamma 90.000000
_cell_volume 2407.711557
_symmetry_space_group_name_H-M "P M M M"
_symmetry_group_IT_number 47
_symmetry_cell_setting 'orthorhombic'
loop_
_space_group_symop_operation_xyz
x,y,z
-x,-y,z
x,-y,-z
-x,y,-z
-x,-y,-z
x,y,-z
-x,y,z
x,-y,z
loop_
_atom_site_type_symbol
_atom_site_label
_atom_site_fract_x
_atom_site_fract_y
_atom_site_fract_z
Si Si1 0.500000 0.455351 0.329543
Si Si2 0.212559 0.608699 0.666833
Si Si3 0.219105 0.686055 0.838866
Si Si4 0.781228 0.239073 0.661974
Si Si5 0.286914 0.000000 0.341074
Si Si6 0.219123 0.849499 0.337951
Si Si7 0.786418 0.922860 0.158200
O O1 0.500000 0.500000 0.275955
O O2 0.500000 0.457544 0.500000
O O3 0.327030 0.429345 0.290525
O O4 0.240576 0.615637 0.500000
O O5 0.270548 0.647238 0.752412
O O6 0.000000 0.602499 0.688380
O O7 0.279701 0.725804 0.761527
O O8 0.000000 0.686734 0.837925
O O9 0.277218 0.684390 0.000000
O O10 0.728081 0.245904 0.500000
O O11 0.725529 0.194807 0.702529
O O12 0.000000 0.239293 0.663861
O O13 0.238053 0.038790 0.253797
O O14 0.500000 0.000000 0.352399
O O15 0.212186 0.000000 0.500000
O O16 0.272413 0.856544 0.500000
O O17 0.284089 0.884089 0.237093
O O18 0.000000 0.849882 0.336701
O O19 0.000000 0.917261 0.146411
O O20 0.715484 0.928130 0.000000
#
# Coordination Sequence:
#
# PCOD9385311 Si02
#       7
#     4   8   8   8   4   8   8
#     4   9  18  32  51  77 103 127 165 215 259 302
#     4   9  17  30  49  72  99 132 167 205 253 306
#     4   9  16  25  40  65  97 131 166 204 244 287
#     4   8  13  22  38  63  96 131 166 202 239 284
#     4  11  24  39  54  72  92 121 164 207 248 298
#     4   8  14  25  42  66  97 131 163 196 237 285
#     4  10  20  33  51  76 103 129 159 198 246 299
#
# _framework density 19.935943999999999
#
# number of rings (size 3 to 8) (size 9 to 14) (size 15 to 20)
#    0.000    3.000    0.000    2.500    0.000    5.667 
#    0.000    5.417    0.000    1.000    2.167    2.333 
#    0.000    0.000    0.000    0.000    0.000    0.000 
#
# Total GULP energy -267854.797282 kJ/mol
# GULP energy per Si atom -5580.308277 kJ/mol
# Density = 1.989057 g / cm^3
# Si number density = 19.935944 Si / 1000 Ang^3
#
#
#
# Elastic Constant Matrix: (Units=GPa)
#
#
# Indices 1 2 3 4 5 6 
#
# 1 64.2748 31.9760 26.4519 0.0000 0.0000 0.0000
# 2 31.9760 222.3497 125.9061 0.0000 0.0000 0.0000
# 3 26.4519 125.9061 132.3783 0.0000 0.0000 0.0000
# 4 0.0000 0.0000 0.0000 -3.4354 0.0000 0.0000
# 5 0.0000 0.0000 0.0000 0.0000 -3.4677 0.0000
# 6 0.0000 0.0000 0.0000 0.0000 0.0000 363.4937
#
#
#
# Elastic Compliance Matrix: (Units=1/GPa)
#
#
# Indices 1 2 3 4 5 6 
#
# 1 0.017083 -0.001135 -0.002334 0.000000 0.000000 0.000000
# 2 -0.001135 0.009822 -0.009115 0.000000 0.000000 0.000000
# 3 -0.002334 -0.009115 0.016690 0.000000 0.000000 0.000000
# 4 0.000000 0.000000 0.000000 -0.291083 0.000000 0.000000
# 5 0.000000 0.000000 0.000000 0.000000 -0.288375 0.000000
# 6 0.000000 0.000000 0.000000 0.000000 0.000000 0.002751
#
#
# Mechanical properties :
#
#
# Convention : Reuss Voigt Hill
#
# Bulk Modulus (GPa) = 54.26792 87.51898 70.89345
# Shear Modulus (GPa) = -9.96411 86.96270 38.49929
#
# Velocity S-wave (km/s) = -2.23806 6.61179 4.39925
# Velocity P-wave (km/s) = 4.53891 10.11351 7.83852
#
# Compressibility (1/GPa) = 0.01842709
#
# Stress axis : x y z
#
# Youngs Moduli (GPa) = 58.53615 101.81148 59.91660
#
# Poissons Ratio (x) = 0.11557 0.13984
# Poissons Ratio (y) = 0.06645 0.54614
# Poissons Ratio (z) = 0.13662 0.92801
#
# Static dielectric constant tensor:
#      x y z
#    x 1.719440 0.000000 0.000000 
#    y 0.000000 1.675550 0.000000 
#    z 0.000000 0.000000 1.680590 
# 
# From -- ./inp_files/2530.got.cif
#   From: 2010.05.17/outbox.cif.g08.bks.cpg/sg47_2_cif.got.tgz:2530.got - 2010.06.03 20:15:42.
