data_PCOD9385597
_publ_section_title
;
Structure prediction by ZEFSAII (Michael W. Deem and Ramdas Pophale) SiO2 
 PCOD9385597
Probable space group: P M M M
;
_chemical_formula_sum "Si O2"
_cell_formula_units_Z 52
_cell_length_a 15.589701
_cell_length_b 24.066941
_cell_length_c 8.566083
_cell_angle_alpha 90.000000
_cell_angle_beta 90.000000
_cell_angle_gamma 90.000000
_cell_volume 3213.963625
_symmetry_space_group_name_H-M "P M M M"
_symmetry_group_IT_number 47
_symmetry_cell_setting 'orthorhombic'
loop_
_space_group_symop_operation_xyz
x,y,z
-x,-y,z
x,-y,-z
-x,y,-z
-x,-y,-z
x,y,-z
-x,y,z
x,-y,z
loop_
_atom_site_type_symbol
_atom_site_label
_atom_site_fract_x
_atom_site_fract_y
_atom_site_fract_z
Si Si1 0.599695 0.818035 0.189124
Si Si2 0.500000 0.566093 0.321961
Si Si3 0.904868 0.315930 0.188688
Si Si4 0.144506 0.560648 0.812349
Si Si5 0.603823 0.940318 0.183809
Si Si6 0.269949 0.726624 0.683364
Si Si7 0.674375 0.610102 0.815909
O O1 0.500000 0.807088 0.237840
O O2 0.627486 0.879683 0.247319
O O3 0.667663 0.772401 0.242216
O O4 0.598420 0.819572 0.000000
O O5 0.500000 0.500000 0.327972
O O6 0.500000 0.587696 0.500000
O O7 0.415542 0.585354 0.233086
O O8 0.894546 0.380612 0.242748
O O9 0.826746 0.279010 0.250667
O O10 0.000000 0.296525 0.232136
O O11 0.898398 0.316981 0.000000
O O12 0.116183 0.500000 0.751660
O O13 0.246326 0.568608 0.785708
O O14 0.129955 0.559594 0.000000
O O15 0.500000 0.940356 0.189196
O O16 0.632769 0.000000 0.251799
O O17 0.627351 0.940763 0.000000
O O18 0.266370 0.735786 0.500000
O O19 0.309473 0.666462 0.722618
O O20 0.676778 0.623184 0.000000
#
# Coordination Sequence:
#
# PCOD9385597 Si02
#       7
#     8   4   8   8   8   8   8
#     4   9  17  29  47  70  97 130 166 199 232 274
#     4  11  23  35  47  67  93 117 146 189 242 293
#     4   9  18  33  52  72  93 118 150 189 235 290
#     4   8  14  26  46  71  92 107 132 175 225 275
#     4   7  10  19  38  65  94 123 157 196 232 265
#     4  11  22  34  48  67  95 126 158 199 243 284
#     4  10  20  34  50  65  85 118 159 196 229 273
#
# _framework density 16.179400000000001
#
# number of rings (size 3 to 8) (size 9 to 14) (size 15 to 20)
#    0.000    2.846    0.000    4.846    1.077    2.154 
#    0.000    1.538    0.000    4.615    0.000    6.462 
#    0.000    0.615    0.000    7.077    0.000    2.308 
#
# Total GULP energy -289497.584661 kJ/mol
# GULP energy per Si atom -5567.261243 kJ/mol
# Density = 1.614258 g / cm^3
# Si number density = 16.179400 Si / 1000 Ang^3
#
#
#
# Elastic Constant Matrix: (Units=GPa)
#
#
# Indices 1 2 3 4 5 6 
#
# 1 99.7090 41.6949 21.1354 0.0000 0.0000 0.0000
# 2 41.6949 103.3973 13.8137 0.0000 0.0000 0.0000
# 3 21.1354 13.8137 21.0779 0.0000 0.0000 0.0000
# 4 0.0000 0.0000 0.0000 0.8346 0.0000 0.0000
# 5 0.0000 0.0000 0.0000 0.0000 9.9300 0.0000
# 6 0.0000 0.0000 0.0000 0.0000 0.0000 -23.6579
#
#
#
# Elastic Compliance Matrix: (Units=1/GPa)
#
#
# Indices 1 2 3 4 5 6 
#
# 1 0.014225 -0.004198 -0.011513 0.000000 0.000000 0.000000
# 2 -0.004198 0.011838 -0.003549 0.000000 0.000000 0.000000
# 3 -0.011513 -0.003549 0.061313 0.000000 0.000000 0.000000
# 4 0.000000 0.000000 0.000000 1.198212 0.000000 0.000000
# 5 0.000000 0.000000 0.000000 0.000000 0.100705 0.000000
# 6 0.000000 0.000000 0.000000 0.000000 0.000000 -0.042269
#
#
# Mechanical properties :
#
#
# Convention : Reuss Voigt Hill
#
# Bulk Modulus (GPa) = 20.46785 41.94137 31.20461
# Shear Modulus (GPa) = 3.57442 7.25735 5.41588
#
# Velocity S-wave (km/s) = 1.48796 2.12021 1.83157
# Velocity P-wave (km/s) = 3.95349 5.65444 4.87867
#
# Compressibility (1/GPa) = 0.04885710
#
# Stress axis : x y z
#
# Youngs Moduli (GPa) = 70.29854 84.47041 16.30984
#
# Poissons Ratio (x) = 0.35462 0.18777
# Poissons Ratio (y) = 0.29513 0.05788
# Poissons Ratio (z) = 0.80931 0.29977
#
# Static dielectric constant tensor:
#      x y z
#    x 1.534750 0.000000 0.000000 
#    y 0.000000 1.569110 0.000000 
#    z 0.000000 0.000000 1.552070 
# 
# From -- ./inp_files/7671.got.cif
#   From: 2010.05.17/outbox.cif.g08.bks.cpg/sg47_4_cif.got.tgz:7671.got - 2010.06.03 20:15:42.
