data_PCOD9385334
_publ_section_title
;
Structure prediction by ZEFSAII (Michael W. Deem and Ramdas Pophale) SiO2 
 PCOD9385334
Probable space group: P M M M
;
_chemical_formula_sum "Si O2"
_cell_formula_units_Z 64
_cell_length_a 18.882899
_cell_length_b 21.422511
_cell_length_c 8.893999
_cell_angle_alpha 90.000000
_cell_angle_beta 90.000000
_cell_angle_gamma 90.000000
_cell_volume 3597.792574
_symmetry_space_group_name_H-M "P M M M"
_symmetry_group_IT_number 47
_symmetry_cell_setting 'orthorhombic'
loop_
_space_group_symop_operation_xyz
x,y,z
-x,-y,z
x,-y,-z
-x,y,-z
-x,-y,-z
x,y,-z
-x,y,z
x,-y,z
loop_
_atom_site_type_symbol
_atom_site_label
_atom_site_fract_x
_atom_site_fract_y
_atom_site_fract_z
Si Si1 0.581605 0.430236 0.182852
Si Si2 0.085654 0.068114 0.822257
Si Si3 0.918054 0.803506 0.319320
Si Si4 0.414077 0.931036 0.175701
Si Si5 0.671973 0.311069 0.819061
Si Si6 0.415902 0.198423 0.321313
Si Si7 0.827388 0.316908 0.680602
Si Si8 0.917120 0.572242 0.180602
O O1 0.500000 0.420146 0.229269
O O2 0.603524 0.500000 0.231137
O O3 0.631144 0.373934 0.231463
O O4 0.581946 0.430259 0.000000
O O5 0.110775 0.130717 0.741984
O O6 0.000000 0.067604 0.804517
O O7 0.111315 0.000000 0.767598
O O8 0.100134 0.072140 0.000000
O O9 0.918148 0.806159 0.500000
O O10 0.872808 0.743848 0.272461
O O11 0.000000 0.796143 0.269403
O O12 0.500000 0.932169 0.182205
O O13 0.392006 0.870542 0.268612
O O14 0.389697 0.000000 0.226803
O O15 0.394869 0.923664 0.000000
O O16 0.628007 0.251595 0.762186
O O17 0.750031 0.311859 0.751209
O O18 0.675052 0.310529 0.000000
O O19 0.407518 0.204478 0.500000
O O20 0.500000 0.204744 0.285905
O O21 0.823082 0.317644 0.500000
O O22 0.867514 0.378478 0.737849
O O23 0.901148 0.500000 0.218978
O O24 0.000000 0.583666 0.216937
O O25 0.909447 0.578441 0.000000
#
# Coordination Sequence:
#
# PCOD9385334 Si02
#       8
#     8   8   8   8   8   8   8   8
#     4   8  15  30  53  79 102 124 157 204 254 301
#     4   8  14  25  43  70 101 128 157 199 250 300
#     4   9  18  32  50  72  98 131 170 209 250 300
#     4   8  14  26  46  73 103 133 168 212 259 308
#     4  11  22  35  53  76 103 138 178 218 260 308
#     4  10  20  33  51  76 106 139 174 215 264 317
#     4  11  23  37  52  74 107 142 176 216 262 313
#     4   9  19  37  60  84 108 135 172 217 260 307
#
# _framework density 17.788685000000001
#
# number of rings (size 3 to 8) (size 9 to 14) (size 15 to 20)
#    0.000    2.750    0.000    3.375    0.000    4.250 
#    0.000    5.625    0.000    1.875    0.000    7.875 
#    0.000    0.000    0.000    0.000    0.000    0.000 
#
# Total GULP energy -356772.548686 kJ/mol
# GULP energy per Si atom -5574.571073 kJ/mol
# Density = 1.774820 g / cm^3
# Si number density = 17.788685 Si / 1000 Ang^3
#
#
#
# Elastic Constant Matrix: (Units=GPa)
#
#
# Indices 1 2 3 4 5 6 
#
# 1 76.1173 88.7316 38.7868 0.0000 0.0000 0.0000
# 2 88.7316 184.2376 55.6974 0.0000 0.0000 0.0000
# 3 38.7868 55.6974 37.2213 0.0000 0.0000 0.0000
# 4 0.0000 0.0000 0.0000 94.4402 0.0000 0.0000
# 5 0.0000 0.0000 0.0000 0.0000 22.5898 0.0000
# 6 0.0000 0.0000 0.0000 0.0000 0.0000 -5.7434
#
#
#
# Elastic Compliance Matrix: (Units=1/GPa)
#
#
# Indices 1 2 3 4 5 6 
#
# 1 0.037932 -0.011539 -0.022261 0.000000 0.000000 0.000000
# 2 -0.011539 0.013422 -0.008060 0.000000 0.000000 0.000000
# 3 -0.022261 -0.008060 0.062124 0.000000 0.000000 0.000000
# 4 0.000000 0.000000 0.000000 0.010589 0.000000 0.000000
# 5 0.000000 0.000000 0.000000 0.000000 0.044268 0.000000
# 6 0.000000 0.000000 0.000000 0.000000 0.000000 -0.174112
#
#
# Mechanical properties :
#
#
# Convention : Reuss Voigt Hill
#
# Bulk Modulus (GPa) = 33.60356 73.77867 53.69111
# Shear Modulus (GPa) = 56.90767 29.88132 43.39450
#
# Velocity S-wave (km/s) = 5.66219 4.10297 4.94443
# Velocity P-wave (km/s) = 7.85357 8.00069 7.92747
#
# Compressibility (1/GPa) = 0.02975875
#
# Stress axis : x y z
#
# Youngs Moduli (GPa) = 26.36275 74.50627 16.09682
#
# Poissons Ratio (x) = 0.85973 0.35833
# Poissons Ratio (y) = 0.30420 0.12974
# Poissons Ratio (z) = 0.58686 0.60050
#
# Static dielectric constant tensor:
#      x y z
#    x 1.585060 0.000000 0.000000 
#    y 0.000000 1.619190 0.000000 
#    z 0.000000 0.000000 1.595460 
# 
# From -- ./inp_files/10009.got.cif
#   From: 2010.05.17/outbox.cif.g08.bks.cpg/sg47_6_cif.got.tgz:10009.got - 2010.06.03 20:15:42.
