data_PCOD9385406
_publ_section_title
;
Structure prediction by ZEFSAII (Michael W. Deem and Ramdas Pophale) SiO2 
 PCOD9385406
Probable space group: P M M M
;
_chemical_formula_sum "Si O2"
_cell_formula_units_Z 52
_cell_length_a 11.026141
_cell_length_b 9.128153
_cell_length_c 29.925000
_cell_angle_alpha 90.000000
_cell_angle_beta 90.000000
_cell_angle_gamma 90.000000
_cell_volume 3011.900439
_symmetry_space_group_name_H-M "P M M M"
_symmetry_group_IT_number 47
_symmetry_cell_setting 'orthorhombic'
loop_
_space_group_symop_operation_xyz
x,y,z
-x,-y,z
x,-y,-z
-x,y,-z
-x,-y,-z
x,y,-z
-x,y,z
x,-y,z
loop_
_atom_site_type_symbol
_atom_site_label
_atom_site_fract_x
_atom_site_fract_y
_atom_site_fract_z
Si Si1 0.146492 0.833958 0.199748
Si Si2 0.000000 0.824618 0.447824
Si Si3 0.853384 0.671336 0.288676
Si Si4 0.857628 0.675817 0.106734
Si Si5 0.643614 0.165622 0.549763
Si Si6 0.361749 0.174280 0.053588
Si Si7 0.795868 0.673026 0.388487
O O1 0.189595 0.763954 0.246227
O O2 0.170193 0.734782 0.156570
O O3 0.000000 0.839781 0.203153
O O4 0.190777 0.000000 0.193365
O O5 0.888282 0.758300 0.420457
O O6 0.000000 0.781597 0.500000
O O7 0.000000 0.000000 0.445854
O O8 0.823351 0.500000 0.281938
O O9 0.805206 0.719689 0.336972
O O10 0.000000 0.681008 0.291249
O O11 0.852460 0.500000 0.105288
O O12 0.752325 0.743607 0.075704
O O13 0.000000 0.717664 0.096251
O O14 0.690842 0.205271 0.500000
O O15 0.500000 0.156077 0.546330
O O16 0.672542 0.281604 0.587856
O O17 0.688585 0.000000 0.559997
O O18 0.500000 0.219594 0.067533
O O19 0.351158 0.000000 0.062858
O O20 0.355909 0.193315 0.000000
O O21 0.820898 0.500000 0.389660
#
# Coordination Sequence:
#
# PCOD9385406 Si02
#       7
#     8   4   8   8   8   8   8
#     4   9  17  29  48  74 100 130 171 215 256 299
#     4  11  23  35  47  67  99 135 165 195 238 293
#     4   9  17  31  47  67 100 134 161 196 250 307
#     4  10  20  33  51  78 111 145 180 222 273 322
#     4   9  19  36  54  70  91 122 160 200 243 293
#     4   9  19  36  56  78 107 145 187 229 273 321
#     4  11  21  33  50  74 100 127 159 199 247 296
#
# _framework density 17.264847
#
# number of rings (size 3 to 8) (size 9 to 14) (size 15 to 20)
#    0.000    2.385    0.769    3.000    0.000    8.000 
#    0.000    3.077    0.000    0.923    0.000    4.308 
#    0.000    0.000    0.000    0.000    0.000    0.000 
#
# Total GULP energy -289625.180547 kJ/mol
# GULP energy per Si atom -5569.715011 kJ/mol
# Density = 1.722555 g / cm^3
# Si number density = 17.264847 Si / 1000 Ang^3
#
#
#
# Elastic Constant Matrix: (Units=GPa)
#
#
# Indices 1 2 3 4 5 6 
#
# 1 75.1666 38.4751 51.1796 0.0000 0.0000 0.0000
# 2 38.4751 65.1537 53.3980 0.0000 0.0000 0.0000
# 3 51.1796 53.3980 105.8634 0.0000 0.0000 0.0000
# 4 0.0000 0.0000 0.0000 33.6243 0.0000 0.0000
# 5 0.0000 0.0000 0.0000 0.0000 -13.4473 0.0000
# 6 0.0000 0.0000 0.0000 0.0000 0.0000 25.2316
#
#
#
# Elastic Compliance Matrix: (Units=1/GPa)
#
#
# Indices 1 2 3 4 5 6 
#
# 1 0.021631 -0.007165 -0.006843 0.000000 0.000000 0.000000
# 2 -0.007165 0.028538 -0.010931 0.000000 0.000000 0.000000
# 3 -0.006843 -0.010931 0.018268 0.000000 0.000000 0.000000
# 4 0.000000 0.000000 0.000000 0.029740 0.000000 0.000000
# 5 0.000000 0.000000 0.000000 0.000000 -0.074364 0.000000
# 6 0.000000 0.000000 0.000000 0.000000 0.000000 0.039633
#
#
# Mechanical properties :
#
#
# Convention : Reuss Voigt Hill
#
# Bulk Modulus (GPa) = 53.88330 59.14325 56.51328
# Shear Modulus (GPa) = 41.83743 15.95712 28.89727
#
# Velocity S-wave (km/s) = 4.92801 3.04345 4.09560
# Velocity P-wave (km/s) = 7.97860 6.83235 7.42762
#
# Compressibility (1/GPa) = 0.01855863
#
# Stress axis : x y z
#
# Youngs Moduli (GPa) = 46.23042 35.04101 54.74025
#
# Poissons Ratio (x) = 0.25107 0.37461
# Poissons Ratio (y) = 0.33124 0.59835
# Poissons Ratio (z) = 0.31637 0.38303
#
# Static dielectric constant tensor:
#      x y z
#    x 1.706930 0.000000 0.000000 
#    y 0.000000 1.589540 0.000000 
#    z 0.000000 0.000000 1.574940 
# 
# From -- ./inp_files/33565.got.cif
#   From: 2010.05.17/outbox.cif.g08.bks.cpg/sg47_17_cif.got.tgz:33565.got - 2010.06.03 20:15:42.
