data_PCOD9385762
_publ_section_title
;
Structure prediction by ZEFSAII (Michael W. Deem and Ramdas Pophale) SiO2 
 PCOD9385762
Probable space group: P M M M
;
_chemical_formula_sum "Si O2"
_cell_formula_units_Z 44
_cell_length_a 7.562721
_cell_length_b 9.308909
_cell_length_c 29.742369
_cell_angle_alpha 90.000000
_cell_angle_beta 90.000000
_cell_angle_gamma 90.000000
_cell_volume 2093.883049
_symmetry_space_group_name_H-M "P M M M"
_symmetry_group_IT_number 47
_symmetry_cell_setting 'orthorhombic'
loop_
_space_group_symop_operation_xyz
x,y,z
-x,-y,z
x,-y,-z
-x,y,-z
-x,-y,-z
x,y,-z
-x,y,z
x,-y,z
loop_
_atom_site_type_symbol
_atom_site_label
_atom_site_fract_x
_atom_site_fract_y
_atom_site_fract_z
Si Si1 0.287470 0.832653 0.548321
Si Si2 0.716618 0.834283 0.000000
Si Si3 0.783190 0.334877 0.733509
Si Si4 0.210079 0.163833 0.353508
Si Si5 0.787804 0.836961 0.178572
Si Si6 0.712042 0.336761 0.911939
O O1 0.226940 0.771224 0.500000
O O2 0.500000 0.833077 0.547445
O O3 0.236417 0.771487 0.596676
O O4 0.227939 0.000000 0.549171
O O5 0.776102 0.751147 0.044685
O O6 0.500000 0.834518 0.000000
O O7 0.772715 0.000000 0.000000
O O8 0.727157 0.500000 0.736105
O O9 0.722724 0.258871 0.687581
O O10 0.724130 0.245435 0.776991
O O11 0.000000 0.334839 0.733506
O O12 0.000000 0.152409 0.347160
O O13 0.282365 0.000000 0.352559
O O14 0.749295 0.747704 0.133806
O O15 0.000000 0.845097 0.182569
O O16 0.719797 0.000000 0.175642
O O17 0.500000 0.345040 0.916360
O O18 0.780358 0.500000 0.910548
#
# Coordination Sequence:
#
# PCOD9385762 Si02
#       6
#     8   4   8   8   8   8
#     4   8  14  25  41  62  89 119 148 180 224 277
#     4   9  17  31  52  75 100 133 170 206 246 291
#     4   9  17  30  48  68  92 124 158 191 233 286
#     4   9  16  26  43  67  90 112 146 192 232 267
#     4  10  20  34  53  76 101 130 165 204 246 293
#     4  10  20  34  53  77 104 133 166 204 246 293
#
# _framework density 21.013591000000002
#
# number of rings (size 3 to 8) (size 9 to 14) (size 15 to 20)
#    0.000    2.818    0.000    2.455    0.000    5.818 
#    0.000    3.182    0.000    7.091    0.000    3.818 
#    0.000    0.000    0.000    0.000    0.000    0.000 
#
# Total GULP energy -245498.266796 kJ/mol
# GULP energy per Si atom -5579.506064 kJ/mol
# Density = 2.096576 g / cm^3
# Si number density = 21.013591 Si / 1000 Ang^3
#
#
#
# Elastic Constant Matrix: (Units=GPa)
#
#
# Indices 1 2 3 4 5 6 
#
# 1 46.6263 6.9621 1.0951 0.0000 0.0000 0.0000
# 2 6.9621 171.3744 128.3959 0.0000 0.0000 0.0000
# 3 1.0951 128.3959 256.8319 0.0000 0.0000 0.0000
# 4 0.0000 0.0000 0.0000 -398.1174 0.0000 0.0000
# 5 0.0000 0.0000 0.0000 0.0000 25.4460 0.0000
# 6 0.0000 0.0000 0.0000 0.0000 0.0000 7.8133
#
#
#
# Elastic Compliance Matrix: (Units=1/GPa)
#
#
# Indices 1 2 3 4 5 6 
#
# 1 0.021627 -0.001294 0.000555 0.000000 0.000000 0.000000
# 2 -0.001294 0.009407 -0.004697 0.000000 0.000000 0.000000
# 3 0.000555 -0.004697 0.006239 0.000000 0.000000 0.000000
# 4 0.000000 0.000000 0.000000 -0.002512 0.000000 0.000000
# 5 0.000000 0.000000 0.000000 0.000000 0.039299 0.000000
# 6 0.000000 0.000000 0.000000 0.000000 0.000000 0.127987
#
#
# Mechanical properties :
#
#
# Convention : Reuss Voigt Hill
#
# Bulk Modulus (GPa) = 37.87822 83.08209 60.48015
# Shear Modulus (GPa) = 22.55084 -50.41300 -13.93108
#
# Velocity S-wave (km/s) = 3.27946 -4.90334 -2.57759
# Velocity P-wave (km/s) = 5.69250 2.75066 4.47050
#
# Compressibility (1/GPa) = 0.02640040
#
# Stress axis : x y z
#
# Youngs Moduli (GPa) = 46.23776 106.30385 160.26955
#
# Poissons Ratio (x) = 0.13759 -0.08892
# Poissons Ratio (y) = 0.05985 0.75283
# Poissons Ratio (z) = -0.02565 0.49934
#
# Static dielectric constant tensor:
#      x y z
#    x 1.809610 0.000000 0.000000 
#    y 0.000000 1.724650 0.000000 
#    z 0.000000 0.000000 1.747390 
# 
# From -- ./inp_files/2061.got.cif
#   From: 2010.05.17/outbox.cif.g08.bks.cpg/sg47_2_cif.got.tgz:2061.got - 2010.06.03 20:15:42.
