data_PCOD9385775
_publ_section_title
;
Structure prediction by ZEFSAII (Michael W. Deem and Ramdas Pophale) SiO2 
 PCOD9385775
Probable space group: P M M M
;
_chemical_formula_sum "Si O2"
_cell_formula_units_Z 41
_cell_length_a 9.413089
_cell_length_b 20.520531
_cell_length_c 11.877097
_cell_angle_alpha 90.000000
_cell_angle_beta 90.000000
_cell_angle_gamma 90.000000
_cell_volume 2294.198877
_symmetry_space_group_name_H-M "P M M M"
_symmetry_group_IT_number 47
_symmetry_cell_setting 'orthorhombic'
loop_
_space_group_symop_operation_xyz
x,y,z
-x,-y,z
x,-y,-z
-x,y,-z
-x,-y,-z
x,y,-z
-x,y,z
x,-y,z
loop_
_atom_site_type_symbol
_atom_site_label
_atom_site_fract_x
_atom_site_fract_y
_atom_site_fract_z
Si Si1 0.670599 0.685503 0.740243
Si Si2 0.167504 0.200609 0.865883
Si Si3 0.239563 0.103350 0.500000
Si Si4 0.836894 0.071093 0.250831
Si Si5 0.167621 0.577742 0.130499
Si Si6 0.329410 0.254165 0.500000
Si Si7 0.500000 0.000000 0.500000
O O1 0.500000 0.684339 0.749773
O O2 0.740233 0.740547 0.818881
O O3 0.738170 0.618257 0.783110
O O4 0.709067 0.706432 0.612772
O O5 0.225042 0.133318 0.812462
O O6 0.000000 0.208934 0.833590
O O7 0.173425 0.197567 0.000000
O O8 0.163585 0.085339 0.616371
O O9 0.267875 0.180960 0.500000
O O10 0.377791 0.057665 0.500000
O O11 0.000000 0.067467 0.211831
O O12 0.769258 0.000000 0.231134
O O13 0.185165 0.500000 0.142712
O O14 0.000000 0.592721 0.146034
O O15 0.202991 0.594592 0.000000
O O16 0.500000 0.246704 0.500000
#
# Coordination Sequence:
#
# PCOD9385775 Si02
#       7
#     8   8   4   8   8   4   1
#     4  11  22  37  58  82 113 148 187 229 276 330
#     4  10  21  36  54  78 109 146 185 227 281 341
#     4  12  19  35  52  79 103 137 187 232 276 340
#     4  10  20  34  53  76 103 135 178 235 283 325
#     4   9  19  38  63  89 118 150 183 224 273 323
#     4  10  22  37  53  76 112 149 183 226 278 330
#     4  12  24  28  62  80 102 148 190 230 304 342
#
# _framework density 17.871162000000002
#
# number of rings (size 3 to 8) (size 9 to 14) (size 15 to 20)
#    0.000    1.756    3.415    2.049    0.000    4.683 
#    0.000    5.366    0.000    2.927    0.000    2.049 
#    0.000    0.000    0.000    0.000    0.000    0.000 
#
# Total GULP energy -228415.594323 kJ/mol
# GULP energy per Si atom -5571.112057 kJ/mol
# Density = 1.783049 g / cm^3
# Si number density = 17.871162 Si / 1000 Ang^3
#
#
#
# Elastic Constant Matrix: (Units=GPa)
#
#
# Indices 1 2 3 4 5 6 
#
# 1 53.3349 42.8327 29.7503 0.0000 0.0000 0.0000
# 2 42.8327 99.1654 45.5830 0.0000 0.0000 0.0000
# 3 29.7503 45.5830 67.9667 0.0000 0.0000 0.0000
# 4 0.0000 0.0000 0.0000 -1.6871 0.0000 0.0000
# 5 0.0000 0.0000 0.0000 0.0000 23.3626 0.0000
# 6 0.0000 0.0000 0.0000 0.0000 0.0000 27.8456
#
#
#
# Elastic Compliance Matrix: (Units=1/GPa)
#
#
# Indices 1 2 3 4 5 6 
#
# 1 0.030599 -0.010207 -0.006549 0.000000 0.000000 0.000000
# 2 -0.010207 0.017983 -0.007593 0.000000 0.000000 0.000000
# 3 -0.006549 -0.007593 0.022672 0.000000 0.000000 0.000000
# 4 0.000000 0.000000 0.000000 -0.592721 0.000000 0.000000
# 5 0.000000 0.000000 0.000000 0.000000 0.042803 0.000000
# 6 0.000000 0.000000 0.000000 0.000000 0.000000 0.035912
#
#
# Mechanical properties :
#
#
# Convention : Reuss Voigt Hill
#
# Bulk Modulus (GPa) = 44.33081 50.75544 47.54313
# Shear Modulus (GPa) = -12.93539 16.72428 1.89444
#
# Velocity S-wave (km/s) = -2.69330 3.06244 1.03071
# Velocity P-wave (km/s) = 3.89716 6.40056 5.29882
#
# Compressibility (1/GPa) = 0.02255767
#
# Stress axis : x y z
#
# Youngs Moduli (GPa) = 32.68073 55.60826 44.10751
#
# Poissons Ratio (x) = 0.56757 0.28884
# Poissons Ratio (y) = 0.33356 0.33491
# Poissons Ratio (z) = 0.21401 0.42223
#
# Static dielectric constant tensor:
#      x y z
#    x 1.609180 0.000000 0.000000 
#    y 0.000000 1.636310 0.000000 
#    z 0.000000 0.000000 1.598950 
# 
# From -- ./inp_files/15191.got.cif
#   From: 2010.05.17/outbox.cif.g08.bks.cpg/sg47_8_cif.got.tgz:15191.got - 2010.06.03 20:15:42.
