data_PCOD9385506
_publ_section_title
;
Structure prediction by ZEFSAII (Michael W. Deem and Ramdas Pophale) SiO2 
 PCOD9385506
Probable space group: P M M M
;
_chemical_formula_sum "Si O2"
_cell_formula_units_Z 48
_cell_length_a 9.343651
_cell_length_b 8.580693
_cell_length_c 31.626468
_cell_angle_alpha 90.000000
_cell_angle_beta 90.000000
_cell_angle_gamma 90.000000
_cell_volume 2535.652095
_symmetry_space_group_name_H-M "P M M M"
_symmetry_group_IT_number 47
_symmetry_cell_setting 'orthorhombic'
loop_
_space_group_symop_operation_xyz
x,y,z
-x,-y,z
x,-y,-z
-x,y,-z
-x,-y,-z
x,y,-z
-x,y,z
x,-y,z
loop_
_atom_site_type_symbol
_atom_site_label
_atom_site_fract_x
_atom_site_fract_y
_atom_site_fract_z
Si Si1 0.165604 0.686876 0.210875
Si Si2 0.334362 0.186733 0.291843
Si Si3 0.165665 0.810232 0.047372
Si Si4 0.665229 0.188874 0.869971
Si Si5 0.165556 0.686227 0.627760
Si Si6 0.333013 0.812197 0.548487
O O1 0.168061 0.500000 0.210511
O O2 0.249343 0.745940 0.251978
O O3 0.243033 0.749519 0.169080
O O4 0.000000 0.738581 0.212091
O O5 0.500000 0.238459 0.291259
O O6 0.257912 0.239394 0.334785
O O7 0.332378 0.000000 0.289372
O O8 0.265400 0.758458 0.085675
O O9 0.000000 0.764696 0.054487
O O10 0.168456 0.000000 0.047241
O O11 0.208190 0.759721 0.000000
O O12 0.500000 0.237395 0.866452
O O13 0.669068 0.000000 0.869119
O O14 0.170571 0.500000 0.632125
O O15 0.232754 0.735081 0.583070
O O16 0.000000 0.736347 0.630730
O O17 0.298590 0.768904 0.500000
O O18 0.500000 0.772002 0.556255
O O19 0.321774 0.000000 0.551712
#
# Coordination Sequence:
#
# PCOD9385506 Si02
#       6
#     8   8   8   8   8   8
#     4  11  24  40  58  81 109 142 181 223 269 323
#     4  11  24  41  62  87 112 140 179 225 272 325
#     4   8  14  26  46  73 105 141 180 222 269 319
#     4  10  20  33  52  80 111 143 181 223 269 323
#     4  11  24  39  56  83 118 152 187 227 272 325
#     4   9  19  37  60  85 113 147 190 237 281 327
#
# _framework density 18.930042
#
# number of rings (size 3 to 8) (size 9 to 14) (size 15 to 20)
#    0.000    2.000    0.000    4.500    0.000   12.333 
#    0.000    4.167    0.000    0.500    0.000    3.500 
#    0.000    0.000    0.000    0.000    0.000    0.000 
#
# Total GULP energy -268164.914102 kJ/mol
# GULP energy per Si atom -5586.769044 kJ/mol
# Density = 1.888696 g / cm^3
# Si number density = 18.930042 Si / 1000 Ang^3
#
#
#
# Elastic Constant Matrix: (Units=GPa)
#
#
# Indices 1 2 3 4 5 6 
#
# 1 180.3357 37.4524 113.0016 0.0000 0.0000 0.0000
# 2 37.4524 20.8843 26.5182 0.0000 0.0000 0.0000
# 3 113.0016 26.5182 151.9900 0.0000 0.0000 0.0000
# 4 0.0000 0.0000 0.0000 -197.6922 0.0000 0.0000
# 5 0.0000 0.0000 0.0000 0.0000 42.4585 0.0000
# 6 0.0000 0.0000 0.0000 0.0000 0.0000 30.0020
#
#
#
# Elastic Compliance Matrix: (Units=1/GPa)
#
#
# Indices 1 2 3 4 5 6 
#
# 1 0.012992 -0.014174 -0.007186 0.000000 0.000000 0.000000
# 2 -0.014174 0.076973 -0.002892 0.000000 0.000000 0.000000
# 3 -0.007186 -0.002892 0.012427 0.000000 0.000000 0.000000
# 4 0.000000 0.000000 0.000000 -0.005058 0.000000 0.000000
# 5 0.000000 0.000000 0.000000 0.000000 0.023552 0.000000
# 6 0.000000 0.000000 0.000000 0.000000 0.000000 0.033331
#
#
# Mechanical properties :
#
#
# Convention : Reuss Voigt Hill
#
# Bulk Modulus (GPa) = 18.55700 78.57269 48.56484
# Shear Modulus (GPa) = 22.65690 -13.29716 4.67987
#
# Velocity S-wave (km/s) = 3.46334 -2.65323 1.57403
# Velocity P-wave (km/s) = 5.08106 5.67546 5.38647
#
# Compressibility (1/GPa) = 0.05388801
#
# Stress axis : x y z
#
# Youngs Moduli (GPa) = 76.97099 12.99156 80.47148
#
# Poissons Ratio (x) = 0.18414 0.57829
# Poissons Ratio (y) = 1.09098 0.23270
# Poissons Ratio (z) = 0.55313 0.03757
#
# Static dielectric constant tensor:
#      x y z
#    x 1.640830 0.000000 0.000000 
#    y 0.000000 1.646790 0.000000 
#    z 0.000000 0.000000 1.626440 
# 
# From -- ./inp_files/2436.got.cif
#   From: 2010.05.17/outbox.cif.g08.bks.cpg/sg47_2_cif.got.tgz:2436.got - 2010.06.03 20:15:42.
