data_PCOD9385271
_publ_section_title
;
Structure prediction by ZEFSAII (Michael W. Deem and Ramdas Pophale) SiO2 
 PCOD9385271
Probable space group: P M M M
;
_chemical_formula_sum "Si O2"
_cell_formula_units_Z 52
_cell_length_a 18.230391
_cell_length_b 17.374224
_cell_length_c 10.001800
_cell_angle_alpha 90.000000
_cell_angle_beta 90.000000
_cell_angle_gamma 90.000000
_cell_volume 3167.959098
_symmetry_space_group_name_H-M "P M M M"
_symmetry_group_IT_number 47
_symmetry_cell_setting 'orthorhombic'
loop_
_space_group_symop_operation_xyz
x,y,z
-x,-y,z
x,-y,-z
-x,y,-z
-x,-y,-z
x,y,-z
-x,y,z
x,-y,z
loop_
_atom_site_type_symbol
_atom_site_label
_atom_site_fract_x
_atom_site_fract_y
_atom_site_fract_z
Si Si1 0.910798 0.000000 0.344723
Si Si2 0.584697 0.347456 0.340436
Si Si3 0.087019 0.856988 0.157060
Si Si4 0.358808 0.817644 0.255839
Si Si5 0.288535 0.412774 0.157840
Si Si6 0.415050 0.908775 0.500000
Si Si7 0.587890 0.089163 0.000000
Si Si8 0.786636 0.256754 0.158629
O O1 0.889769 0.075133 0.258126
O O2 0.885831 0.000000 0.500000
O O3 0.000000 0.000000 0.347776
O O4 0.600571 0.350741 0.500000
O O5 0.500000 0.370517 0.320995
O O6 0.596084 0.259903 0.289565
O O7 0.641881 0.396304 0.252728
O O8 0.134672 0.780850 0.184662
O O9 0.000000 0.844047 0.172986
O O10 0.098806 0.879015 0.000000
O O11 0.373036 0.876080 0.374053
O O12 0.275559 0.790375 0.236552
O O13 0.385476 0.862207 0.125835
O O14 0.262491 0.500000 0.177298
O O15 0.228444 0.346624 0.187124
O O16 0.309076 0.404404 0.000000
O O17 0.500000 0.881216 0.500000
O O18 0.416684 0.000000 0.500000
O O19 0.500000 0.086594 0.000000
O O20 0.614017 0.000000 0.000000
O O21 0.772395 0.246659 0.000000
#
# Coordination Sequence:
#
# PCOD9385271 Si02
#       8
#     4   8   8   8   8   4   4   8
#     4   9  17  31  49  75 109 137 166 207 252 293
#     4  10  20  33  51  72  97 131 166 207 255 305
#     4   9  17  32  54  77 102 139 180 210 245 300
#     4  11  20  36  50  71  99 131 172 217 260 307
#     4   9  19  35  54  75 100 129 162 203 255 312
#     4  11  22  36  52  68  96 136 176 219 264 304
#     4  11  22  34  50  70  94 130 178 223 262 302
#     4   9  18  35  54  75 101 131 166 209 255 304
#
# _framework density 16.414352999999998
#
# number of rings (size 3 to 8) (size 9 to 14) (size 15 to 20)
#    0.000    2.231    1.538    2.077    1.077    3.077 
#    4.154    1.538    0.000    0.462    0.000    3.231 
#    0.000    0.000    0.000    7.846    0.000    7.846 
#
# Total GULP energy -289795.201653 kJ/mol
# GULP energy per Si atom -5572.984647 kJ/mol
# Density = 1.637699 g / cm^3
# Si number density = 16.414353 Si / 1000 Ang^3
#
#
#
# Elastic Constant Matrix: (Units=GPa)
#
#
# Indices 1 2 3 4 5 6 
#
# 1 63.8694 53.3689 38.0812 0.0000 0.0000 0.0000
# 2 53.3689 120.2110 59.8957 0.0000 0.0000 0.0000
# 3 38.0812 59.8957 106.1115 0.0000 0.0000 0.0000
# 4 0.0000 0.0000 0.0000 15.6333 0.0000 0.0000
# 5 0.0000 0.0000 0.0000 0.0000 15.8317 0.0000
# 6 0.0000 0.0000 0.0000 0.0000 0.0000 12.7340
#
#
#
# Elastic Compliance Matrix: (Units=1/GPa)
#
#
# Indices 1 2 3 4 5 6 
#
# 1 0.026011 -0.009596 -0.003919 0.000000 0.000000 0.000000
# 2 -0.009596 0.015114 -0.005087 0.000000 0.000000 0.000000
# 3 -0.003919 -0.005087 0.013702 0.000000 0.000000 0.000000
# 4 0.000000 0.000000 0.000000 0.063966 0.000000 0.000000
# 5 0.000000 0.000000 0.000000 0.000000 0.063164 0.000000
# 6 0.000000 0.000000 0.000000 0.000000 0.000000 0.078530
#
#
# Mechanical properties :
#
#
# Convention : Reuss Voigt Hill
#
# Bulk Modulus (GPa) = 56.74140 65.87595 61.30867
# Shear Modulus (GPa) = 16.47096 18.09622 17.28359
#
# Velocity S-wave (km/s) = 3.17116 3.32394 3.24845
# Velocity P-wave (km/s) = 6.93192 7.41294 7.17646
#
# Compressibility (1/GPa) = 0.01762382
#
# Stress axis : x y z
#
# Youngs Moduli (GPa) = 38.44477 66.16595 72.98222
#
# Poissons Ratio (x) = 0.63490 0.28599
# Poissons Ratio (y) = 0.36890 0.37129
# Poissons Ratio (z) = 0.15065 0.33661
#
# Static dielectric constant tensor:
#      x y z
#    x 1.538840 0.000000 0.000000 
#    y 0.000000 1.554590 0.000000 
#    z 0.000000 0.000000 1.534000 
# 
# From -- ./inp_files/9646.got.cif
#   From: 2010.05.17/outbox.cif.g08.bks.cpg/sg47_5_cif.got.tgz:9646.got - 2010.06.03 20:15:42.
