data_PCOD9385374
_publ_section_title
;
Structure prediction by ZEFSAII (Michael W. Deem and Ramdas Pophale) SiO2 
 PCOD9385374
Probable space group: P M M M
;
_chemical_formula_sum "Si O2"
_cell_formula_units_Z 56
_cell_length_a 22.601043
_cell_length_b 15.193888
_cell_length_c 8.861514
_cell_angle_alpha 90.000000
_cell_angle_beta 90.000000
_cell_angle_gamma 90.000000
_cell_volume 3043.023668
_symmetry_space_group_name_H-M "P M M M"
_symmetry_group_IT_number 47
_symmetry_cell_setting 'orthorhombic'
loop_
_space_group_symop_operation_xyz
x,y,z
-x,-y,z
x,-y,-z
-x,y,-z
-x,-y,-z
x,y,-z
-x,y,z
x,-y,z
loop_
_atom_site_type_symbol
_atom_site_label
_atom_site_fract_x
_atom_site_fract_y
_atom_site_fract_z
Si Si1 0.652609 0.755096 0.682390
Si Si2 0.211026 0.755785 0.682529
Si Si3 0.000000 0.892820 0.327083
Si Si4 0.000000 0.392772 0.172736
Si Si5 0.566961 0.399472 0.683754
Si Si6 0.566809 0.103431 0.181231
Si Si7 0.876522 0.398361 0.681571
Si Si8 0.876109 0.896316 0.819930
O O1 0.652204 0.755472 0.500000
O O2 0.720756 0.754272 0.731375
O O3 0.615970 0.669417 0.734636
O O4 0.616454 0.838565 0.741173
O O5 0.209618 0.761003 0.500000
O O6 0.175698 0.667344 0.727084
O O7 0.175350 0.837811 0.749243
O O8 0.060332 0.866422 0.244889
O O9 0.000000 0.862558 0.500000
O O10 0.000000 0.000000 0.326627
O O11 0.060603 0.366596 0.253818
O O12 0.000000 0.500000 0.175504
O O13 0.000000 0.363312 0.000000
O O14 0.567223 0.399060 0.500000
O O15 0.500000 0.375086 0.730646
O O16 0.578415 0.500000 0.730990
O O17 0.500000 0.129982 0.228291
O O18 0.573663 0.000000 0.215412
O O19 0.570269 0.113087 0.000000
O O20 0.880316 0.398030 0.500000
O O21 0.866582 0.500000 0.729348
O O22 0.868606 0.000000 0.782474
O O23 0.876487 0.887964 0.000000
#
# Coordination Sequence:
#
# PCOD9385374 Si02
#       8
#     8   8   4   4   8   8   8   8
#     4  10  20  33  51  77 107 137 172 214 256 300
#     4  10  22  36  50  74 106 140 176 212 256 306
#     4   9  17  32  57  84 106 130 162 208 267 317
#     4   9  17  30  51  78 102 126 164 216 267 305
#     4   8  14  26  47  76 106 133 163 204 256 308
#     4   9  19  36  56  77 102 134 171 210 256 309
#     4   9  18  34  54  74 100 135 172 209 252 306
#     4  10  21  37  56  77 102 134 174 217 257 304
#
# _framework density 18.402749
#
# number of rings (size 3 to 8) (size 9 to 14) (size 15 to 20)
#    0.000    2.714    0.000    2.143    0.000    6.571 
#    0.000    7.143    0.000    0.429    0.000    4.000 
#    0.000    0.000    0.000    0.000    0.000    0.000 
#
# Total GULP energy -312441.849541 kJ/mol
# GULP energy per Si atom -5579.318742 kJ/mol
# Density = 1.836086 g / cm^3
# Si number density = 18.402749 Si / 1000 Ang^3
#
#
#
# Elastic Constant Matrix: (Units=GPa)
#
#
# Indices 1 2 3 4 5 6 
#
# 1 211.3606 100.8917 41.7789 0.0000 0.0000 0.0000
# 2 100.8917 97.5000 30.6103 0.0000 0.0000 0.0000
# 3 41.7789 30.6103 14.8125 0.0000 0.0000 0.0000
# 4 0.0000 0.0000 0.0000 6.4658 0.0000 0.0000
# 5 0.0000 0.0000 0.0000 0.0000 16.5833 0.0000
# 6 0.0000 0.0000 0.0000 0.0000 0.0000 -3.8422
#
#
#
# Elastic Compliance Matrix: (Units=1/GPa)
#
#
# Indices 1 2 3 4 5 6 
#
# 1 0.011450 -0.004867 -0.022238 0.000000 0.000000 0.000000
# 2 -0.004867 0.031271 -0.050897 0.000000 0.000000 0.000000
# 3 -0.022238 -0.050897 0.235412 0.000000 0.000000 0.000000
# 4 0.000000 0.000000 0.000000 0.154659 0.000000 0.000000
# 5 0.000000 0.000000 0.000000 0.000000 0.060302 0.000000
# 6 0.000000 0.000000 0.000000 0.000000 0.000000 -0.260266
#
#
# Mechanical properties :
#
#
# Convention : Reuss Voigt Hill
#
# Bulk Modulus (GPa) = 8.18792 74.47054 41.32923
# Shear Modulus (GPa) = 11.64032 13.86753 12.75392
#
# Velocity S-wave (km/s) = 2.51775 2.74808 2.63543
# Velocity P-wave (km/s) = 3.59319 7.11507 5.63627
#
# Compressibility (1/GPa) = 0.12213117
#
# Stress axis : x y z
#
# Youngs Moduli (GPa) = 87.33607 31.97801 4.24787
#
# Poissons Ratio (x) = 0.15563 0.09446
# Poissons Ratio (y) = 0.42504 0.21620
# Poissons Ratio (z) = 1.94217 1.62757
#
# Static dielectric constant tensor:
#      x y z
#    x 1.609360 0.000000 0.000000 
#    y 0.000000 1.644600 0.000000 
#    z 0.000000 0.000000 1.618620 
# 
# From -- ./inp_files/11383.got.cif
#   From: 2010.05.17/outbox.cif.g08.bks.cpg/sg47_6_cif.got.tgz:11383.got - 2010.06.03 20:15:42.
