data_PCOD9385489
_publ_section_title
;
Structure prediction by ZEFSAII (Michael W. Deem and Ramdas Pophale) SiO2 
 PCOD9385489
Probable space group: P M M M
;
_chemical_formula_sum "Si O2"
_cell_formula_units_Z 56
_cell_length_a 8.912392
_cell_length_b 14.738434
_cell_length_c 23.513211
_cell_angle_alpha 90.000000
_cell_angle_beta 90.000000
_cell_angle_gamma 90.000000
_cell_volume 3088.570807
_symmetry_space_group_name_H-M "P M M M"
_symmetry_group_IT_number 47
_symmetry_cell_setting 'orthorhombic'
loop_
_space_group_symop_operation_xyz
x,y,z
-x,-y,z
x,-y,-z
-x,y,-z
-x,-y,-z
x,y,-z
-x,y,z
x,-y,z
loop_
_atom_site_type_symbol
_atom_site_label
_atom_site_fract_x
_atom_site_fract_y
_atom_site_fract_z
Si Si1 0.320391 0.402765 0.401412
Si Si2 0.819861 0.286355 0.168407
Si Si3 0.319794 0.393914 0.934436
Si Si4 0.319073 0.798661 0.436117
Si Si5 0.170554 0.645926 0.712275
Si Si6 0.170278 0.857152 0.324459
Si Si7 0.678843 0.099660 0.791363
O O1 0.500000 0.402552 0.406605
O O2 0.265380 0.500000 0.424924
O O3 0.269875 0.307393 0.428643
O O4 0.273520 0.398923 0.335197
O O5 0.760790 0.330838 0.111003
O O6 0.774357 0.348966 0.222809
O O7 0.755657 0.185523 0.178609
O O8 0.000000 0.281926 0.169768
O O9 0.500000 0.384871 0.928846
O O10 0.282538 0.500000 0.924603
O O11 0.280798 0.372475 0.000000
O O12 0.282513 0.828143 0.500000
O O13 0.500000 0.800885 0.429130
O O14 0.244075 0.857181 0.386477
O O15 0.163810 0.751163 0.693358
O O16 0.000000 0.609978 0.710184
O O17 0.267785 0.899536 0.274261
O O18 0.000000 0.891624 0.324726
O O19 0.500000 0.111028 0.793620
O O20 0.717778 0.000000 0.815374
#
# Coordination Sequence:
#
# PCOD9385489 Si02
#       7
#     8   8   8   8   8   8   8
#     4   9  17  27  39  58  84 115 154 200 248 297
#     4  10  20  33  52  79 109 141 176 217 265 312
#     4   9  19  36  56  78 107 146 190 230 265 303
#     4   9  17  29  45  63  85 119 162 205 250 303
#     4   8  16  29  42  60  87 119 154 191 238 295
#     4   9  17  30  48  69  94 123 155 196 246 298
#     4  10  20  34  55  82 109 137 169 207 255 314
#
# _framework density 18.131363
#
# number of rings (size 3 to 8) (size 9 to 14) (size 15 to 20)
#    0.000    2.857    0.000    2.571    0.000    7.143 
#    0.000    5.000    0.000    0.857    0.000   10.000 
#    0.000    0.000    0.000    0.000    0.000    0.000 
#
# Total GULP energy -312039.110878 kJ/mol
# GULP energy per Si atom -5572.126980 kJ/mol
# Density = 1.809010 g / cm^3
# Si number density = 18.131363 Si / 1000 Ang^3
#
#
#
# Elastic Constant Matrix: (Units=GPa)
#
#
# Indices 1 2 3 4 5 6 
#
# 1 29.5590 17.3495 31.6100 0.0000 0.0000 0.0000
# 2 17.3495 56.7227 35.4332 0.0000 0.0000 0.0000
# 3 31.6100 35.4332 118.8162 0.0000 0.0000 0.0000
# 4 0.0000 0.0000 0.0000 10.4626 0.0000 0.0000
# 5 0.0000 0.0000 0.0000 0.0000 17.6412 0.0000
# 6 0.0000 0.0000 0.0000 0.0000 0.0000 -4.5957
#
#
#
# Elastic Compliance Matrix: (Units=1/GPa)
#
#
# Indices 1 2 3 4 5 6 
#
# 1 0.050532 -0.008674 -0.010857 0.000000 0.000000 0.000000
# 2 -0.008674 0.023155 -0.004598 0.000000 0.000000 0.000000
# 3 -0.010857 -0.004598 0.012676 0.000000 0.000000 0.000000
# 4 0.000000 0.000000 0.000000 0.095579 0.000000 0.000000
# 5 0.000000 0.000000 0.000000 0.000000 0.056686 0.000000
# 6 0.000000 0.000000 0.000000 0.000000 0.000000 -0.217595
#
#
# Mechanical properties :
#
#
# Convention : Reuss Voigt Hill
#
# Bulk Modulus (GPa) = 26.24278 41.54260 33.89269
# Shear Modulus (GPa) = 60.98289 12.74862 36.86575
#
# Velocity S-wave (km/s) = 5.80577 2.65453 4.51406
# Velocity P-wave (km/s) = 7.71023 5.68833 6.77513
#
# Compressibility (1/GPa) = 0.03810572
#
# Stress axis : x y z
#
# Youngs Moduli (GPa) = 19.78947 43.18789 78.89048
#
# Poissons Ratio (x) = 0.37461 0.85650
# Poissons Ratio (y) = 0.17165 0.36270
# Poissons Ratio (z) = 0.21485 0.19856
#
# Static dielectric constant tensor:
#      x y z
#    x 1.612410 0.000000 0.000000 
#    y 0.000000 1.664480 0.000000 
#    z 0.000000 0.000000 1.613220 
# 
# From -- ./inp_files/29695.got.cif
#   From: 2010.05.17/outbox.cif.g08.bks.cpg/sg47_15_cif.got.tgz:29695.got - 2010.06.03 20:15:42.
