data_PCOD9385725
_publ_section_title
;
Structure prediction by ZEFSAII (Michael W. Deem and Ramdas Pophale) SiO2 
 PCOD9385725
Probable space group: P M M M
;
_chemical_formula_sum "Si O2"
_cell_formula_units_Z 56
_cell_length_a 23.585395
_cell_length_b 14.984258
_cell_length_c 8.788602
_cell_angle_alpha 90.000000
_cell_angle_beta 90.000000
_cell_angle_gamma 90.000000
_cell_volume 3105.976702
_symmetry_space_group_name_H-M "P M M M"
_symmetry_group_IT_number 47
_symmetry_cell_setting 'orthorhombic'
loop_
_space_group_symop_operation_xyz
x,y,z
-x,-y,z
x,-y,-z
-x,y,-z
-x,-y,-z
x,y,-z
-x,y,z
x,-y,z
loop_
_atom_site_type_symbol
_atom_site_label
_atom_site_fract_x
_atom_site_fract_y
_atom_site_fract_z
Si Si1 0.130297 0.838969 0.675545
Si Si2 0.659748 0.761186 0.178931
Si Si3 0.066593 0.500000 0.317065
Si Si4 0.728250 0.396270 0.681415
Si Si5 0.434108 0.100568 0.814785
Si Si6 0.932761 0.000000 0.827109
Si Si7 0.851929 0.649369 0.180553
Si Si8 0.740091 0.102750 0.674460
O O1 0.117304 0.816870 0.500000
O O2 0.088439 0.912445 0.740937
O O3 0.132331 0.749722 0.773726
O O4 0.192853 0.882152 0.679383
O O5 0.679737 0.670656 0.259637
O O6 0.605232 0.817539 0.236587
O O7 0.710378 0.830914 0.209993
O O8 0.652955 0.743881 0.000000
O O9 0.069423 0.500000 0.500000
O O10 0.101456 0.415778 0.253558
O O11 0.000000 0.500000 0.272903
O O12 0.733880 0.385860 0.500000
O O13 0.715961 0.500000 0.715593
O O14 0.789131 0.371671 0.754358
O O15 0.500000 0.112089 0.772818
O O16 0.416200 0.000000 0.765213
O O17 0.431221 0.100089 0.000000
O O18 0.000000 0.000000 0.832559
O O19 0.909975 0.000000 0.000000
O O20 0.850855 0.637274 0.000000
O O21 0.721740 0.123194 0.500000
O O22 0.727009 0.000000 0.707305
#
# Coordination Sequence:
#
# PCOD9385725 Si02
#       8
#     8   8   4   8   8   4   8   8
#     4  11  22  39  61  83 112 151 191 230 283 352
#     4  11  21  32  54  88 118 147 191 242 293 344
#     4  11  25  45  67  89 115 151 190 229 286 361
#     4  11  23  39  59  81 113 154 193 234 290 361
#     4   8  15  30  52  81 120 162 199 236 283 342
#     4  11  25  43  61  83 113 149 194 247 292 335
#     4  12  24  39  63  91 117 146 186 241 296 344
#     4  10  20  34  52  77 112 150 184 224 276 336
#
# _framework density 18.029755999999999
#
# number of rings (size 3 to 8) (size 9 to 14) (size 15 to 20)
#    0.000    1.429    2.857    3.857    0.000    4.000 
#    0.000    0.000    0.000    2.143    0.000    8.000 
#    0.000    0.000    0.000    0.000    0.000    0.000 
#
# Total GULP energy -312733.018070 kJ/mol
# GULP energy per Si atom -5584.518180 kJ/mol
# Density = 1.798872 g / cm^3
# Si number density = 18.029756 Si / 1000 Ang^3
#
#
#
# Elastic Constant Matrix: (Units=GPa)
#
#
# Indices 1 2 3 4 5 6 
#
# 1 98.5063 63.3065 33.9633 0.0000 0.0000 0.0000
# 2 63.3065 145.5076 43.0635 0.0000 0.0000 0.0000
# 3 33.9633 43.0635 63.6827 0.0000 0.0000 0.0000
# 4 0.0000 0.0000 0.0000 35.1721 0.0000 0.0000
# 5 0.0000 0.0000 0.0000 0.0000 92.1822 0.0000
# 6 0.0000 0.0000 0.0000 0.0000 0.0000 80.5520
#
#
#
# Elastic Compliance Matrix: (Units=1/GPa)
#
#
# Indices 1 2 3 4 5 6 
#
# 1 0.015058 -0.005219 -0.004501 0.000000 0.000000 0.000000
# 2 -0.005219 0.010401 -0.004250 0.000000 0.000000 0.000000
# 3 -0.004501 -0.004250 0.020977 0.000000 0.000000 0.000000
# 4 0.000000 0.000000 0.000000 0.028432 0.000000 0.000000
# 5 0.000000 0.000000 0.000000 0.000000 0.010848 0.000000
# 6 0.000000 0.000000 0.000000 0.000000 0.000000 0.012414
#
#
# Mechanical properties :
#
#
# Convention : Reuss Voigt Hill
#
# Bulk Modulus (GPa) = 54.06739 65.37368 59.72054
# Shear Modulus (GPa) = 37.81123 52.73882 45.27503
#
# Velocity S-wave (km/s) = 4.58444 5.41429 5.01655
# Velocity P-wave (km/s) = 7.62075 8.68467 8.17004
#
# Compressibility (1/GPa) = 0.01849544
#
# Stress axis : x y z
#
# Youngs Moduli (GPa) = 66.41119 96.14541 47.67028
#
# Poissons Ratio (x) = 0.50178 0.21458
# Poissons Ratio (y) = 0.34660 0.20259
# Poissons Ratio (z) = 0.29894 0.40861
#
# Static dielectric constant tensor:
#      x y z
#    x 1.607680 0.000000 0.000000 
#    y 0.000000 1.618710 0.000000 
#    z 0.000000 0.000000 1.629070 
# 
# From -- ./inp_files/11294.got.cif
#   From: 2010.05.17/outbox.cif.g08.bks.cpg/sg47_6_cif.got.tgz:11294.got - 2010.06.03 20:15:42.
