data_PCOD9385043
_publ_section_title
;
Structure prediction by ZEFSAII (Michael W. Deem and Ramdas Pophale) SiO2 
 PCOD9385043
Probable space group: P M M M
;
_chemical_formula_sum "Si O2"
_cell_formula_units_Z 44
_cell_length_a 9.444720
_cell_length_b 7.593576
_cell_length_c 29.984617
_cell_angle_alpha 90.000000
_cell_angle_beta 90.000000
_cell_angle_gamma 90.000000
_cell_volume 2150.472717
_symmetry_space_group_name_H-M "P M M M"
_symmetry_group_IT_number 47
_symmetry_cell_setting 'orthorhombic'
loop_
_space_group_symop_operation_xyz
x,y,z
-x,-y,z
x,-y,-z
-x,y,-z
-x,-y,-z
x,y,-z
-x,y,z
x,-y,z
loop_
_atom_site_type_symbol
_atom_site_label
_atom_site_fract_x
_atom_site_fract_y
_atom_site_fract_z
Si Si1 0.840036 0.289411 0.184273
Si Si2 0.338181 0.212469 0.096811
Si Si3 0.327530 0.203638 0.000000
Si Si4 0.161511 0.709247 0.645358
Si Si5 0.662679 0.283934 0.269637
Si Si6 0.165050 0.788245 0.452058
O O1 0.848657 0.500000 0.189707
O O2 0.761865 0.256302 0.137748
O O3 0.747373 0.224209 0.225862
O O4 0.000000 0.219395 0.184603
O O5 0.500000 0.273707 0.104973
O O6 0.287992 0.280309 0.048183
O O7 0.344089 0.000000 0.093269
O O8 0.500000 0.202575 0.000000
O O9 0.279181 0.000000 0.000000
O O10 0.150209 0.500000 0.651696
O O11 0.257059 0.776072 0.685688
O O12 0.224659 0.735924 0.595873
O O13 0.000000 0.781315 0.646590
O O14 0.500000 0.227547 0.268530
O O15 0.662233 0.500000 0.269662
O O16 0.225598 0.728053 0.500000
O O17 0.000000 0.729627 0.451324
O O18 0.165226 0.000000 0.452785
#
# Coordination Sequence:
#
# PCOD9385043 Si02
#       6
#     8   8   4   8   8   8
#     4  10  20  33  49  70  97 128 160 194 235 283
#     4   9  17  31  52  75  97 123 158 198 237 278
#     4   7  12  26  48  71  94 122 156 193 232 275
#     4   9  16  26  43  67  90 111 142 186 227 261
#     4   9  17  30  48  67  88 118 154 189 228 276
#     4   8  14  25  41  62  89 119 147 175 213 263
#
# _framework density 20.460618
#
# number of rings (size 3 to 8) (size 9 to 14) (size 15 to 20)
#    0.000    3.182    0.000    2.727    0.000    4.000 
#    0.000    3.636    0.000    8.727    0.000    3.818 
#    0.000    0.000    0.000    0.000    0.000    0.000 
#
# Total GULP energy -245191.822703 kJ/mol
# GULP energy per Si atom -5572.541425 kJ/mol
# Density = 2.041405 g / cm^3
# Si number density = 20.460618 Si / 1000 Ang^3
#
#
#
# Elastic Constant Matrix: (Units=GPa)
#
#
# Indices 1 2 3 4 5 6 
#
# 1 114.5639 6.1927 111.0434 0.0000 0.0000 0.0000
# 2 6.1927 41.6654 2.5295 0.0000 0.0000 0.0000
# 3 111.0434 2.5295 252.6057 0.0000 0.0000 0.0000
# 4 0.0000 0.0000 0.0000 24.5652 0.0000 0.0000
# 5 0.0000 0.0000 0.0000 0.0000 34.0814 0.0000
# 6 0.0000 0.0000 0.0000 0.0000 0.0000 5.5540
#
#
#
# Elastic Compliance Matrix: (Units=1/GPa)
#
#
# Indices 1 2 3 4 5 6 
#
# 1 0.015354 -0.001873 -0.006731 0.000000 0.000000 0.000000
# 2 -0.001873 0.024244 0.000581 0.000000 0.000000 0.000000
# 3 -0.006731 0.000581 0.006912 0.000000 0.000000 0.000000
# 4 0.000000 0.000000 0.000000 0.040708 0.000000 0.000000
# 5 0.000000 0.000000 0.000000 0.000000 0.029342 0.000000
# 6 0.000000 0.000000 0.000000 0.000000 0.000000 0.180051
#
#
# Mechanical properties :
#
#
# Convention : Reuss Voigt Hill
#
# Bulk Modulus (GPa) = 32.82695 72.04070 52.43382
# Shear Modulus (GPa) = 15.48895 32.11140 23.80018
#
# Velocity S-wave (km/s) = 2.75437 3.96589 3.41430
# Velocity P-wave (km/s) = 5.11803 7.50046 6.42072
#
# Compressibility (1/GPa) = 0.03046278
#
# Stress axis : x y z
#
# Youngs Moduli (GPa) = 65.13012 41.24750 144.68265
#
# Poissons Ratio (x) = 0.07727 0.97381
# Poissons Ratio (y) = 0.12202 -0.08403
# Poissons Ratio (z) = 0.43837 -0.02396
#
# Static dielectric constant tensor:
#      x y z
#    x 1.699130 0.000000 0.000000 
#    y 0.000000 1.780840 0.000000 
#    z 0.000000 0.000000 1.757600 
# 
# From -- ./inp_files/13583.got.cif
#   From: 2010.05.17/outbox.cif.g08.bks.cpg/sg47_7_cif.got.tgz:13583.got - 2010.06.03 20:15:42.
