data_PCOD9385397
_publ_section_title
;
Structure prediction by ZEFSAII (Michael W. Deem and Ramdas Pophale) SiO2 
 PCOD9385397
Probable space group: P M M M
;
_chemical_formula_sum "Si O2"
_cell_formula_units_Z 36
_cell_length_a 9.388667
_cell_length_b 23.813780
_cell_length_c 7.711081
_cell_angle_alpha 90.000000
_cell_angle_beta 90.000000
_cell_angle_gamma 90.000000
_cell_volume 1724.040794
_symmetry_space_group_name_H-M "P M M M"
_symmetry_group_IT_number 47
_symmetry_cell_setting 'orthorhombic'
loop_
_space_group_symop_operation_xyz
x,y,z
-x,-y,z
x,-y,-z
-x,y,-z
-x,-y,-z
x,y,-z
-x,y,z
x,-y,z
loop_
_atom_site_type_symbol
_atom_site_label
_atom_site_fract_x
_atom_site_fract_y
_atom_site_fract_z
Si Si1 0.662675 0.563026 0.209158
Si Si2 0.160452 0.327792 0.706855
Si Si3 0.161836 0.888643 0.707647
Si Si4 0.337977 0.000000 0.206716
Si Si5 0.663947 0.779866 0.287285
O O1 0.500000 0.574248 0.267861
O O2 0.702591 0.500000 0.267645
O O3 0.767028 0.612267 0.263364
O O4 0.660604 0.562189 0.000000
O O5 0.151220 0.319820 0.500000
O O6 0.259362 0.277169 0.772084
O O7 0.000000 0.325493 0.777483
O O8 0.151881 0.882557 0.500000
O O9 0.251268 0.944689 0.741164
O O10 0.246662 0.833983 0.771435
O O11 0.000000 0.892288 0.775490
O O12 0.500000 0.000000 0.276893
O O13 0.346890 0.000000 0.000000
O O14 0.663001 0.780040 0.500000
O O15 0.500000 0.782549 0.231538
#
# Coordination Sequence:
#
# PCOD9385397 Si02
#       5
#     8   8   8   4   8
#     4   9  19  36  55  74  99 134 176 219 261 307
#     4  10  20  33  51  78 110 139 169 210 259 309
#     4  10  20  35  57  83 108 136 173 215 259 309
#     4  11  24  39  54  76 108 143 178 217 260 304
#     4   9  17  31  53  79 106 137 172 211 256 305
#
# _framework density 20.881177000000001
#
# number of rings (size 3 to 8) (size 9 to 14) (size 15 to 20)
#    0.000    2.333    0.000    3.333    0.000    8.889 
#    0.000    4.444    0.000    6.667    0.000    0.000 
#    0.000    0.000    0.000    0.000    0.000    0.000 
#
# Total GULP energy -201097.781808 kJ/mol
# GULP energy per Si atom -5586.049495 kJ/mol
# Density = 2.083365 g / cm^3
# Si number density = 20.881177 Si / 1000 Ang^3
#
#
#
# Elastic Constant Matrix: (Units=GPa)
#
#
# Indices 1 2 3 4 5 6 
#
# 1 231.5464 141.0082 8.5510 0.0000 0.0000 0.0000
# 2 141.0082 192.5061 -1.4050 0.0000 0.0000 0.0000
# 3 8.5510 -1.4050 31.6652 0.0000 0.0000 0.0000
# 4 0.0000 0.0000 0.0000 73.2882 0.0000 0.0000
# 5 0.0000 0.0000 0.0000 0.0000 9.7299 0.0000
# 6 0.0000 0.0000 0.0000 0.0000 0.0000 -257.4152
#
#
#
# Elastic Compliance Matrix: (Units=1/GPa)
#
#
# Indices 1 2 3 4 5 6 
#
# 1 0.007977 -0.005861 -0.002414 0.000000 0.000000 0.000000
# 2 -0.005861 0.009502 0.002004 0.000000 0.000000 0.000000
# 3 -0.002414 0.002004 0.032321 0.000000 0.000000 0.000000
# 4 0.000000 0.000000 0.000000 0.013645 0.000000 0.000000
# 5 0.000000 0.000000 0.000000 0.000000 0.102776 0.000000
# 6 0.000000 0.000000 0.000000 0.000000 0.000000 -0.003885
#
#
# Mechanical properties :
#
#
# Convention : Reuss Voigt Hill
#
# Bulk Modulus (GPa) = 26.83898 83.55845 55.19871
# Shear Modulus (GPa) = 26.69547 -14.37519 6.16014
#
# Velocity S-wave (km/s) = 3.57942 -2.62664 1.71945
# Velocity P-wave (km/s) = 5.47394 5.55914 5.51671
#
# Compressibility (1/GPa) = 0.03725925
#
# Stress axis : x y z
#
# Youngs Moduli (GPa) = 125.36045 105.23955 30.93933
#
# Poissons Ratio (x) = 0.61677 0.07469
# Poissons Ratio (y) = 0.73470 -0.06201
# Poissons Ratio (z) = 0.30264 -0.21093
#
# Static dielectric constant tensor:
#      x y z
#    x 1.732200 0.000000 0.000000 
#    y 0.000000 1.707080 0.000000 
#    z 0.000000 0.000000 1.779910 
# 
# From -- ./inp_files/1448.got.cif
#   From: 2010.05.17/outbox.cif.g08.bks.cpg/sg47_1_cif.got.tgz:1448.got - 2010.06.03 20:15:42.
