data_PCOD9385767
_publ_section_title
;
Structure prediction by ZEFSAII (Michael W. Deem and Ramdas Pophale) SiO2 
 PCOD9385767
Probable space group: P M M M
;
_chemical_formula_sum "Si O2"
_cell_formula_units_Z 48
_cell_length_a 9.408970
_cell_length_b 31.845696
_cell_length_c 8.122187
_cell_angle_alpha 90.000000
_cell_angle_beta 90.000000
_cell_angle_gamma 90.000000
_cell_volume 2433.693112
_symmetry_space_group_name_H-M "P M M M"
_symmetry_group_IT_number 47
_symmetry_cell_setting 'orthorhombic'
loop_
_space_group_symop_operation_xyz
x,y,z
-x,-y,z
x,-y,-z
-x,y,-z
-x,-y,-z
x,y,-z
-x,y,z
x,-y,z
loop_
_atom_site_type_symbol
_atom_site_label
_atom_site_fract_x
_atom_site_fract_y
_atom_site_fract_z
Si Si1 0.159102 0.500000 0.803977
Si Si2 0.835727 0.917048 0.298479
Si Si3 0.661987 0.835570 0.697738
Si Si4 0.838281 0.754927 0.195896
Si Si5 0.664278 0.000000 0.701185
Si Si6 0.662411 0.419875 0.698490
Si Si7 0.334956 0.325725 0.699025
O O1 0.240588 0.541959 0.752028
O O2 0.000000 0.500000 0.734465
O O3 0.152051 0.500000 0.000000
O O4 0.836814 0.916837 0.500000
O O5 0.753924 0.875223 0.242406
O O6 0.749016 0.958366 0.247281
O O7 0.000000 0.917850 0.245383
O O8 0.654197 0.839451 0.500000
O O9 0.500000 0.835788 0.761158
O O10 0.741992 0.792460 0.736076
O O11 0.766214 0.710552 0.236861
O O12 0.000000 0.757207 0.260517
O O13 0.843069 0.759537 0.000000
O O14 0.500000 0.000000 0.754924
O O15 0.662634 0.000000 0.500000
O O16 0.660363 0.419220 0.500000
O O17 0.500000 0.426799 0.754714
O O18 0.706314 0.372963 0.752522
O O19 0.331564 0.324615 0.500000
O O20 0.500000 0.318665 0.748117
#
# Coordination Sequence:
#
# PCOD9385767 Si02
#       7
#     4   8   8   8   4   8   8
#     4  11  24  37  50  76 114 149 180 217 260 306
#     4   9  16  26  42  66  97 132 168 208 258 312
#     4  10  20  34  53  76 101 132 173 218 261 308
#     4  11  24  38  52  75 107 140 173 211 257 309
#     4   9  15  23  37  61  96 133 168 209 256 305
#     4   9  19  37  60  83 106 135 175 220 262 308
#     4   9  19  37  60  84 107 133 170 216 263 311
#
# _framework density 19.723110999999999
#
# number of rings (size 3 to 8) (size 9 to 14) (size 15 to 20)
#    0.000    2.333    0.000    3.750    0.000   11.000 
#    0.000    5.000    0.000    0.000    0.000    0.583 
#    0.000    4.667    0.000    0.000    0.000    0.000 
#
# Total GULP energy -268019.249058 kJ/mol
# GULP energy per Si atom -5583.734355 kJ/mol
# Density = 1.967822 g / cm^3
# Si number density = 19.723111 Si / 1000 Ang^3
#
#
#
# Elastic Constant Matrix: (Units=GPa)
#
#
# Indices 1 2 3 4 5 6 
#
# 1 192.9527 131.6669 11.4393 0.0000 0.0000 0.0000
# 2 131.6669 192.1996 6.0301 0.0000 0.0000 0.0000
# 3 11.4393 6.0301 9.1336 0.0000 0.0000 0.0000
# 4 0.0000 0.0000 0.0000 -43.7540 0.0000 0.0000
# 5 0.0000 0.0000 0.0000 0.0000 20.1020 0.0000
# 6 0.0000 0.0000 0.0000 0.0000 0.0000 -670.4895
#
#
#
# Elastic Compliance Matrix: (Units=1/GPa)
#
#
# Indices 1 2 3 4 5 6 
#
# 1 0.010332 -0.006813 -0.008443 0.000000 0.000000 0.000000
# 2 -0.006813 0.009806 0.002060 0.000000 0.000000 0.000000
# 3 -0.008443 0.002060 0.118700 0.000000 0.000000 0.000000
# 4 0.000000 0.000000 0.000000 -0.022855 0.000000 0.000000
# 5 0.000000 0.000000 0.000000 0.000000 0.049746 0.000000
# 6 0.000000 0.000000 0.000000 0.000000 0.000000 -0.001491
#
#
# Mechanical properties :
#
#
# Convention : Reuss Voigt Hill
#
# Bulk Modulus (GPa) = 8.89320 76.95096 42.92208
# Shear Modulus (GPa) = 21.91897 -122.48499 -50.28301
#
# Velocity S-wave (km/s) = 3.33728 -7.88905 -5.05468
# Velocity P-wave (km/s) = 4.40100 6.62438 3.50098
#
# Compressibility (1/GPa) = 0.11244547
#
# Stress axis : x y z
#
# Youngs Moduli (GPa) = 96.78221 101.97981 8.42459
#
# Poissons Ratio (x) = 0.69483 0.07113
# Poissons Ratio (y) = 0.65942 -0.01735
# Poissons Ratio (z) = 0.81709 -0.21003
#
# Static dielectric constant tensor:
#      x y z
#    x 1.684170 0.000000 0.000000 
#    y 0.000000 1.664370 0.000000 
#    z 0.000000 0.000000 1.696310 
# 
# From -- ./inp_files/2567.got.cif
#   From: 2010.05.17/outbox.cif.g08.bks.cpg/sg47_2_cif.got.tgz:2567.got - 2010.06.03 20:15:42.
