data_PCOD9385270
_publ_section_title
;
Structure prediction by ZEFSAII (Michael W. Deem and Ramdas Pophale) SiO2 
 PCOD9385270
Probable space group: P M M M
;
_chemical_formula_sum "Si O2"
_cell_formula_units_Z 44
_cell_length_a 16.285165
_cell_length_b 7.612436
_cell_length_c 17.291258
_cell_angle_alpha 90.000000
_cell_angle_beta 90.000000
_cell_angle_gamma 90.000000
_cell_volume 2143.593386
_symmetry_space_group_name_H-M "P M M M"
_symmetry_group_IT_number 47
_symmetry_cell_setting 'orthorhombic'
loop_
_space_group_symop_operation_xyz
x,y,z
-x,-y,z
x,-y,-z
-x,y,-z
-x,-y,-z
x,y,-z
-x,y,z
x,-y,z
loop_
_atom_site_type_symbol
_atom_site_label
_atom_site_fract_x
_atom_site_fract_y
_atom_site_fract_z
Si Si1 0.165547 0.210280 0.500000
Si Si2 0.355171 0.788893 0.500000
Si Si3 0.248066 0.716422 0.758833
Si Si4 0.589376 0.292650 0.329491
Si Si5 0.500000 0.209514 0.089749
Si Si6 0.679761 0.707075 0.087191
Si Si7 0.908741 0.291693 0.334620
O O1 0.260133 0.273455 0.500000
O O2 0.119206 0.269114 0.576920
O O3 0.167772 0.000000 0.500000
O O4 0.398056 0.728283 0.421404
O O5 0.355509 0.000000 0.500000
O O6 0.248102 0.500000 0.757055
O O7 0.328556 0.777127 0.711456
O O8 0.259386 0.774779 0.847353
O O9 0.164894 0.778386 0.718471
O O10 0.500000 0.217728 0.306919
O O11 0.587132 0.500000 0.312065
O O12 0.412831 0.272504 0.120469
O O13 0.500000 0.000000 0.091187
O O14 0.500000 0.271186 0.000000
O O15 0.694470 0.500000 0.080122
O O16 0.683269 0.783217 0.000000
O O17 0.912956 0.500000 0.319482
O O18 0.000000 0.217948 0.322578
#
# Coordination Sequence:
#
# PCOD9385270 Si02
#       7
#     4   4   8   8   4   8   8
#     4  11  22  35  52  75 103 132 161 200 253 303
#     4  11  22  35  50  69  99 134 165 202 245 291
#     4   9  18  32  51  74 100 126 160 209 246 282
#     4  10  20  33  51  71  93 131 175 206 237 284
#     4   9  17  29  45  69 101 132 163 202 245 287
#     4   9  17  30  50  73  98 132 170 204 243 291
#     4  10  20  35  56  77  96 126 166 204 248 300
#
# _framework density 20.526281000000001
#
# number of rings (size 3 to 8) (size 9 to 14) (size 15 to 20)
#    0.000    2.273    1.818    1.364    1.273    4.727 
#    0.000    1.818    0.000    0.545    0.000    3.818 
#    0.000    0.000    0.000    6.182    0.000    6.545 
#
# Total GULP energy -245661.810400 kJ/mol
# GULP energy per Si atom -5583.222964 kJ/mol
# Density = 2.047956 g / cm^3
# Si number density = 20.526281 Si / 1000 Ang^3
#
#
#
# Elastic Constant Matrix: (Units=GPa)
#
#
# Indices 1 2 3 4 5 6 
#
# 1 192.9523 7.8564 83.1498 0.0000 0.0000 0.0000
# 2 7.8564 45.2655 -4.3177 0.0000 0.0000 0.0000
# 3 83.1498 -4.3177 125.8728 0.0000 0.0000 0.0000
# 4 0.0000 0.0000 0.0000 -25.2077 0.0000 0.0000
# 5 0.0000 0.0000 0.0000 0.0000 0.5011 0.0000
# 6 0.0000 0.0000 0.0000 0.0000 0.0000 -2.5959
#
#
#
# Elastic Compliance Matrix: (Units=1/GPa)
#
#
# Indices 1 2 3 4 5 6 
#
# 1 0.007381 -0.001752 -0.004936 0.000000 0.000000 0.000000
# 2 -0.001752 0.022580 0.001932 0.000000 0.000000 0.000000
# 3 -0.004936 0.001932 0.011271 0.000000 0.000000 0.000000
# 4 0.000000 0.000000 0.000000 -0.039670 0.000000 0.000000
# 5 0.000000 0.000000 0.000000 0.000000 1.995623 0.000000
# 6 0.000000 0.000000 0.000000 0.000000 0.000000 -0.385222
#
#
# Mechanical properties :
#
#
# Convention : Reuss Voigt Hill
#
# Bulk Modulus (GPa) = 31.52517 59.71861 45.62189
# Shear Modulus (GPa) = 3.06363 13.03297 8.04830
#
# Velocity S-wave (km/s) = 1.22302 2.52254 1.98229
# Velocity P-wave (km/s) = 4.16967 6.13524 5.24535
#
# Compressibility (1/GPa) = 0.03172068
#
# Stress axis : x y z
#
# Youngs Moduli (GPa) = 135.48301 44.28660 88.72038
#
# Poissons Ratio (x) = 0.07758 0.43791
# Poissons Ratio (y) = 0.23735 -0.17139
# Poissons Ratio (z) = 0.66873 -0.08555
#
# Static dielectric constant tensor:
#      x y z
#    x 1.744760 0.000000 0.000000 
#    y 0.000000 1.743810 0.000000 
#    z 0.000000 0.000000 1.740060 
# 
# From -- ./inp_files/24393.got.cif
#   From: 2010.05.17/outbox.cif.g08.bks.cpg/sg47_13_cif.got.tgz:24393.got - 2010.06.03 20:15:42.
