data_PCOD9385220
_publ_section_title
;
Structure prediction by ZEFSAII (Michael W. Deem and Ramdas Pophale) SiO2 
 PCOD9385220
Probable space group: P M M M
;
_chemical_formula_sum "Si O2"
_cell_formula_units_Z 52
_cell_length_a 9.302980
_cell_length_b 7.486858
_cell_length_c 35.074480
_cell_angle_alpha 90.000000
_cell_angle_beta 90.000000
_cell_angle_gamma 90.000000
_cell_volume 2442.940697
_symmetry_space_group_name_H-M "P M M M"
_symmetry_group_IT_number 47
_symmetry_cell_setting 'orthorhombic'
loop_
_space_group_symop_operation_xyz
x,y,z
-x,-y,z
x,-y,-z
-x,y,-z
-x,-y,-z
x,y,-z
-x,y,z
x,-y,z
loop_
_atom_site_type_symbol
_atom_site_label
_atom_site_fract_x
_atom_site_fract_y
_atom_site_fract_z
Si Si1 0.332709 0.714550 0.959042
Si Si2 0.165871 0.281267 0.500000
Si Si3 0.334459 0.781611 0.273717
Si Si4 0.336167 0.788196 0.124349
Si Si5 0.165050 0.218611 0.802017
Si Si6 0.663332 0.713941 0.574709
Si Si7 0.163227 0.214027 0.651765
O O1 0.500000 0.775254 0.958247
O O2 0.333684 0.500000 0.959915
O O3 0.271227 0.764282 0.917957
O O4 0.271147 0.775706 0.000000
O O5 0.165560 0.500000 0.500000
O O6 0.249124 0.221223 0.537883
O O7 0.000000 0.224799 0.500000
O O8 0.500000 0.724443 0.274626
O O9 0.255077 0.726436 0.235019
O O10 0.248081 0.720573 0.311011
O O11 0.334749 0.000000 0.274007
O O12 0.500000 0.714994 0.124882
O O13 0.241024 0.719468 0.159093
O O14 0.348050 0.000000 0.130152
O O15 0.000000 0.275812 0.799662
O O16 0.164478 0.000000 0.802243
O O17 0.500000 0.782954 0.576194
O O18 0.654617 0.500000 0.570774
O O19 0.748811 0.749944 0.613434
O O20 0.000000 0.282802 0.649549
O O21 0.154547 0.000000 0.655650
#
# Coordination Sequence:
#
# PCOD9385220 Si02
#       7
#     8   4   8   8   8   8   8
#     4   8  14  25  41  61  85 113 144 177 215 261
#     4   9  17  31  52  75  98 127 164 204 246 293
#     4   9  16  27  45  68  94 124 157 193 232 275
#     4   9  16  25  40  64  89 110 138 180 224 261
#     4   9  16  26  41  62  89 119 149 182 223 271
#     4  10  20  34  53  76 101 130 165 204 245 290
#     4  10  20  33  50  74 103 133 165 201 242 288
#
# _framework density 21.285822
#
# number of rings (size 3 to 8) (size 9 to 14) (size 15 to 20)
#    0.000    2.846    0.000    2.538    0.000    6.769 
#    0.000    1.923    0.000    4.154    0.000    5.385 
#    0.000    0.000    0.000    0.000    0.000    0.000 
#
# Total GULP energy -290228.639289 kJ/mol
# GULP energy per Si atom -5581.319986 kJ/mol
# Density = 2.123737 g / cm^3
# Si number density = 21.285822 Si / 1000 Ang^3
#
#
#
# Elastic Constant Matrix: (Units=GPa)
#
#
# Indices 1 2 3 4 5 6 
#
# 1 189.1598 6.8471 137.2185 0.0000 0.0000 0.0000
# 2 6.8471 57.6072 0.9199 0.0000 0.0000 0.0000
# 3 137.2185 0.9199 260.9193 0.0000 0.0000 0.0000
# 4 0.0000 0.0000 0.0000 24.7531 0.0000 0.0000
# 5 0.0000 0.0000 0.0000 0.0000 104.7481 0.0000
# 6 0.0000 0.0000 0.0000 0.0000 0.0000 3.9885
#
#
#
# Elastic Compliance Matrix: (Units=1/GPa)
#
#
# Indices 1 2 3 4 5 6 
#
# 1 0.008599 -0.000950 -0.004519 0.000000 0.000000 0.000000
# 2 -0.000950 0.017465 0.000438 0.000000 0.000000 0.000000
# 3 -0.004519 0.000438 0.006208 0.000000 0.000000 0.000000
# 4 0.000000 0.000000 0.000000 0.040399 0.000000 0.000000
# 5 0.000000 0.000000 0.000000 0.000000 0.009547 0.000000
# 6 0.000000 0.000000 0.000000 0.000000 0.000000 0.250723
#
#
# Mechanical properties :
#
#
# Convention : Reuss Voigt Hill
#
# Bulk Modulus (GPa) = 45.02524 88.62859 66.82691
# Shear Modulus (GPa) = 14.26920 50.87799 32.57359
#
# Velocity S-wave (km/s) = 2.59194 4.89430 3.91614
# Velocity P-wave (km/s) = 5.49146 8.58293 7.20496
#
# Compressibility (1/GPa) = 0.02220977
#
# Stress axis : x y z
#
# Youngs Moduli (GPa) = 116.29311 57.25791 161.09395
#
# Poissons Ratio (x) = 0.05439 0.72796
# Poissons Ratio (y) = 0.11047 -0.07056
# Poissons Ratio (z) = 0.52551 -0.02508
#
# Static dielectric constant tensor:
#      x y z
#    x 1.735520 0.000000 0.000000 
#    y 0.000000 1.833050 0.000000 
#    z 0.000000 0.000000 1.751440 
# 
# From -- ./inp_files/34308.got.cif
#   From: 2010.05.17/outbox.cif.g08.bks.cpg/sg47_18_cif.got.tgz:34308.got - 2010.06.03 20:15:42.
