data_PCOD9385260
_publ_section_title
;
Structure prediction by ZEFSAII (Michael W. Deem and Ramdas Pophale) SiO2 
 PCOD9385260
Probable space group: P M M M
;
_chemical_formula_sum "Si O2"
_cell_formula_units_Z 52
_cell_length_a 7.868963
_cell_length_b 14.079261
_cell_length_c 25.113049
_cell_angle_alpha 90.000000
_cell_angle_beta 90.000000
_cell_angle_gamma 90.000000
_cell_volume 2782.254203
_symmetry_space_group_name_H-M "P M M M"
_symmetry_group_IT_number 47
_symmetry_cell_setting 'orthorhombic'
loop_
_space_group_symop_operation_xyz
x,y,z
-x,-y,z
x,-y,-z
-x,y,-z
-x,-y,-z
x,y,-z
-x,y,z
x,-y,z
loop_
_atom_site_type_symbol
_atom_site_label
_atom_site_fract_x
_atom_site_fract_y
_atom_site_fract_z
Si Si1 0.707444 0.892785 0.767615
Si Si2 0.297873 0.191561 0.123822
Si Si3 0.707990 0.783508 0.663794
Si Si4 0.797514 0.000000 0.939856
Si Si5 0.797971 0.606632 0.853214
Si Si6 0.707502 0.890496 0.560230
Si Si7 0.295553 0.394984 0.270259
O O1 0.500000 0.889323 0.768286
O O2 0.770611 0.830841 0.816826
O O3 0.758455 0.857590 0.709726
O O4 0.760020 0.000000 0.777230
O O5 0.500000 0.191678 0.126042
O O6 0.248271 0.300628 0.111890
O O7 0.251302 0.099322 0.088729
O O8 0.500000 0.781550 0.661999
O O9 0.766277 0.819557 0.606371
O O10 0.766629 0.683492 0.688187
O O11 0.000000 0.000000 0.941901
O O12 0.727908 0.000000 0.000000
O O13 0.732966 0.500000 0.868241
O O14 0.740563 0.624121 0.791999
O O15 0.000000 0.601545 0.853089
O O16 0.761965 0.867096 0.500000
O O17 0.500000 0.889153 0.560399
O O18 0.756346 0.000000 0.571741
O O19 0.500000 0.395549 0.274671
O O20 0.229060 0.500000 0.282050
#
# Coordination Sequence:
#
# PCOD9385260 Si02
#       7
#     8   8   8   4   8   8   8
#     4   9  15  23  38  65  95 121 153 198 251 299
#     4  11  20  34  57  82 108 139 179 223 260 303
#     4   9  14  21  35  55  83 119 157 200 248 297
#     4  11  25  43  61  83 115 153 184 211 254 308
#     4  10  20  33  50  75 109 145 176 211 264 324
#     4   8  13  20  30  47  75 114 156 196 241 296
#     4   9  16  26  41  62  89 122 162 203 246 304
#
# _framework density 18.689881
#
# number of rings (size 3 to 8) (size 9 to 14) (size 15 to 20)
#    0.000    2.538    2.308    2.077    0.000    3.385 
#    0.000    0.000    0.000    0.923    0.000    6.462 
#    0.000    0.615    0.000    5.538    0.000    5.538 
#
# Total GULP energy -289626.219773 kJ/mol
# GULP energy per Si atom -5569.734996 kJ/mol
# Density = 1.864734 g / cm^3
# Si number density = 18.689881 Si / 1000 Ang^3
#
#
#
# Elastic Constant Matrix: (Units=GPa)
#
#
# Indices 1 2 3 4 5 6 
#
# 1 23.9598 10.2564 6.2864 0.0000 0.0000 0.0000
# 2 10.2564 167.8817 55.7843 0.0000 0.0000 0.0000
# 3 6.2864 55.7843 71.5599 0.0000 0.0000 0.0000
# 4 0.0000 0.0000 0.0000 16.5911 0.0000 0.0000
# 5 0.0000 0.0000 0.0000 0.0000 18.8316 0.0000
# 6 0.0000 0.0000 0.0000 0.0000 0.0000 15.1843
#
#
#
# Elastic Compliance Matrix: (Units=1/GPa)
#
#
# Indices 1 2 3 4 5 6 
#
# 1 0.043146 -0.001858 -0.002342 0.000000 0.000000 0.000000
# 2 -0.001858 0.008119 -0.006166 0.000000 0.000000 0.000000
# 3 -0.002342 -0.006166 0.018987 0.000000 0.000000 0.000000
# 4 0.000000 0.000000 0.000000 0.060273 0.000000 0.000000
# 5 0.000000 0.000000 0.000000 0.000000 0.053102 0.000000
# 6 0.000000 0.000000 0.000000 0.000000 0.000000 0.065857
#
#
# Mechanical properties :
#
#
# Convention : Reuss Voigt Hill
#
# Bulk Modulus (GPa) = 20.19371 45.33952 32.76662
# Shear Modulus (GPa) = 17.43846 22.85970 20.14908
#
# Velocity S-wave (km/s) = 3.05789 3.50109 3.28697
# Velocity P-wave (km/s) = 4.82656 6.37613 5.65467
#
# Compressibility (1/GPa) = 0.04952037
#
# Stress axis : x y z
#
# Youngs Moduli (GPa) = 23.17700 123.16972 52.66863
#
# Poissons Ratio (x) = 0.22881 0.12336
# Poissons Ratio (y) = 0.04306 0.32475
# Poissons Ratio (z) = 0.05428 0.75945
#
# Static dielectric constant tensor:
#      x y z
#    x 1.698340 0.000000 0.000000 
#    y 0.000000 1.963500 0.000000 
#    z 0.000000 0.000000 1.631080 
# 
# From -- ./inp_files/31965.got.cif
#   From: 2010.05.17/outbox.cif.g08.bks.cpg/sg47_16_cif.got.tgz:31965.got - 2010.06.03 20:15:42.
