data_PCOD9385505
_publ_section_title
;
Structure prediction by ZEFSAII (Michael W. Deem and Ramdas Pophale) SiO2 
 PCOD9385505
Probable space group: P M M M
;
_chemical_formula_sum "Si O2"
_cell_formula_units_Z 44
_cell_length_a 14.811104
_cell_length_b 8.335519
_cell_length_c 18.506549
_cell_angle_alpha 90.000000
_cell_angle_beta 90.000000
_cell_angle_gamma 90.000000
_cell_volume 2284.785946
_symmetry_space_group_name_H-M "P M M M"
_symmetry_group_IT_number 47
_symmetry_cell_setting 'orthorhombic'
loop_
_space_group_symop_operation_xyz
x,y,z
-x,-y,z
x,-y,-z
-x,y,-z
-x,-y,-z
x,y,-z
-x,y,z
x,-y,z
loop_
_atom_site_type_symbol
_atom_site_label
_atom_site_fract_x
_atom_site_fract_y
_atom_site_fract_z
Si Si1 0.103167 0.691608 0.000000
Si Si2 0.600709 0.306574 0.185518
Si Si3 0.400030 0.695297 0.645921
Si Si4 0.789242 0.808531 0.139668
Si Si5 0.103469 0.193704 0.718799
Si Si6 0.787840 0.694160 0.419360
O O1 0.156289 0.746809 0.929039
O O2 0.099908 0.500000 0.000000
O O3 0.000000 0.753811 0.000000
O O4 0.500000 0.255181 0.162365
O O5 0.602830 0.500000 0.183728
O O6 0.611819 0.258306 0.269920
O O7 0.684899 0.242527 0.141005
O O8 0.500000 0.748357 0.621916
O O9 0.400567 0.500000 0.644133
O O10 0.314021 0.748675 0.600333
O O11 0.836537 0.748152 0.213629
O O12 0.793806 0.000000 0.139854
O O13 0.146584 0.248171 0.643648
O O14 0.000000 0.248057 0.726116
O O15 0.103924 0.000000 0.720388
O O16 0.812932 0.747453 0.500000
O O17 0.787833 0.500000 0.418597
#
# Coordination Sequence:
#
# PCOD9385505 Si02
#       6
#     4   8   8   8   8   8
#     4  11  25  43  64  91 120 151 187 230 284 341
#     4   9  17  32  57  86 116 152 192 232 276 333
#     4   8  14  27  49  77 109 144 181 224 275 329
#     4  11  22  38  62  89 118 150 186 234 284 336
#     4  10  22  39  57  77 104 145 191 230 278 340
#     4  10  20  33  52  80 111 142 184 239 287 329
#
# _framework density 19.257821
#
# number of rings (size 3 to 8) (size 9 to 14) (size 15 to 20)
#    0.000    2.273    1.818    2.455    0.000    4.000 
#    0.000    4.091    0.000    3.273    0.000    1.273 
#    0.000    0.000    0.000    0.000    0.000    0.000 
#
# Total GULP energy -245580.516788 kJ/mol
# GULP energy per Si atom -5581.375382 kJ/mol
# Density = 1.921399 g / cm^3
# Si number density = 19.257821 Si / 1000 Ang^3
#
#
#
# Elastic Constant Matrix: (Units=GPa)
#
#
# Indices 1 2 3 4 5 6 
#
# 1 165.3696 25.2474 88.0626 0.0000 0.0000 0.0000
# 2 25.2474 16.3925 20.8190 0.0000 0.0000 0.0000
# 3 88.0626 20.8190 128.5903 0.0000 0.0000 0.0000
# 4 0.0000 0.0000 0.0000 23.7767 0.0000 0.0000
# 5 0.0000 0.0000 0.0000 0.0000 -96.7297 0.0000
# 6 0.0000 0.0000 0.0000 0.0000 0.0000 12.7374
#
#
#
# Elastic Compliance Matrix: (Units=1/GPa)
#
#
# Indices 1 2 3 4 5 6 
#
# 1 0.010440 -0.008811 -0.005723 0.000000 0.000000 0.000000
# 2 -0.008811 0.084230 -0.007603 0.000000 0.000000 0.000000
# 3 -0.005723 -0.007603 0.012927 0.000000 0.000000 0.000000
# 4 0.000000 0.000000 0.000000 0.042058 0.000000 0.000000
# 5 0.000000 0.000000 0.000000 0.000000 -0.010338 0.000000
# 6 0.000000 0.000000 0.000000 0.000000 0.000000 0.078509
#
#
# Mechanical properties :
#
#
# Convention : Reuss Voigt Hill
#
# Bulk Modulus (GPa) = 15.79214 64.29003 40.04108
# Shear Modulus (GPa) = 17.65497 -0.29488 8.68005
#
# Velocity S-wave (km/s) = 3.03110 -0.39173 2.12534
# Velocity P-wave (km/s) = 4.52419 5.76643 5.18266
#
# Compressibility (1/GPa) = 0.06332266
#
# Stress axis : x y z
#
# Youngs Moduli (GPa) = 95.78669 11.87231 77.35803
#
# Poissons Ratio (x) = 0.10460 0.44272
# Poissons Ratio (y) = 0.84395 0.58816
# Poissons Ratio (z) = 0.54819 0.09027
#
# Static dielectric constant tensor:
#      x y z
#    x 1.676390 0.000000 0.000000 
#    y 0.000000 1.672570 0.000000 
#    z 0.000000 0.000000 1.647620 
# 
# From -- ./inp_files/27881.got.cif
#   From: 2010.05.17/outbox.cif.g08.bks.cpg/sg47_14_cif.got.tgz:27881.got - 2010.06.03 20:15:42.
