data_PCOD9385661
_publ_section_title
;
Structure prediction by ZEFSAII (Michael W. Deem and Ramdas Pophale) SiO2 
 PCOD9385661
Probable space group: P M M M
;
_chemical_formula_sum "Si O2"
_cell_formula_units_Z 52
_cell_length_a 8.121976
_cell_length_b 20.410095
_cell_length_c 15.883983
_cell_angle_alpha 90.000000
_cell_angle_beta 90.000000
_cell_angle_gamma 90.000000
_cell_volume 2633.092655
_symmetry_space_group_name_H-M "P M M M"
_symmetry_group_IT_number 47
_symmetry_cell_setting 'orthorhombic'
loop_
_space_group_symop_operation_xyz
x,y,z
-x,-y,z
x,-y,-z
-x,y,-z
-x,-y,-z
x,y,-z
-x,y,z
x,-y,z
loop_
_atom_site_type_symbol
_atom_site_label
_atom_site_fract_x
_atom_site_fract_y
_atom_site_fract_z
Si Si1 0.197930 0.708914 0.090405
Si Si2 0.684274 0.500000 0.597005
Si Si3 0.694906 0.632625 0.658754
Si Si4 0.801123 0.576306 0.165041
Si Si5 0.806406 0.773146 0.595536
Si Si6 0.298986 0.924422 0.904819
Si Si7 0.304348 0.184796 0.775978
O O1 0.235142 0.631165 0.095176
O O2 0.259472 0.750220 0.170289
O O3 0.000000 0.714710 0.092134
O O4 0.259782 0.734852 0.000000
O O5 0.500000 0.500000 0.639490
O O6 0.657568 0.500000 0.500000
O O7 0.769286 0.567616 0.617218
O O8 0.500000 0.638584 0.640192
O O9 0.721280 0.612273 0.754964
O O10 0.774025 0.698182 0.623807
O O11 0.748697 0.500000 0.154926
O O12 0.000000 0.574700 0.175727
O O13 0.737497 0.784265 0.500000
O O14 0.747134 0.812717 0.678221
O O15 0.000000 0.784030 0.590007
O O16 0.500000 0.922630 0.904476
O O17 0.238835 0.875411 0.832531
O O18 0.251160 0.000000 0.890357
O O19 0.246848 0.905804 0.000000
O O20 0.500000 0.180947 0.775278
#
# Coordination Sequence:
#
# PCOD9385661 Si02
#       7
#     8   4   8   8   8   8   8
#     4  10  21  36  54  77 108 147 187 228 276 329
#     4   9  18  30  45  69  98 125 158 210 278 342
#     4  11  20  33  53  75 100 131 172 225 285 339
#     4  10  20  34  52  72 101 142 186 228 274 331
#     4  11  24  40  56  76 106 144 184 226 275 332
#     4   8  15  30  54  87 125 157 182 213 260 317
#     4  11  21  34  58  88 115 145 183 228 274 322
#
# _framework density 19.748640999999999
#
# number of rings (size 3 to 8) (size 9 to 14) (size 15 to 20)
#    0.000    1.923    2.308    2.769    0.000    3.077 
#    0.000    1.538    0.000    4.154    0.000   10.769 
#    0.000    0.000    0.000    0.000    0.000    0.000 
#
# Total GULP energy -289599.468595 kJ/mol
# GULP energy per Si atom -5569.220550 kJ/mol
# Density = 1.970369 g / cm^3
# Si number density = 19.748641 Si / 1000 Ang^3
#
#
#
# Elastic Constant Matrix: (Units=GPa)
#
#
# Indices 1 2 3 4 5 6 
#
# 1 21.1445 10.7089 21.0038 0.0000 0.0000 0.0000
# 2 10.7089 116.5525 69.1674 0.0000 0.0000 0.0000
# 3 21.0038 69.1674 165.3188 0.0000 0.0000 0.0000
# 4 0.0000 0.0000 0.0000 48.0707 0.0000 0.0000
# 5 0.0000 0.0000 0.0000 0.0000 16.8966 0.0000
# 6 0.0000 0.0000 0.0000 0.0000 0.0000 86.6322
#
#
#
# Elastic Compliance Matrix: (Units=1/GPa)
#
#
# Indices 1 2 3 4 5 6 
#
# 1 0.054248 -0.001190 -0.006394 0.000000 0.000000 0.000000
# 2 -0.001190 0.011440 -0.004635 0.000000 0.000000 0.000000
# 3 -0.006394 -0.004635 0.008801 0.000000 0.000000 0.000000
# 4 0.000000 0.000000 0.000000 0.020803 0.000000 0.000000
# 5 0.000000 0.000000 0.000000 0.000000 0.059183 0.000000
# 6 0.000000 0.000000 0.000000 0.000000 0.000000 0.011543
#
#
# Mechanical properties :
#
#
# Convention : Reuss Voigt Hill
#
# Bulk Modulus (GPa) = 19.98004 56.08622 38.03313
# Shear Modulus (GPa) = 24.13834 43.79562 33.96698
#
# Velocity S-wave (km/s) = 3.49990 4.71430 4.15175
# Velocity P-wave (km/s) = 5.14505 7.62198 6.50254
#
# Compressibility (1/GPa) = 0.05004994
#
# Stress axis : x y z
#
# Youngs Moduli (GPa) = 18.43389 87.41392 113.62829
#
# Poissons Ratio (x) = 0.10399 0.72660
# Poissons Ratio (y) = 0.02193 0.52668
# Poissons Ratio (z) = 0.11788 0.40518
#
# Static dielectric constant tensor:
#      x y z
#    x 1.498100 0.000000 0.000000 
#    y 0.000000 1.702580 0.000000 
#    z 0.000000 0.000000 1.773270 
# 
# From -- ./inp_files/21484.got.cif
#   From: 2010.05.17/outbox.cif.g08.bks.cpg/sg47_11_cif.got.tgz:21484.got - 2010.06.03 20:15:42.
