data_PCOD9385829
_publ_section_title
;
Structure prediction by ZEFSAII (Michael W. Deem and Ramdas Pophale) SiO2 
 PCOD9385829
Probable space group: P M M M
;
_chemical_formula_sum "Si O2"
_cell_formula_units_Z 44
_cell_length_a 15.189475
_cell_length_b 8.391439
_cell_length_c 18.121171
_cell_angle_alpha 90.000000
_cell_angle_beta 90.000000
_cell_angle_gamma 90.000000
_cell_volume 2309.752596
_symmetry_space_group_name_H-M "P M M M"
_symmetry_group_IT_number 47
_symmetry_cell_setting 'orthorhombic'
loop_
_space_group_symop_operation_xyz
x,y,z
-x,-y,z
x,-y,-z
-x,y,-z
-x,-y,-z
x,y,-z
-x,y,z
x,-y,z
loop_
_atom_site_type_symbol
_atom_site_label
_atom_site_fract_x
_atom_site_fract_y
_atom_site_fract_z
Si Si1 0.145186 0.686784 0.318591
Si Si2 0.096889 0.811716 0.162393
Si Si3 0.295236 0.806742 0.145433
Si Si4 0.000000 0.820211 0.413707
Si Si5 0.399425 0.805405 0.000000
Si Si6 0.345122 0.310057 0.306495
Si Si7 0.500000 0.809667 0.586540
O O1 0.141109 0.500000 0.299155
O O2 0.106017 0.783790 0.249888
O O3 0.246187 0.729016 0.332847
O O4 0.084901 0.726396 0.386801
O O5 0.193189 0.749624 0.136881
O O6 0.000000 0.747155 0.138826
O O7 0.095621 0.000000 0.145572
O O8 0.349715 0.755510 0.074135
O O9 0.341401 0.750806 0.221485
O O10 0.292559 0.000000 0.148399
O O11 0.000000 0.831119 0.500000
O O12 0.000000 0.000000 0.382612
O O13 0.500000 0.752018 0.000000
O O14 0.399099 0.000000 0.000000
O O15 0.356706 0.500000 0.304338
O O16 0.416347 0.242652 0.363588
O O17 0.500000 0.751119 0.500000
O O18 0.500000 0.000000 0.582713
#
# Coordination Sequence:
#
# PCOD9385829 Si02
#       7
#     8   8   8   4   4   8   4
#     4  10  20  34  53  77 105 140 182 225 271 327
#     4   9  16  28  49  75 104 139 181 226 272 321
#     4   9  18  33  54  81 112 150 193 234 277 333
#     4  11  23  35  49  73 107 144 181 226 277 327
#     4   9  18  32  52  80 114 149 190 238 284 330
#     4  10  22  39  60  86 115 147 186 234 286 340
#     4  11  25  43  63  86 111 144 187 233 284 345
#
# _framework density 19.049658999999998
#
# number of rings (size 3 to 8) (size 9 to 14) (size 15 to 20)
#    0.000    2.273    0.909    1.636    1.273    4.364 
#    0.000    4.545    0.000    3.273    0.000    0.000 
#    0.000    5.818    0.000    0.000    0.000    0.000 
#
# Total GULP energy -245136.188060 kJ/mol
# GULP energy per Si atom -5571.277001 kJ/mol
# Density = 1.900630 g / cm^3
# Si number density = 19.049659 Si / 1000 Ang^3
#
#
#
# Elastic Constant Matrix: (Units=GPa)
#
#
# Indices 1 2 3 4 5 6 
#
# 1 170.3356 27.0979 103.3883 0.0000 0.0000 0.0000
# 2 27.0979 18.5442 18.8799 0.0000 0.0000 0.0000
# 3 103.3883 18.8799 128.2672 0.0000 0.0000 0.0000
# 4 0.0000 0.0000 0.0000 -3.6611 0.0000 0.0000
# 5 0.0000 0.0000 0.0000 0.0000 25.8408 0.0000
# 6 0.0000 0.0000 0.0000 0.0000 0.0000 33.7787
#
#
#
# Elastic Compliance Matrix: (Units=1/GPa)
#
#
# Indices 1 2 3 4 5 6 
#
# 1 0.012813 -0.009655 -0.008906 0.000000 0.000000 0.000000
# 2 -0.009655 0.070706 -0.002625 0.000000 0.000000 0.000000
# 3 -0.008906 -0.002625 0.015361 0.000000 0.000000 0.000000
# 4 0.000000 0.000000 0.000000 -0.273143 0.000000 0.000000
# 5 0.000000 0.000000 0.000000 0.000000 0.038699 0.000000
# 6 0.000000 0.000000 0.000000 0.000000 0.000000 0.029604
#
#
# Mechanical properties :
#
#
# Convention : Reuss Voigt Hill
#
# Bulk Modulus (GPa) = 17.69677 68.43103 43.06390
# Shear Modulus (GPa) = -111.72944 22.37706 -44.67619
#
# Velocity S-wave (km/s) = -7.66675 3.43106 -4.84803
# Velocity P-wave (km/s) = 8.31036 7.19004 2.94664
#
# Compressibility (1/GPa) = 0.05650749
#
# Stress axis : x y z
#
# Youngs Moduli (GPa) = 78.04847 14.14302 65.09806
#
# Poissons Ratio (x) = 0.13655 0.57978
# Poissons Ratio (y) = 0.75355 0.17089
# Poissons Ratio (z) = 0.69512 0.03713
#
# Static dielectric constant tensor:
#      x y z
#    x 1.698980 0.000000 0.000000 
#    y 0.000000 1.675080 0.000000 
#    z 0.000000 0.000000 1.639270 
# 
# From -- ./inp_files/9042.got.cif
#   From: 2010.05.17/outbox.cif.g08.bks.cpg/sg47_5_cif.got.tgz:9042.got - 2010.06.03 20:15:42.
