data_PCOD9385087
_publ_section_title
;
Structure prediction by ZEFSAII (Michael W. Deem and Ramdas Pophale) SiO2 
 PCOD9385087
Probable space group: P M M M
;
_chemical_formula_sum "Si O2"
_cell_formula_units_Z 64
_cell_length_a 8.846699
_cell_length_b 14.617233
_cell_length_c 28.982289
_cell_angle_alpha 90.000000
_cell_angle_beta 90.000000
_cell_angle_gamma 90.000000
_cell_volume 3747.823271
_symmetry_space_group_name_H-M "P M M M"
_symmetry_group_IT_number 47
_symmetry_cell_setting 'orthorhombic'
loop_
_space_group_symop_operation_xyz
x,y,z
-x,-y,z
x,-y,-z
-x,y,-z
-x,-y,-z
x,y,-z
-x,y,z
x,-y,z
loop_
_atom_site_type_symbol
_atom_site_label
_atom_site_fract_x
_atom_site_fract_y
_atom_site_fract_z
Si Si1 0.318947 0.894421 0.054217
Si Si2 0.179586 0.775841 0.866182
Si Si3 0.683956 0.604748 0.447682
Si Si4 0.180476 0.106428 0.316912
Si Si5 0.318432 0.723795 0.638967
Si Si6 0.322035 0.109193 0.783001
Si Si7 0.680477 0.393396 0.822136
Si Si8 0.177986 0.390749 0.722310
O O1 0.500000 0.885984 0.060945
O O2 0.234843 0.824913 0.087409
O O3 0.278445 0.000000 0.065368
O O4 0.287824 0.879773 0.000000
O O5 0.241660 0.836347 0.823635
O O6 0.249983 0.675678 0.858940
O O7 0.000000 0.771332 0.864374
O O8 0.732100 0.627054 0.500000
O O9 0.500000 0.604878 0.447582
O O10 0.730690 0.500000 0.437275
O O11 0.732583 0.674502 0.408186
O O12 0.250875 0.175858 0.353423
O O13 0.249101 0.129479 0.266654
O O14 0.000000 0.116517 0.315172
O O15 0.216350 0.000000 0.326275
O O16 0.500000 0.727447 0.639711
O O17 0.260308 0.663118 0.681741
O O18 0.500000 0.131681 0.782200
O O19 0.306991 0.000000 0.790813
O O20 0.500000 0.383141 0.820218
O O21 0.715743 0.500000 0.831312
O O22 0.749877 0.369853 0.772041
O O23 0.193921 0.500000 0.714984
O O24 0.000000 0.368158 0.722822
#
# Coordination Sequence:
#
# PCOD9385087 Si02
#       8
#     8   8   8   8   8   8   8   8
#     4   9  19  37  59  81 106 136 170 209 251 295
#     4  12  23  33  51  78 108 139 169 205 252 306
#     4   8  15  29  49  74 102 128 156 195 244 295
#     4  10  21  36  51  68  96 133 170 208 250 296
#     4  11  20  30  50  76 100 128 165 207 249 297
#     4  10  20  34  52  74 102 135 172 212 249 290
#     4  10  21  37  55  73  97 133 177 219 253 290
#     4  10  20  33  49  72 105 139 168 202 246 297
#
# _framework density 17.076578999999999
#
# number of rings (size 3 to 8) (size 9 to 14) (size 15 to 20)
#    0.000    2.000    0.000    5.250    0.000    5.500 
#    0.000    0.625    0.000    2.250    0.000    9.625 
#    0.000    0.000    0.000    0.000    0.000    0.000 
#
# Total GULP energy -357497.683893 kJ/mol
# GULP energy per Si atom -5585.901311 kJ/mol
# Density = 1.703771 g / cm^3
# Si number density = 17.076579 Si / 1000 Ang^3
#
#
#
# Elastic Constant Matrix: (Units=GPa)
#
#
# Indices 1 2 3 4 5 6 
#
# 1 75.1930 53.3372 47.8870 0.0000 0.0000 0.0000
# 2 53.3372 96.7773 75.9983 0.0000 0.0000 0.0000
# 3 47.8870 75.9983 89.8069 0.0000 0.0000 0.0000
# 4 0.0000 0.0000 0.0000 32.9140 0.0000 0.0000
# 5 0.0000 0.0000 0.0000 0.0000 -23.1830 0.0000
# 6 0.0000 0.0000 0.0000 0.0000 0.0000 26.0580
#
#
#
# Elastic Compliance Matrix: (Units=1/GPa)
#
#
# Indices 1 2 3 4 5 6 
#
# 1 0.022421 -0.008849 -0.004467 0.000000 0.000000 0.000000
# 2 -0.008849 0.034296 -0.024304 0.000000 0.000000 0.000000
# 3 -0.004467 -0.024304 0.034084 0.000000 0.000000 0.000000
# 4 0.000000 0.000000 0.000000 0.030382 0.000000 0.000000
# 5 0.000000 0.000000 0.000000 0.000000 -0.043135 0.000000
# 6 0.000000 0.000000 0.000000 0.000000 0.000000 0.038376
#
#
# Mechanical properties :
#
#
# Convention : Reuss Voigt Hill
#
# Bulk Modulus (GPa) = 64.26461 68.46914 66.36688
# Shear Modulus (GPa) = 25.40004 12.79475 19.09739
#
# Velocity S-wave (km/s) = 3.86089 2.74023 3.34778
# Velocity P-wave (km/s) = 7.58882 7.08478 7.34113
#
# Compressibility (1/GPa) = 0.01556066
#
# Stress axis : x y z
#
# Youngs Moduli (GPa) = 44.60137 29.15817 29.33950
#
# Poissons Ratio (x) = 0.25803 0.13105
# Poissons Ratio (y) = 0.39468 0.71306
# Poissons Ratio (z) = 0.19922 0.70866
#
# Static dielectric constant tensor:
#      x y z
#    x 1.567020 0.000000 0.000000 
#    y 0.000000 1.593080 0.000000 
#    z 0.000000 0.000000 1.551790 
# 
# From -- ./inp_files/32152.got.cif
#   From: 2010.05.17/outbox.cif.g08.bks.cpg/sg47_17_cif.got.tgz:32152.got - 2010.06.03 20:15:42.
