data_PCOD9385164
_publ_section_title
;
Structure prediction by ZEFSAII (Michael W. Deem and Ramdas Pophale) SiO2 
 PCOD9385164
Probable space group: P M M M
;
_chemical_formula_sum "Si O2"
_cell_formula_units_Z 48
_cell_length_a 20.448598
_cell_length_b 8.779267
_cell_length_c 15.248035
_cell_angle_alpha 90.000000
_cell_angle_beta 90.000000
_cell_angle_gamma 90.000000
_cell_volume 2737.383686
_symmetry_space_group_name_H-M "P M M M"
_symmetry_group_IT_number 47
_symmetry_cell_setting 'orthorhombic'
loop_
_space_group_symop_operation_xyz
x,y,z
-x,-y,z
x,-y,-z
-x,y,-z
-x,-y,-z
x,y,-z
-x,y,z
x,-y,z
loop_
_atom_site_type_symbol
_atom_site_label
_atom_site_fract_x
_atom_site_fract_y
_atom_site_fract_z
Si Si1 0.635795 0.174890 0.852073
Si Si2 0.770283 0.681743 0.902307
Si Si3 0.189451 0.183316 0.717584
Si Si4 0.076188 0.683285 0.398797
Si Si5 0.500000 0.670738 0.104272
Si Si6 0.424009 0.187005 0.500000
Si Si7 0.325951 0.823688 0.350520
O O1 0.694074 0.271626 0.894350
O O2 0.565124 0.240952 0.870459
O O3 0.646558 0.177967 0.747702
O O4 0.641360 0.000000 0.881744
O O5 0.776534 0.500000 0.895626
O O6 0.804069 0.756813 0.817342
O O7 0.793550 0.728785 0.000000
O O8 0.124748 0.237852 0.668752
O O9 0.252795 0.241659 0.661527
O O10 0.193242 0.000000 0.720682
O O11 0.091593 0.725089 0.500000
O O12 0.082382 0.500000 0.391733
O O13 0.000000 0.721402 0.383043
O O14 0.500000 0.500000 0.142105
O O15 0.500000 0.659297 0.000000
O O16 0.500000 0.237655 0.500000
O O17 0.380311 0.238570 0.583197
O O18 0.427203 0.000000 0.500000
O O19 0.316769 0.000000 0.378013
#
# Coordination Sequence:
#
# PCOD9385164 Si02
#       7
#     8   8   8   8   4   4   8
#     4  10  20  33  50  72  99 127 165 219 274 323
#     4  10  20  35  55  77 104 140 180 220 266 325
#     4  10  20  33  53  82 114 144 178 226 273 320
#     4   9  19  36  57  82 114 151 187 222 265 321
#     4  11  23  35  47  66  91 124 166 209 265 335
#     4   9  16  26  44  66  95 134 171 209 256 308
#     4   8  17  30  44  71 102 130 167 212 261 310
#
# _framework density 17.534991999999999
#
# number of rings (size 3 to 8) (size 9 to 14) (size 15 to 20)
#    0.000    2.500    0.000    3.750    2.333    4.667 
#    0.000    0.833    0.000    0.500    0.000    4.083 
#    0.000    0.000    0.000    0.000    0.000    0.000 
#
# Total GULP energy -267506.898987 kJ/mol
# GULP energy per Si atom -5573.060396 kJ/mol
# Density = 1.749508 g / cm^3
# Si number density = 17.534992 Si / 1000 Ang^3
#
#
#
# Elastic Constant Matrix: (Units=GPa)
#
#
# Indices 1 2 3 4 5 6 
#
# 1 114.3887 35.0955 76.0325 0.0000 0.0000 0.0000
# 2 35.0955 39.4045 31.8607 0.0000 0.0000 0.0000
# 3 76.0325 31.8607 109.9509 0.0000 0.0000 0.0000
# 4 0.0000 0.0000 0.0000 19.8630 0.0000 0.0000
# 5 0.0000 0.0000 0.0000 0.0000 27.0611 0.0000
# 6 0.0000 0.0000 0.0000 0.0000 0.0000 32.6287
#
#
#
# Elastic Compliance Matrix: (Units=1/GPa)
#
#
# Indices 1 2 3 4 5 6 
#
# 1 0.017808 -0.007710 -0.010080 0.000000 0.000000 0.000000
# 2 -0.007710 0.036481 -0.005240 0.000000 0.000000 0.000000
# 3 -0.010080 -0.005240 0.017584 0.000000 0.000000 0.000000
# 4 0.000000 0.000000 0.000000 0.050345 0.000000 0.000000
# 5 0.000000 0.000000 0.000000 0.000000 0.036953 0.000000
# 6 0.000000 0.000000 0.000000 0.000000 0.000000 0.030648
#
#
# Mechanical properties :
#
#
# Convention : Reuss Voigt Hill
#
# Bulk Modulus (GPa) = 38.73989 61.08015 49.91002
# Shear Modulus (GPa) = 20.45130 23.96091 22.20611
#
# Velocity S-wave (km/s) = 3.41884 3.70058 3.56250
# Velocity P-wave (km/s) = 6.14211 7.29164 6.74142
#
# Compressibility (1/GPa) = 0.02581318
#
# Stress axis : x y z
#
# Youngs Moduli (GPa) = 56.15535 27.41127 56.87045
#
# Poissons Ratio (x) = 0.21134 0.57326
# Poissons Ratio (y) = 0.43296 0.29798
# Poissons Ratio (z) = 0.56605 0.14363
#
# Static dielectric constant tensor:
#      x y z
#    x 1.558990 0.000000 0.000000 
#    y 0.000000 1.604820 0.000000 
#    z 0.000000 0.000000 1.604180 
# 
# From -- ./inp_files/21097.got.cif
#   From: 2010.05.17/outbox.cif.g08.bks.cpg/sg47_11_cif.got.tgz:21097.got - 2010.06.03 20:15:42.
