data_PCOD9385993
_publ_section_title
;
Structure prediction by ZEFSAII (Michael W. Deem and Ramdas Pophale) SiO2 
 PCOD9385993
Probable space group: P M M M
;
_chemical_formula_sum "Si O2"
_cell_formula_units_Z 48
_cell_length_a 7.941040
_cell_length_b 9.421216
_cell_length_c 31.861999
_cell_angle_alpha 90.000000
_cell_angle_beta 90.000000
_cell_angle_gamma 90.000000
_cell_volume 2383.731658
_symmetry_space_group_name_H-M "P M M M"
_symmetry_group_IT_number 47
_symmetry_cell_setting 'orthorhombic'
loop_
_space_group_symop_operation_xyz
x,y,z
-x,-y,z
x,-y,-z
-x,y,-z
-x,-y,-z
x,y,-z
-x,y,z
x,-y,z
loop_
_atom_site_type_symbol
_atom_site_label
_atom_site_fract_x
_atom_site_fract_y
_atom_site_fract_z
Si Si1 0.297286 0.838515 0.419475
Si Si2 0.200038 0.658098 0.500000
Si Si3 0.703353 0.836195 0.325759
Si Si4 0.796762 0.162164 0.835239
Si Si5 0.703226 0.337020 0.082133
Si Si6 0.293900 0.835707 0.000000
Si Si7 0.201823 0.339142 0.244680
O O1 0.500000 0.843021 0.418038
O O2 0.249375 0.740585 0.457972
O O3 0.240118 0.793830 0.372784
O O4 0.237385 0.000000 0.426673
O O5 0.273751 0.500000 0.500000
O O6 0.000000 0.648656 0.500000
O O7 0.500000 0.835465 0.325492
O O8 0.762680 0.734558 0.288984
O O9 0.757234 0.000000 0.318531
O O10 0.751363 0.253687 0.875898
O O11 0.733578 0.241724 0.793442
O O12 0.000000 0.155949 0.832839
O O13 0.734315 0.000000 0.838108
O O14 0.500000 0.342060 0.080062
O O15 0.764526 0.500000 0.082256
O O16 0.761376 0.248880 0.041462
O O17 0.500000 0.836633 0.000000
O O18 0.239556 0.000000 0.000000
O O19 0.268280 0.500000 0.242742
O O20 0.000000 0.346669 0.239885
#
# Coordination Sequence:
#
# PCOD9385993 Si02
#       7
#     8   4   8   8   8   4   8
#     4   9  19  37  59  80 103 135 176 218 260 309
#     4  11  24  37  50  76 112 143 174 215 260 308
#     4   9  19  36  57  81 107 135 171 216 262 308
#     4  10  21  37  56  77 103 138 179 220 262 310
#     4  10  20  34  54  80 108 138 173 214 262 315
#     4   9  17  31  52  77 106 139 174 214 260 309
#     4  10  21  36  54  77 106 140 175 212 258 311
#
# _framework density 20.136493999999999
#
# number of rings (size 3 to 8) (size 9 to 14) (size 15 to 20)
#    0.000    2.333    0.000    3.250    0.000    8.333 
#    0.000    5.417    0.000    2.500    0.000    0.000 
#    0.000    0.000    0.000    0.000    0.000    0.000 
#
# Total GULP energy -268033.699543 kJ/mol
# GULP energy per Si atom -5584.035407 kJ/mol
# Density = 2.009066 g / cm^3
# Si number density = 20.136494 Si / 1000 Ang^3
#
#
#
# Elastic Constant Matrix: (Units=GPa)
#
#
# Indices 1 2 3 4 5 6 
#
# 1 15.0353 11.8073 5.4308 0.0000 0.0000 0.0000
# 2 11.8073 204.8238 143.5775 0.0000 0.0000 0.0000
# 3 5.4308 143.5775 210.7348 0.0000 0.0000 0.0000
# 4 0.0000 0.0000 0.0000 -217.6892 0.0000 0.0000
# 5 0.0000 0.0000 0.0000 0.0000 37.6525 0.0000
# 6 0.0000 0.0000 0.0000 0.0000 0.0000 22.9202
#
#
#
# Elastic Compliance Matrix: (Units=1/GPa)
#
#
# Indices 1 2 3 4 5 6 
#
# 1 0.070023 -0.005305 0.001810 0.000000 0.000000 0.000000
# 2 -0.005305 0.009748 -0.006505 0.000000 0.000000 0.000000
# 3 0.001810 -0.006505 0.009130 0.000000 0.000000 0.000000
# 4 0.000000 0.000000 0.000000 -0.004594 0.000000 0.000000
# 5 0.000000 0.000000 0.000000 0.000000 0.026559 0.000000
# 6 0.000000 0.000000 0.000000 0.000000 0.000000 0.043630
#
#
# Mechanical properties :
#
#
# Convention : Reuss Voigt Hill
#
# Bulk Modulus (GPa) = 14.51357 83.58058 49.04707
# Shear Modulus (GPa) = 25.32134 -13.43810 5.94162
#
# Velocity S-wave (km/s) = 3.54995 -2.58612 1.71962
# Velocity P-wave (km/s) = 4.90164 5.71663 5.32475
#
# Compressibility (1/GPa) = 0.06890106
#
# Stress axis : x y z
#
# Youngs Moduli (GPa) = 14.28108 102.58908 109.52541
#
# Poissons Ratio (x) = 0.54428 -0.19826
# Poissons Ratio (y) = 0.07577 0.71241
# Poissons Ratio (z) = -0.02585 0.66729
#
# Static dielectric constant tensor:
#      x y z
#    x 1.735110 0.000000 0.000000 
#    y 0.000000 1.704280 0.000000 
#    z 0.000000 0.000000 1.684210 
# 
# From -- ./inp_files/2626.got.cif
#   From: 2010.05.17/outbox.cif.g08.bks.cpg/sg47_2_cif.got.tgz:2626.got - 2010.06.03 20:15:42.
