data_PCOD9385816
_publ_section_title
;
Structure prediction by ZEFSAII (Michael W. Deem and Ramdas Pophale) SiO2 
 PCOD9385816
Probable space group: P M M M
;
_chemical_formula_sum "Si O2"
_cell_formula_units_Z 48
_cell_length_a 9.260615
_cell_length_b 7.853660
_cell_length_c 31.859786
_cell_angle_alpha 90.000000
_cell_angle_beta 90.000000
_cell_angle_gamma 90.000000
_cell_volume 2317.153366
_symmetry_space_group_name_H-M "P M M M"
_symmetry_group_IT_number 47
_symmetry_cell_setting 'orthorhombic'
loop_
_space_group_symop_operation_xyz
x,y,z
-x,-y,z
x,-y,-z
-x,y,-z
-x,-y,-z
x,y,-z
-x,y,z
x,-y,z
loop_
_atom_site_type_symbol
_atom_site_label
_atom_site_fract_x
_atom_site_fract_y
_atom_site_fract_z
Si Si1 0.664742 0.205167 0.667245
Si Si2 0.336276 0.203821 0.832730
Si Si3 0.836072 0.702700 0.083874
Si Si4 0.666642 0.291457 0.500000
Si Si5 0.166587 0.791299 0.249659
Si Si6 0.164770 0.705169 0.583053
Si Si7 0.335780 0.203142 0.000000
O O1 0.500000 0.268896 0.666040
O O2 0.749554 0.264945 0.708603
O O3 0.750261 0.250164 0.625207
O O4 0.658942 0.000000 0.669832
O O5 0.500000 0.271283 0.834589
O O6 0.250566 0.236539 0.875450
O O7 0.248766 0.267271 0.792219
O O8 0.346014 0.000000 0.827909
O O9 0.844949 0.500000 0.086619
O O10 0.750492 0.745212 0.041542
O O11 0.000000 0.771922 0.082908
O O12 0.666890 0.500000 0.500000
O O13 0.500000 0.237187 0.500000
O O14 0.749773 0.234703 0.541829
O O15 0.000000 0.737154 0.249957
O O16 0.166663 0.000000 0.249537
O O17 0.158949 0.500000 0.580374
O O18 0.000000 0.768871 0.584115
O O19 0.500000 0.271810 0.000000
O O20 0.344776 0.000000 0.000000
#
# Coordination Sequence:
#
# PCOD9385816 Si02
#       7
#     8   8   8   4   8   8   4
#     4  10  20  34  53  78 108 141 177 219 267 318
#     4  10  20  35  57  84 111 141 181 225 266 314
#     4  11  24  40  58  83 115 149 184 223 270 322
#     4   9  17  31  52  75 100 133 172 214 262 317
#     4   9  17  31  53  79 107 141 179 219 265 316
#     4  10  20  34  53  77 104 135 173 217 264 316
#     4  11  24  41  62  88 114 143 184 229 270 318
#
# _framework density 20.715070999999998
#
# number of rings (size 3 to 8) (size 9 to 14) (size 15 to 20)
#    0.000    2.000    0.000    3.750    0.000   11.000 
#    0.000    1.250    0.000    7.500    0.000    0.000 
#    0.000    0.000    0.000    0.000    0.000    0.000 
#
# Total GULP energy -268290.722750 kJ/mol
# GULP energy per Si atom -5589.390057 kJ/mol
# Density = 2.066792 g / cm^3
# Si number density = 20.715071 Si / 1000 Ang^3
#
#
#
# Elastic Constant Matrix: (Units=GPa)
#
#
# Indices 1 2 3 4 5 6 
#
# 1 264.4111 8.8981 155.3740 0.0000 0.0000 0.0000
# 2 8.8981 22.9474 -1.2555 0.0000 0.0000 0.0000
# 3 155.3740 -1.2555 243.3107 0.0000 0.0000 0.0000
# 4 0.0000 0.0000 0.0000 34.7585 0.0000 0.0000
# 5 0.0000 0.0000 0.0000 0.0000 46.3719 0.0000
# 6 0.0000 0.0000 0.0000 0.0000 0.0000 -23.6725
#
#
#
# Elastic Compliance Matrix: (Units=1/GPa)
#
#
# Indices 1 2 3 4 5 6 
#
# 1 0.006208 -0.002625 -0.003978 0.000000 0.000000 0.000000
# 2 -0.002625 0.044700 0.001907 0.000000 0.000000 0.000000
# 3 -0.003978 0.001907 0.006660 0.000000 0.000000 0.000000
# 4 0.000000 0.000000 0.000000 0.028770 0.000000 0.000000
# 5 0.000000 0.000000 0.000000 0.000000 0.021565 0.000000
# 6 0.000000 0.000000 0.000000 0.000000 0.000000 -0.042243
#
#
# Mechanical properties :
#
#
# Convention : Reuss Voigt Hill
#
# Bulk Modulus (GPa) = 20.75711 95.18916 57.97313
# Shear Modulus (GPa) = 54.87930 36.00176 45.44053
#
# Velocity S-wave (km/s) = 5.15267 4.17340 4.68867
# Velocity P-wave (km/s) = 6.74107 8.32312 7.57352
#
# Compressibility (1/GPa) = 0.04817625
#
# Stress axis : x y z
#
# Youngs Moduli (GPa) = 161.09068 22.37139 150.15293
#
# Poissons Ratio (x) = 0.05872 0.59726
# Poissons Ratio (y) = 0.42282 -0.28630
# Poissons Ratio (z) = 0.64076 -0.04266
#
# Static dielectric constant tensor:
#      x y z
#    x 1.731220 0.000000 0.000000 
#    y 0.000000 1.768670 0.000000 
#    z 0.000000 0.000000 1.644000 
# 
# From -- ./inp_files/13964.got.cif
#   From: 2010.05.17/outbox.cif.g08.bks.cpg/sg47_7_cif.got.tgz:13964.got - 2010.06.03 20:15:42.
