data_PCOD9385121
_publ_section_title
;
Structure prediction by ZEFSAII (Michael W. Deem and Ramdas Pophale) SiO2 
 PCOD9385121
Probable space group: P M M M
;
_chemical_formula_sum "Si O2"
_cell_formula_units_Z 64
_cell_length_a 19.301002
_cell_length_b 20.800555
_cell_length_c 7.550351
_cell_angle_alpha 90.000000
_cell_angle_beta 90.000000
_cell_angle_gamma 90.000000
_cell_volume 3031.251147
_symmetry_space_group_name_H-M "P M M M"
_symmetry_group_IT_number 47
_symmetry_cell_setting 'orthorhombic'
loop_
_space_group_symop_operation_xyz
x,y,z
-x,-y,z
x,-y,-z
-x,y,-z
-x,-y,-z
x,y,-z
-x,y,z
x,-y,z
loop_
_atom_site_type_symbol
_atom_site_label
_atom_site_fract_x
_atom_site_fract_y
_atom_site_fract_z
Si Si1 0.577815 0.819185 0.707480
Si Si2 0.077165 0.801485 0.790736
Si Si3 0.159419 0.927428 0.286354
Si Si4 0.176988 0.688819 0.782544
Si Si5 0.579567 0.427417 0.714157
Si Si6 0.921190 0.573550 0.784241
Si Si7 0.666201 0.696692 0.205278
Si Si8 0.682964 0.073560 0.283655
O O1 0.570958 0.834627 0.500000
O O2 0.500000 0.816421 0.782735
O O3 0.616480 0.751012 0.716478
O O4 0.627976 0.874460 0.782300
O O5 0.106487 0.872943 0.769796
O O6 0.132326 0.749962 0.721809
O O7 0.000000 0.794879 0.715553
O O8 0.072361 0.788212 0.000000
O O9 0.159965 0.928234 0.500000
O O10 0.238079 0.911680 0.227668
O O11 0.142821 0.000000 0.226653
O O12 0.135905 0.624759 0.726503
O O13 0.256063 0.693885 0.720333
O O14 0.178816 0.687743 0.000000
O O15 0.580389 0.426252 0.500000
O O16 0.500000 0.414761 0.769481
O O17 0.597957 0.500000 0.770265
O O18 0.630348 0.372479 0.778715
O O19 0.907772 0.500000 0.728520
O O20 0.000000 0.591176 0.730794
O O21 0.920996 0.573836 0.000000
O O22 0.672318 0.714092 0.000000
O O23 0.683511 0.075111 0.500000
O O24 0.666872 0.000000 0.232713
#
# Coordination Sequence:
#
# PCOD9385121 Si02
#       8
#     8   8   8   8   8   8   8   8
#     4  10  20  33  51  74  99 129 164 203 247 293
#     4  10  20  33  50  71  96 128 165 205 245 284
#     4   9  18  33  52  72  96 127 159 194 241 295
#     4   9  18  31  45  66  98 130 160 197 240 283
#     4   9  19  37  58  76  97 129 167 205 245 290
#     4   8  13  23  42  66  91 122 157 190 229 280
#     4  11  22  33  49  74 103 134 165 201 245 291
#     4   8  15  30  52  76  99 124 160 205 248 292
#
# _framework density 21.113396000000002
#
# number of rings (size 3 to 8) (size 9 to 14) (size 15 to 20)
#    0.000    2.750    0.000    3.375    0.000    5.250 
#    0.000    5.000    0.000    1.125    0.000    0.875 
#    0.000    0.000    0.000   10.750    0.000    9.500 
#
# Total GULP energy -357297.183576 kJ/mol
# GULP energy per Si atom -5582.768493 kJ/mol
# Density = 2.106534 g / cm^3
# Si number density = 21.113396 Si / 1000 Ang^3
#
#
#
# Elastic Constant Matrix: (Units=GPa)
#
#
# Indices 1 2 3 4 5 6 
#
# 1 141.7306 77.8304 -3.6836 0.0000 0.0000 0.0000
# 2 77.8304 97.5370 -11.8584 0.0000 0.0000 0.0000
# 3 -3.6836 -11.8584 46.3989 0.0000 0.0000 0.0000
# 4 0.0000 0.0000 0.0000 21.5023 0.0000 0.0000
# 5 0.0000 0.0000 0.0000 0.0000 14.2883 0.0000
# 6 0.0000 0.0000 0.0000 0.0000 0.0000 40.8387
#
#
#
# Elastic Compliance Matrix: (Units=1/GPa)
#
#
# Indices 1 2 3 4 5 6 
#
# 1 0.012677 -0.010314 -0.001630 0.000000 0.000000 0.000000
# 2 -0.010314 0.018973 0.004030 0.000000 0.000000 0.000000
# 3 -0.001630 0.004030 0.022453 0.000000 0.000000 0.000000
# 4 0.000000 0.000000 0.000000 0.046507 0.000000 0.000000
# 5 0.000000 0.000000 0.000000 0.000000 0.069987 0.000000
# 6 0.000000 0.000000 0.000000 0.000000 0.000000 0.024487
#
#
# Mechanical properties :
#
#
# Convention : Reuss Voigt Hill
#
# Bulk Modulus (GPa) = 26.12617 45.58258 35.85437
# Shear Modulus (GPa) = 22.35455 30.21775 26.28615
#
# Velocity S-wave (km/s) = 3.25743 3.78724 3.53228
# Velocity P-wave (km/s) = 5.15256 6.38440 5.80127
#
# Compressibility (1/GPa) = 0.03827580
#
# Stress axis : x y z
#
# Youngs Moduli (GPa) = 78.88249 52.70775 44.53777
#
# Poissons Ratio (x) = 0.54362 0.07258
# Poissons Ratio (y) = 0.81359 -0.17949
# Poissons Ratio (z) = 0.12854 -0.21242
#
# Static dielectric constant tensor:
#      x y z
#    x 1.744460 0.000000 0.000000 
#    y 0.000000 1.722480 0.000000 
#    z 0.000000 0.000000 1.828700 
# 
# From -- ./inp_files/9961.got.cif
#   From: 2010.05.17/outbox.cif.g08.bks.cpg/sg47_5_cif.got.tgz:9961.got - 2010.06.03 20:15:42.
