data_PCOD9385088
_publ_section_title
;
Structure prediction by ZEFSAII (Michael W. Deem and Ramdas Pophale) SiO2 
 PCOD9385088
Probable space group: P M M M
;
_chemical_formula_sum "Si O2"
_cell_formula_units_Z 52
_cell_length_a 14.841856
_cell_length_b 24.052530
_cell_length_c 8.600469
_cell_angle_alpha 90.000000
_cell_angle_beta 90.000000
_cell_angle_gamma 90.000000
_cell_volume 3070.231431
_symmetry_space_group_name_H-M "P M M M"
_symmetry_group_IT_number 47
_symmetry_cell_setting 'orthorhombic'
loop_
_space_group_symop_operation_xyz
x,y,z
-x,-y,z
x,-y,-z
-x,y,-z
-x,-y,-z
x,y,-z
-x,y,z
x,-y,z
loop_
_atom_site_type_symbol
_atom_site_label
_atom_site_fract_x
_atom_site_fract_y
_atom_site_fract_z
Si Si1 0.210726 0.276567 0.313384
Si Si2 0.213688 0.939087 0.187162
Si Si3 0.890788 0.500000 0.679528
Si Si4 0.104717 0.618299 0.814171
Si Si5 0.599492 0.766749 0.311119
Si Si6 0.398786 0.102660 0.312580
Si Si7 0.105091 0.830410 0.188327
O O1 0.210298 0.277445 0.500000
O O2 0.164948 0.332330 0.251782
O O3 0.313859 0.267548 0.258323
O O4 0.154429 0.223291 0.256433
O O5 0.316583 0.929885 0.238257
O O6 0.154731 0.886770 0.242071
O O7 0.182336 0.000000 0.241103
O O8 0.209541 0.938583 0.000000
O O9 0.863489 0.500000 0.500000
O O10 0.863029 0.442492 0.759517
O O11 0.000000 0.500000 0.686801
O O12 0.000000 0.625557 0.762397
O O13 0.105322 0.620364 0.000000
O O14 0.598555 0.764854 0.500000
O O15 0.500000 0.748732 0.257092
O O16 0.610971 0.831935 0.270700
O O17 0.392978 0.098603 0.500000
O O18 0.500000 0.084870 0.267135
O O19 0.000000 0.830903 0.230813
O O20 0.110699 0.827749 0.000000
#
# Coordination Sequence:
#
# PCOD9385088 Si02
#       7
#     8   8   4   8   8   8   8
#     4  11  20  31  52  78 101 127 163 207 248 289
#     4  10  21  35  50  69  93 122 159 203 249 298
#     4   9  17  31  51  75 104 137 178 221 249 276
#     4  10  20  33  49  72 107 147 177 202 241 292
#     4   8  15  29  49  72  97 124 155 195 245 296
#     4   9  17  32  53  73  94 122 155 192 241 302
#     4  10  21  36  51  67  92 126 162 202 249 299
#
# _framework density 16.936834000000001
#
# number of rings (size 3 to 8) (size 9 to 14) (size 15 to 20)
#    0.000    2.385    1.538    2.538    0.000    5.231 
#    0.000    3.077    0.000    1.846    0.000    2.692 
#    0.000    4.308    0.000    0.000    0.000    0.000 
#
# Total GULP energy -290017.516486 kJ/mol
# GULP energy per Si atom -5577.259932 kJ/mol
# Density = 1.689829 g / cm^3
# Si number density = 16.936834 Si / 1000 Ang^3
#
#
#
# Elastic Constant Matrix: (Units=GPa)
#
#
# Indices 1 2 3 4 5 6 
#
# 1 109.3749 76.6904 21.7867 0.0000 0.0000 0.0000
# 2 76.6904 145.5360 28.8344 0.0000 0.0000 0.0000
# 3 21.7867 28.8344 18.6361 0.0000 0.0000 0.0000
# 4 0.0000 0.0000 0.0000 19.4440 0.0000 0.0000
# 5 0.0000 0.0000 0.0000 0.0000 20.2718 0.0000
# 6 0.0000 0.0000 0.0000 0.0000 0.0000 24.5997
#
#
#
# Elastic Compliance Matrix: (Units=1/GPa)
#
#
# Indices 1 2 3 4 5 6 
#
# 1 0.015244 -0.006492 -0.007776 0.000000 0.000000 0.000000
# 2 -0.006492 0.012674 -0.012019 0.000000 0.000000 0.000000
# 3 -0.007776 -0.012019 0.081347 0.000000 0.000000 0.000000
# 4 0.000000 0.000000 0.000000 0.051430 0.000000 0.000000
# 5 0.000000 0.000000 0.000000 0.000000 0.049330 0.000000
# 6 0.000000 0.000000 0.000000 0.000000 0.000000 0.040651
#
#
# Mechanical properties :
#
#
# Convention : Reuss Voigt Hill
#
# Bulk Modulus (GPa) = 17.64007 58.68556 38.16281
# Shear Modulus (GPa) = 15.52091 22.61212 19.06652
#
# Velocity S-wave (km/s) = 3.03049 3.65785 3.35885
# Velocity P-wave (km/s) = 4.76267 7.25015 6.13383
#
# Compressibility (1/GPa) = 0.05668912
#
# Stress axis : x y z
#
# Youngs Moduli (GPa) = 65.59987 78.90475 12.29305
#
# Poissons Ratio (x) = 0.51226 0.09559
# Poissons Ratio (y) = 0.42588 0.14775
# Poissons Ratio (z) = 0.51012 0.94837
#
# Static dielectric constant tensor:
#      x y z
#    x 1.575620 0.000000 0.000000 
#    y 0.000000 1.561330 0.000000 
#    z 0.000000 0.000000 1.579130 
# 
# From -- ./inp_files/6935.got.cif
#   From: 2010.05.17/outbox.cif.g08.bks.cpg/sg47_4_cif.got.tgz:6935.got - 2010.06.03 20:15:42.
