data_PCOD9385347
_publ_section_title
;
Structure prediction by ZEFSAII (Michael W. Deem and Ramdas Pophale) SiO2 
 PCOD9385347
Probable space group: P M M M
;
_chemical_formula_sum "Si O2"
_cell_formula_units_Z 36
_cell_length_a 14.075516
_cell_length_b 15.020175
_cell_length_c 7.803252
_cell_angle_alpha 90.000000
_cell_angle_beta 90.000000
_cell_angle_gamma 90.000000
_cell_volume 1649.737893
_symmetry_space_group_name_H-M "P M M M"
_symmetry_group_IT_number 47
_symmetry_cell_setting 'orthorhombic'
loop_
_space_group_symop_operation_xyz
x,y,z
-x,-y,z
x,-y,-z
-x,y,-z
-x,-y,-z
x,y,-z
-x,y,z
x,-y,z
loop_
_atom_site_type_symbol
_atom_site_label
_atom_site_fract_x
_atom_site_fract_y
_atom_site_fract_z
Si Si1 0.787534 0.099987 0.207676
Si Si2 0.114179 0.278100 0.312084
Si Si3 0.391779 0.791285 0.790546
Si Si4 0.615586 0.595868 0.796584
Si Si5 0.116221 0.398501 0.000000
O O1 0.855726 0.177270 0.274194
O O2 0.682221 0.132838 0.258162
O O3 0.808126 0.000000 0.266166
O O4 0.792739 0.100845 0.000000
O O5 0.146691 0.305276 0.500000
O O6 0.000000 0.282177 0.308373
O O7 0.149133 0.344220 0.165185
O O8 0.500000 0.806928 0.735451
O O9 0.357795 0.693547 0.728479
O O10 0.392625 0.787598 0.000000
O O11 0.500000 0.596044 0.784723
O O12 0.648429 0.500000 0.724853
O O13 0.637886 0.595439 0.000000
O O14 0.147438 0.500000 0.000000
O O15 0.000000 0.398918 0.000000
#
# Coordination Sequence:
#
# PCOD9385347 Si02
#       5
#     8   8   8   8   4
#     4  10  20  33  51  76 111 154 199 251 304 350
#     4  10  21  38  61  88 119 155 194 237 289 350
#     4   8  14  25  42  66 100 143 191 240 291 351
#     4   7   9  15  30  53  83 121 163 211 268 325
#     4   9  18  36  63  93 124 155 189 231 281 343
#
# _framework density 21.821646999999999
#
# number of rings (size 3 to 8) (size 9 to 14) (size 15 to 20)
#    0.000    3.222    1.111    2.000    0.000    1.778 
#    0.000    7.778    0.000    0.667    0.000    1.556 
#    0.000    0.000    0.000    7.556    0.000    0.444 
#
# Total GULP energy -200923.419901 kJ/mol
# GULP energy per Si atom -5581.206108 kJ/mol
# Density = 2.177198 g / cm^3
# Si number density = 21.821647 Si / 1000 Ang^3
#
#
#
# Elastic Constant Matrix: (Units=GPa)
#
#
# Indices 1 2 3 4 5 6 
#
# 1 42.9919 4.9791 28.0245 0.0000 0.0000 0.0000
# 2 4.9791 160.8976 74.6206 0.0000 0.0000 0.0000
# 3 28.0245 74.6206 93.5771 0.0000 0.0000 0.0000
# 4 0.0000 0.0000 0.0000 -18.9975 0.0000 0.0000
# 5 0.0000 0.0000 0.0000 0.0000 1.2140 0.0000
# 6 0.0000 0.0000 0.0000 0.0000 0.0000 37.8286
#
#
#
# Elastic Compliance Matrix: (Units=1/GPa)
#
#
# Indices 1 2 3 4 5 6 
#
# 1 0.031622 0.005417 -0.013789 0.000000 0.000000 0.000000
# 2 0.005417 0.010790 -0.010227 0.000000 0.000000 0.000000
# 3 -0.013789 -0.010227 0.022971 0.000000 0.000000 0.000000
# 4 0.000000 0.000000 0.000000 -0.052639 0.000000 0.000000
# 5 0.000000 0.000000 0.000000 0.000000 0.823697 0.000000
# 6 0.000000 0.000000 0.000000 0.000000 0.000000 0.026435
#
#
# Mechanical properties :
#
#
# Convention : Reuss Voigt Hill
#
# Bulk Modulus (GPa) = 35.48098 56.96834 46.22466
# Shear Modulus (GPa) = 5.49771 16.66520 11.08146
#
# Velocity S-wave (km/s) = 1.58898 2.76651 2.25593
# Velocity P-wave (km/s) = 4.43411 6.03057 5.29288
#
# Compressibility (1/GPa) = 0.02818411
#
# Stress axis : x y z
#
# Youngs Moduli (GPa) = 31.62398 92.67475 43.53305
#
# Poissons Ratio (x) = -0.50199 0.60029
# Poissons Ratio (y) = -0.17130 0.44520
# Poissons Ratio (z) = 0.43608 0.94776
#
# Static dielectric constant tensor:
#      x y z
#    x 1.829290 0.000000 0.000000 
#    y 0.000000 1.778860 0.000000 
#    z 0.000000 0.000000 1.830390 
# 
# From -- ./inp_files/5542.got.cif
#   From: 2010.05.17/outbox.cif.g08.bks.cpg/sg47_3_cif.got.tgz:5542.got - 2010.06.03 20:15:42.
