data_PCOD9385717
_publ_section_title
;
Structure prediction by ZEFSAII (Michael W. Deem and Ramdas Pophale) SiO2 
 PCOD9385717
Probable space group: P M M M
;
_chemical_formula_sum "Si O2"
_cell_formula_units_Z 40
_cell_length_a 8.537381
_cell_length_b 15.474312
_cell_length_c 15.530872
_cell_angle_alpha 90.000000
_cell_angle_beta 90.000000
_cell_angle_gamma 90.000000
_cell_volume 2051.785010
_symmetry_space_group_name_H-M "P M M M"
_symmetry_group_IT_number 47
_symmetry_cell_setting 'orthorhombic'
loop_
_space_group_symop_operation_xyz
x,y,z
-x,-y,z
x,-y,-z
-x,y,-z
-x,-y,-z
x,y,-z
-x,y,z
x,-y,z
loop_
_atom_site_type_symbol
_atom_site_label
_atom_site_fract_x
_atom_site_fract_y
_atom_site_fract_z
Si Si1 0.311061 0.595007 0.713356
Si Si2 0.191632 0.100786 0.500000
Si Si3 0.684006 0.175929 0.832159
Si Si4 0.815883 0.771624 0.651522
Si Si5 0.822666 0.000000 0.897924
Si Si6 0.311952 0.358858 0.093890
O O1 0.500000 0.598759 0.716283
O O2 0.263360 0.500000 0.682238
O O3 0.256124 0.675482 0.656075
O O4 0.255873 0.604935 0.813678
O O5 0.242410 0.158358 0.582043
O O6 0.000000 0.097592 0.500000
O O7 0.243607 0.000000 0.500000
O O8 0.500000 0.179387 0.810585
O O9 0.780849 0.191450 0.745818
O O10 0.731645 0.085089 0.870195
O O11 0.713443 0.255945 0.896232
O O12 0.000000 0.761915 0.637054
O O13 0.000000 0.000000 0.861841
O O14 0.833385 0.000000 0.000000
O O15 0.500000 0.374693 0.092691
O O16 0.251166 0.388288 0.000000
#
# Coordination Sequence:
#
# PCOD9385717 Si02
#       6
#     8   4   8   8   4   8
#     4   9  18  33  53  78 111 148 184 227 277 327
#     4   9  20  38  60  85 110 138 174 222 281 344
#     4  10  20  34  52  75 107 144 182 223 275 335
#     4  10  20  36  59  83 108 140 178 225 280 339
#     4  11  23  35  49  74 107 144 189 235 276 321
#     4   8  14  26  46  72 101 135 178 224 264 305
#
# _framework density 19.495218999999999
#
# number of rings (size 3 to 8) (size 9 to 14) (size 15 to 20)
#    0.000    2.600    0.000    3.300    1.400    2.400 
#    0.000    4.500    0.000   10.800    0.000    5.600 
#    0.000    0.000    0.000    0.000    0.000    0.000 
#
# Total GULP energy -222907.508877 kJ/mol
# GULP energy per Si atom -5572.687722 kJ/mol
# Density = 1.945085 g / cm^3
# Si number density = 19.495219 Si / 1000 Ang^3
#
#
#
# Elastic Constant Matrix: (Units=GPa)
#
#
# Indices 1 2 3 4 5 6 
#
# 1 9.6653 21.3039 5.0530 0.0000 0.0000 0.0000
# 2 21.3039 169.9709 45.5877 0.0000 0.0000 0.0000
# 3 5.0530 45.5877 76.4827 0.0000 0.0000 0.0000
# 4 0.0000 0.0000 0.0000 14.2183 0.0000 0.0000
# 5 0.0000 0.0000 0.0000 0.0000 15.2845 0.0000
# 6 0.0000 0.0000 0.0000 0.0000 0.0000 25.6727
#
#
#
# Elastic Compliance Matrix: (Units=1/GPa)
#
#
# Indices 1 2 3 4 5 6 
#
# 1 0.143096 -0.018330 0.001472 0.000000 0.000000 0.000000
# 2 -0.018330 0.009351 -0.004363 0.000000 0.000000 0.000000
# 3 0.001472 -0.004363 0.015578 0.000000 0.000000 0.000000
# 4 0.000000 0.000000 0.000000 0.070332 0.000000 0.000000
# 5 0.000000 0.000000 0.000000 0.000000 0.065426 0.000000
# 6 0.000000 0.000000 0.000000 0.000000 0.000000 0.038952
#
#
# Mechanical properties :
#
#
# Convention : Reuss Voigt Hill
#
# Bulk Modulus (GPa) = 7.96289 44.44536 26.20413
# Shear Modulus (GPa) = 11.70858 23.31337 17.51097
#
# Velocity S-wave (km/s) = 2.45335 3.46186 3.00028
# Velocity P-wave (km/s) = 3.48118 6.23112 5.04705
#
# Compressibility (1/GPa) = 0.12558254
#
# Stress axis : x y z
#
# Youngs Moduli (GPa) = 6.98833 106.94127 64.19320
#
# Poissons Ratio (x) = 1.96025 -0.09447
# Poissons Ratio (y) = 0.12810 0.28005
# Poissons Ratio (z) = -0.01028 0.46654
#
# Static dielectric constant tensor:
#      x y z
#    x 1.684360 0.000000 0.000000 
#    y 0.000000 1.689680 0.000000 
#    z 0.000000 0.000000 1.686070 
# 
# From -- ./inp_files/5786.got.cif
#   From: 2010.05.17/outbox.cif.g08.bks.cpg/sg47_3_cif.got.tgz:5786.got - 2010.06.03 20:15:42.
