data_PCOD9385300
_publ_section_title
;
Structure prediction by ZEFSAII (Michael W. Deem and Ramdas Pophale) SiO2 
 PCOD9385300
Probable space group: P M M M
;
_chemical_formula_sum "Si O2"
_cell_formula_units_Z 52
_cell_length_a 8.868834
_cell_length_b 14.687381
_cell_length_c 25.340953
_cell_angle_alpha 90.000000
_cell_angle_beta 90.000000
_cell_angle_gamma 90.000000
_cell_volume 3300.911118
_symmetry_space_group_name_H-M "P M M M"
_symmetry_group_IT_number 47
_symmetry_cell_setting 'orthorhombic'
loop_
_space_group_symop_operation_xyz
x,y,z
-x,-y,z
x,-y,-z
-x,y,-z
-x,-y,-z
x,y,-z
-x,y,z
x,-y,z
loop_
_atom_site_type_symbol
_atom_site_label
_atom_site_fract_x
_atom_site_fract_y
_atom_site_fract_z
Si Si1 0.319917 0.213018 0.558623
Si Si2 0.180523 0.000000 0.061423
Si Si3 0.181777 0.105544 0.656743
Si Si4 0.180588 0.223184 0.760017
Si Si5 0.678322 0.604128 0.711946
Si Si6 0.819529 0.396752 0.595613
Si Si7 0.322874 0.897827 0.848723
O O1 0.281324 0.178196 0.500000
O O2 0.500000 0.214110 0.564074
O O3 0.249979 0.153509 0.605381
O O4 0.258104 0.315667 0.564222
O O5 0.249267 0.085443 0.093813
O O6 0.000000 0.000000 0.066588
O O7 0.220591 0.000000 0.000000
O O8 0.224417 0.161475 0.709226
O O9 0.000000 0.108977 0.652953
O O10 0.227608 0.000000 0.660485
O O11 0.254815 0.321135 0.750856
O O12 0.239814 0.173824 0.812224
O O13 0.000000 0.230297 0.760922
O O14 0.500000 0.619442 0.703451
O O15 0.698723 0.500000 0.730170
O O16 0.763724 0.612877 0.656016
O O17 0.781344 0.500000 0.578295
O O18 0.000000 0.386688 0.593504
O O19 0.500000 0.878057 0.853132
O O20 0.306954 0.000000 0.824055
#
# Coordination Sequence:
#
# PCOD9385300 Si02
#       7
#     8   4   8   8   8   8   8
#     4  11  24  39  54  73  96 123 158 202 253 310
#     4   9  17  31  51  75 109 151 190 227 264 299
#     4  10  22  38  55  75  96 125 163 203 251 303
#     4  11  20  32  53  77 104 134 170 213 254 304
#     4  10  20  33  51  75 103 133 164 201 250 309
#     4  10  20  35  55  77  98 122 156 196 244 305
#     4   9  19  31  47  74 107 144 182 218 255 298
#
# _framework density 15.753228
#
# number of rings (size 3 to 8) (size 9 to 14) (size 15 to 20)
#    0.462    1.462    1.538    2.769    0.000    5.846 
#    0.000    3.077    0.000    0.000    0.000    0.000 
#    0.000    0.615    0.000    6.462    0.000    2.769 
#
# Total GULP energy -290050.402769 kJ/mol
# GULP energy per Si atom -5577.892361 kJ/mol
# Density = 1.571737 g / cm^3
# Si number density = 15.753228 Si / 1000 Ang^3
#
#
#
# Elastic Constant Matrix: (Units=GPa)
#
#
# Indices 1 2 3 4 5 6 
#
# 1 37.3680 27.5931 28.9371 0.0000 0.0000 0.0000
# 2 27.5931 75.3555 41.8018 0.0000 0.0000 0.0000
# 3 28.9371 41.8018 97.7314 0.0000 0.0000 0.0000
# 4 0.0000 0.0000 0.0000 18.6624 0.0000 0.0000
# 5 0.0000 0.0000 0.0000 0.0000 27.4447 0.0000
# 6 0.0000 0.0000 0.0000 0.0000 0.0000 25.4418
#
#
#
# Elastic Compliance Matrix: (Units=1/GPa)
#
#
# Indices 1 2 3 4 5 6 
#
# 1 0.040369 -0.010687 -0.007382 0.000000 0.000000 0.000000
# 2 -0.010687 0.020228 -0.005488 0.000000 0.000000 0.000000
# 3 -0.007382 -0.005488 0.014765 0.000000 0.000000 0.000000
# 4 0.000000 0.000000 0.000000 0.053584 0.000000 0.000000
# 5 0.000000 0.000000 0.000000 0.000000 0.036437 0.000000
# 6 0.000000 0.000000 0.000000 0.000000 0.000000 0.039305
#
#
# Mechanical properties :
#
#
# Convention : Reuss Voigt Hill
#
# Bulk Modulus (GPa) = 35.39969 45.23545 40.31757
# Shear Modulus (GPa) = 19.14125 21.78464 20.46295
#
# Velocity S-wave (km/s) = 3.48957 3.72273 3.60803
# Velocity P-wave (km/s) = 6.22545 6.87427 6.55789
#
# Compressibility (1/GPa) = 0.02824884
#
# Stress axis : x y z
#
# Youngs Moduli (GPa) = 24.77175 49.43675 67.72836
#
# Poissons Ratio (x) = 0.52834 0.49994
# Poissons Ratio (y) = 0.26474 0.37166
# Poissons Ratio (z) = 0.18285 0.27129
#
# Static dielectric constant tensor:
#      x y z
#    x 1.523180 0.000000 0.000000 
#    y 0.000000 1.530070 0.000000 
#    z 0.000000 0.000000 1.505170 
# 
# From -- ./inp_files/31988.got.cif
#   From: 2010.05.17/outbox.cif.g08.bks.cpg/sg47_16_cif.got.tgz:31988.got - 2010.06.03 20:15:42.
