data_PCOD9385137
_publ_section_title
;
Structure prediction by ZEFSAII (Michael W. Deem and Ramdas Pophale) SiO2 
 PCOD9385137
Probable space group: P M M M
;
_chemical_formula_sum "Si O2"
_cell_formula_units_Z 44
_cell_length_a 14.038728
_cell_length_b 8.663104
_cell_length_c 20.007547
_cell_angle_alpha 90.000000
_cell_angle_beta 90.000000
_cell_angle_gamma 90.000000
_cell_volume 2433.297072
_symmetry_space_group_name_H-M "P M M M"
_symmetry_group_IT_number 47
_symmetry_cell_setting 'orthorhombic'
loop_
_space_group_symop_operation_xyz
x,y,z
-x,-y,z
x,-y,-z
-x,y,-z
-x,-y,-z
x,y,-z
-x,y,z
x,-y,z
loop_
_atom_site_type_symbol
_atom_site_label
_atom_site_fract_x
_atom_site_fract_y
_atom_site_fract_z
Si Si1 0.135948 0.677302 0.320233
Si Si2 0.105886 0.815893 0.177112
Si Si3 0.324323 0.813407 0.169185
Si Si4 0.000000 0.815817 0.424059
Si Si5 0.500000 0.811707 0.923284
Si Si6 0.359402 0.322184 0.314185
Si Si7 0.500000 0.184872 0.578162
O O1 0.107192 0.500000 0.308833
O O2 0.107619 0.776324 0.255686
O O3 0.248009 0.680265 0.328765
O O4 0.088709 0.747381 0.384940
O O5 0.213640 0.760049 0.155900
O O6 0.000000 0.759719 0.151863
O O7 0.105933 0.000000 0.166470
O O8 0.403234 0.764058 0.115019
O O9 0.363876 0.758259 0.241388
O O10 0.320891 0.000000 0.170417
O O11 0.000000 0.766880 0.500000
O O12 0.000000 0.000000 0.420117
O O13 0.500000 0.000000 0.922615
O O14 0.500000 0.760770 0.000000
O O15 0.390592 0.500000 0.308055
O O16 0.412854 0.242986 0.375768
O O17 0.500000 0.238266 0.500000
O O18 0.500000 0.000000 0.576643
#
# Coordination Sequence:
#
# PCOD9385137 Si02
#       7
#     8   8   8   4   4   8   4
#     4  10  20  33  50  72  96 123 159 204 256 307
#     4   9  16  27  46  71  99 128 161 206 256 305
#     4   9  17  30  51  77 102 134 176 216 258 312
#     4  11  23  35  47  65  93 131 170 207 250 303
#     4   9  17  30  50  76 106 139 176 217 258 304
#     4  10  21  36  55  78 103 130 164 215 268 314
#     4  11  24  39  54  72  96 131 174 215 258 314
#
# _framework density 18.082460999999999
#
# number of rings (size 3 to 8) (size 9 to 14) (size 15 to 20)
#    0.000    2.273    0.909    2.182    0.000    5.091 
#    0.000    3.636    0.000    1.636    0.000    3.818 
#    0.000    0.000    0.000    9.091    0.000    9.455 
#
# Total GULP energy -244949.167539 kJ/mol
# GULP energy per Si atom -5567.026535 kJ/mol
# Density = 1.804130 g / cm^3
# Si number density = 18.082461 Si / 1000 Ang^3
#
#
#
# Elastic Constant Matrix: (Units=GPa)
#
#
# Indices 1 2 3 4 5 6 
#
# 1 163.8234 14.4645 72.5169 0.0000 0.0000 0.0000
# 2 14.4645 16.8814 15.8197 0.0000 0.0000 0.0000
# 3 72.5169 15.8197 112.6949 0.0000 0.0000 0.0000
# 4 0.0000 0.0000 0.0000 -11.9819 0.0000 0.0000
# 5 0.0000 0.0000 0.0000 0.0000 23.1910 0.0000
# 6 0.0000 0.0000 0.0000 0.0000 0.0000 21.0693
#
#
#
# Elastic Compliance Matrix: (Units=1/GPa)
#
#
# Indices 1 2 3 4 5 6 
#
# 1 0.008628 -0.002522 -0.005198 0.000000 0.000000 0.000000
# 2 -0.002522 0.068947 -0.008056 0.000000 0.000000 0.000000
# 3 -0.005198 -0.008056 0.013349 0.000000 0.000000 0.000000
# 4 0.000000 0.000000 0.000000 -0.083459 0.000000 0.000000
# 5 0.000000 0.000000 0.000000 0.000000 0.043120 0.000000
# 6 0.000000 0.000000 0.000000 0.000000 0.000000 0.047462
#
#
# Mechanical properties :
#
#
# Convention : Reuss Voigt Hill
#
# Bulk Modulus (GPa) = 16.84275 55.44468 36.14371
# Shear Modulus (GPa) = 33.46994 19.16224 26.31609
#
# Velocity S-wave (km/s) = 4.30695 3.25886 3.81903
# Velocity P-wave (km/s) = 5.83675 6.69992 6.28318
#
# Compressibility (1/GPa) = 0.05937274
#
# Stress axis : x y z
#
# Youngs Moduli (GPa) = 115.90792 14.50400 74.91214
#
# Poissons Ratio (x) = 0.03657 0.38937
# Poissons Ratio (y) = 0.29227 0.60348
# Poissons Ratio (z) = 0.60245 0.11684
#
# Static dielectric constant tensor:
#      x y z
#    x 1.603060 0.000000 0.000000 
#    y 0.000000 1.619790 0.000000 
#    z 0.000000 0.000000 1.573660 
# 
# From -- ./inp_files/20981.got.cif
#   From: 2010.05.17/outbox.cif.g08.bks.cpg/sg47_11_cif.got.tgz:20981.got - 2010.06.03 20:15:42.
