data_PCOD9385468
_publ_section_title
;
Structure prediction by ZEFSAII (Michael W. Deem and Ramdas Pophale) SiO2 
 PCOD9385468
Probable space group: P M M M
;
_chemical_formula_sum "Si O2"
_cell_formula_units_Z 44
_cell_length_a 9.350433
_cell_length_b 7.575919
_cell_length_c 29.194902
_cell_angle_alpha 90.000000
_cell_angle_beta 90.000000
_cell_angle_gamma 90.000000
_cell_volume 2068.112060
_symmetry_space_group_name_H-M "P M M M"
_symmetry_group_IT_number 47
_symmetry_cell_setting 'orthorhombic'
loop_
_space_group_symop_operation_xyz
x,y,z
-x,-y,z
x,-y,-z
-x,y,-z
-x,-y,-z
x,y,-z
-x,y,z
x,-y,z
loop_
_atom_site_type_symbol
_atom_site_label
_atom_site_fract_x
_atom_site_fract_y
_atom_site_fract_z
Si Si1 0.161568 0.209517 0.320916
Si Si2 0.664896 0.216189 0.409231
Si Si3 0.838542 0.211830 0.139042
Si Si4 0.835113 0.784453 0.500000
Si Si5 0.665361 0.784584 0.948657
Si Si6 0.338237 0.290223 0.769776
O O1 0.253946 0.278163 0.363566
O O2 0.244697 0.231919 0.273440
O O3 0.000000 0.281576 0.318938
O O4 0.149317 0.000000 0.328575
O O5 0.500000 0.272861 0.410147
O O6 0.751105 0.270759 0.454436
O O7 0.663578 0.000000 0.408945
O O8 0.764434 0.278370 0.092561
O O9 0.741087 0.247250 0.182993
O O10 0.000000 0.279230 0.145156
O O11 0.847050 0.000000 0.134782
O O12 0.000000 0.726940 0.500000
O O13 0.836321 0.000000 0.500000
O O14 0.500000 0.732636 0.941261
O O15 0.667529 0.000000 0.948314
O O16 0.708486 0.729616 0.000000
O O17 0.500000 0.217312 0.768582
O O18 0.347873 0.500000 0.766853
#
# Coordination Sequence:
#
# PCOD9385468 Si02
#       6
#     8   8   8   4   8   8
#     4  10  20  34  53  77 103 131 166 208 254 303
#     4   9  16  26  42  66  97 132 167 203 246 296
#     4  10  20  33  52  79 107 135 168 206 250 299
#     4   9  15  23  37  61  96 133 166 203 248 295
#     4   8  14  26  46  73 104 136 168 202 242 289
#     4  11  24  39  54  73  98 131 171 212 255 303
#
# _framework density 21.275442999999999
#
# number of rings (size 3 to 8) (size 9 to 14) (size 15 to 20)
#    0.000    2.455    0.000    3.545    0.000    9.455 
#    0.000    1.818    0.000    0.545    0.000    4.455 
#    0.000    5.091    0.000    0.000    0.000    0.000 
#
# Total GULP energy -245812.143437 kJ/mol
# GULP energy per Si atom -5586.639624 kJ/mol
# Density = 2.122702 g / cm^3
# Si number density = 21.275443 Si / 1000 Ang^3
#
#
#
# Elastic Constant Matrix: (Units=GPa)
#
#
# Indices 1 2 3 4 5 6 
#
# 1 232.7523 5.2543 140.1478 0.0000 0.0000 0.0000
# 2 5.2543 47.7012 -4.3819 0.0000 0.0000 0.0000
# 3 140.1478 -4.3819 204.8125 0.0000 0.0000 0.0000
# 4 0.0000 0.0000 0.0000 -55.0364 0.0000 0.0000
# 5 0.0000 0.0000 0.0000 0.0000 17.7599 0.0000
# 6 0.0000 0.0000 0.0000 0.0000 0.0000 -1.9043
#
#
#
# Elastic Compliance Matrix: (Units=1/GPa)
#
#
# Indices 1 2 3 4 5 6 
#
# 1 0.007384 -0.001280 -0.005080 0.000000 0.000000 0.000000
# 2 -0.001280 0.021227 0.001330 0.000000 0.000000 0.000000
# 3 -0.005080 0.001330 0.008387 0.000000 0.000000 0.000000
# 4 0.000000 0.000000 0.000000 -0.018170 0.000000 0.000000
# 5 0.000000 0.000000 0.000000 0.000000 0.056307 0.000000
# 6 0.000000 0.000000 0.000000 0.000000 0.000000 -0.525129
#
#
# Mechanical properties :
#
#
# Convention : Reuss Voigt Hill
#
# Bulk Modulus (GPa) = 37.12222 85.25626 61.18924
# Shear Modulus (GPa) = -11.60219 15.11357 1.75569
#
# Velocity S-wave (km/s) = -2.33777 2.66818 0.90940
# Velocity P-wave (km/s) = 3.19365 7.04641 5.47043
#
# Compressibility (1/GPa) = 0.02693804
#
# Stress axis : x y z
#
# Youngs Moduli (GPa) = 135.42226 47.10978 119.22831
#
# Poissons Ratio (x) = 0.06030 0.60571
# Poissons Ratio (y) = 0.17335 -0.15858
# Poissons Ratio (z) = 0.68798 -0.06266
#
# Static dielectric constant tensor:
#      x y z
#    x 1.749210 0.000000 0.000000 
#    y 0.000000 1.801380 0.000000 
#    z 0.000000 0.000000 1.723280 
# 
# From -- ./inp_files/33890.got.cif
#   From: 2010.05.17/outbox.cif.g08.bks.cpg/sg47_17_cif.got.tgz:33890.got - 2010.06.03 20:15:42.
