data_PCOD9385822
_publ_section_title
;
Structure prediction by ZEFSAII (Michael W. Deem and Ramdas Pophale) SiO2 
 PCOD9385822
Probable space group: P M M M
;
_chemical_formula_sum "Si O2"
_cell_formula_units_Z 40
_cell_length_a 10.476415
_cell_length_b 23.471736
_cell_length_c 8.985045
_cell_angle_alpha 90.000000
_cell_angle_beta 90.000000
_cell_angle_gamma 90.000000
_cell_volume 2209.419395
_symmetry_space_group_name_H-M "P M M M"
_symmetry_group_IT_number 47
_symmetry_cell_setting 'orthorhombic'
loop_
_space_group_symop_operation_xyz
x,y,z
-x,-y,z
x,-y,-z
-x,y,-z
-x,-y,-z
x,y,-z
-x,y,z
x,-y,z
loop_
_atom_site_type_symbol
_atom_site_label
_atom_site_fract_x
_atom_site_fract_y
_atom_site_fract_z
Si Si1 0.653925 0.500000 0.330251
Si Si2 0.234287 0.065919 0.677764
Si Si3 0.650814 0.380205 0.178789
Si Si4 0.152416 0.291038 0.322072
Si Si5 0.148316 0.175744 0.834741
Si Si6 0.500000 0.931723 0.168477
O O1 0.500000 0.500000 0.338076
O O2 0.703246 0.500000 0.500000
O O3 0.686751 0.442311 0.243525
O O4 0.225805 0.069322 0.500000
O O5 0.154134 0.114639 0.756265
O O6 0.375366 0.080990 0.736388
O O7 0.205078 0.000000 0.720059
O O8 0.500000 0.368934 0.217738
O O9 0.751300 0.335527 0.246168
O O10 0.658705 0.380222 0.000000
O O11 0.163813 0.293917 0.500000
O O12 0.194724 0.228257 0.264944
O O13 0.000000 0.300616 0.287295
O O14 0.000000 0.188408 0.852653
O O15 0.208039 0.173883 0.000000
O O16 0.500000 0.000000 0.153435
O O17 0.500000 0.908080 0.000000
#
# Coordination Sequence:
#
# PCOD9385822 Si02
#       6
#     4   8   8   8   8   4
#     4   9  17  31  54  83 116 153 188 226 276 327
#     4  10  20  34  53  77 105 136 172 216 267 323
#     4  10  20  35  57  86 118 150 187 230 275 326
#     4  10  21  38  59  81 109 147 188 231 281 335
#     4  10  21  37  56  77 103 137 177 221 270 324
#     4   9  17  31  51  73  99 131 165 204 255 314
#
# _framework density 18.104305
#
# number of rings (size 3 to 8) (size 9 to 14) (size 15 to 20)
#    0.000    2.200    0.000    3.000    0.000    7.600 
#    1.800    2.500    0.000    3.000    0.000    0.000 
#    0.000    0.000    0.000    0.000    0.000    0.000 
#
# Total GULP energy -222798.522391 kJ/mol
# GULP energy per Si atom -5569.963060 kJ/mol
# Density = 1.806310 g / cm^3
# Si number density = 18.104305 Si / 1000 Ang^3
#
#
#
# Elastic Constant Matrix: (Units=GPa)
#
#
# Indices 1 2 3 4 5 6 
#
# 1 55.9615 49.3979 43.1410 0.0000 0.0000 0.0000
# 2 49.3979 141.6182 73.7411 0.0000 0.0000 0.0000
# 3 43.1410 73.7411 116.5617 0.0000 0.0000 0.0000
# 4 0.0000 0.0000 0.0000 31.9072 0.0000 0.0000
# 5 0.0000 0.0000 0.0000 0.0000 2.7286 0.0000
# 6 0.0000 0.0000 0.0000 0.0000 0.0000 33.7852
#
#
#
# Elastic Compliance Matrix: (Units=1/GPa)
#
#
# Indices 1 2 3 4 5 6 
#
# 1 0.028695 -0.006679 -0.006395 0.000000 0.000000 0.000000
# 2 -0.006679 0.012085 -0.005173 0.000000 0.000000 0.000000
# 3 -0.006395 -0.005173 0.014219 0.000000 0.000000 0.000000
# 4 0.000000 0.000000 0.000000 0.031341 0.000000 0.000000
# 5 0.000000 0.000000 0.000000 0.000000 0.366482 0.000000
# 6 0.000000 0.000000 0.000000 0.000000 0.000000 0.029599
#
#
# Mechanical properties :
#
#
# Convention : Reuss Voigt Hill
#
# Bulk Modulus (GPa) = 54.04260 71.85573 62.94917
# Shear Modulus (GPa) = 9.52230 23.54163 16.53197
#
# Velocity S-wave (km/s) = 2.29589 3.60993 3.02512
# Velocity P-wave (km/s) = 6.07813 7.55986 6.85912
#
# Compressibility (1/GPa) = 0.01850392
#
# Stress axis : x y z
#
# Youngs Moduli (GPa) = 34.84904 82.74907 70.33013
#
# Poissons Ratio (x) = 0.55271 0.44975
# Poissons Ratio (y) = 0.23277 0.36383
# Poissons Ratio (z) = 0.22285 0.42807
#
# Static dielectric constant tensor:
#      x y z
#    x 1.740420 0.000000 0.000000 
#    y 0.000000 1.605570 0.000000 
#    z 0.000000 0.000000 1.635290 
# 
# From -- ./inp_files/4136.got.cif
#   From: 2010.05.17/outbox.cif.g08.bks.cpg/sg47_3_cif.got.tgz:4136.got - 2010.06.03 20:15:42.
