data_PCOD9385923
_publ_section_title
;
Structure prediction by ZEFSAII (Michael W. Deem and Ramdas Pophale) SiO2 
 PCOD9385923
Probable space group: P M M M
;
_chemical_formula_sum "Si O2"
_cell_formula_units_Z 44
_cell_length_a 30.206210
_cell_length_b 9.283812
_cell_length_c 7.558112
_cell_angle_alpha 90.000000
_cell_angle_beta 90.000000
_cell_angle_gamma 90.000000
_cell_volume 2119.512089
_symmetry_space_group_name_H-M "P M M M"
_symmetry_group_IT_number 47
_symmetry_cell_setting 'orthorhombic'
loop_
_space_group_symop_operation_xyz
x,y,z
-x,-y,z
x,-y,-z
-x,y,-z
-x,-y,-z
x,y,-z
-x,y,z
x,-y,z
loop_
_atom_site_type_symbol
_atom_site_label
_atom_site_fract_x
_atom_site_fract_y
_atom_site_fract_z
Si Si1 0.324108 0.162760 0.712542
Si Si2 0.760705 0.335506 0.288918
Si Si3 0.142706 0.666602 0.212853
Si Si4 0.586783 0.663386 0.212306
Si Si5 0.500000 0.165872 0.783269
Si Si6 0.952337 0.326323 0.212875
O O1 0.319972 0.154528 0.500000
O O2 0.280047 0.242255 0.780597
O O3 0.367815 0.254450 0.749655
O O4 0.328285 0.000000 0.780632
O O5 0.755391 0.345614 0.500000
O O6 0.759545 0.500000 0.217882
O O7 0.809536 0.270104 0.258285
O O8 0.144573 0.500000 0.276344
O O9 0.095547 0.729000 0.276898
O O10 0.140246 0.663139 0.000000
O O11 0.587665 0.500000 0.280685
O O12 0.544131 0.751693 0.276285
O O13 0.582575 0.655675 0.000000
O O14 0.500000 0.000000 0.727086
O O15 0.500000 0.166020 0.000000
O O16 0.951564 0.500000 0.240461
O O17 0.000000 0.273230 0.282091
O O18 0.953215 0.305149 0.000000
#
# Coordination Sequence:
#
# PCOD9385923 Si02
#       6
#     8   8   8   8   4   8
#     4  10  21  36  52  70  94 125 161 200 241 284
#     4   9  17  29  44  61  84 115 147 181 227 280
#     4   8  13  21  35  56  80 107 142 181 217 260
#     4  10  20  34  54  79 104 130 161 196 234 278
#     4   9  17  31  52  77 106 137 164 192 230 275
#     4   7   9  14  26  46  73 104 136 170 210 257
#
# _framework density 20.759495000000001
#
# number of rings (size 3 to 8) (size 9 to 14) (size 15 to 20)
#    0.000    3.182    0.000    3.000    0.000    4.000 
#    0.000    2.273    0.000    3.273    0.000    3.818 
#    0.000    0.727    0.000    9.091    0.000    8.364 
#
# Total GULP energy -245164.635273 kJ/mol
# GULP energy per Si atom -5571.923529 kJ/mol
# Density = 2.071225 g / cm^3
# Si number density = 20.759495 Si / 1000 Ang^3
#
#
#
# Elastic Constant Matrix: (Units=GPa)
#
#
# Indices 1 2 3 4 5 6 
#
# 1 270.0079 101.0152 1.7812 0.0000 0.0000 0.0000
# 2 101.0152 110.5405 6.2363 0.0000 0.0000 0.0000
# 3 1.7812 6.2363 47.5893 0.0000 0.0000 0.0000
# 4 0.0000 0.0000 0.0000 7.7540 0.0000 0.0000
# 5 0.0000 0.0000 0.0000 0.0000 32.6317 0.0000
# 6 0.0000 0.0000 0.0000 0.0000 0.0000 -22.8846
#
#
#
# Elastic Compliance Matrix: (Units=1/GPa)
#
#
# Indices 1 2 3 4 5 6 
#
# 1 0.005638 -0.005178 0.000468 0.000000 0.000000 0.000000
# 2 -0.005178 0.013870 -0.001624 0.000000 0.000000 0.000000
# 3 0.000468 -0.001624 0.021208 0.000000 0.000000 0.000000
# 4 0.000000 0.000000 0.000000 0.128965 0.000000 0.000000
# 5 0.000000 0.000000 0.000000 0.000000 0.030645 0.000000
# 6 0.000000 0.000000 0.000000 0.000000 0.000000 -0.043698
#
#
# Mechanical properties :
#
#
# Convention : Reuss Voigt Hill
#
# Bulk Modulus (GPa) = 35.65411 71.80035 53.72723
# Shear Modulus (GPa) = 27.98811 24.77390 26.38100
#
# Velocity S-wave (km/s) = 3.67578 3.45828 3.56868
# Velocity P-wave (km/s) = 5.93526 7.11393 6.55116
#
# Compressibility (1/GPa) = 0.02804726
#
# Stress axis : x y z
#
# Youngs Moduli (GPa) = 177.37219 72.09664 47.15115
#
# Poissons Ratio (x) = 0.37335 -0.02205
# Poissons Ratio (y) = 0.91851 0.07656
# Poissons Ratio (z) = -0.08293 0.11707
#
# Static dielectric constant tensor:
#      x y z
#    x 1.780070 0.000000 0.000000 
#    y 0.000000 1.711310 0.000000 
#    z 0.000000 0.000000 1.788010 
# 
# From -- ./inp_files/13559.got.cif
#   From: 2010.05.17/outbox.cif.g08.bks.cpg/sg47_7_cif.got.tgz:13559.got - 2010.06.03 20:15:42.
