data_PCOD9385814
_publ_section_title
;
Structure prediction by ZEFSAII (Michael W. Deem and Ramdas Pophale) SiO2 
 PCOD9385814
Probable space group: P M M M
;
_chemical_formula_sum "Si O2"
_cell_formula_units_Z 48
_cell_length_a 9.300587
_cell_length_b 7.864700
_cell_length_c 32.103681
_cell_angle_alpha 90.000000
_cell_angle_beta 90.000000
_cell_angle_gamma 90.000000
_cell_volume 2348.266335
_symmetry_space_group_name_H-M "P M M M"
_symmetry_group_IT_number 47
_symmetry_cell_setting 'orthorhombic'
loop_
_space_group_symop_operation_xyz
x,y,z
-x,-y,z
x,-y,-z
-x,y,-z
-x,-y,-z
x,y,-z
-x,y,z
x,-y,z
loop_
_atom_site_type_symbol
_atom_site_label
_atom_site_fract_x
_atom_site_fract_y
_atom_site_fract_z
Si Si1 0.834395 0.791570 0.247401
Si Si2 0.662353 0.203040 0.671620
Si Si3 0.664055 0.204915 0.834683
Si Si4 0.835802 0.704881 0.917866
Si Si5 0.666010 0.708243 0.000000
Si Si6 0.835472 0.298292 0.409982
Si Si7 0.835527 0.797547 0.500000
O O1 0.756068 0.732759 0.289508
O O2 0.747079 0.735670 0.206632
O O3 0.000000 0.737000 0.245979
O O4 0.834779 0.000000 0.247479
O O5 0.500000 0.271928 0.671679
O O6 0.741365 0.233460 0.628065
O O7 0.652772 0.000000 0.677184
O O8 0.500000 0.268467 0.836390
O O9 0.751420 0.250365 0.875992
O O10 0.658218 0.000000 0.832250
O O11 0.841687 0.500000 0.920529
O O12 0.749419 0.764824 0.958573
O O13 0.000000 0.768422 0.917049
O O14 0.665982 0.500000 0.000000
O O15 0.500000 0.762586 0.000000
O O16 0.843857 0.500000 0.406274
O O17 0.772789 0.257453 0.455719
O O18 0.000000 0.228551 0.407898
O O19 0.000000 0.727583 0.500000
O O20 0.841074 0.000000 0.500000
#
# Coordination Sequence:
#
# PCOD9385814 Si02
#       7
#     8   8   8   8   4   8   4
#     4   9  17  31  53  78 103 134 172 213 257 306
#     4  10  20  34  53  77 104 135 173 215 256 302
#     4  10  20  34  53  78 108 140 173 212 260 312
#     4  10  20  34  53  77 104 135 173 216 260 309
#     4   9  17  31  52  75 100 133 172 214 262 315
#     4  10  20  34  53  78 108 140 173 212 260 311
#     4   9  17  31  54  81 106 135 174 218 260 305
#
# _framework density 20.440612000000002
#
# number of rings (size 3 to 8) (size 9 to 14) (size 15 to 20)
#    0.000    2.333    0.000    3.000    0.000    8.000 
#    0.000    1.667    0.000   10.000    0.000    0.000 
#    0.000    0.000    0.000    0.000    0.000    0.000 
#
# Total GULP energy -268045.746827 kJ/mol
# GULP energy per Si atom -5584.286392 kJ/mol
# Density = 2.039409 g / cm^3
# Si number density = 20.440612 Si / 1000 Ang^3
#
#
#
# Elastic Constant Matrix: (Units=GPa)
#
#
# Indices 1 2 3 4 5 6 
#
# 1 200.1032 8.1867 131.4468 0.0000 0.0000 0.0000
# 2 8.1867 21.4902 -1.0448 0.0000 0.0000 0.0000
# 3 131.4468 -1.0448 229.0066 0.0000 0.0000 0.0000
# 4 0.0000 0.0000 0.0000 34.7215 0.0000 0.0000
# 5 0.0000 0.0000 0.0000 0.0000 -63.6690 0.0000
# 6 0.0000 0.0000 0.0000 0.0000 0.0000 13.6918
#
#
#
# Elastic Compliance Matrix: (Units=1/GPa)
#
#
# Indices 1 2 3 4 5 6 
#
# 1 0.008260 -0.003378 -0.004757 0.000000 0.000000 0.000000
# 2 -0.003378 0.047925 0.002158 0.000000 0.000000 0.000000
# 3 -0.004757 0.002158 0.007107 0.000000 0.000000 0.000000
# 4 0.000000 0.000000 0.000000 0.028801 0.000000 0.000000
# 5 0.000000 0.000000 0.000000 0.000000 -0.015706 0.000000
# 6 0.000000 0.000000 0.000000 0.000000 0.000000 0.073036
#
#
# Mechanical properties :
#
#
# Convention : Reuss Voigt Hill
#
# Bulk Modulus (GPa) = 19.47899 80.86415 50.17157
# Shear Modulus (GPa) = 28.01292 17.74962 22.88127
#
# Velocity S-wave (km/s) = 3.70598 2.94998 3.34938
# Velocity P-wave (km/s) = 5.27851 7.15888 6.28936
#
# Compressibility (1/GPa) = 0.05133737
#
# Stress axis : x y z
#
# Youngs Moduli (GPa) = 121.06124 20.86614 140.70991
#
# Poissons Ratio (x) = 0.07049 0.66932
# Poissons Ratio (y) = 0.40895 -0.30359
# Poissons Ratio (z) = 0.57585 -0.04502
#
# Static dielectric constant tensor:
#      x y z
#    x 1.717520 0.000000 0.000000 
#    y 0.000000 1.753250 0.000000 
#    z 0.000000 0.000000 1.694030 
# 
# From -- ./inp_files/13936.got.cif
#   From: 2010.05.17/outbox.cif.g08.bks.cpg/sg47_7_cif.got.tgz:13936.got - 2010.06.03 20:15:42.
