data_PCOD9385802
_publ_section_title
;
Structure prediction by ZEFSAII (Michael W. Deem and Ramdas Pophale) SiO2 
 PCOD9385802
Probable space group: P M M M
;
_chemical_formula_sum "Si O2"
_cell_formula_units_Z 40
_cell_length_a 7.477404
_cell_length_b 27.478290
_cell_length_c 8.618508
_cell_angle_alpha 90.000000
_cell_angle_beta 90.000000
_cell_angle_gamma 90.000000
_cell_volume 1770.812740
_symmetry_space_group_name_H-M "P M M M"
_symmetry_group_IT_number 47
_symmetry_cell_setting 'orthorhombic'
loop_
_space_group_symop_operation_xyz
x,y,z
-x,-y,z
x,-y,-z
-x,y,-z
-x,-y,-z
x,y,-z
-x,y,z
x,-y,z
loop_
_atom_site_type_symbol
_atom_site_label
_atom_site_fract_x
_atom_site_fract_y
_atom_site_fract_z
Si Si1 0.214341 0.399174 0.173509
Si Si2 0.784051 0.057386 0.000000
Si Si3 0.791274 0.898918 0.672928
Si Si4 0.713962 0.703430 0.327029
Si Si5 0.781216 0.500000 0.678517
Si Si6 0.716688 0.801216 0.826354
O O1 0.250646 0.351010 0.270962
O O2 0.280551 0.450096 0.242636
O O3 0.000000 0.403739 0.166416
O O4 0.283584 0.392043 0.000000
O O5 0.716123 0.078736 0.834628
O O6 0.000000 0.065664 0.000000
O O7 0.751109 0.000000 0.000000
O O8 0.717330 0.910558 0.500000
O O9 0.778322 0.841126 0.703281
O O10 0.000000 0.913314 0.668517
O O11 0.784936 0.710434 0.500000
O O12 0.500000 0.708494 0.332349
O O13 0.777576 0.746868 0.216614
O O14 0.728625 0.500000 0.500000
O O15 0.000000 0.500000 0.684029
O O16 0.500000 0.802094 0.826417
O O17 0.777404 0.814470 0.000000
#
# Coordination Sequence:
#
# PCOD9385802 Si02
#       6
#     8   4   8   8   4   8
#     4  10  20  34  53  77 103 133 170 212 259 312
#     4   9  18  34  55  81 115 149 181 224 273 318
#     4  10  20  34  55  83 112 144 183 226 271 319
#     4  10  21  36  53  75 104 137 174 217 264 316
#     4   9  17  31  52  75 100 131 166 208 258 311
#     4  10  20  35  56  79 105 142 182 220 269 325
#
# _framework density 22.588498000000001
#
# number of rings (size 3 to 8) (size 9 to 14) (size 15 to 20)
#    0.000    2.200    1.000    2.100    0.000    6.000 
#    0.000    2.500    0.000    4.200    0.000    1.400 
#    0.000    0.000    0.000    0.000    0.000    0.000 
#
# Total GULP energy -223375.499234 kJ/mol
# GULP energy per Si atom -5584.387481 kJ/mol
# Density = 2.253709 g / cm^3
# Si number density = 22.588498 Si / 1000 Ang^3
#
#
#
# Elastic Constant Matrix: (Units=GPa)
#
#
# Indices 1 2 3 4 5 6 
#
# 1 64.9397 -5.1185 8.8559 0.0000 0.0000 0.0000
# 2 -5.1185 104.8736 52.1298 0.0000 0.0000 0.0000
# 3 8.8559 52.1298 177.5192 0.0000 0.0000 0.0000
# 4 0.0000 0.0000 0.0000 20.3409 0.0000 0.0000
# 5 0.0000 0.0000 0.0000 0.0000 6.7003 0.0000
# 6 0.0000 0.0000 0.0000 0.0000 0.0000 23.1176
#
#
#
# Elastic Compliance Matrix: (Units=1/GPa)
#
#
# Indices 1 2 3 4 5 6 
#
# 1 0.015666 0.001350 -0.001178 0.000000 0.000000 0.000000
# 2 0.001350 0.011281 -0.003380 0.000000 0.000000 0.000000
# 3 -0.001178 -0.003380 0.006685 0.000000 0.000000 0.000000
# 4 0.000000 0.000000 0.000000 0.049162 0.000000 0.000000
# 5 0.000000 0.000000 0.000000 0.000000 0.149247 0.000000
# 6 0.000000 0.000000 0.000000 0.000000 0.000000 0.043257
#
#
# Mechanical properties :
#
#
# Convention : Reuss Voigt Hill
#
# Bulk Modulus (GPa) = 36.74333 51.00741 43.87537
# Shear Modulus (GPa) = 17.19475 29.46278 23.32877
#
# Velocity S-wave (km/s) = 2.76201 3.61546 3.21716
# Velocity P-wave (km/s) = 5.14522 6.32921 5.76768
#
# Compressibility (1/GPa) = 0.02721583
#
# Stress axis : x y z
#
# Youngs Moduli (GPa) = 63.83259 88.64151 149.59791
#
# Poissons Ratio (x) = -0.11968 0.17623
# Poissons Ratio (y) = -0.08618 0.50567
# Poissons Ratio (z) = 0.07520 0.29963
#
# Static dielectric constant tensor:
#      x y z
#    x 1.872550 0.000000 0.000000 
#    y 0.000000 1.818900 0.000000 
#    z 0.000000 0.000000 1.843860 
# 
# From -- ./inp_files/1791.got.cif
#   From: 2010.05.17/outbox.cif.g08.bks.cpg/sg47_1_cif.got.tgz:1791.got - 2010.06.03 20:15:42.
