data_PCOD9385680
_publ_section_title
;
Structure prediction by ZEFSAII (Michael W. Deem and Ramdas Pophale) SiO2 
 PCOD9385680
Probable space group: P M M M
;
_chemical_formula_sum "Si O2"
_cell_formula_units_Z 52
_cell_length_a 8.586487
_cell_length_b 18.098045
_cell_length_c 18.792033
_cell_angle_alpha 90.000000
_cell_angle_beta 90.000000
_cell_angle_gamma 90.000000
_cell_volume 2920.256148
_symmetry_space_group_name_H-M "P M M M"
_symmetry_group_IT_number 47
_symmetry_cell_setting 'orthorhombic'
loop_
_space_group_symop_operation_xyz
x,y,z
-x,-y,z
x,-y,-z
-x,y,-z
-x,-y,-z
x,y,-z
-x,y,z
x,-y,z
loop_
_atom_site_type_symbol
_atom_site_label
_atom_site_fract_x
_atom_site_fract_y
_atom_site_fract_z
Si Si1 0.322720 0.313873 0.628034
Si Si2 0.185387 0.588084 0.500000
Si Si3 0.683429 0.646736 0.850986
Si Si4 0.314560 0.144867 0.000000
Si Si5 0.814916 0.085657 0.851074
Si Si6 0.313616 0.789008 0.249051
Si Si7 0.172389 0.417221 0.727601
Si Si8 0.815324 0.690618 0.000000
O O1 0.500000 0.299650 0.605582
O O2 0.236454 0.359687 0.566267
O O3 0.262058 0.241605 0.672357
O O4 0.311275 0.373795 0.690835
O O5 0.242359 0.500000 0.500000
O O6 0.000000 0.582381 0.500000
O O7 0.500000 0.630832 0.846814
O O8 0.714576 0.723823 0.808647
O O9 0.788686 0.587580 0.810198
O O10 0.737958 0.656575 0.930562
O O11 0.267122 0.104742 0.926412
O O12 0.226252 0.222705 0.000000
O O13 0.500000 0.157167 0.000000
O O14 0.760132 0.138943 0.786951
O O15 0.000000 0.095673 0.861259
O O16 0.784108 0.000000 0.834015
O O17 0.500000 0.798619 0.254159
O O18 0.170068 0.500000 0.700640
O O19 0.000000 0.384596 0.713345
O O20 0.000000 0.681003 0.000000
#
# Coordination Sequence:
#
# PCOD9385680 Si02
#       8
#     8   4   8   4   8   8   8   4
#     4  10  21  36  56  81 110 143 181 220 260 314
#     4  11  23  37  55  85 122 153 182 217 263 322
#     4  10  20  34  52  73  97 128 172 220 264 319
#     4  12  23  35  52  74 105 143 182 225 277 334
#     4  11  23  36  52  78 110 143 182 228 277 329
#     4   9  19  35  54  76 103 137 178 220 262 317
#     4  10  20  34  52  75 103 135 172 215 263 314
#     4  12  22  33  52  73  96 130 170 218 272 321
#
# _framework density 17.806657000000001
#
# number of rings (size 3 to 8) (size 9 to 14) (size 15 to 20)
#    0.000    1.615    1.538    5.077    0.000    8.923 
#    0.000    0.385    0.000    2.308    0.000    0.538 
#    0.000    4.308    0.000    0.000    0.000    0.000 
#
# Total GULP energy -289608.416093 kJ/mol
# GULP energy per Si atom -5569.392617 kJ/mol
# Density = 1.776613 g / cm^3
# Si number density = 17.806657 Si / 1000 Ang^3
#
#
#
# Elastic Constant Matrix: (Units=GPa)
#
#
# Indices 1 2 3 4 5 6 
#
# 1 47.4132 10.4984 13.4467 0.0000 0.0000 0.0000
# 2 10.4984 53.2523 28.7133 0.0000 0.0000 0.0000
# 3 13.4467 28.7133 106.0547 0.0000 0.0000 0.0000
# 4 0.0000 0.0000 0.0000 1.5177 0.0000 0.0000
# 5 0.0000 0.0000 0.0000 0.0000 2.3843 0.0000
# 6 0.0000 0.0000 0.0000 0.0000 0.0000 -4.4033
#
#
#
# Elastic Compliance Matrix: (Units=1/GPa)
#
#
# Indices 1 2 3 4 5 6 
#
# 1 0.022384 -0.003375 -0.001924 0.000000 0.000000 0.000000
# 2 -0.003375 0.022497 -0.005663 0.000000 0.000000 0.000000
# 3 -0.001924 -0.005663 0.011206 0.000000 0.000000 0.000000
# 4 0.000000 0.000000 0.000000 0.658910 0.000000 0.000000
# 5 0.000000 0.000000 0.000000 0.000000 0.419415 0.000000
# 6 0.000000 0.000000 0.000000 0.000000 0.000000 -0.227100
#
#
# Mechanical properties :
#
#
# Convention : Reuss Voigt Hill
#
# Bulk Modulus (GPa) = 29.27169 34.67078 31.97124
# Shear Modulus (GPa) = 5.31562 10.17050 7.74306
#
# Velocity S-wave (km/s) = 1.72964 2.39249 2.08755
# Velocity P-wave (km/s) = 4.52363 5.21009 4.87894
#
# Compressibility (1/GPa) = 0.03416270
#
# Stress axis : x y z
#
# Youngs Moduli (GPa) = 44.67417 44.44950 89.23573
#
# Poissons Ratio (x) = 0.15003 0.17171
# Poissons Ratio (y) = 0.15079 0.50534
# Poissons Ratio (z) = 0.08596 0.25172
#
# Static dielectric constant tensor:
#      x y z
#    x 1.621870 0.000000 0.000000 
#    y 0.000000 1.636610 0.000000 
#    z 0.000000 0.000000 1.680950 
# 
# From -- ./inp_files/9606.got.cif
#   From: 2010.05.17/outbox.cif.g08.bks.cpg/sg47_5_cif.got.tgz:9606.got - 2010.06.03 20:15:42.
