data_PCOD9385889
_publ_section_title
;
Structure prediction by ZEFSAII (Michael W. Deem and Ramdas Pophale) SiO2 
 PCOD9385889
Probable space group: P M M M
;
_chemical_formula_sum "Si O2"
_cell_formula_units_Z 52
_cell_length_a 15.547955
_cell_length_b 7.552364
_cell_length_c 20.923686
_cell_angle_alpha 90.000000
_cell_angle_beta 90.000000
_cell_angle_gamma 90.000000
_cell_volume 2456.939047
_symmetry_space_group_name_H-M "P M M M"
_symmetry_group_IT_number 47
_symmetry_cell_setting 'orthorhombic'
loop_
_space_group_symop_operation_xyz
x,y,z
-x,-y,z
x,-y,-z
-x,y,-z
-x,-y,-z
x,y,-z
-x,y,z
x,-y,z
loop_
_atom_site_type_symbol
_atom_site_label
_atom_site_fract_x
_atom_site_fract_y
_atom_site_fract_z
Si Si1 0.402676 0.215815 0.573189
Si Si2 0.098822 0.783463 0.268889
Si Si3 0.653198 0.702776 0.071804
Si Si4 0.000000 0.300227 0.925225
Si Si5 0.827137 0.799997 0.133618
Si Si6 0.406710 0.206906 0.789756
Si Si7 0.725154 0.783612 0.683637
O O1 0.386538 0.270443 0.500000
O O2 0.500000 0.269675 0.590995
O O3 0.331722 0.274750 0.623649
O O4 0.402144 0.000000 0.573909
O O5 0.140591 0.726649 0.201338
O O6 0.174703 0.730106 0.317302
O O7 0.000000 0.723294 0.277090
O O8 0.094603 0.000000 0.267138
O O9 0.624714 0.500000 0.068638
O O10 0.753385 0.707694 0.092759
O O11 0.607504 0.781529 0.134147
O O12 0.642393 0.779339 0.000000
O O13 0.085239 0.200641 0.905209
O O14 0.000000 0.500000 0.897200
O O15 0.000000 0.316967 0.000000
O O16 0.794659 0.000000 0.145197
O O17 0.500000 0.285988 0.773635
O O18 0.326928 0.275579 0.747618
O O19 0.410930 0.000000 0.773303
O O20 0.726768 0.000000 0.684058
#
# Coordination Sequence:
#
# PCOD9385889 Si02
#       7
#     8   8   8   4   8   8   8
#     4   8  13  21  36  63  99 135 166 196 241 303
#     4   9  16  27  45  68  91 118 158 205 249 293
#     4  11  24  39  52  68  96 132 165 204 262 323
#     4  11  23  35  47  69 101 131 160 203 266 328
#     4  11  20  34  54  73  93 123 168 216 260 309
#     4  10  20  34  54  77  96 122 168 218 258 302
#     4   9  15  26  45  68  97 128 160 206 255 293
#
# _framework density 21.164546999999999
#
# number of rings (size 3 to 8) (size 9 to 14) (size 15 to 20)
#    0.000    2.231    2.308    2.538    0.000    6.154 
#    0.000    1.538    0.000    0.462    0.000    3.231 
#    0.000    0.615    0.000    3.231    0.000    5.692 
#
# Total GULP energy -289993.811597 kJ/mol
# GULP energy per Si atom -5576.804069 kJ/mol
# Density = 2.111638 g / cm^3
# Si number density = 21.164547 Si / 1000 Ang^3
#
#
#
# Elastic Constant Matrix: (Units=GPa)
#
#
# Indices 1 2 3 4 5 6 
#
# 1 153.1166 0.3866 68.0105 0.0000 0.0000 0.0000
# 2 0.3866 51.6949 -2.4437 0.0000 0.0000 0.0000
# 3 68.0105 -2.4437 108.7154 0.0000 0.0000 0.0000
# 4 0.0000 0.0000 0.0000 52.0254 0.0000 0.0000
# 5 0.0000 0.0000 0.0000 0.0000 32.4183 0.0000
# 6 0.0000 0.0000 0.0000 0.0000 0.0000 -18.9557
#
#
#
# Elastic Compliance Matrix: (Units=1/GPa)
#
#
# Indices 1 2 3 4 5 6 
#
# 1 0.009050 -0.000336 -0.005669 0.000000 0.000000 0.000000
# 2 -0.000336 0.019377 0.000646 0.000000 0.000000 0.000000
# 3 -0.005669 0.000646 0.012759 0.000000 0.000000 0.000000
# 4 0.000000 0.000000 0.000000 0.019221 0.000000 0.000000
# 5 0.000000 0.000000 0.000000 0.000000 0.030847 0.000000
# 6 0.000000 0.000000 0.000000 0.000000 0.000000 -0.052754
#
#
# Mechanical properties :
#
#
# Convention : Reuss Voigt Hill
#
# Bulk Modulus (GPa) = 32.82110 49.49264 41.15687
# Shear Modulus (GPa) = 84.21169 29.60251 56.90710
#
# Velocity S-wave (km/s) = 6.31470 3.74396 5.19098
# Velocity P-wave (km/s) = 8.28906 6.49038 7.44424
#
# Compressibility (1/GPa) = 0.03046820
#
# Stress axis : x y z
#
# Youngs Moduli (GPa) = 110.49938 51.60684 78.37454
#
# Poissons Ratio (x) = 0.01732 0.44430
# Poissons Ratio (y) = 0.03709 -0.05060
# Poissons Ratio (z) = 0.62642 -0.03332
#
# Static dielectric constant tensor:
#      x y z
#    x 1.762140 0.000000 0.000000 
#    y 0.000000 1.883510 0.000000 
#    z 0.000000 0.000000 1.757590 
# 
# From -- ./inp_files/30852.got.cif
#   From: 2010.05.17/outbox.cif.g08.bks.cpg/sg47_16_cif.got.tgz:30852.got - 2010.06.03 20:15:42.
