data_PCOD9385513
_publ_section_title
;
Structure prediction by ZEFSAII (Michael W. Deem and Ramdas Pophale) SiO2 
 PCOD9385513
Probable space group: P M M M
;
_chemical_formula_sum "Si O2"
_cell_formula_units_Z 56
_cell_length_a 20.003966
_cell_length_b 7.699435
_cell_length_c 16.583264
_cell_angle_alpha 90.000000
_cell_angle_beta 90.000000
_cell_angle_gamma 90.000000
_cell_volume 2554.141651
_symmetry_space_group_name_H-M "P M M M"
_symmetry_group_IT_number 47
_symmetry_cell_setting 'orthorhombic'
loop_
_space_group_symop_operation_xyz
x,y,z
-x,-y,z
x,-y,-z
-x,y,-z
-x,-y,-z
x,y,-z
-x,y,z
x,-y,z
loop_
_atom_site_type_symbol
_atom_site_label
_atom_site_fract_x
_atom_site_fract_y
_atom_site_fract_z
Si Si1 0.075211 0.804482 0.238113
Si Si2 0.717073 0.287655 0.590322
Si Si3 0.711060 0.297316 0.086982
Si Si4 0.425299 0.708505 0.657448
Si Si5 0.780293 0.700542 0.242773
Si Si6 0.425477 0.792498 0.846583
Si Si7 0.079938 0.303285 0.586574
O O1 0.142342 0.706325 0.215309
O O2 0.086310 0.809002 0.334644
O O3 0.000000 0.731984 0.224162
O O4 0.076497 0.000000 0.206038
O O5 0.736231 0.229682 0.500000
O O6 0.718983 0.500000 0.588368
O O7 0.640446 0.232901 0.609461
O O8 0.762084 0.230603 0.667516
O O9 0.731698 0.500000 0.085586
O O10 0.740903 0.215319 0.168391
O O11 0.631944 0.288875 0.099940
O O12 0.729458 0.220824 0.000000
O O13 0.500000 0.773858 0.634779
O O14 0.426956 0.500000 0.648885
O O15 0.414830 0.749639 0.751958
O O16 0.758652 0.500000 0.247841
O O17 0.500000 0.732679 0.867312
O O18 0.422521 0.000000 0.855651
O O19 0.105027 0.240781 0.500000
O O20 0.106861 0.500000 0.600638
O O21 0.000000 0.320394 0.579408
#
# Coordination Sequence:
#
# PCOD9385513 Si02
#       7
#     8   8   8   8   8   8   8
#     4  10  21  35  52  76 104 135 172 216 268 325
#     4   9  17  30  50  78 109 140 179 226 272 316
#     4  10  21  38  60  84 109 140 180 223 268 319
#     4   9  16  29  51  76 105 143 187 231 273 314
#     4  10  20  36  56  79 108 140 175 218 270 325
#     4  10  20  33  52  80 114 149 184 224 270 318
#     4   8  14  26  45  69  97 130 169 211 254 303
#
# _framework density 21.925173999999998
#
# number of rings (size 3 to 8) (size 9 to 14) (size 15 to 20)
#    0.000    2.571    1.429    1.286    0.000    4.000 
#    0.000    5.714    0.000    1.714    0.000    5.000 
#    0.000    0.000    0.000    0.000    0.000    0.000 
#
# Total GULP energy -312019.922297 kJ/mol
# GULP energy per Si atom -5571.784327 kJ/mol
# Density = 2.187527 g / cm^3
# Si number density = 21.925174 Si / 1000 Ang^3
#
#
#
# Elastic Constant Matrix: (Units=GPa)
#
#
# Indices 1 2 3 4 5 6 
#
# 1 119.3532 -1.7135 51.9257 0.0000 0.0000 0.0000
# 2 -1.7135 34.1567 4.1163 0.0000 0.0000 0.0000
# 3 51.9257 4.1163 113.0274 0.0000 0.0000 0.0000
# 4 0.0000 0.0000 0.0000 -6.6581 0.0000 0.0000
# 5 0.0000 0.0000 0.0000 0.0000 4.0081 0.0000
# 6 0.0000 0.0000 0.0000 0.0000 0.0000 23.7164
#
#
#
# Elastic Compliance Matrix: (Units=1/GPa)
#
#
# Indices 1 2 3 4 5 6 
#
# 1 0.010513 0.001114 -0.004871 0.000000 0.000000 0.000000
# 2 0.001114 0.029524 -0.001587 0.000000 0.000000 0.000000
# 3 -0.004871 -0.001587 0.011143 0.000000 0.000000 0.000000
# 4 0.000000 0.000000 0.000000 -0.150193 0.000000 0.000000
# 5 0.000000 0.000000 0.000000 0.000000 0.249497 0.000000
# 6 0.000000 0.000000 0.000000 0.000000 0.000000 0.042165
#
#
# Mechanical properties :
#
#
# Convention : Reuss Voigt Hill
#
# Bulk Modulus (GPa) = 24.69529 41.68825 33.19177
# Shear Modulus (GPa) = 23.05910 18.36052 20.70981
#
# Velocity S-wave (km/s) = 3.24654 2.89696 3.07672
# Velocity P-wave (km/s) = 5.03401 5.49954 5.27192
#
# Compressibility (1/GPa) = 0.04049356
#
# Stress axis : x y z
#
# Youngs Moduli (GPa) = 95.11603 33.87076 89.74411
#
# Poissons Ratio (x) = -0.03775 0.43710
# Poissons Ratio (y) = -0.10600 0.14244
# Poissons Ratio (z) = 0.46327 0.05376
#
# Static dielectric constant tensor:
#      x y z
#    x 1.857660 0.000000 0.000000 
#    y 0.000000 1.848760 0.000000 
#    z 0.000000 0.000000 1.825750 
# 
# From -- ./inp_files/9875.got.cif
#   From: 2010.05.17/outbox.cif.g08.bks.cpg/sg47_5_cif.got.tgz:9875.got - 2010.06.03 20:15:42.
