data_PCOD9385594
_publ_section_title
;
Structure prediction by ZEFSAII (Michael W. Deem and Ramdas Pophale) SiO2 
 PCOD9385594
Probable space group: P M M M
;
_chemical_formula_sum "Si O2"
_cell_formula_units_Z 44
_cell_length_a 13.915175
_cell_length_b 10.078514
_cell_length_c 18.405098
_cell_angle_alpha 90.000000
_cell_angle_beta 90.000000
_cell_angle_gamma 90.000000
_cell_volume 2581.209829
_symmetry_space_group_name_H-M "P M M M"
_symmetry_group_IT_number 47
_symmetry_cell_setting 'orthorhombic'
loop_
_space_group_symop_operation_xyz
x,y,z
-x,-y,z
x,-y,-z
-x,y,-z
-x,-y,-z
x,y,-z
-x,y,z
x,-y,z
loop_
_atom_site_type_symbol
_atom_site_label
_atom_site_fract_x
_atom_site_fract_y
_atom_site_fract_z
Si Si1 0.110025 0.660827 0.418082
Si Si2 0.116348 0.844770 0.840610
Si Si3 0.109779 0.160581 0.000000
Si Si4 0.616648 0.000000 0.084152
Si Si5 0.221703 0.338706 0.725662
Si Si6 0.616309 0.500000 0.080958
Si Si7 0.614693 0.253404 0.180909
O O1 0.134383 0.705505 0.500000
O O2 0.108471 0.500000 0.419527
O O3 0.182866 0.697002 0.354286
O O4 0.000000 0.703272 0.401614
O O5 0.154821 0.739589 0.782936
O O6 0.000000 0.842412 0.841696
O O7 0.143017 0.000000 0.826213
O O8 0.151755 0.805148 0.921700
O O9 0.000000 0.211093 0.000000
O O10 0.104899 0.000000 0.000000
O O11 0.641606 0.875289 0.134257
O O12 0.500000 0.000000 0.077559
O O13 0.653266 0.000000 0.000000
O O14 0.218893 0.500000 0.733439
O O15 0.326458 0.281618 0.746061
O O16 0.500000 0.500000 0.075211
O O17 0.641312 0.373066 0.127487
O O18 0.656314 0.500000 0.000000
O O19 0.500000 0.251989 0.193219
#
# Coordination Sequence:
#
# PCOD9385594 Si02
#       7
#     8   8   4   4   8   4   8
#     4   8  15  30  53  78 102 128 160 202 251 303
#     4   9  18  33  51  70  95 130 168 208 250 294
#     4   7  12  28  49  63  84 125 170 200 232 282
#     4   9  18  34  54  72  92 127 182 236 264 287
#     4  11  21  32  49  77 103 130 165 205 251 307
#     4   9  16  30  50  66  92 135 172 206 258 313
#     4  10  20  34  49  71 101 135 172 213 262 302
#
# _framework density 17.04627
#
# number of rings (size 3 to 8) (size 9 to 14) (size 15 to 20)
#    0.000    2.818    0.909    2.727    1.273    3.273 
#    3.273    0.455    0.000    2.727    0.000    5.091 
#    0.000    2.182    0.000    0.000    0.000    0.000 
#
# Total GULP energy -245046.158059 kJ/mol
# GULP energy per Si atom -5569.230865 kJ/mol
# Density = 1.700747 g / cm^3
# Si number density = 17.046270 Si / 1000 Ang^3
#
#
#
# Elastic Constant Matrix: (Units=GPa)
#
#
# Indices 1 2 3 4 5 6 
#
# 1 86.2751 27.8786 61.9567 0.0000 0.0000 0.0000
# 2 27.8786 87.0907 45.5854 0.0000 0.0000 0.0000
# 3 61.9567 45.5854 150.8651 0.0000 0.0000 0.0000
# 4 0.0000 0.0000 0.0000 0.0562 0.0000 0.0000
# 5 0.0000 0.0000 0.0000 0.0000 18.0022 0.0000
# 6 0.0000 0.0000 0.0000 0.0000 0.0000 11.7415
#
#
#
# Elastic Compliance Matrix: (Units=1/GPa)
#
#
# Indices 1 2 3 4 5 6 
#
# 1 0.016754 -0.002093 -0.006248 0.000000 0.000000 0.000000
# 2 -0.002093 0.013901 -0.003341 0.000000 0.000000 0.000000
# 3 -0.006248 -0.003341 0.010204 0.000000 0.000000 0.000000
# 4 0.000000 0.000000 0.000000 17.803816 0.000000 0.000000
# 5 0.000000 0.000000 0.000000 0.000000 0.055549 0.000000
# 6 0.000000 0.000000 0.000000 0.000000 0.000000 0.085168
#
#
# Mechanical properties :
#
#
# Convention : Reuss Voigt Hill
#
# Bulk Modulus (GPa) = 57.15804 66.11915 61.63860
# Shear Modulus (GPa) = 0.27755 18.54732 9.41244
#
# Velocity S-wave (km/s) = 0.40395 3.30215 2.35238
# Velocity P-wave (km/s) = 5.81562 7.30830 6.60427
#
# Compressibility (1/GPa) = 0.01749535
#
# Stress axis : x y z
#
# Youngs Moduli (GPa) = 59.68706 71.93798 98.00181
#
# Poissons Ratio (x) = 0.15054 0.61233
# Poissons Ratio (y) = 0.12491 0.32741
# Poissons Ratio (z) = 0.37293 0.24034
#
# Static dielectric constant tensor:
#      x y z
#    x 1.639580 0.000000 0.000000 
#    y 0.000000 1.585730 0.000000 
#    z 0.000000 0.000000 1.578940 
# 
# From -- ./inp_files/27948.got.cif
#   From: 2010.05.17/outbox.cif.g08.bks.cpg/sg47_14_cif.got.tgz:27948.got - 2010.06.03 20:15:42.
