data_PCOD9385954
_publ_section_title
;
Structure prediction by ZEFSAII (Michael W. Deem and Ramdas Pophale) SiO2 
 PCOD9385954
Probable space group: P M M M
;
_chemical_formula_sum "Si O2"
_cell_formula_units_Z 48
_cell_length_a 7.773460
_cell_length_b 31.807273
_cell_length_c 9.421035
_cell_angle_alpha 90.000000
_cell_angle_beta 90.000000
_cell_angle_gamma 90.000000
_cell_volume 2329.375063
_symmetry_space_group_name_H-M "P M M M"
_symmetry_group_IT_number 47
_symmetry_cell_setting 'orthorhombic'
loop_
_space_group_symop_operation_xyz
x,y,z
-x,-y,z
x,-y,-z
-x,y,-z
-x,-y,-z
x,y,-z
-x,y,z
x,-y,z
loop_
_atom_site_type_symbol
_atom_site_label
_atom_site_fract_x
_atom_site_fract_y
_atom_site_fract_z
Si Si1 0.704842 0.161581 0.161605
Si Si2 0.207401 0.664692 0.338815
Si Si3 0.788855 0.000000 0.163157
Si Si4 0.206778 0.255688 0.837828
Si Si5 0.205039 0.919578 0.340030
Si Si6 0.292985 0.581740 0.837936
Si Si7 0.289274 0.500000 0.335988
O O1 0.500000 0.158952 0.155085
O O2 0.751516 0.208526 0.210801
O O3 0.766531 0.124543 0.262348
O O4 0.773630 0.156557 0.000000
O O5 0.271922 0.660252 0.500000
O O6 0.271369 0.707186 0.262843
O O7 0.250437 0.624475 0.243757
O O8 0.000000 0.667396 0.345454
O O9 0.729742 0.041696 0.245428
O O10 0.000000 0.000000 0.162029
O O11 0.733167 0.000000 0.000000
O O12 0.000000 0.259127 0.843182
O O13 0.271905 0.260407 0.000000
O O14 0.275453 0.919793 0.500000
O O15 0.000000 0.925674 0.350088
O O16 0.500000 0.578519 0.844703
O O17 0.231988 0.541567 0.747944
O O18 0.227983 0.581830 0.000000
O O19 0.500000 0.500000 0.336726
O O20 0.234009 0.500000 0.500000
#
# Coordination Sequence:
#
# PCOD9385954 Si02
#       7
#     8   8   4   8   8   8   4
#     4  10  21  36  54  78 108 140 175 216 261 310
#     4  10  21  36  54  78 108 139 172 214 264 315
#     4   9  17  31  54  81 106 135 174 218 260 305
#     4   9  18  34  55  76 101 137 178 217 258 308
#     4  10  20  34  54  80 109 140 175 216 261 309
#     4  10  20  34  54  79 106 138 177 218 259 307
#     4   9  17  31  52  77 106 139 174 214 260 309
#
# _framework density 20.606383999999998
#
# number of rings (size 3 to 8) (size 9 to 14) (size 15 to 20)
#    0.000    2.333    0.000    2.500    0.000    7.333 
#    0.000    4.167    0.000    5.000    0.000    0.000 
#    0.000    0.000    0.000    0.000    0.000    0.000 
#
# Total GULP energy -268106.429020 kJ/mol
# GULP energy per Si atom -5585.550605 kJ/mol
# Density = 2.055948 g / cm^3
# Si number density = 20.606384 Si / 1000 Ang^3
#
#
#
# Elastic Constant Matrix: (Units=GPa)
#
#
# Indices 1 2 3 4 5 6 
#
# 1 26.7524 -1.8648 7.9395 0.0000 0.0000 0.0000
# 2 -1.8648 212.6672 148.9009 0.0000 0.0000 0.0000
# 3 7.9395 148.9009 204.8518 0.0000 0.0000 0.0000
# 4 0.0000 0.0000 0.0000 35.5156 0.0000 0.0000
# 5 0.0000 0.0000 0.0000 0.0000 13.7236 0.0000
# 6 0.0000 0.0000 0.0000 0.0000 0.0000 26.6633
#
#
#
# Elastic Compliance Matrix: (Units=1/GPa)
#
#
# Indices 1 2 3 4 5 6 
#
# 1 0.038630 0.002824 -0.003550 0.000000 0.000000 0.000000
# 2 0.002824 0.009782 -0.007220 0.000000 0.000000 0.000000
# 3 -0.003550 -0.007220 0.010267 0.000000 0.000000 0.000000
# 4 0.000000 0.000000 0.000000 0.028157 0.000000 0.000000
# 5 0.000000 0.000000 0.000000 0.000000 0.072867 0.000000
# 6 0.000000 0.000000 0.000000 0.000000 0.000000 0.037505
#
#
# Mechanical properties :
#
#
# Convention : Reuss Voigt Hill
#
# Bulk Modulus (GPa) = 23.37090 83.80252 53.58671
# Shear Modulus (GPa) = 21.99146 34.46689 28.22918
#
# Velocity S-wave (km/s) = 3.27037 4.09422 3.70526
# Velocity P-wave (km/s) = 5.06228 7.94397 6.66083
#
# Compressibility (1/GPa) = 0.04278826
#
# Stress axis : x y z
#
# Youngs Moduli (GPa) = 25.88644 102.23057 97.40054
#
# Poissons Ratio (x) = -0.28874 0.34579
# Poissons Ratio (y) = -0.07311 0.70319
# Poissons Ratio (z) = 0.09190 0.73806
#
# Static dielectric constant tensor:
#      x y z
#    x 1.770800 0.000000 0.000000 
#    y 0.000000 1.690900 0.000000 
#    z 0.000000 0.000000 1.715840 
# 
# From -- ./inp_files/2677.got.cif
#   From: 2010.05.17/outbox.cif.g08.bks.cpg/sg47_2_cif.got.tgz:2677.got - 2010.06.03 20:15:42.
