data_PCOD9385644
_publ_section_title
;
Structure prediction by ZEFSAII (Michael W. Deem and Ramdas Pophale) SiO2 
 PCOD9385644
Probable space group: P M M M
;
_chemical_formula_sum "Si O2"
_cell_formula_units_Z 52
_cell_length_a 8.313463
_cell_length_b 19.796176
_cell_length_c 16.502012
_cell_angle_alpha 90.000000
_cell_angle_beta 90.000000
_cell_angle_gamma 90.000000
_cell_volume 2715.814940
_symmetry_space_group_name_H-M "P M M M"
_symmetry_group_IT_number 47
_symmetry_cell_setting 'orthorhombic'
loop_
_space_group_symop_operation_xyz
x,y,z
-x,-y,z
x,-y,-z
-x,y,-z
-x,-y,-z
x,y,-z
-x,y,z
x,-y,z
loop_
_atom_site_type_symbol
_atom_site_label
_atom_site_fract_x
_atom_site_fract_y
_atom_site_fract_z
Si Si1 0.196835 0.845453 0.335696
Si Si2 0.190450 0.709453 0.591381
Si Si3 0.687253 0.425609 0.344585
Si Si4 0.194044 0.921606 0.826368
Si Si5 0.307982 0.078597 0.000000
Si Si6 0.196300 0.921738 0.500000
Si Si7 0.174427 0.579741 0.168334
Si Si8 0.500000 0.420898 0.096151
O O1 0.246627 0.767608 0.347549
O O2 0.249685 0.879821 0.252112
O O3 0.248101 0.886072 0.416382
O O4 0.000000 0.845909 0.336044
O O5 0.210153 0.735953 0.500000
O O6 0.277216 0.638341 0.600640
O O7 0.000000 0.698089 0.603753
O O8 0.500000 0.424472 0.319656
O O9 0.718394 0.500000 0.380879
O O10 0.794861 0.418420 0.264344
O O11 0.247778 0.893565 0.913883
O O12 0.000000 0.922182 0.825143
O O13 0.248934 0.000000 0.819407
O O14 0.500000 0.079709 0.000000
O O15 0.251406 0.000000 0.000000
O O16 0.000000 0.919201 0.500000
O O17 0.243995 0.000000 0.500000
O O18 0.168829 0.500000 0.145142
O O19 0.333376 0.609788 0.127661
O O20 0.000000 0.609398 0.148068
O O21 0.500000 0.500000 0.124534
O O22 0.500000 0.421010 0.000000
#
# Coordination Sequence:
#
# PCOD9385644 Si02
#       8
#     8   8   8   8   4   4   8   4
#     4   9  16  28  45  71 107 142 174 214 262 312
#     4  10  20  34  51  73 104 138 171 211 263 325
#     4  10  20  35  54  74  97 127 170 225 278 329
#     4   9  16  27  47  76 106 137 178 223 264 309
#     4   9  17  29  45  69 103 139 174 219 272 317
#     4   9  14  22  42  72 106 143 178 212 253 301
#     4   9  16  28  47  71 100 133 169 209 258 317
#     4   9  16  26  42  70 107 139 167 205 256 315
#
# _framework density 19.147106000000001
#
# number of rings (size 3 to 8) (size 9 to 14) (size 15 to 20)
#    0.000    2.692    1.538    1.154    0.000    4.615 
#    0.000    3.846    0.000    0.000    2.000    0.000 
#    0.000    3.692    0.000    0.000    0.000    0.000 
#
# Total GULP energy -289714.001824 kJ/mol
# GULP energy per Si atom -5571.423112 kJ/mol
# Density = 1.910353 g / cm^3
# Si number density = 19.147106 Si / 1000 Ang^3
#
#
#
# Elastic Constant Matrix: (Units=GPa)
#
#
# Indices 1 2 3 4 5 6 
#
# 1 67.2843 14.0255 26.4788 0.0000 0.0000 0.0000
# 2 14.0255 84.5386 51.2344 0.0000 0.0000 0.0000
# 3 26.4788 51.2344 116.4524 0.0000 0.0000 0.0000
# 4 0.0000 0.0000 0.0000 16.2017 0.0000 0.0000
# 5 0.0000 0.0000 0.0000 0.0000 7.3695 0.0000
# 6 0.0000 0.0000 0.0000 0.0000 0.0000 1.9830
#
#
#
# Elastic Compliance Matrix: (Units=1/GPa)
#
#
# Indices 1 2 3 4 5 6 
#
# 1 0.016347 -0.000626 -0.003441 0.000000 0.000000 0.000000
# 2 -0.000626 0.016154 -0.006965 0.000000 0.000000 0.000000
# 3 -0.003441 -0.006965 0.012434 0.000000 0.000000 0.000000
# 4 0.000000 0.000000 0.000000 0.061722 0.000000 0.000000
# 5 0.000000 0.000000 0.000000 0.000000 0.135694 0.000000
# 6 0.000000 0.000000 0.000000 0.000000 0.000000 0.504287
#
#
# Mechanical properties :
#
#
# Convention : Reuss Voigt Hill
#
# Bulk Modulus (GPa) = 43.72549 50.19473 46.96011
# Shear Modulus (GPa) = 6.44059 16.87995 11.66027
#
# Velocity S-wave (km/s) = 1.83604 2.97238 2.47044
# Velocity P-wave (km/s) = 5.23268 6.16865 5.71984
#
# Compressibility (1/GPa) = 0.02286995
#
# Stress axis : x y z
#
# Youngs Moduli (GPa) = 61.17249 61.90540 80.42583
#
# Poissons Ratio (x) = 0.03878 0.27678
# Poissons Ratio (y) = 0.03832 0.56013
# Poissons Ratio (z) = 0.21052 0.43114
#
# Static dielectric constant tensor:
#      x y z
#    x 1.696950 0.000000 0.000000 
#    y 0.000000 1.659890 0.000000 
#    z 0.000000 0.000000 1.676630 
# 
# From -- ./inp_files/21554.got.cif
#   From: 2010.05.17/outbox.cif.g08.bks.cpg/sg47_11_cif.got.tgz:21554.got - 2010.06.03 20:15:42.
