data_PCOD9385291
_publ_section_title
;
Structure prediction by ZEFSAII (Michael W. Deem and Ramdas Pophale) SiO2 
 PCOD9385291
Probable space group: P M M M
;
_chemical_formula_sum "Si O2"
_cell_formula_units_Z 64
_cell_length_a 14.439903
_cell_length_b 9.191387
_cell_length_c 32.052218
_cell_angle_alpha 90.000000
_cell_angle_beta 90.000000
_cell_angle_gamma 90.000000
_cell_volume 4254.058091
_symmetry_space_group_name_H-M "P M M M"
_symmetry_group_IT_number 47
_symmetry_cell_setting 'orthorhombic'
loop_
_space_group_symop_operation_xyz
x,y,z
-x,-y,z
x,-y,-z
-x,y,-z
-x,-y,-z
x,y,-z
-x,y,z
x,-y,z
loop_
_atom_site_type_symbol
_atom_site_label
_atom_site_fract_x
_atom_site_fract_y
_atom_site_fract_z
Si Si1 0.612482 0.329793 0.046103
Si Si2 0.896321 0.671800 0.583486
Si Si3 0.717056 0.325398 0.702098
Si Si4 0.699552 0.326250 0.547062
Si Si5 0.893296 0.827676 0.327672
Si Si6 0.612795 0.167589 0.129159
Si Si7 0.608071 0.325981 0.213665
Si Si8 0.389545 0.828156 0.626065
O O1 0.500000 0.322271 0.046167
O O2 0.636334 0.500000 0.050179
O O3 0.645362 0.242033 0.086329
O O4 0.642711 0.278199 0.000000
O O5 0.892230 0.500000 0.594926
O O6 0.809647 0.699206 0.553622
O O7 0.884392 0.766078 0.625237
O O8 0.000000 0.699014 0.566415
O O9 0.719206 0.500000 0.697435
O O10 0.819345 0.258577 0.699643
O O11 0.666777 0.288782 0.745508
O O12 0.660642 0.255453 0.663737
O O13 0.672474 0.286456 0.500000
O O14 0.684065 0.500000 0.552461
O O15 0.646283 0.239202 0.582716
O O16 0.000000 0.803958 0.314998
O O17 0.874607 0.000000 0.327269
O O18 0.500000 0.173837 0.128522
O O19 0.640970 0.249971 0.171262
O O20 0.640281 0.000000 0.130618
O O21 0.500000 0.286421 0.220701
O O22 0.611682 0.500000 0.207891
O O23 0.500000 0.810351 0.629393
O O24 0.367767 0.000000 0.628025
#
# Coordination Sequence:
#
# PCOD9385291 Si02
#       8
#     8   8   8   8   8   8   8   8
#     4   8  13  21  33  48  68 100 143 188 232 275
#     4   9  17  31  52  76 100 124 148 175 211 258
#     4  11  21  34  54  76  95 118 151 189 228 269
#     4  10  21  36  54  76  99 124 153 184 220 262
#     4  10  20  33  51  75 101 125 147 175 215 264
#     4   9  16  24  35  53  78 108 143 186 232 273
#     4   9  18  31  45  62  86 117 151 187 228 272
#     4  11  24  39  54  72  94 122 154 188 228 270
#
# _framework density 15.044458000000001
#
# number of rings (size 3 to 8) (size 9 to 14) (size 15 to 20)
#    0.000    2.375    1.250    2.250    0.000    5.750 
#    0.000    5.000    0.000    0.000    0.000    2.625 
#    0.000    0.000    0.000    0.000    0.000    0.625 
#
# Total GULP energy -356797.929944 kJ/mol
# GULP energy per Si atom -5574.967655 kJ/mol
# Density = 1.501022 g / cm^3
# Si number density = 15.044458 Si / 1000 Ang^3
#
#
#
# Elastic Constant Matrix: (Units=GPa)
#
#
# Indices 1 2 3 4 5 6 
#
# 1 52.7178 37.0923 43.4820 0.0000 0.0000 0.0000
# 2 37.0923 63.7793 66.2889 0.0000 0.0000 0.0000
# 3 43.4820 66.2889 135.9648 0.0000 0.0000 0.0000
# 4 0.0000 0.0000 0.0000 -10.9698 0.0000 0.0000
# 5 0.0000 0.0000 0.0000 0.0000 3.7137 0.0000
# 6 0.0000 0.0000 0.0000 0.0000 0.0000 19.4491
#
#
#
# Elastic Compliance Matrix: (Units=1/GPa)
#
#
# Indices 1 2 3 4 5 6 
#
# 1 0.032485 -0.016410 -0.002388 0.000000 0.000000 0.000000
# 2 -0.016410 0.040076 -0.014291 0.000000 0.000000 0.000000
# 3 -0.002388 -0.014291 0.015086 0.000000 0.000000 0.000000
# 4 0.000000 0.000000 0.000000 -0.091159 0.000000 0.000000
# 5 0.000000 0.000000 0.000000 0.000000 0.269276 0.000000
# 6 0.000000 0.000000 0.000000 0.000000 0.000000 0.051416
#
#
# Mechanical properties :
#
#
# Convention : Reuss Voigt Hill
#
# Bulk Modulus (GPa) = 46.57972 60.68761 53.63367
# Shear Modulus (GPa) = 12.80363 9.47850 11.14106
#
# Velocity S-wave (km/s) = 2.92045 2.51277 2.72424
# Velocity P-wave (km/s) = 6.51157 6.98893 6.75447
#
# Compressibility (1/GPa) = 0.02146857
#
# Stress axis : x y z
#
# Youngs Moduli (GPa) = 30.78344 24.95260 66.28707
#
# Poissons Ratio (x) = 0.40948 0.15829
# Poissons Ratio (y) = 0.50517 0.94729
# Poissons Ratio (z) = 0.07351 0.35659
#
# Static dielectric constant tensor:
#      x y z
#    x 1.496840 0.000000 0.000000 
#    y 0.000000 1.501100 0.000000 
#    z 0.000000 0.000000 1.488350 
# 
# From -- ./inp_files/14318.got.cif
#   From: 2010.05.17/outbox.cif.g08.bks.cpg/sg47_8_cif.got.tgz:14318.got - 2010.06.03 20:15:42.
