data_PCOD9385447
_publ_section_title
;
Structure prediction by ZEFSAII (Michael W. Deem and Ramdas Pophale) SiO2 
 PCOD9385447
Probable space group: P M M M
;
_chemical_formula_sum "Si O2"
_cell_formula_units_Z 48
_cell_length_a 9.646817
_cell_length_b 8.250919
_cell_length_c 31.856869
_cell_angle_alpha 90.000000
_cell_angle_beta 90.000000
_cell_angle_gamma 90.000000
_cell_volume 2535.650855
_symmetry_space_group_name_H-M "P M M M"
_symmetry_group_IT_number 47
_symmetry_cell_setting 'orthorhombic'
loop_
_space_group_symop_operation_xyz
x,y,z
-x,-y,z
x,-y,-z
-x,y,-z
-x,-y,-z
x,y,-z
-x,y,z
x,-y,z
loop_
_atom_site_type_symbol
_atom_site_label
_atom_site_fract_x
_atom_site_fract_y
_atom_site_fract_z
Si Si1 0.158225 0.804429 0.125375
Si Si2 0.838702 0.804006 0.718168
Si Si3 0.340088 0.695272 0.546244
Si Si4 0.341221 0.693347 0.203750
Si Si5 0.157816 0.195121 0.623811
Si Si6 0.340940 0.802296 0.047652
O O1 0.250815 0.759615 0.165272
O O2 0.235124 0.745895 0.083158
O O3 0.000000 0.744979 0.128994
O O4 0.152757 0.000000 0.123276
O O5 0.736465 0.738684 0.753299
O O6 0.799760 0.751752 0.670776
O O7 0.000000 0.756578 0.725686
O O8 0.835039 0.000000 0.719691
O O9 0.288995 0.749705 0.500000
O O10 0.500000 0.747996 0.550287
O O11 0.339069 0.500000 0.545999
O O12 0.252775 0.751787 0.585696
O O13 0.500000 0.754849 0.202797
O O14 0.345294 0.500000 0.200221
O O15 0.000000 0.251552 0.617004
O O16 0.156160 0.000000 0.624785
O O17 0.500000 0.753835 0.057035
O O18 0.339209 0.000000 0.047867
O O19 0.307246 0.751504 0.000000
#
# Coordination Sequence:
#
# PCOD9385447 Si02
#       6
#     8   8   8   8   8   8
#     4  10  20  33  52  78 105 135 171 210 254 302
#     4   9  19  37  58  78 102 132 166 205 252 306
#     4   9  19  35  52  72 102 139 176 213 252 295
#     4  11  24  38  52  74 103 134 170 211 254 301
#     4   9  19  35  54  78 106 133 164 206 254 303
#     4   8  14  26  46  73 104 136 169 206 249 297
#
# _framework density 18.930050999999999
#
# number of rings (size 3 to 8) (size 9 to 14) (size 15 to 20)
#    0.000    2.667    0.000    3.500    0.000    7.667 
#    0.000    9.167    0.000    0.500    0.000    3.500 
#    0.000    0.000    0.000    0.000    0.000    0.000 
#
# Total GULP energy -267751.297355 kJ/mol
# GULP energy per Si atom -5578.152028 kJ/mol
# Density = 1.888697 g / cm^3
# Si number density = 18.930051 Si / 1000 Ang^3
#
#
#
# Elastic Constant Matrix: (Units=GPa)
#
#
# Indices 1 2 3 4 5 6 
#
# 1 149.0720 17.2699 130.6898 0.0000 0.0000 0.0000
# 2 17.2699 7.7746 14.9076 0.0000 0.0000 0.0000
# 3 130.6898 14.9076 190.8897 0.0000 0.0000 0.0000
# 4 0.0000 0.0000 0.0000 148.8219 0.0000 0.0000
# 5 0.0000 0.0000 0.0000 0.0000 42.5973 0.0000
# 6 0.0000 0.0000 0.0000 0.0000 0.0000 25.2114
#
#
#
# Elastic Compliance Matrix: (Units=1/GPa)
#
#
# Indices 1 2 3 4 5 6 
#
# 1 0.019213 -0.020530 -0.011550 0.000000 0.000000 0.000000
# 2 -0.020530 0.173215 0.000528 0.000000 0.000000 0.000000
# 3 -0.011550 0.000528 0.013105 0.000000 0.000000 0.000000
# 4 0.000000 0.000000 0.000000 0.006719 0.000000 0.000000
# 5 0.000000 0.000000 0.000000 0.000000 0.023476 0.000000
# 6 0.000000 0.000000 0.000000 0.000000 0.000000 0.039665
#
#
# Mechanical properties :
#
#
# Convention : Reuss Voigt Hill
#
# Bulk Modulus (GPa) = 7.02107 74.83011 40.92559
# Shear Modulus (GPa) = 12.95430 55.65074 34.30252
#
# Velocity S-wave (km/s) = 2.61880 5.42788 4.26146
# Velocity P-wave (km/s) = 3.58624 8.88246 6.77345
#
# Compressibility (1/GPa) = 0.14242846
#
# Stress axis : x y z
#
# Youngs Moduli (GPa) = 52.04926 5.77318 76.30602
#
# Poissons Ratio (x) = 0.11852 0.88136
# Poissons Ratio (y) = 1.06857 -0.04030
# Poissons Ratio (z) = 0.60118 -0.00305
#
# Static dielectric constant tensor:
#      x y z
#    x 1.646150 0.000000 0.000000 
#    y 0.000000 1.668540 0.000000 
#    z 0.000000 0.000000 1.647430 
# 
# From -- ./inp_files/2483.got.cif
#   From: 2010.05.17/outbox.cif.g08.bks.cpg/sg47_2_cif.got.tgz:2483.got - 2010.06.03 20:15:42.
