data_PCOD9385581
_publ_section_title
;
Structure prediction by ZEFSAII (Michael W. Deem and Ramdas Pophale) SiO2 
 PCOD9385581
Probable space group: P M M M
;
_chemical_formula_sum "Si O2"
_cell_formula_units_Z 48
_cell_length_a 14.245386
_cell_length_b 13.835738
_cell_length_c 12.086548
_cell_angle_alpha 90.000000
_cell_angle_beta 90.000000
_cell_angle_gamma 90.000000
_cell_volume 2382.203356
_symmetry_space_group_name_H-M "P M M M"
_symmetry_group_IT_number 47
_symmetry_cell_setting 'orthorhombic'
loop_
_space_group_symop_operation_xyz
x,y,z
-x,-y,z
x,-y,-z
-x,y,-z
-x,-y,-z
x,y,-z
-x,y,z
x,-y,z
loop_
_atom_site_type_symbol
_atom_site_label
_atom_site_fract_x
_atom_site_fract_y
_atom_site_fract_z
Si Si1 0.606001 0.678049 0.000000
Si Si2 0.734580 0.500000 0.370406
Si Si3 0.394924 0.150954 0.631887
Si Si4 0.777084 0.104991 0.777601
Si Si5 0.607700 0.646619 0.243792
Si Si6 0.346077 0.896088 0.000000
Si Si7 0.888525 0.500000 0.797922
Si Si8 0.886804 0.717686 0.127777
O O1 0.645846 0.646622 0.118021
O O2 0.601538 0.794381 0.000000
O O3 0.500000 0.640243 0.000000
O O4 0.735194 0.500000 0.500000
O O5 0.676358 0.588882 0.321801
O O6 0.837272 0.500000 0.319180
O O7 0.386875 0.167866 0.500000
O O8 0.500000 0.106326 0.648362
O O9 0.299565 0.104956 0.678902
O O10 0.397587 0.247340 0.705546
O O11 0.716615 0.104703 0.890218
O O12 0.838315 0.203217 0.791178
O O13 0.828325 0.000000 0.773453
O O14 0.500000 0.610018 0.244184
O O15 0.396964 0.000000 0.000000
O O16 0.863559 0.396102 0.852783
O O17 0.000000 0.500000 0.789803
O O18 0.000000 0.726282 0.138190
O O19 0.861269 0.741107 0.000000
#
# Coordination Sequence:
#
# PCOD9385581 Si02
#       8
#     4   4   8   8   8   4   4   8
#     4  10  20  36  56  81 118 159 200 247 302 362
#     4  12  25  39  59  86 117 159 205 252 309 359
#     4  10  21  38  59  82 116 166 217 260 302 352
#     4  11  22  36  58  89 125 164 206 251 301 361
#     4  10  21  37  57  85 120 159 206 254 301 360
#     4  10  20  33  54  85 120 159 202 247 299 363
#     4  10  23  42  65  93 118 150 198 251 305 360
#     4  10  21  40  65  93 126 157 191 242 307 378
#
# _framework density 20.149414
#
# number of rings (size 3 to 8) (size 9 to 14) (size 15 to 20)
#    0.000    1.667    2.500    2.000    0.000    4.000 
#    1.500    4.583    0.000    1.500    0.000    1.167 
#    0.000    0.000    0.000    0.000    0.000    0.000 
#
# Total GULP energy -267495.308252 kJ/mol
# GULP energy per Si atom -5572.818922 kJ/mol
# Density = 2.010355 g / cm^3
# Si number density = 20.149414 Si / 1000 Ang^3
#
#
#
# Elastic Constant Matrix: (Units=GPa)
#
#
# Indices 1 2 3 4 5 6 
#
# 1 77.2788 41.6804 33.4559 0.0000 0.0000 0.0000
# 2 41.6804 114.9336 20.3731 0.0000 0.0000 0.0000
# 3 33.4559 20.3731 129.5945 0.0000 0.0000 0.0000
# 4 0.0000 0.0000 0.0000 26.4891 0.0000 0.0000
# 5 0.0000 0.0000 0.0000 0.0000 18.0822 0.0000
# 6 0.0000 0.0000 0.0000 0.0000 0.0000 35.9701
#
#
#
# Elastic Compliance Matrix: (Units=1/GPa)
#
#
# Indices 1 2 3 4 5 6 
#
# 1 0.017615 -0.005742 -0.003645 0.000000 0.000000 0.000000
# 2 -0.005742 0.010822 -0.000219 0.000000 0.000000 0.000000
# 3 -0.003645 -0.000219 0.008692 0.000000 0.000000 0.000000
# 4 0.000000 0.000000 0.000000 0.037751 0.000000 0.000000
# 5 0.000000 0.000000 0.000000 0.000000 0.055303 0.000000
# 6 0.000000 0.000000 0.000000 0.000000 0.000000 0.027801
#
#
# Mechanical properties :
#
#
# Convention : Reuss Voigt Hill
#
# Bulk Modulus (GPa) = 55.81234 56.98061 56.39647
# Shear Modulus (GPa) = 27.29742 31.19480 29.24611
#
# Velocity S-wave (km/s) = 3.68469 3.93895 3.81394
# Velocity P-wave (km/s) = 6.77214 7.00197 6.88801
#
# Compressibility (1/GPa) = 0.01791719
#
# Stress axis : x y z
#
# Youngs Moduli (GPa) = 56.76983 92.40614 115.05204
#
# Poissons Ratio (x) = 0.53059 0.41934
# Poissons Ratio (y) = 0.32597 0.02519
# Poissons Ratio (z) = 0.20691 0.02023
#
# Static dielectric constant tensor:
#      x y z
#    x 1.735700 0.000000 0.000000 
#    y 0.000000 1.989010 0.000000 
#    z 0.000000 0.000000 1.673940 
# 
# From -- ./inp_files/17638.got.cif
#   From: 2010.05.17/outbox.cif.g08.bks.cpg/sg47_9_cif.got.tgz:17638.got - 2010.06.03 20:15:42.
