data_PCOD9385609
_publ_section_title
;
Structure prediction by ZEFSAII (Michael W. Deem and Ramdas Pophale) SiO2 
 PCOD9385609
Probable space group: P M M M
;
_chemical_formula_sum "Si O2"
_cell_formula_units_Z 64
_cell_length_a 20.796837
_cell_length_b 20.961367
_cell_length_c 7.745134
_cell_angle_alpha 90.000000
_cell_angle_beta 90.000000
_cell_angle_gamma 90.000000
_cell_volume 3376.337293
_symmetry_space_group_name_H-M "P M M M"
_symmetry_group_IT_number 47
_symmetry_cell_setting 'orthorhombic'
loop_
_space_group_symop_operation_xyz
x,y,z
-x,-y,z
x,-y,-z
-x,y,-z
-x,-y,-z
x,y,-z
-x,y,z
x,-y,z
loop_
_atom_site_type_symbol
_atom_site_label
_atom_site_fract_x
_atom_site_fract_y
_atom_site_fract_z
Si Si1 0.848520 0.430774 0.711365
Si Si2 0.708928 0.390391 0.711384
Si Si3 0.928272 0.310758 0.297448
Si Si4 0.292245 0.758152 0.708080
Si Si5 0.569525 0.601285 0.294545
Si Si6 0.155798 0.192354 0.800604
Si Si7 0.927327 0.072726 0.291651
Si Si8 0.568862 0.755877 0.294038
O O1 0.847638 0.428335 0.500000
O O2 0.874359 0.500000 0.761669
O O3 0.774132 0.424339 0.765264
O O4 0.889397 0.370896 0.776419
O O5 0.706325 0.391794 0.500000
O O6 0.716109 0.315841 0.762297
O O7 0.640035 0.417714 0.772176
O O8 0.935251 0.324940 0.500000
O O9 0.886068 0.247040 0.289551
O O10 0.000000 0.302068 0.224598
O O11 0.295136 0.756850 0.500000
O O12 0.230617 0.799331 0.756220
O O13 0.362547 0.779922 0.773444
O O14 0.568518 0.586624 0.500000
O O15 0.500000 0.579425 0.223815
O O16 0.570363 0.678639 0.278486
O O17 0.125242 0.123757 0.763272
O O18 0.148379 0.206199 0.000000
O O19 0.928230 0.072316 0.500000
O O20 0.000000 0.090745 0.234459
O O21 0.914932 0.000000 0.234010
O O22 0.567672 0.768767 0.500000
O O23 0.500000 0.777744 0.221380
#
# Coordination Sequence:
#
# PCOD9385609 Si02
#       8
#     8   8   8   8   8   8   8   8
#     4   9  16  26  42  64  86 108 144 197 249 293
#     4   8  12  20  36  56  79 108 143 185 231 277
#     4  10  20  34  51  68  87 115 154 198 245 297
#     4   9  15  26  45  65  91 126 161 197 237 281
#     4   7   9  13  24  46  75 105 136 171 216 271
#     4  12  23  32  47  73 104 132 159 193 232 277
#     4   9  19  37  59  79  99 127 162 195 229 275
#     4   7  10  17  33  60  88 114 150 195 237 275
#
# _framework density 18.955451
#
# number of rings (size 3 to 8) (size 9 to 14) (size 15 to 20)
#    0.000    3.125    1.250    4.125    0.000    2.500 
#    0.000    1.875    0.000    1.125    0.000    3.500 
#    0.000    0.500    0.000    5.750    0.000   12.500 
#
# Total GULP energy -356486.842586 kJ/mol
# GULP energy per Si atom -5570.106915 kJ/mol
# Density = 1.891231 g / cm^3
# Si number density = 18.955451 Si / 1000 Ang^3
#
#
#
# Elastic Constant Matrix: (Units=GPa)
#
#
# Indices 1 2 3 4 5 6 
#
# 1 171.5781 61.0576 5.7207 0.0000 0.0000 0.0000
# 2 61.0576 68.1907 -1.7677 0.0000 0.0000 0.0000
# 3 5.7207 -1.7677 25.5209 0.0000 0.0000 0.0000
# 4 0.0000 0.0000 0.0000 -24.0254 0.0000 0.0000
# 5 0.0000 0.0000 0.0000 0.0000 -22.6012 0.0000
# 6 0.0000 0.0000 0.0000 0.0000 0.0000 25.7215
#
#
#
# Elastic Compliance Matrix: (Units=1/GPa)
#
#
# Indices 1 2 3 4 5 6 
#
# 1 0.008710 -0.007863 -0.002497 0.000000 0.000000 0.000000
# 2 -0.007863 0.021790 0.003272 0.000000 0.000000 0.000000
# 3 -0.002497 0.003272 0.039970 0.000000 0.000000 0.000000
# 4 0.000000 0.000000 0.000000 -0.041623 0.000000 0.000000
# 5 0.000000 0.000000 0.000000 0.000000 -0.044246 0.000000
# 6 0.000000 0.000000 0.000000 0.000000 0.000000 0.038878
#
#
# Mechanical properties :
#
#
# Convention : Reuss Voigt Hill
#
# Bulk Modulus (GPa) = 17.76413 43.92343 30.84378
# Shear Modulus (GPa) = 88.61879 9.17092 48.89485
#
# Velocity S-wave (km/s) = 6.84489 2.20196 5.08435
# Velocity P-wave (km/s) = 8.47714 5.44859 7.12562
#
# Compressibility (1/GPa) = 0.05629321
#
# Stress axis : x y z
#
# Youngs Moduli (GPa) = 114.81351 45.89165 25.01881
#
# Poissons Ratio (x) = 0.36087 0.06247
# Poissons Ratio (y) = 0.90283 -0.08186
# Poissons Ratio (z) = 0.28669 -0.15016
#
# Static dielectric constant tensor:
#      x y z
#    x 1.740730 0.000000 0.000000 
#    y 0.000000 1.629180 0.000000 
#    z 0.000000 0.000000 1.690580 
# 
# From -- ./inp_files/11901.got.cif
#   From: 2010.05.17/outbox.cif.g08.bks.cpg/sg47_6_cif.got.tgz:11901.got - 2010.06.03 20:15:42.
