data_PCOD9385245
_publ_section_title
;
Structure prediction by ZEFSAII (Michael W. Deem and Ramdas Pophale) SiO2 
 PCOD9385245
Probable space group: P M M M
;
_chemical_formula_sum "Si O2"
_cell_formula_units_Z 44
_cell_length_a 8.122010
_cell_length_b 8.983751
_cell_length_c 31.464194
_cell_angle_alpha 90.000000
_cell_angle_beta 90.000000
_cell_angle_gamma 90.000000
_cell_volume 2295.820012
_symmetry_space_group_name_H-M "P M M M"
_symmetry_group_IT_number 47
_symmetry_cell_setting 'orthorhombic'
loop_
_space_group_symop_operation_xyz
x,y,z
-x,-y,z
x,-y,-z
-x,y,-z
-x,-y,-z
x,y,-z
-x,y,z
x,-y,z
loop_
_atom_site_type_symbol
_atom_site_label
_atom_site_fract_x
_atom_site_fract_y
_atom_site_fract_z
Si Si1 0.195397 0.168053 0.631807
Si Si2 0.500000 0.824351 0.949189
Si Si3 0.803147 0.170525 0.811581
Si Si4 0.698351 0.327149 0.546215
Si Si5 0.805635 0.321552 0.900583
Si Si6 0.304679 0.829240 0.278920
O O1 0.243071 0.246933 0.588367
O O2 0.251240 0.240435 0.676336
O O3 0.000000 0.159679 0.633487
O O4 0.266211 0.000000 0.630771
O O5 0.333030 0.750597 0.930627
O O6 0.500000 0.000000 0.938393
O O7 0.500000 0.808640 0.000000
O O8 0.762026 0.265334 0.853061
O O9 0.748193 0.236061 0.766279
O O10 0.000000 0.161711 0.810318
O O11 0.737741 0.000000 0.815567
O O12 0.754266 0.266498 0.500000
O O13 0.500000 0.322358 0.546198
O O14 0.748281 0.500000 0.548093
O O15 0.796432 0.500000 0.903065
O O16 0.000000 0.279768 0.909001
O O17 0.500000 0.836848 0.279143
O O18 0.235820 0.000000 0.278833
#
# Coordination Sequence:
#
# PCOD9385245 Si02
#       6
#     8   4   8   8   8   8
#     4  10  20  33  50  74 105 138 173 216 264 317
#     4  11  25  43  65  93 123 159 207 259 304 353
#     4   9  17  31  53  80 110 147 191 235 279 332
#     4   9  19  36  55  73  95 126 166 213 266 325
#     4  10  22  40  62  90 126 165 202 246 303 363
#     4   9  17  29  48  75 105 140 182 225 269 319
#
# _framework density 19.165265999999999
#
# number of rings (size 3 to 8) (size 9 to 14) (size 15 to 20)
#    0.000    2.455    0.000    2.455    1.273    6.545 
#    0.000    5.455    0.000    3.273    0.000    0.000 
#    0.000    0.000    0.000    0.000    0.000    0.000 
#
# Total GULP energy -245222.071366 kJ/mol
# GULP energy per Si atom -5573.228895 kJ/mol
# Density = 1.912164 g / cm^3
# Si number density = 19.165266 Si / 1000 Ang^3
#
#
#
# Elastic Constant Matrix: (Units=GPa)
#
#
# Indices 1 2 3 4 5 6 
#
# 1 64.0544 34.9090 64.5014 0.0000 0.0000 0.0000
# 2 34.9090 52.7583 56.9561 0.0000 0.0000 0.0000
# 3 64.5014 56.9561 168.0824 0.0000 0.0000 0.0000
# 4 0.0000 0.0000 0.0000 88.5471 0.0000 0.0000
# 5 0.0000 0.0000 0.0000 0.0000 51.4319 0.0000
# 6 0.0000 0.0000 0.0000 0.0000 0.0000 20.3453
#
#
#
# Elastic Compliance Matrix: (Units=1/GPa)
#
#
# Indices 1 2 3 4 5 6 
#
# 1 0.029231 -0.011403 -0.007353 0.000000 0.000000 0.000000
# 2 -0.011403 0.034336 -0.007259 0.000000 0.000000 0.000000
# 3 -0.007353 -0.007259 0.011231 0.000000 0.000000 0.000000
# 4 0.000000 0.000000 0.000000 0.011293 0.000000 0.000000
# 5 0.000000 0.000000 0.000000 0.000000 0.019443 0.000000
# 6 0.000000 0.000000 0.000000 0.000000 0.000000 0.049151
#
#
# Mechanical properties :
#
#
# Convention : Reuss Voigt Hill
#
# Bulk Modulus (GPa) = 43.92289 66.40312 55.16301
# Shear Modulus (GPa) = 23.33103 40.63342 31.98223
#
# Velocity S-wave (km/s) = 3.49285 4.60951 4.08948
# Velocity P-wave (km/s) = 6.26374 7.94059 7.15148
#
# Compressibility (1/GPa) = 0.02276717
#
# Stress axis : x y z
#
# Youngs Moduli (GPa) = 34.21033 29.12359 89.03825
#
# Poissons Ratio (x) = 0.33210 0.65472
# Poissons Ratio (y) = 0.39011 0.64635
# Poissons Ratio (z) = 0.25156 0.21141
#
# Static dielectric constant tensor:
#      x y z
#    x 1.664600 0.000000 0.000000 
#    y 0.000000 1.680000 0.000000 
#    z 0.000000 0.000000 1.692280 
# 
# From -- ./inp_files/33925.got.cif
#   From: 2010.05.17/outbox.cif.g08.bks.cpg/sg47_17_cif.got.tgz:33925.got - 2010.06.03 20:15:42.
