data_PCOD9385051
_publ_section_title
;
Structure prediction by ZEFSAII (Michael W. Deem and Ramdas Pophale) SiO2 
 PCOD9385051
Probable space group: P M M M
;
_chemical_formula_sum "Si O2"
_cell_formula_units_Z 44
_cell_length_a 8.979285
_cell_length_b 14.366385
_cell_length_c 19.547284
_cell_angle_alpha 90.000000
_cell_angle_beta 90.000000
_cell_angle_gamma 90.000000
_cell_volume 2521.597004
_symmetry_space_group_name_H-M "P M M M"
_symmetry_group_IT_number 47
_symmetry_cell_setting 'orthorhombic'
loop_
_space_group_symop_operation_xyz
x,y,z
-x,-y,z
x,-y,-z
-x,y,-z
-x,-y,-z
x,y,-z
-x,y,z
x,-y,z
loop_
_atom_site_type_symbol
_atom_site_label
_atom_site_fract_x
_atom_site_fract_y
_atom_site_fract_z
Si Si1 0.677642 0.804975 0.079797
Si Si2 0.678786 0.892494 0.704636
Si Si3 0.822516 0.268810 0.206002
Si Si4 0.169027 0.000000 0.082732
Si Si5 0.678654 0.232477 0.578012
Si Si6 0.179310 0.606540 0.667298
O O1 0.500000 0.808156 0.085786
O O2 0.746098 0.731235 0.132175
O O3 0.744322 0.905855 0.100156
O O4 0.715669 0.788231 0.000000
O O5 0.500000 0.884159 0.715895
O O6 0.763335 0.823089 0.755096
O O7 0.711000 0.854049 0.628309
O O8 0.720248 0.000000 0.713067
O O9 0.783938 0.353079 0.257361
O O10 0.000000 0.264739 0.198401
O O11 0.000000 0.000000 0.109570
O O12 0.161067 0.000000 0.000000
O O13 0.728355 0.219109 0.500000
O O14 0.500000 0.243933 0.578011
O O15 0.750147 0.323421 0.612536
O O16 0.227472 0.500000 0.658970
O O17 0.000000 0.610415 0.660739
#
# Coordination Sequence:
#
# PCOD9385051 Si02
#       6
#     8   8   8   4   8   8
#     4  10  20  33  49  70  99 133 166 202 246 295
#     4   9  18  32  49  69  97 135 172 203 240 289
#     4  10  20  33  51  73  97 127 165 210 252 295
#     4   9  17  29  45  67  95 127 164 201 236 277
#     4   9  18  32  50  75 104 130 162 204 246 292
#     4   9  19  36  55  74  97 127 164 205 252 304
#
# _framework density 17.449259999999999
#
# number of rings (size 3 to 8) (size 9 to 14) (size 15 to 20)
#    0.000    2.636    0.000    1.364    1.273    4.727 
#    0.000    3.636    0.000    0.545    0.000    8.909 
#    0.000    0.000    0.000    0.000    0.000    0.000 
#
# Total GULP energy -245388.114002 kJ/mol
# GULP energy per Si atom -5577.002591 kJ/mol
# Density = 1.740954 g / cm^3
# Si number density = 17.449260 Si / 1000 Ang^3
#
#
#
# Elastic Constant Matrix: (Units=GPa)
#
#
# Indices 1 2 3 4 5 6 
#
# 1 27.5633 3.7747 20.2084 0.0000 0.0000 0.0000
# 2 3.7747 42.8529 -8.1385 0.0000 0.0000 0.0000
# 3 20.2084 -8.1385 77.9321 0.0000 0.0000 0.0000
# 4 0.0000 0.0000 0.0000 13.8048 0.0000 0.0000
# 5 0.0000 0.0000 0.0000 0.0000 25.7519 0.0000
# 6 0.0000 0.0000 0.0000 0.0000 0.0000 21.2199
#
#
#
# Elastic Compliance Matrix: (Units=1/GPa)
#
#
# Indices 1 2 3 4 5 6 
#
# 1 0.046515 -0.006517 -0.012742 0.000000 0.000000 0.000000
# 2 -0.006517 0.024721 0.004272 0.000000 0.000000 0.000000
# 3 -0.012742 0.004272 0.016582 0.000000 0.000000 0.000000
# 4 0.000000 0.000000 0.000000 0.072438 0.000000 0.000000
# 5 0.000000 0.000000 0.000000 0.000000 0.038832 0.000000
# 6 0.000000 0.000000 0.000000 0.000000 0.000000 0.047126
#
#
# Mechanical properties :
#
#
# Convention : Reuss Voigt Hill
#
# Bulk Modulus (GPa) = 17.28852 20.00418 18.64635
# Shear Modulus (GPa) = 16.92217 20.98890 18.95553
#
# Velocity S-wave (km/s) = 3.11753 3.47198 3.29952
# Velocity P-wave (km/s) = 4.78414 5.24995 5.02245
#
# Compressibility (1/GPa) = 0.05784186
#
# Stress axis : x y z
#
# Youngs Moduli (GPa) = 21.49852 40.45148 60.30650
#
# Poissons Ratio (x) = 0.26363 0.76844
# Poissons Ratio (y) = 0.14011 -0.25761
# Poissons Ratio (z) = 0.27394 -0.17279
#
# Static dielectric constant tensor:
#      x y z
#    x 1.587180 0.000000 0.000000 
#    y 0.000000 1.565970 0.000000 
#    z 0.000000 0.000000 1.620990 
# 
# From -- ./inp_files/6147.got.cif
#   From: 2010.05.17/outbox.cif.g08.bks.cpg/sg47_4_cif.got.tgz:6147.got - 2010.06.03 20:15:42.
