data_PCOD9385139
_publ_section_title
;
Structure prediction by ZEFSAII (Michael W. Deem and Ramdas Pophale) SiO2 
 PCOD9385139
Probable space group: P M M M
;
_chemical_formula_sum "Si O2"
_cell_formula_units_Z 48
_cell_length_a 9.415047
_cell_length_b 31.902949
_cell_length_c 7.526492
_cell_angle_alpha 90.000000
_cell_angle_beta 90.000000
_cell_angle_gamma 90.000000
_cell_volume 2260.715575
_symmetry_space_group_name_H-M "P M M M"
_symmetry_group_IT_number 47
_symmetry_cell_setting 'orthorhombic'
loop_
_space_group_symop_operation_xyz
x,y,z
-x,-y,z
x,-y,-z
-x,y,-z
-x,-y,-z
x,y,-z
-x,y,z
x,-y,z
loop_
_atom_site_type_symbol
_atom_site_label
_atom_site_fract_x
_atom_site_fract_y
_atom_site_fract_z
Si Si1 0.661633 0.674090 0.210526
Si Si2 0.661514 0.580138 0.287174
Si Si3 0.164006 0.082539 0.283041
Si Si4 0.837436 0.500000 0.717895
Si Si5 0.840286 0.244622 0.709535
Si Si6 0.336503 0.165061 0.717541
Si Si7 0.335770 0.000000 0.717130
O O1 0.500000 0.677969 0.283590
O O2 0.714036 0.627079 0.249770
O O3 0.763431 0.710818 0.273708
O O4 0.652719 0.678273 0.000000
O O5 0.654659 0.576034 0.500000
O O6 0.500000 0.577161 0.217902
O O7 0.756855 0.541933 0.222289
O O8 0.162469 0.082360 0.500000
O O9 0.246082 0.124536 0.228180
O O10 0.000000 0.081851 0.225347
O O11 0.251084 0.041494 0.226870
O O12 0.836138 0.500000 0.500000
O O13 0.000000 0.500000 0.774225
O O14 0.852974 0.236078 0.500000
O O15 0.741104 0.207357 0.780131
O O16 0.000000 0.244913 0.784143
O O17 0.339007 0.165226 0.500000
O O18 0.500000 0.163033 0.775388
O O19 0.500000 0.000000 0.774201
O O20 0.337046 0.000000 0.500000
#
# Coordination Sequence:
#
# PCOD9385139 Si02
#       7
#     8   8   8   4   8   8   4
#     4  10  21  36  53  74 100 130 164 202 245 292
#     4   9  17  31  52  75  99 129 164 200 239 284
#     4   9  15  22  32  48  73 105 142 185 232 281
#     4   9  17  29  48  75 102 126 158 201 242 279
#     4  10  20  33  50  72  96 124 160 201 245 293
#     4   9  16  26  41  60  82 110 147 192 238 283
#     4   9  15  21  29  43  67 103 146 185 224 277
#
# _framework density 21.232213000000002
#
# number of rings (size 3 to 8) (size 9 to 14) (size 15 to 20)
#    0.000    2.667    0.000    2.500    0.000    8.667 
#    0.000    2.083    0.000    2.500    0.000    0.000 
#    0.000    0.000    0.000    0.750    0.000   14.667 
#
# Total GULP energy -268083.024652 kJ/mol
# GULP energy per Si atom -5585.063014 kJ/mol
# Density = 2.118389 g / cm^3
# Si number density = 21.232213 Si / 1000 Ang^3
#
#
#
# Elastic Constant Matrix: (Units=GPa)
#
#
# Indices 1 2 3 4 5 6 
#
# 1 204.7757 149.1393 4.6216 0.0000 0.0000 0.0000
# 2 149.1393 222.1438 -5.1743 0.0000 0.0000 0.0000
# 3 4.6216 -5.1743 52.7834 0.0000 0.0000 0.0000
# 4 0.0000 0.0000 0.0000 -48.2111 0.0000 0.0000
# 5 0.0000 0.0000 0.0000 0.0000 -3.4084 0.0000
# 6 0.0000 0.0000 0.0000 0.0000 0.0000 27.9397
#
#
#
# Elastic Compliance Matrix: (Units=1/GPa)
#
#
# Indices 1 2 3 4 5 6 
#
# 1 0.009671 -0.006527 -0.001487 0.000000 0.000000 0.000000
# 2 -0.006527 0.008917 0.001446 0.000000 0.000000 0.000000
# 3 -0.001487 0.001446 0.019217 0.000000 0.000000 0.000000
# 4 0.000000 0.000000 0.000000 -0.020742 0.000000 0.000000
# 5 0.000000 0.000000 0.000000 0.000000 -0.293396 0.000000
# 6 0.000000 0.000000 0.000000 0.000000 0.000000 0.035791
#
#
# Mechanical properties :
#
#
# Convention : Reuss Voigt Hill
#
# Bulk Modulus (GPa) = 40.53657 86.31957 63.42807
# Shear Modulus (GPa) = -22.81213 17.33847 -2.73683
#
# Velocity S-wave (km/s) = -3.28138 2.86074 -1.13657
# Velocity P-wave (km/s) = 2.18561 7.18715 5.31187
#
# Compressibility (1/GPa) = 0.02466908
#
# Stress axis : x y z
#
# Youngs Moduli (GPa) = 103.40446 112.14025 52.03661
#
# Poissons Ratio (x) = 0.73196 0.07736
# Poissons Ratio (y) = 0.67494 -0.07523
# Poissons Ratio (z) = 0.15372 -0.16212
#
# Static dielectric constant tensor:
#      x y z
#    x 1.731340 0.000000 0.000000 
#    y 0.000000 1.723610 0.000000 
#    z 0.000000 0.000000 1.792770 
# 
# From -- ./inp_files/2751.got.cif
#   From: 2010.05.17/outbox.cif.g08.bks.cpg/sg47_2_cif.got.tgz:2751.got - 2010.06.03 20:15:42.
