data_PCOD9385361
_publ_section_title
;
Structure prediction by ZEFSAII (Michael W. Deem and Ramdas Pophale) SiO2 
 PCOD9385361
Probable space group: P M M M
;
_chemical_formula_sum "Si O2"
_cell_formula_units_Z 64
_cell_length_a 42.919346
_cell_length_b 9.383696
_cell_length_c 7.580981
_cell_angle_alpha 90.000000
_cell_angle_beta 90.000000
_cell_angle_gamma 90.000000
_cell_volume 3053.180173
_symmetry_space_group_name_H-M "P M M M"
_symmetry_group_IT_number 47
_symmetry_cell_setting 'orthorhombic'
loop_
_space_group_symop_operation_xyz
x,y,z
-x,-y,z
x,-y,-z
-x,y,-z
-x,-y,-z
x,y,-z
-x,y,z
x,-y,z
loop_
_atom_site_type_symbol
_atom_site_label
_atom_site_fract_x
_atom_site_fract_y
_atom_site_fract_z
Si Si1 0.533488 0.833900 0.712086
Si Si2 0.398414 0.162690 0.209545
Si Si3 0.155316 0.836124 0.716237
Si Si4 0.721936 0.162036 0.211662
Si Si5 0.661417 0.663985 0.783691
Si Si6 0.215816 0.662021 0.711638
Si Si7 0.034915 0.162542 0.212567
Si Si8 0.904234 0.339790 0.290338
O O1 0.532954 0.833812 0.500000
O O2 0.500000 0.772922 0.772416
O O3 0.566995 0.773923 0.764086
O O4 0.534012 0.000000 0.770889
O O5 0.370265 0.259110 0.276514
O O6 0.397531 0.000000 0.281605
O O7 0.393938 0.151254 0.000000
O O8 0.155369 0.837286 0.500000
O O9 0.185383 0.746767 0.774989
O O10 0.123670 0.759613 0.777044
O O11 0.156839 0.000000 0.773079
O O12 0.691455 0.246394 0.275122
O O13 0.753041 0.250128 0.250050
O O14 0.723616 0.000000 0.279490
O O15 0.719109 0.153717 0.000000
O O16 0.663135 0.500000 0.727556
O O17 0.661431 0.663560 0.000000
O O18 0.212972 0.653678 0.500000
O O19 0.217438 0.500000 0.779539
O O20 0.062387 0.267089 0.264814
O O21 0.000000 0.202927 0.272505
O O22 0.041170 0.000000 0.272868
O O23 0.034274 0.159661 0.000000
O O24 0.899189 0.350021 0.500000
O O25 0.903258 0.500000 0.217574
#
# Coordination Sequence:
#
# PCOD9385361 Si02
#       8
#     8   8   8   8   8   8   8   8
#     4   8  14  25  41  62  89 119 148 180 224 277
#     4   9  16  26  43  67  90 112 146 192 233 270
#     4   9  17  31  52  75 100 133 170 206 247 294
#     4  10  20  34  53  76 101 130 166 206 246 290
#     4   9  17  30  48  68  92 124 158 192 236 288
#     4  10  20  34  53  77 105 135 166 202 246 295
#     4   9  19  36  55  74  99 133 171 209 251 300
#     4  10  20  33  51  77 106 133 165 207 252 298
#
# _framework density 20.961749000000001
#
# number of rings (size 3 to 8) (size 9 to 14) (size 15 to 20)
#    0.000    2.750    0.000    2.625    0.000    6.250 
#    0.000    4.375    0.000    6.750    0.000    2.625 
#    0.000    0.000    0.000    0.000    0.000    0.000 
#
# Total GULP energy -357165.271773 kJ/mol
# GULP energy per Si atom -5580.707371 kJ/mol
# Density = 2.091404 g / cm^3
# Si number density = 20.961749 Si / 1000 Ang^3
#
#
#
# Elastic Constant Matrix: (Units=GPa)
#
#
# Indices 1 2 3 4 5 6 
#
# 1 219.9314 131.9044 -0.5323 0.0000 0.0000 0.0000
# 2 131.9044 183.5636 7.0690 0.0000 0.0000 0.0000
# 3 -0.5323 7.0690 43.9482 0.0000 0.0000 0.0000
# 4 0.0000 0.0000 0.0000 8.3351 0.0000 0.0000
# 5 0.0000 0.0000 0.0000 0.0000 20.0366 0.0000
# 6 0.0000 0.0000 0.0000 0.0000 0.0000 -120.4705
#
#
#
# Elastic Compliance Matrix: (Units=1/GPa)
#
#
# Indices 1 2 3 4 5 6 
#
# 1 0.008037 -0.005815 0.001033 0.000000 0.000000 0.000000
# 2 -0.005815 0.009689 -0.001629 0.000000 0.000000 0.000000
# 3 0.001033 -0.001629 0.023029 0.000000 0.000000 0.000000
# 4 0.000000 0.000000 0.000000 0.119975 0.000000 0.000000
# 5 0.000000 0.000000 0.000000 0.000000 0.049909 0.000000
# 6 0.000000 0.000000 0.000000 0.000000 0.000000 -0.008301
#
#
# Mechanical properties :
#
#
# Convention : Reuss Voigt Hill
#
# Bulk Modulus (GPa) = 35.80105 80.48059 58.14082
# Shear Modulus (GPa) = 22.27472 2.18038 12.22755
#
# Velocity S-wave (km/s) = 3.26335 1.02099 2.41784
# Velocity P-wave (km/s) = 5.59603 6.31405 5.96585
#
# Compressibility (1/GPa) = 0.02793214
#
# Stress axis : x y z
#
# Youngs Moduli (GPa) = 124.42690 103.21144 43.42430
#
# Poissons Ratio (x) = 0.60016 -0.04484
# Poissons Ratio (y) = 0.72352 0.07073
# Poissons Ratio (z) = -0.12849 0.16812
#
# Static dielectric constant tensor:
#      x y z
#    x 1.736410 0.000000 0.000000 
#    y 0.000000 1.724570 0.000000 
#    z 0.000000 0.000000 1.813570 
# 
# From -- ./inp_files/20115.got.cif
#   From: 2010.05.17/outbox.cif.g08.bks.cpg/sg47_11_cif.got.tgz:20115.got - 2010.06.03 20:15:42.
