data_PCOD9385998
_publ_section_title
;
Structure prediction by ZEFSAII (Michael W. Deem and Ramdas Pophale) SiO2 
 PCOD9385998
Probable space group: P M M M
;
_chemical_formula_sum "Si O2"
_cell_formula_units_Z 44
_cell_length_a 31.933792
_cell_length_b 7.815954
_cell_length_c 9.259097
_cell_angle_alpha 90.000000
_cell_angle_beta 90.000000
_cell_angle_gamma 90.000000
_cell_volume 2311.006254
_symmetry_space_group_name_H-M "P M M M"
_symmetry_group_IT_number 47
_symmetry_cell_setting 'orthorhombic'
loop_
_space_group_symop_operation_xyz
x,y,z
-x,-y,z
x,-y,-z
-x,y,-z
-x,-y,-z
x,y,-z
-x,y,z
x,-y,z
loop_
_atom_site_type_symbol
_atom_site_label
_atom_site_fract_x
_atom_site_fract_y
_atom_site_fract_z
Si Si1 0.000000 0.709360 0.666398
Si Si2 0.916921 0.293070 0.834591
Si Si3 0.550058 0.699088 0.170037
Si Si4 0.312264 0.000000 0.173292
Si Si5 0.598635 0.000000 0.327459
Si Si6 0.167310 0.796387 0.665430
Si Si7 0.750017 0.692051 0.169977
O O1 0.958153 0.765578 0.748996
O O2 0.000000 0.500000 0.667064
O O3 0.000000 0.764244 0.500000
O O4 0.918183 0.500000 0.837298
O O5 0.874745 0.241353 0.753413
O O6 0.917099 0.232552 0.000000
O O7 0.500000 0.720424 0.188317
O O8 0.560083 0.500000 0.201181
O O9 0.574603 0.833329 0.266815
O O10 0.559325 0.729935 0.000000
O O11 0.355007 0.000000 0.260624
O O12 0.284073 0.834372 0.207951
O O13 0.320518 0.000000 0.000000
O O14 0.599441 0.000000 0.500000
O O15 0.162665 0.737941 0.500000
O O16 0.207632 0.714295 0.740244
O O17 0.174095 0.000000 0.665648
O O18 0.733507 0.500000 0.189205
O O19 0.760325 0.715602 0.000000
#
# Coordination Sequence:
#
# PCOD9385998 Si02
#       7
#     4   8   8   4   4   8   8
#     4   9  17  31  52  77 108 143 178 222 276 334
#     4  10  20  34  54  80 108 141 183 227 274 332
#     4   9  19  38  64  91 120 161 215 266 307 356
#     4  10  22  41  61  84 118 158 203 252 294 349
#     4  12  25  37  56  89 130 168 203 249 312 375
#     4  11  23  37  55  81 113 146 182 227 283 344
#     4  10  21  39  64  89 111 143 190 242 296 349
#
# _framework density 19.039325000000002
#
# number of rings (size 3 to 8) (size 9 to 14) (size 15 to 20)
#    0.000    1.909    0.909    3.545    0.000    9.091 
#    0.000    3.182    0.000    2.727    0.000    0.000 
#    0.000    0.000    0.000    0.000    0.000    0.000 
#
# Total GULP energy -245896.073908 kJ/mol
# GULP energy per Si atom -5588.547134 kJ/mol
# Density = 1.899599 g / cm^3
# Si number density = 19.039325 Si / 1000 Ang^3
#
#
#
# Elastic Constant Matrix: (Units=GPa)
#
#
# Indices 1 2 3 4 5 6 
#
# 1 130.6466 71.5150 96.7099 0.0000 0.0000 0.0000
# 2 71.5150 98.3004 71.9663 0.0000 0.0000 0.0000
# 3 96.7099 71.9663 143.8820 0.0000 0.0000 0.0000
# 4 0.0000 0.0000 0.0000 15.9302 0.0000 0.0000
# 5 0.0000 0.0000 0.0000 0.0000 242.0558 0.0000
# 6 0.0000 0.0000 0.0000 0.0000 0.0000 -47.7921
#
#
#
# Elastic Compliance Matrix: (Units=1/GPa)
#
#
# Indices 1 2 3 4 5 6 
#
# 1 0.017529 -0.006511 -0.008526 0.000000 0.000000 0.000000
# 2 -0.006511 0.018469 -0.004861 0.000000 0.000000 0.000000
# 3 -0.008526 -0.004861 0.015112 0.000000 0.000000 0.000000
# 4 0.000000 0.000000 0.000000 0.062774 0.000000 0.000000
# 5 0.000000 0.000000 0.000000 0.000000 0.004131 0.000000
# 6 0.000000 0.000000 0.000000 0.000000 0.000000 -0.020924
#
#
# Mechanical properties :
#
#
# Convention : Reuss Voigt Hill
#
# Bulk Modulus (GPa) = 88.38382 94.80127 91.59254
# Shear Modulus (GPa) = 35.54703 50.88130 43.21416
#
# Velocity S-wave (km/s) = 4.32560 5.17517 4.76934
# Velocity P-wave (km/s) = 8.45401 9.25258 8.86229
#
# Compressibility (1/GPa) = 0.01131429
#
# Stress axis : x y z
#
# Youngs Moduli (GPa) = 57.04686 54.14529 66.17269
#
# Poissons Ratio (x) = 0.35256 0.56416
# Poissons Ratio (y) = 0.37145 0.32167
# Poissons Ratio (z) = 0.48636 0.26321
#
# Static dielectric constant tensor:
#      x y z
#    x 1.611120 0.000000 0.000000 
#    y 0.000000 1.680730 0.000000 
#    z 0.000000 0.000000 1.642040 
# 
# From -- ./inp_files/13771.got.cif
#   From: 2010.05.17/outbox.cif.g08.bks.cpg/sg47_7_cif.got.tgz:13771.got - 2010.06.03 20:15:42.
