data_PCOD9385203
_publ_section_title
;
Structure prediction by ZEFSAII (Michael W. Deem and Ramdas Pophale) SiO2 
 PCOD9385203
Probable space group: P M M M
;
_chemical_formula_sum "Si O2"
_cell_formula_units_Z 40
_cell_length_a 9.537913
_cell_length_b 26.420831
_cell_length_c 7.371600
_cell_angle_alpha 90.000000
_cell_angle_beta 90.000000
_cell_angle_gamma 90.000000
_cell_volume 1857.640159
_symmetry_space_group_name_H-M "P M M M"
_symmetry_group_IT_number 47
_symmetry_cell_setting 'orthorhombic'
loop_
_space_group_symop_operation_xyz
x,y,z
-x,-y,z
x,-y,-z
-x,y,-z
-x,-y,-z
x,y,-z
-x,y,z
x,-y,z
loop_
_atom_site_type_symbol
_atom_site_label
_atom_site_fract_x
_atom_site_fract_y
_atom_site_fract_z
Si Si1 0.838723 0.193752 0.720890
Si Si2 0.342381 0.405213 0.785948
Si Si3 0.841009 0.692186 0.281931
Si Si4 0.838375 0.000000 0.721380
Si Si5 0.338834 0.902136 0.721575
Si Si6 0.160977 0.500000 0.777740
O O1 0.836495 0.193560 0.500000
O O2 0.803516 0.250959 0.779358
O O3 0.734201 0.149965 0.780795
O O4 0.000000 0.183123 0.773595
O O5 0.500000 0.405364 0.710725
O O6 0.266879 0.351385 0.766680
O O7 0.243806 0.450108 0.715564
O O8 0.354282 0.414976 0.000000
O O9 0.845839 0.693869 0.500000
O O10 0.000000 0.680558 0.218882
O O11 0.754443 0.949967 0.778007
O O12 0.839843 0.000000 0.500000
O O13 0.000000 0.000000 0.780059
O O14 0.339120 0.902129 0.500000
O O15 0.500000 0.906320 0.779304
O O16 0.000000 0.500000 0.718780
O O17 0.158370 0.500000 0.000000
#
# Coordination Sequence:
#
# PCOD9385203 Si02
#       6
#     8   8   8   4   8   4
#     4   8  14  25  39  54  75 105 140 176 215 261
#     4  10  20  33  50  73  99 124 151 186 228 273
#     4   9  18  32  49  69  93 122 157 194 229 269
#     4   9  15  21  29  41  61  93 132 173 216 259
#     4   9  15  21  30  46  68  95 131 174 216 259
#     4   9  17  31  52  73  92 119 154 188 224 269
#
# _framework density 21.532698
#
# number of rings (size 3 to 8) (size 9 to 14) (size 15 to 20)
#    0.000    3.000    0.000    3.000    0.000    7.200 
#    0.000    2.500    0.000    3.000    0.000    0.000 
#    0.000    0.000    0.000    0.900    0.000   17.800 
#
# Total GULP energy -223392.916093 kJ/mol
# GULP energy per Si atom -5584.822902 kJ/mol
# Density = 2.148369 g / cm^3
# Si number density = 21.532698 Si / 1000 Ang^3
#
#
#
# Elastic Constant Matrix: (Units=GPa)
#
#
# Indices 1 2 3 4 5 6 
#
# 1 235.1160 163.1236 6.7796 0.0000 0.0000 0.0000
# 2 163.1236 195.1844 0.7812 0.0000 0.0000 0.0000
# 3 6.7796 0.7812 75.5641 0.0000 0.0000 0.0000
# 4 0.0000 0.0000 0.0000 13.5006 0.0000 0.0000
# 5 0.0000 0.0000 0.0000 0.0000 0.5944 0.0000
# 6 0.0000 0.0000 0.0000 0.0000 0.0000 -21.8008
#
#
#
# Elastic Compliance Matrix: (Units=1/GPa)
#
#
# Indices 1 2 3 4 5 6 
#
# 1 0.010174 -0.008499 -0.000825 0.000000 0.000000 0.000000
# 2 -0.008499 0.012224 0.000636 0.000000 0.000000 0.000000
# 3 -0.000825 0.000636 0.013301 0.000000 0.000000 0.000000
# 4 0.000000 0.000000 0.000000 0.074071 0.000000 0.000000
# 5 0.000000 0.000000 0.000000 0.000000 1.682425 0.000000
# 6 0.000000 0.000000 0.000000 0.000000 0.000000 -0.045870
#
#
# Mechanical properties :
#
#
# Convention : Reuss Voigt Hill
#
# Bulk Modulus (GPa) = 54.57644 94.13704 74.35674
# Shear Modulus (GPa) = 2.82516 20.80419 11.81468
#
# Velocity S-wave (km/s) = 1.14668 3.11170 2.34494
# Velocity P-wave (km/s) = 5.21095 7.53149 6.47601
#
# Compressibility (1/GPa) = 0.01832292
#
# Stress axis : x y z
#
# Youngs Moduli (GPa) = 98.29014 81.80503 75.18095
#
# Poissons Ratio (x) = 0.69530 0.06202
# Poissons Ratio (y) = 0.83542 -0.04783
# Poissons Ratio (z) = 0.08108 -0.05204
#
# Static dielectric constant tensor:
#      x y z
#    x 1.735530 0.000000 0.000000 
#    y 0.000000 1.737590 0.000000 
#    z 0.000000 0.000000 1.862240 
# 
# From -- ./inp_files/1789.got.cif
#   From: 2010.05.17/outbox.cif.g08.bks.cpg/sg47_1_cif.got.tgz:1789.got - 2010.06.03 20:15:42.
