data_PCOD9385565
_publ_section_title
;
Structure prediction by ZEFSAII (Michael W. Deem and Ramdas Pophale) SiO2 
 PCOD9385565
Probable space group: P M M M
;
_chemical_formula_sum "Si O2"
_cell_formula_units_Z 64
_cell_length_a 14.942835
_cell_length_b 8.798808
_cell_length_c 24.236549
_cell_angle_alpha 90.000000
_cell_angle_beta 90.000000
_cell_angle_gamma 90.000000
_cell_volume 3186.600526
_symmetry_space_group_name_H-M "P M M M"
_symmetry_group_IT_number 47
_symmetry_cell_setting 'orthorhombic'
loop_
_space_group_symop_operation_xyz
x,y,z
-x,-y,z
x,-y,-z
-x,y,-z
-x,-y,-z
x,y,-z
-x,y,z
x,-y,z
loop_
_atom_site_type_symbol
_atom_site_label
_atom_site_fract_x
_atom_site_fract_y
_atom_site_fract_z
Si Si1 0.663332 0.674192 0.440630
Si Si2 0.853692 0.179537 0.438116
Si Si3 0.286122 0.319877 0.065253
Si Si4 0.397502 0.816777 0.158634
Si Si5 0.901183 0.822043 0.933026
Si Si6 0.739773 0.823274 0.251896
Si Si7 0.898458 0.320566 0.680490
Si Si8 0.400970 0.675716 0.677102
O O1 0.619146 0.694299 0.500000
O O2 0.699433 0.500000 0.438513
O O3 0.747820 0.784601 0.436812
O O4 0.600510 0.688619 0.388619
O O5 0.884482 0.232285 0.500000
O O6 0.888987 0.253906 0.381668
O O7 0.870889 0.000000 0.435384
O O8 0.294438 0.500000 0.072620
O O9 0.362548 0.235015 0.099190
O O10 0.187240 0.266513 0.084901
O O11 0.292231 0.285651 0.000000
O O12 0.500000 0.764730 0.169048
O O13 0.319451 0.761250 0.200618
O O14 0.398321 0.000000 0.162681
O O15 0.000000 0.768715 0.914118
O O16 0.892069 0.000000 0.918339
O O17 0.902647 0.813792 0.000000
O O18 0.828992 0.745766 0.275010
O O19 0.669160 0.795385 0.300795
O O20 0.758303 0.000000 0.242082
O O21 0.882080 0.500000 0.676198
O O22 0.000000 0.292742 0.698795
O O23 0.500000 0.703186 0.698960
O O24 0.375167 0.500000 0.690622
#
# Coordination Sequence:
#
# PCOD9385565 Si02
#       8
#     8   8   8   8   8   8   8   8
#     4   9  17  30  49  74 109 151 191 233 282 340
#     4  10  20  34  55  84 117 153 194 242 297 354
#     4  10  21  36  57  90 129 164 199 244 298 352
#     4  10  23  43  65  89 117 154 200 244 291 351
#     4   8  14  27  50  80 115 158 204 242 277 325
#     4  11  23  41  64  87 113 146 189 245 297 344
#     4  11  24  41  62  88 118 154 196 241 295 361
#     4  10  20  33  53  82 113 149 192 234 284 346
#
# _framework density 20.084098000000001
#
# number of rings (size 3 to 8) (size 9 to 14) (size 15 to 20)
#    0.000    2.125    1.250    2.250    0.000    5.500 
#    0.000    5.625    0.000    0.750    0.000    2.625 
#    0.000    0.000    0.000    0.000    0.000    0.000 
#
# Total GULP energy -356756.627693 kJ/mol
# GULP energy per Si atom -5574.322308 kJ/mol
# Density = 2.003839 g / cm^3
# Si number density = 20.084098 Si / 1000 Ang^3
#
#
#
# Elastic Constant Matrix: (Units=GPa)
#
#
# Indices 1 2 3 4 5 6 
#
# 1 112.1549 42.0198 46.7041 0.0000 0.0000 0.0000
# 2 42.0198 22.7456 22.7583 0.0000 0.0000 0.0000
# 3 46.7041 22.7583 63.7177 0.0000 0.0000 0.0000
# 4 0.0000 0.0000 0.0000 19.1413 0.0000 0.0000
# 5 0.0000 0.0000 0.0000 0.0000 -158.1676 0.0000
# 6 0.0000 0.0000 0.0000 0.0000 0.0000 11.3912
#
#
#
# Elastic Compliance Matrix: (Units=1/GPa)
#
#
# Indices 1 2 3 4 5 6 
#
# 1 0.029414 -0.050988 -0.003348 0.000000 0.000000 0.000000
# 2 -0.050988 0.156802 -0.018632 0.000000 0.000000 0.000000
# 3 -0.003348 -0.018632 0.024803 0.000000 0.000000 0.000000
# 4 0.000000 0.000000 0.000000 0.052243 0.000000 0.000000
# 5 0.000000 0.000000 0.000000 0.000000 -0.006322 0.000000
# 6 0.000000 0.000000 0.000000 0.000000 0.000000 0.087787
#
#
# Mechanical properties :
#
#
# Convention : Reuss Voigt Hill
#
# Bulk Modulus (GPa) = 15.36522 46.84251 31.10387
# Shear Modulus (GPa) = 9.75882 -19.71795 -4.97956
#
# Velocity S-wave (km/s) = 2.20670 -3.13672 -1.57630
# Velocity P-wave (km/s) = 3.76295 3.20237 3.49392
#
# Compressibility (1/GPa) = 0.06508203
#
# Stress axis : x y z
#
# Youngs Moduli (GPa) = 33.99780 6.37748 40.31751
#
# Poissons Ratio (x) = 0.32518 0.13498
# Poissons Ratio (y) = 1.73349 0.75119
# Poissons Ratio (z) = 0.11383 0.11882
#
# Static dielectric constant tensor:
#      x y z
#    x 1.708680 0.000000 0.000000 
#    y 0.000000 1.700620 0.000000 
#    z 0.000000 0.000000 1.753330 
# 
# From -- ./inp_files/32751.got.cif
#   From: 2010.05.17/outbox.cif.g08.bks.cpg/sg47_17_cif.got.tgz:32751.got - 2010.06.03 20:15:42.
