data_PCOD9385107
_publ_section_title
;
Structure prediction by ZEFSAII (Michael W. Deem and Ramdas Pophale) SiO2 
 PCOD9385107
Probable space group: P M M M
;
_chemical_formula_sum "Si O2"
_cell_formula_units_Z 44
_cell_length_a 9.509436
_cell_length_b 7.649569
_cell_length_c 29.833905
_cell_angle_alpha 90.000000
_cell_angle_beta 90.000000
_cell_angle_gamma 90.000000
_cell_volume 2170.210342
_symmetry_space_group_name_H-M "P M M M"
_symmetry_group_IT_number 47
_symmetry_cell_setting 'orthorhombic'
loop_
_space_group_symop_operation_xyz
x,y,z
-x,-y,z
x,-y,-z
-x,y,-z
-x,-y,-z
x,y,-z
-x,y,z
x,-y,z
loop_
_atom_site_type_symbol
_atom_site_label
_atom_site_fract_x
_atom_site_fract_y
_atom_site_fract_z
Si Si1 0.836520 0.214515 0.194314
Si Si2 0.830241 0.791078 0.903579
Si Si3 0.158091 0.293977 0.363644
Si Si4 0.339780 0.210976 0.449398
Si Si5 0.167575 0.787229 0.000000
Si Si6 0.657582 0.206969 0.721752
O O1 0.783328 0.273921 0.145182
O O2 0.743957 0.277490 0.235784
O O3 0.000000 0.265393 0.199930
O O4 0.835792 0.000000 0.193833
O O5 0.776896 0.723145 0.951750
O O6 0.000000 0.768606 0.903472
O O7 0.804676 0.000000 0.903930
O O8 0.148430 0.500000 0.356466
O O9 0.231949 0.265060 0.411348
O O10 0.255541 0.225436 0.323859
O O11 0.000000 0.219674 0.362445
O O12 0.304406 0.269533 0.500000
O O13 0.500000 0.269250 0.439209
O O14 0.341995 0.000000 0.449869
O O15 0.000000 0.750278 0.000000
O O16 0.179893 0.000000 0.000000
O O17 0.500000 0.279534 0.717624
O O18 0.645167 0.000000 0.729823
#
# Coordination Sequence:
#
# PCOD9385107 Si02
#       6
#     8   8   8   8   4   8
#     4   8  13  22  37  57  81 110 146 189 235 279
#     4   7   9  13  23  42  69 101 137 177 221 268
#     4  11  24  38  52  74 103 132 162 198 240 284
#     4   9  19  37  60  84 108 134 165 198 230 269
#     4   7   8  10  18  36  65  99 134 173 216 263
#     4  10  20  33  50  71  93 121 160 202 242 286
#
# _framework density 20.274532000000001
#
# number of rings (size 3 to 8) (size 9 to 14) (size 15 to 20)
#    0.000    3.182    0.000    4.364    0.000    5.818 
#    0.000    2.727    0.000    0.000    0.000    0.636 
#    0.000    5.091    0.000    0.818    0.000   19.636 
#
# Total GULP energy -245138.658612 kJ/mol
# GULP energy per Si atom -5571.333150 kJ/mol
# Density = 2.022839 g / cm^3
# Si number density = 20.274532 Si / 1000 Ang^3
#
#
#
# Elastic Constant Matrix: (Units=GPa)
#
#
# Indices 1 2 3 4 5 6 
#
# 1 112.4051 2.8557 99.3512 0.0000 0.0000 0.0000
# 2 2.8557 34.3400 -3.7948 0.0000 0.0000 0.0000
# 3 99.3512 -3.7948 187.9429 0.0000 0.0000 0.0000
# 4 0.0000 0.0000 0.0000 -48.5546 0.0000 0.0000
# 5 0.0000 0.0000 0.0000 0.0000 18.8656 0.0000
# 6 0.0000 0.0000 0.0000 0.0000 0.0000 21.7914
#
#
#
# Elastic Compliance Matrix: (Units=1/GPa)
#
#
# Indices 1 2 3 4 5 6 
#
# 1 0.016893 -0.002397 -0.008978 0.000000 0.000000 0.000000
# 2 -0.002397 0.029526 0.001863 0.000000 0.000000 0.000000
# 3 -0.008978 0.001863 0.010105 0.000000 0.000000 0.000000
# 4 0.000000 0.000000 0.000000 -0.020595 0.000000 0.000000
# 5 0.000000 0.000000 0.000000 0.000000 0.053007 0.000000
# 6 0.000000 0.000000 0.000000 0.000000 0.000000 0.045890
#
#
# Mechanical properties :
#
#
# Convention : Reuss Voigt Hill
#
# Bulk Modulus (GPa) = 26.66731 59.05692 42.86212
# Shear Modulus (GPa) = 30.05736 14.17220 22.11478
#
# Velocity S-wave (km/s) = 3.85453 2.64676 3.30626
# Velocity P-wave (km/s) = 5.74382 6.20744 5.98012
#
# Compressibility (1/GPa) = 0.03749909
#
# Stress axis : x y z
#
# Youngs Moduli (GPa) = 59.19580 33.86866 98.96444
#
# Poissons Ratio (x) = 0.08118 0.88855
# Poissons Ratio (y) = 0.14189 -0.18440
# Poissons Ratio (z) = 0.53149 -0.06311
#
# Static dielectric constant tensor:
#      x y z
#    x 1.702220 0.000000 0.000000 
#    y 0.000000 1.771770 0.000000 
#    z 0.000000 0.000000 1.750910 
# 
# From -- ./inp_files/33899.got.cif
#   From: 2010.05.17/outbox.cif.g08.bks.cpg/sg47_17_cif.got.tgz:33899.got - 2010.06.03 20:15:42.
