data_PCOD9385478
_publ_section_title
;
Structure prediction by ZEFSAII (Michael W. Deem and Ramdas Pophale) SiO2 
 PCOD9385478
Probable space group: P M M M
;
_chemical_formula_sum "Si O2"
_cell_formula_units_Z 48
_cell_length_a 9.400322
_cell_length_b 7.877458
_cell_length_c 32.345189
_cell_angle_alpha 90.000000
_cell_angle_beta 90.000000
_cell_angle_gamma 90.000000
_cell_volume 2395.182003
_symmetry_space_group_name_H-M "P M M M"
_symmetry_group_IT_number 47
_symmetry_cell_setting 'orthorhombic'
loop_
_space_group_symop_operation_xyz
x,y,z
-x,-y,z
x,-y,-z
-x,y,-z
-x,-y,-z
x,y,-z
-x,y,z
x,-y,z
loop_
_atom_site_type_symbol
_atom_site_label
_atom_site_fract_x
_atom_site_fract_y
_atom_site_fract_z
Si Si1 0.161617 0.202669 0.793513
Si Si2 0.338750 0.704108 0.287507
Si Si3 0.835585 0.707219 0.046412
Si Si4 0.837125 0.703084 0.634131
Si Si5 0.166855 0.795674 0.455455
Si Si6 0.338684 0.295416 0.874585
O O1 0.248438 0.259258 0.753326
O O2 0.243998 0.253960 0.834916
O O3 0.000000 0.270495 0.793138
O O4 0.154666 0.000000 0.792627
O O5 0.500000 0.769515 0.284181
O O6 0.347055 0.500000 0.291347
O O7 0.257448 0.769667 0.328233
O O8 0.833182 0.500000 0.046662
O O9 0.735907 0.767356 0.083411
O O10 0.000000 0.757164 0.053398
O O11 0.793679 0.760562 0.000000
O O12 0.846082 0.500000 0.638538
O O13 0.774524 0.737390 0.588536
O O14 0.000000 0.770373 0.636128
O O15 0.227010 0.737813 0.500000
O O16 0.000000 0.743293 0.455142
O O17 0.170388 0.000000 0.455443
O O18 0.500000 0.231896 0.870034
O O19 0.345020 0.500000 0.877416
#
# Coordination Sequence:
#
# PCOD9385478 Si02
#       6
#     8   8   8   8   8   8
#     4  11  24  39  55  76 101 131 169 211 254 301
#     4  10  21  37  56  77 102 132 166 205 252 306
#     4   8  14  26  46  73 104 137 173 212 252 294
#     4   9  17  29  47  72  99 126 159 201 247 294
#     4   8  14  25  42  66  96 128 162 202 246 289
#     4  10  20  33  52  79 108 138 171 207 252 304
#
# _framework density 20.040232
#
# number of rings (size 3 to 8) (size 9 to 14) (size 15 to 20)
#    0.000    2.667    0.000    3.000    0.000    6.667 
#    0.000    5.000    0.000    1.000    0.000    7.000 
#    0.000    0.000    0.000    0.000    0.000    0.000 
#
# Total GULP energy -267729.193877 kJ/mol
# GULP energy per Si atom -5577.691539 kJ/mol
# Density = 1.999462 g / cm^3
# Si number density = 20.040232 Si / 1000 Ang^3
#
#
#
# Elastic Constant Matrix: (Units=GPa)
#
#
# Indices 1 2 3 4 5 6 
#
# 1 143.4660 8.6007 118.1743 0.0000 0.0000 0.0000
# 2 8.6007 18.8240 3.7110 0.0000 0.0000 0.0000
# 3 118.1743 3.7110 222.2229 0.0000 0.0000 0.0000
# 4 0.0000 0.0000 0.0000 62.8287 0.0000 0.0000
# 5 0.0000 0.0000 0.0000 0.0000 -3.8759 0.0000
# 6 0.0000 0.0000 0.0000 0.0000 0.0000 8.9004
#
#
#
# Elastic Compliance Matrix: (Units=1/GPa)
#
#
# Indices 1 2 3 4 5 6 
#
# 1 0.012774 -0.004512 -0.006718 0.000000 0.000000 0.000000
# 2 -0.004512 0.054893 0.001483 0.000000 0.000000 0.000000
# 3 -0.006718 0.001483 0.008048 0.000000 0.000000 0.000000
# 4 0.000000 0.000000 0.000000 0.015916 0.000000 0.000000
# 5 0.000000 0.000000 0.000000 0.000000 -0.258006 0.000000
# 6 0.000000 0.000000 0.000000 0.000000 0.000000 0.112355
#
#
# Mechanical properties :
#
#
# Convention : Reuss Voigt Hill
#
# Bulk Modulus (GPa) = 17.78710 71.72056 44.75383
# Shear Modulus (GPa) = -316.74551 30.50575 -143.11988
#
# Velocity S-wave (km/s) = -12.58562 3.90580 -8.45998
# Velocity P-wave (km/s) = 14.22330 7.49709 8.54681
#
# Compressibility (1/GPa) = 0.05622051
#
# Stress axis : x y z
#
# Youngs Moduli (GPa) = 78.28194 18.21727 124.25992
#
# Poissons Ratio (x) = 0.08220 0.83476
# Poissons Ratio (y) = 0.35323 -0.18426
# Poissons Ratio (z) = 0.52588 -0.02701
#
# Static dielectric constant tensor:
#      x y z
#    x 1.698990 0.000000 0.000000 
#    y 0.000000 1.730430 0.000000 
#    z 0.000000 0.000000 1.706940 
# 
# From -- ./inp_files/2475.got.cif
#   From: 2010.05.17/outbox.cif.g08.bks.cpg/sg47_2_cif.got.tgz:2475.got - 2010.06.03 20:15:42.
