data_PCOD9385357
_publ_section_title
;
Structure prediction by ZEFSAII (Michael W. Deem and Ramdas Pophale) SiO2 
 PCOD9385357
Probable space group: P M M M
;
_chemical_formula_sum "Si O2"
_cell_formula_units_Z 40
_cell_length_a 27.148072
_cell_length_b 9.452460
_cell_length_c 7.748128
_cell_angle_alpha 90.000000
_cell_angle_beta 90.000000
_cell_angle_gamma 90.000000
_cell_volume 1988.294116
_symmetry_space_group_name_H-M "P M M M"
_symmetry_group_IT_number 47
_symmetry_cell_setting 'orthorhombic'
loop_
_space_group_symop_operation_xyz
x,y,z
-x,-y,z
x,-y,-z
-x,y,-z
-x,-y,-z
x,y,-z
-x,y,z
x,-y,z
loop_
_atom_site_type_symbol
_atom_site_label
_atom_site_fract_x
_atom_site_fract_y
_atom_site_fract_z
Si Si1 0.500000 0.339527 0.205678
Si Si2 0.201887 0.672339 0.700060
Si Si3 0.000000 0.158445 0.205256
Si Si4 0.596502 0.160195 0.292931
Si Si5 0.309532 0.335842 0.711886
Si Si6 0.095519 0.660988 0.292355
O O1 0.500000 0.500000 0.276208
O O2 0.548542 0.253683 0.257655
O O3 0.500000 0.348418 0.000000
O O4 0.202464 0.719359 0.500000
O O5 0.201350 0.500000 0.699908
O O6 0.255213 0.711734 0.773816
O O7 0.148801 0.713905 0.775451
O O8 0.950913 0.242371 0.255274
O O9 0.000000 0.000000 0.278738
O O10 0.000000 0.149391 0.000000
O O11 0.601261 0.151752 0.500000
O O12 0.645645 0.238738 0.228894
O O13 0.591379 0.000000 0.226354
O O14 0.308318 0.334126 0.500000
O O15 0.317429 0.500000 0.761062
O O16 0.100508 0.653201 0.500000
O O17 0.086960 0.500000 0.229914
#
# Coordination Sequence:
#
# PCOD9385357 Si02
#       6
#     4   8   4   8   8   8
#     4  11  24  39  54  72  94 125 168 213 252 290
#     4   7  11  22  43  72 101 124 150 190 238 283
#     4  11  24  37  46  62  94 133 168 203 244 290
#     4  10  20  33  51  77 106 133 162 197 238 287
#     4   8  13  24  45  72 101 131 159 190 232 280
#     4   9  17  31  53  78  99 121 156 202 246 289
#
# _framework density 20.117749
#
# number of rings (size 3 to 8) (size 9 to 14) (size 15 to 20)
#    0.000    3.000    0.000    4.200    0.000    5.600 
#    0.000    1.000    0.000    4.800    0.000    2.800 
#    0.000    0.000    0.000    0.000    0.000    0.000 
#
# Total GULP energy -222957.240420 kJ/mol
# GULP energy per Si atom -5573.931011 kJ/mol
# Density = 2.007196 g / cm^3
# Si number density = 20.117749 Si / 1000 Ang^3
#
#
#
# Elastic Constant Matrix: (Units=GPa)
#
#
# Indices 1 2 3 4 5 6 
#
# 1 250.9864 118.8551 6.2664 0.0000 0.0000 0.0000
# 2 118.8551 131.8659 6.6153 0.0000 0.0000 0.0000
# 3 6.2664 6.6153 30.6471 0.0000 0.0000 0.0000
# 4 0.0000 0.0000 0.0000 13.1207 0.0000 0.0000
# 5 0.0000 0.0000 0.0000 0.0000 -51.5120 0.0000
# 6 0.0000 0.0000 0.0000 0.0000 0.0000 -9.2128
#
#
#
# Elastic Compliance Matrix: (Units=1/GPa)
#
#
# Indices 1 2 3 4 5 6 
#
# 1 0.006951 -0.006262 -0.000070 0.000000 0.000000 0.000000
# 2 -0.006262 0.013308 -0.001592 0.000000 0.000000 0.000000
# 3 -0.000070 -0.001592 0.032987 0.000000 0.000000 0.000000
# 4 0.000000 0.000000 0.000000 0.076215 0.000000 0.000000
# 5 0.000000 0.000000 0.000000 0.000000 -0.019413 0.000000
# 6 0.000000 0.000000 0.000000 0.000000 0.000000 -0.108545
#
#
# Mechanical properties :
#
#
# Convention : Reuss Voigt Hill
#
# Bulk Modulus (GPa) = 26.73888 75.21923 50.97906
# Shear Modulus (GPa) = 167.68816 9.26337 88.47576
#
# Velocity S-wave (km/s) = 9.13971 2.14816 6.63886
# Velocity P-wave (km/s) = 11.16688 6.60480 9.17394
#
# Compressibility (1/GPa) = 0.03739872
#
# Stress axis : x y z
#
# Youngs Moduli (GPa) = 143.85530 75.14544 30.31463
#
# Poissons Ratio (x) = 0.47057 0.00211
# Poissons Ratio (y) = 0.90083 0.04826
# Poissons Ratio (z) = 0.01002 0.11964
#
# Static dielectric constant tensor:
#      x y z
#    x 1.740560 0.000000 0.000000 
#    y 0.000000 1.692110 0.000000 
#    z 0.000000 0.000000 1.741780 
# 
# From -- ./inp_files/12991.got.cif
#   From: 2010.05.17/outbox.cif.g08.bks.cpg/sg47_7_cif.got.tgz:12991.got - 2010.06.03 20:15:42.
