data_PCOD9385731
_publ_section_title
;
Structure prediction by ZEFSAII (Michael W. Deem and Ramdas Pophale) SiO2 
 PCOD9385731
Probable space group: P M M M
;
_chemical_formula_sum "Si O2"
_cell_formula_units_Z 64
_cell_length_a 15.245085
_cell_length_b 7.462130
_cell_length_c 25.948556
_cell_angle_alpha 90.000000
_cell_angle_beta 90.000000
_cell_angle_gamma 90.000000
_cell_volume 2951.928648
_symmetry_space_group_name_H-M "P M M M"
_symmetry_group_IT_number 47
_symmetry_cell_setting 'orthorhombic'
loop_
_space_group_symop_operation_xyz
x,y,z
-x,-y,z
x,-y,-z
-x,y,-z
-x,-y,-z
x,y,-z
-x,y,z
x,-y,z
loop_
_atom_site_type_symbol
_atom_site_label
_atom_site_fract_x
_atom_site_fract_y
_atom_site_fract_z
Si Si1 0.595482 0.788602 0.270927
Si Si2 0.099631 0.212985 0.346306
Si Si3 0.777994 0.715845 0.557761
Si Si4 0.596621 0.283452 0.607201
Si Si5 0.785901 0.210672 0.941810
Si Si6 0.406245 0.715465 0.060434
Si Si7 0.213734 0.219684 0.750804
Si Si8 0.899896 0.780632 0.848852
O O1 0.500000 0.712479 0.256001
O O2 0.603647 0.768972 0.332827
O O3 0.685820 0.716226 0.248002
O O4 0.592966 0.000000 0.259184
O O5 0.148119 0.239670 0.400514
O O6 0.162728 0.280772 0.300620
O O7 0.000000 0.284231 0.345080
O O8 0.093198 0.000000 0.337944
O O9 0.796810 0.779841 0.500000
O O10 0.773102 0.500000 0.556198
O O11 0.682465 0.780890 0.577157
O O12 0.500000 0.223803 0.588520
O O13 0.597065 0.500000 0.604982
O O14 0.687528 0.225903 0.918844
O O15 0.855777 0.283708 0.901702
O O16 0.803800 0.000000 0.946650
O O17 0.787220 0.287158 0.000000
O O18 0.500000 0.777030 0.082779
O O19 0.406419 0.500000 0.061478
O O20 0.405820 0.770936 0.000000
O O21 0.158660 0.273713 0.800459
O O22 0.216446 0.000000 0.749442
O O23 0.000000 0.723775 0.843480
O O24 0.899388 0.000000 0.849388
#
# Coordination Sequence:
#
# PCOD9385731 Si02
#       8
#     8   8   8   8   8   8   8   8
#     4   9  16  27  47  73  97 120 149 190 239 286
#     4  10  20  34  53  74  93 119 160 207 249 287
#     4  10  21  35  50  71 100 131 161 195 237 286
#     4   9  17  30  49  72  97 126 159 191 226 275
#     4   9  17  28  44  70 101 129 160 202 248 288
#     4   8  14  26  45  67  91 124 164 198 232 283
#     4   9  16  29  49  72  96 122 156 198 241 287
#     4   9  17  29  46  69  97 129 164 202 244 289
#
# _framework density 21.680741000000001
#
# number of rings (size 3 to 8) (size 9 to 14) (size 15 to 20)
#    0.000    2.875    1.250    0.750    0.000    3.000 
#    0.000    5.625    0.000    4.125    0.000    6.125 
#    0.000    0.000    0.000    0.000    0.000    0.000 
#
# Total GULP energy -357048.184978 kJ/mol
# GULP energy per Si atom -5578.877890 kJ/mol
# Density = 2.163139 g / cm^3
# Si number density = 21.680741 Si / 1000 Ang^3
#
#
#
# Elastic Constant Matrix: (Units=GPa)
#
#
# Indices 1 2 3 4 5 6 
#
# 1 232.4025 8.3618 102.7291 0.0000 0.0000 0.0000
# 2 8.3618 63.4689 -1.8149 0.0000 0.0000 0.0000
# 3 102.7291 -1.8149 93.6062 0.0000 0.0000 0.0000
# 4 0.0000 0.0000 0.0000 19.1356 0.0000 0.0000
# 5 0.0000 0.0000 0.0000 0.0000 566.4189 0.0000
# 6 0.0000 0.0000 0.0000 0.0000 0.0000 25.7785
#
#
#
# Elastic Compliance Matrix: (Units=1/GPa)
#
#
# Indices 1 2 3 4 5 6 
#
# 1 0.008477 -0.001384 -0.009330 0.000000 0.000000 0.000000
# 2 -0.001384 0.015990 0.001828 0.000000 0.000000 0.000000
# 3 -0.009330 0.001828 0.020957 0.000000 0.000000 0.000000
# 4 0.000000 0.000000 0.000000 0.052259 0.000000 0.000000
# 5 0.000000 0.000000 0.000000 0.000000 0.001765 0.000000
# 6 0.000000 0.000000 0.000000 0.000000 0.000000 0.038792
#
#
# Mechanical properties :
#
#
# Convention : Reuss Voigt Hill
#
# Bulk Modulus (GPa) = 36.16002 67.55885 51.85944
# Shear Modulus (GPa) = 30.26120 140.94670 85.60395
#
# Velocity S-wave (km/s) = 3.74005 8.07163 6.29044
# Velocity P-wave (km/s) = 5.94687 10.86723 8.75962
#
# Compressibility (1/GPa) = 0.02765485
#
# Stress axis : x y z
#
# Youngs Moduli (GPa) = 117.97143 62.53789 47.71593
#
# Poissons Ratio (x) = 0.08652 0.44517
# Poissons Ratio (y) = 0.16322 -0.08724
# Poissons Ratio (z) = 1.10063 -0.11435
#
# Static dielectric constant tensor:
#      x y z
#    x 1.799480 0.000000 0.000000 
#    y 0.000000 1.756730 0.000000 
#    z 0.000000 0.000000 1.757230 
# 
# From -- ./inp_files/7935.got.cif
#   From: 2010.05.17/outbox.cif.g08.bks.cpg/sg47_4_cif.got.tgz:7935.got - 2010.06.03 20:15:42.
