data_PCOD9385422
_publ_section_title
;
Structure prediction by ZEFSAII (Michael W. Deem and Ramdas Pophale) SiO2 
 PCOD9385422
Probable space group: P M M M
;
_chemical_formula_sum "Si O2"
_cell_formula_units_Z 48
_cell_length_a 8.367211
_cell_length_b 29.848375
_cell_length_c 10.186621
_cell_angle_alpha 90.000000
_cell_angle_beta 90.000000
_cell_angle_gamma 90.000000
_cell_volume 2544.084673
_symmetry_space_group_name_H-M "P M M M"
_symmetry_group_IT_number 47
_symmetry_cell_setting 'orthorhombic'
loop_
_space_group_symop_operation_xyz
x,y,z
-x,-y,z
x,-y,-z
-x,y,-z
-x,-y,-z
x,y,-z
-x,y,z
x,-y,z
loop_
_atom_site_type_symbol
_atom_site_label
_atom_site_fract_x
_atom_site_fract_y
_atom_site_fract_z
Si Si1 0.690510 0.197980 0.150738
Si Si2 0.307297 0.627355 0.651379
Si Si3 0.691401 0.051547 0.500000
Si Si4 0.804962 0.948642 0.000000
Si Si5 0.191263 0.107002 0.747494
Si Si6 0.305184 0.551739 0.148075
Si Si7 0.809638 0.297492 0.150518
O O1 0.500000 0.202822 0.154783
O O2 0.743038 0.157231 0.242061
O O3 0.767121 0.245958 0.180898
O O4 0.738378 0.186570 0.000000
O O5 0.249391 0.628797 0.500000
O O6 0.500000 0.624905 0.645616
O O7 0.249888 0.584567 0.736713
O O8 0.262296 0.670028 0.739984
O O9 0.500000 0.050760 0.500000
O O10 0.752526 0.078913 0.375897
O O11 0.749205 0.000000 0.500000
O O12 0.752490 0.921189 0.873461
O O13 0.000000 0.949532 0.000000
O O14 0.750334 0.000000 0.000000
O O15 0.000000 0.109445 0.749649
O O16 0.500000 0.552558 0.148427
O O17 0.257311 0.500000 0.167532
O O18 0.255241 0.565752 0.000000
O O19 0.000000 0.302943 0.150263
O O20 0.751134 0.306695 0.000000
#
# Coordination Sequence:
#
# PCOD9385422 Si02
#       7
#     8   8   4   4   8   8   8
#     4  10  20  36  60  88 117 145 179 227 285 342
#     4  10  20  33  51  79 114 149 186 229 281 336
#     4  11  25  43  59  81 117 157 195 235 280 331
#     4   9  18  32  55  87 117 145 181 227 274 323
#     4  11  21  37  61  87 117 150 189 233 279 335
#     4   8  14  26  47  76 109 146 188 232 277 329
#     4  10  21  37  58  81 106 141 187 233 279 333
#
# _framework density 18.867296
#
# number of rings (size 3 to 8) (size 9 to 14) (size 15 to 20)
#    0.000    2.167    0.833    3.250    0.000    4.333 
#    1.500    1.667    0.000    2.500    0.000    3.500 
#    0.000    0.000    0.000    0.000    0.000    0.000 
#
# Total GULP energy -267900.418963 kJ/mol
# GULP energy per Si atom -5581.258728 kJ/mol
# Density = 1.882435 g / cm^3
# Si number density = 18.867296 Si / 1000 Ang^3
#
#
#
# Elastic Constant Matrix: (Units=GPa)
#
#
# Indices 1 2 3 4 5 6 
#
# 1 17.4812 6.0675 15.0963 0.0000 0.0000 0.0000
# 2 6.0675 133.4456 96.2391 0.0000 0.0000 0.0000
# 3 15.0963 96.2391 170.0822 0.0000 0.0000 0.0000
# 4 0.0000 0.0000 0.0000 30.5596 0.0000 0.0000
# 5 0.0000 0.0000 0.0000 0.0000 40.8577 0.0000
# 6 0.0000 0.0000 0.0000 0.0000 0.0000 -23.8452
#
#
#
# Elastic Compliance Matrix: (Units=1/GPa)
#
#
# Indices 1 2 3 4 5 6 
#
# 1 0.062252 0.001950 -0.006629 0.000000 0.000000 0.000000
# 2 0.001950 0.012721 -0.007371 0.000000 0.000000 0.000000
# 3 -0.006629 -0.007371 0.010639 0.000000 0.000000 0.000000
# 4 0.000000 0.000000 0.000000 0.032723 0.000000 0.000000
# 5 0.000000 0.000000 0.000000 0.000000 0.024475 0.000000
# 6 0.000000 0.000000 0.000000 0.000000 0.000000 -0.041937
#
#
# Mechanical properties :
#
#
# Convention : Reuss Voigt Hill
#
# Bulk Modulus (GPa) = 16.25700 61.75722 39.00711
# Shear Modulus (GPa) = 34.36989 23.08817 28.72903
#
# Velocity S-wave (km/s) = 4.27273 3.50196 3.90640
# Velocity P-wave (km/s) = 5.74254 7.01107 6.40827
#
# Compressibility (1/GPa) = 0.06151198
#
# Stress axis : x y z
#
# Youngs Moduli (GPa) = 16.06377 78.61039 93.99597
#
# Poissons Ratio (x) = -0.15331 0.62309
# Poissons Ratio (y) = -0.03133 0.69286
# Poissons Ratio (z) = 0.10649 0.57945
#
# Static dielectric constant tensor:
#      x y z
#    x 1.650050 0.000000 0.000000 
#    y 0.000000 1.636550 0.000000 
#    z 0.000000 0.000000 1.628400 
# 
# From -- ./inp_files/2560.got.cif
#   From: 2010.05.17/outbox.cif.g08.bks.cpg/sg47_2_cif.got.tgz:2560.got - 2010.06.03 20:15:42.
