data_PCOD9385540
_publ_section_title
;
Structure prediction by ZEFSAII (Michael W. Deem and Ramdas Pophale) SiO2 
 PCOD9385540
Probable space group: P M M M
;
_chemical_formula_sum "Si O2"
_cell_formula_units_Z 64
_cell_length_a 9.847261
_cell_length_b 19.593614
_cell_length_c 20.042807
_cell_angle_alpha 90.000000
_cell_angle_beta 90.000000
_cell_angle_gamma 90.000000
_cell_volume 3867.127949
_symmetry_space_group_name_H-M "P M M M"
_symmetry_group_IT_number 47
_symmetry_cell_setting 'orthorhombic'
loop_
_space_group_symop_operation_xyz
x,y,z
-x,-y,z
x,-y,-z
-x,y,-z
-x,-y,-z
x,y,-z
-x,y,z
x,-y,z
loop_
_atom_site_type_symbol
_atom_site_label
_atom_site_fract_x
_atom_site_fract_y
_atom_site_fract_z
Si Si1 0.160611 0.788393 0.575812
Si Si2 0.342893 0.077540 0.403082
Si Si3 0.658108 0.600230 0.073504
Si Si4 0.649439 0.922525 0.242934
Si Si5 0.349246 0.764124 0.075534
Si Si6 0.156285 0.811407 0.811601
Si Si7 0.840125 0.692727 0.701102
Si Si8 0.337702 0.421323 0.774406
O O1 0.174548 0.761552 0.500000
O O2 0.246872 0.858752 0.578970
O O3 0.199735 0.732564 0.632418
O O4 0.000000 0.803754 0.587360
O O5 0.500000 0.088332 0.424461
O O6 0.345181 0.076360 0.322888
O O7 0.301964 0.000000 0.424075
O O8 0.500000 0.578473 0.073101
O O9 0.659942 0.682191 0.073663
O O10 0.710708 0.580845 0.147337
O O11 0.715528 0.579151 0.000000
O O12 0.500000 0.895728 0.223939
O O13 0.768810 0.876393 0.217570
O O14 0.660557 0.000000 0.218932
O O15 0.500000 0.781051 0.101252
O O16 0.232872 0.791252 0.121766
O O17 0.338288 0.789187 0.000000
O O18 0.169310 0.750126 0.758536
O O19 0.000000 0.824616 0.823299
O O20 0.746524 0.630606 0.727616
O O21 0.000000 0.672458 0.695156
O O22 0.500000 0.403586 0.774361
O O23 0.324561 0.500000 0.752253
#
# Coordination Sequence:
#
# PCOD9385540 Si02
#       8
#     8   8   8   8   8   8   8   8
#     4  10  21  37  55  75 102 136 175 217 257 301
#     4   9  18  32  50  75 108 142 173 206 248 302
#     4   8  14  26  45  71 103 135 166 200 238 285
#     4   9  18  32  50  73 101 135 173 210 252 302
#     4   9  17  30  49  72  99 135 175 210 251 304
#     4  11  20  30  50  77 102 132 171 216 261 302
#     4  10  21  36  52  75 103 133 169 208 255 306
#     4  10  20  33  53  80 105 133 170 211 255 299
#
# _framework density 16.54975
#
# number of rings (size 3 to 8) (size 9 to 14) (size 15 to 20)
#    0.000    2.500    2.500    1.875    0.000    2.750 
#    0.000    3.750    0.000    1.125    0.000    6.125 
#    0.000    0.000    0.000    0.000    0.000    0.000 
#
# Total GULP energy -356292.361881 kJ/mol
# GULP energy per Si atom -5567.068154 kJ/mol
# Density = 1.651208 g / cm^3
# Si number density = 16.549750 Si / 1000 Ang^3
#
#
#
# Elastic Constant Matrix: (Units=GPa)
#
#
# Indices 1 2 3 4 5 6 
#
# 1 99.8095 62.0615 56.7457 0.0000 0.0000 0.0000
# 2 62.0615 83.7608 61.3279 0.0000 0.0000 0.0000
# 3 56.7457 61.3279 92.6162 0.0000 0.0000 0.0000
# 4 0.0000 0.0000 0.0000 13.9851 0.0000 0.0000
# 5 0.0000 0.0000 0.0000 0.0000 19.0241 0.0000
# 6 0.0000 0.0000 0.0000 0.0000 0.0000 18.3047
#
#
#
# Elastic Compliance Matrix: (Units=1/GPa)
#
#
# Indices 1 2 3 4 5 6 
#
# 1 0.019551 -0.011094 -0.004633 0.000000 0.000000 0.000000
# 2 -0.011094 0.029470 -0.012717 0.000000 0.000000 0.000000
# 3 -0.004633 -0.012717 0.022056 0.000000 0.000000 0.000000
# 4 0.000000 0.000000 0.000000 0.071505 0.000000 0.000000
# 5 0.000000 0.000000 0.000000 0.000000 0.052565 0.000000
# 6 0.000000 0.000000 0.000000 0.000000 0.000000 0.054631
#
#
# Mechanical properties :
#
#
# Convention : Reuss Voigt Hill
#
# Bulk Modulus (GPa) = 70.47153 70.71740 70.59447
# Shear Modulus (GPa) = 16.05676 16.66622 16.36149
#
# Velocity S-wave (km/s) = 3.11820 3.17683 3.14765
# Velocity P-wave (km/s) = 7.45911 7.50195 7.48056
#
# Compressibility (1/GPa) = 0.01419013
#
# Stress axis : x y z
#
# Youngs Moduli (GPa) = 51.14698 33.93296 45.33862
#
# Poissons Ratio (x) = 0.37647 0.21004
# Poissons Ratio (y) = 0.56745 0.57655
# Poissons Ratio (z) = 0.23695 0.43151
#
# Static dielectric constant tensor:
#      x y z
#    x 1.552100 0.000000 0.000000 
#    y 0.000000 1.557350 0.000000 
#    z 0.000000 0.000000 1.589190 
# 
# From -- ./inp_files/27067.got.cif
#   From: 2010.05.17/outbox.cif.g08.bks.cpg/sg47_14_cif.got.tgz:27067.got - 2010.06.03 20:15:42.
