data_PCOD9385876
_publ_section_title
;
Structure prediction by ZEFSAII (Michael W. Deem and Ramdas Pophale) SiO2 
 PCOD9385876
Probable space group: P M M M
;
_chemical_formula_sum "Si O2"
_cell_formula_units_Z 60
_cell_length_a 15.826674
_cell_length_b 14.760658
_cell_length_c 14.133528
_cell_angle_alpha 90.000000
_cell_angle_beta 90.000000
_cell_angle_gamma 90.000000
_cell_volume 3301.763470
_symmetry_space_group_name_H-M "P M M M"
_symmetry_group_IT_number 47
_symmetry_cell_setting 'orthorhombic'
loop_
_space_group_symop_operation_xyz
x,y,z
-x,-y,z
x,-y,-z
-x,y,-z
-x,-y,-z
x,y,-z
-x,y,z
x,-y,z
loop_
_atom_site_type_symbol
_atom_site_label
_atom_site_fract_x
_atom_site_fract_y
_atom_site_fract_z
Si Si1 0.898546 0.500000 0.896303
Si Si2 0.832371 0.606777 0.392038
Si Si3 0.651102 0.293848 0.390839
Si Si4 0.903801 0.682513 0.212472
Si Si5 0.404455 0.391188 0.206238
Si Si6 0.595662 0.103594 0.319872
Si Si7 0.365743 0.898756 0.896734
Si Si8 0.254479 0.723297 0.107567
O O1 0.878594 0.410789 0.839853
O O2 0.000000 0.500000 0.904017
O O3 0.860802 0.500000 0.000000
O O4 0.861408 0.609833 0.500000
O O5 0.821838 0.500000 0.366819
O O6 0.743436 0.659592 0.385573
O O7 0.895098 0.657425 0.321713
O O8 0.622162 0.302233 0.500000
O O9 0.599106 0.348281 0.311411
O O10 0.648642 0.187850 0.360650
O O11 0.826996 0.740866 0.173476
O O12 0.000000 0.708268 0.188513
O O13 0.500000 0.372491 0.167498
O O14 0.393393 0.500000 0.208832
O O15 0.326031 0.344681 0.150441
O O16 0.500000 0.113153 0.357106
O O17 0.590413 0.111565 0.205286
O O18 0.624664 0.000000 0.340735
O O19 0.299174 0.819524 0.897809
O O20 0.329330 0.000000 0.894260
O O21 0.410351 0.892195 0.000000
O O22 0.231217 0.695628 0.000000
#
# Coordination Sequence:
#
# PCOD9385876 Si02
#       8
#     4   8   8   8   8   8   8   8
#     4   9  18  30  45  71 104 138 176 215 259 319
#     4  10  20  35  56  80 107 143 187 233 283 337
#     4  11  22  37  57  79 107 145 190 236 283 334
#     4  11  21  35  55  80 111 145 182 226 276 335
#     4  11  24  40  57  79 109 148 196 239 276 327
#     4  10  20  34  53  79 112 145 180 230 290 344
#     4   9  18  34  57  83 109 141 183 227 275 334
#     4  11  23  38  59  84 114 152 186 228 283 333
#
# _framework density 18.172107
#
# number of rings (size 3 to 8) (size 9 to 14) (size 15 to 20)
#    0.000    1.667    3.333    1.200    0.933    4.000 
#    0.000    5.333    0.000    0.400    0.000    1.867 
#    0.000    0.000    0.000   11.467    0.000    0.133 
#
# Total GULP energy -334079.075503 kJ/mol
# GULP energy per Si atom -5567.984592 kJ/mol
# Density = 1.813075 g / cm^3
# Si number density = 18.172107 Si / 1000 Ang^3
#
#
#
# Elastic Constant Matrix: (Units=GPa)
#
#
# Indices 1 2 3 4 5 6 
#
# 1 85.2777 39.0981 28.8174 0.0000 0.0000 0.0000
# 2 39.0981 91.4941 22.8955 0.0000 0.0000 0.0000
# 3 28.8174 22.8955 87.4533 0.0000 0.0000 0.0000
# 4 0.0000 0.0000 0.0000 28.4988 0.0000 0.0000
# 5 0.0000 0.0000 0.0000 0.0000 -4.6909 0.0000
# 6 0.0000 0.0000 0.0000 0.0000 0.0000 -3.3002
#
#
#
# Elastic Compliance Matrix: (Units=1/GPa)
#
#
# Indices 1 2 3 4 5 6 
#
# 1 0.015592 -0.005754 -0.003631 0.000000 0.000000 0.000000
# 2 -0.005754 0.013819 -0.001722 0.000000 0.000000 0.000000
# 3 -0.003631 -0.001722 0.013082 0.000000 0.000000 0.000000
# 4 0.000000 0.000000 0.000000 0.035089 0.000000 0.000000
# 5 0.000000 0.000000 0.000000 0.000000 -0.213181 0.000000
# 6 0.000000 0.000000 0.000000 0.000000 0.000000 -0.303008
#
#
# Mechanical properties :
#
#
# Convention : Reuss Voigt Hill
#
# Bulk Modulus (GPa) = 49.31306 49.53857 49.42581
# Shear Modulus (GPa) = -12.20606 15.66249 1.72822
#
# Velocity S-wave (km/s) = -2.59451 2.93899 0.97626
# Velocity P-wave (km/s) = 4.26852 6.23192 5.34121
#
# Compressibility (1/GPa) = 0.02027861
#
# Stress axis : x y z
#
# Youngs Moduli (GPa) = 64.13709 72.36191 76.44070
#
# Poissons Ratio (x) = 0.41637 0.27758
# Poissons Ratio (y) = 0.36905 0.13162
# Poissons Ratio (z) = 0.23290 0.12460
#
# Static dielectric constant tensor:
#      x y z
#    x 1.626850 0.000000 0.000000 
#    y 0.000000 2.154610 0.000000 
#    z 0.000000 0.000000 1.682230 
# 
# From -- ./inp_files/23940.got.cif
#   From: 2010.05.17/outbox.cif.g08.bks.cpg/sg47_12_cif.got.tgz:23940.got - 2010.06.03 20:15:42.
