data_PCOD9385700
_publ_section_title
;
Structure prediction by ZEFSAII (Michael W. Deem and Ramdas Pophale) SiO2 
 PCOD9385700
Probable space group: P M M M
;
_chemical_formula_sum "Si O2"
_cell_formula_units_Z 56
_cell_length_a 9.394375
_cell_length_b 23.140095
_cell_length_c 15.447171
_cell_angle_alpha 90.000000
_cell_angle_beta 90.000000
_cell_angle_gamma 90.000000
_cell_volume 3358.009991
_symmetry_space_group_name_H-M "P M M M"
_symmetry_group_IT_number 47
_symmetry_cell_setting 'orthorhombic'
loop_
_space_group_symop_operation_xyz
x,y,z
-x,-y,z
x,-y,-z
-x,y,-z
-x,-y,-z
x,y,-z
-x,y,z
x,-y,z
loop_
_atom_site_type_symbol
_atom_site_label
_atom_site_fract_x
_atom_site_fract_y
_atom_site_fract_z
Si Si1 0.163452 0.109984 0.153578
Si Si2 0.837993 0.932398 0.648937
Si Si3 0.668910 0.825703 0.595363
Si Si4 0.671414 0.383276 0.602195
Si Si5 0.656042 0.000000 0.100942
Si Si6 0.327610 0.724439 0.720473
Si Si7 0.671269 0.225877 0.100116
Si Si8 0.836950 0.500000 0.604708
O O1 0.159824 0.096069 0.255721
O O2 0.253306 0.056307 0.120067
O O3 0.244331 0.167792 0.125142
O O4 0.000000 0.110838 0.122661
O O5 0.738283 0.888623 0.598345
O O6 0.000000 0.931297 0.615495
O O7 0.794106 0.000000 0.652816
O O8 0.692794 0.799532 0.500000
O O9 0.500000 0.832312 0.607540
O O10 0.722250 0.781829 0.669119
O O11 0.700847 0.370738 0.500000
O O12 0.500000 0.390675 0.608964
O O13 0.717273 0.331397 0.665595
O O14 0.751324 0.442091 0.627828
O O15 0.500000 0.000000 0.145083
O O16 0.634481 0.000000 0.000000
O O17 0.500000 0.724779 0.715629
O O18 0.291601 0.729506 0.822220
O O19 0.500000 0.215381 0.105234
O O20 0.702231 0.242212 0.000000
O O21 0.841777 0.500000 0.500000
O O22 0.000000 0.500000 0.636281
#
# Coordination Sequence:
#
# PCOD9385700 Si02
#       8
#     8   8   8   8   4   8   8   4
#     4  11  21  35  52  70  93 122 157 198 246 301
#     4  10  21  37  52  67  90 122 160 200 248 303
#     4  10  20  34  53  75  96 122 160 203 247 295
#     4   9  16  28  49  75 103 138 176 206 237 282
#     4  11  23  35  49  71  94 117 150 195 253 316
#     4   9  17  31  51  75 102 131 163 205 247 286
#     4  10  20  34  52  74  99 128 161 198 248 303
#     4   9  17  29  45  71 110 145 170 202 243 283
#
# _framework density 16.676542999999999
#
# number of rings (size 3 to 8) (size 9 to 14) (size 15 to 20)
#    0.000    2.143    2.143    1.714    0.000    6.571 
#    0.000    2.857    0.000    1.714    0.000    0.500 
#    0.000    4.000    0.000    0.000    0.000    0.000 
#
# Total GULP energy -311929.873074 kJ/mol
# GULP energy per Si atom -5570.176305 kJ/mol
# Density = 1.663859 g / cm^3
# Si number density = 16.676543 Si / 1000 Ang^3
#
#
#
# Elastic Constant Matrix: (Units=GPa)
#
#
# Indices 1 2 3 4 5 6 
#
# 1 46.9787 38.4280 38.0266 0.0000 0.0000 0.0000
# 2 38.4280 122.9466 60.2790 0.0000 0.0000 0.0000
# 3 38.0266 60.2790 101.7730 0.0000 0.0000 0.0000
# 4 0.0000 0.0000 0.0000 -10.7633 0.0000 0.0000
# 5 0.0000 0.0000 0.0000 0.0000 10.3404 0.0000
# 6 0.0000 0.0000 0.0000 0.0000 0.0000 -30.9962
#
#
#
# Elastic Compliance Matrix: (Units=1/GPa)
#
#
# Indices 1 2 3 4 5 6 
#
# 1 0.033478 -0.006103 -0.008894 0.000000 0.000000 0.000000
# 2 -0.006103 0.012575 -0.005167 0.000000 0.000000 0.000000
# 3 -0.008894 -0.005167 0.016209 0.000000 0.000000 0.000000
# 4 0.000000 0.000000 0.000000 -0.092908 0.000000 0.000000
# 5 0.000000 0.000000 0.000000 0.000000 0.096708 0.000000
# 6 0.000000 0.000000 0.000000 0.000000 0.000000 -0.032262
#
#
# Mechanical properties :
#
#
# Convention : Reuss Voigt Hill
#
# Bulk Modulus (GPa) = 45.59343 60.57393 53.08368
# Shear Modulus (GPa) = 61.39494 2.71381 32.05438
#
# Velocity S-wave (km/s) = 6.07413 1.27705 4.38896
# Velocity P-wave (km/s) = 8.75172 6.21097 7.58844
#
# Compressibility (1/GPa) = 0.02193299
#
# Stress axis : x y z
#
# Youngs Moduli (GPa) = 29.87071 79.52422 61.69222
#
# Poissons Ratio (x) = 0.48536 0.54867
# Poissons Ratio (y) = 0.18231 0.31879
# Poissons Ratio (z) = 0.26566 0.41094
#
# Static dielectric constant tensor:
#      x y z
#    x 1.582910 0.000000 0.000000 
#    y 0.000000 1.536520 0.000000 
#    z 0.000000 0.000000 1.609060 
# 
# From -- ./inp_files/21656.got.cif
#   From: 2010.05.17/outbox.cif.g08.bks.cpg/sg47_11_cif.got.tgz:21656.got - 2010.06.03 20:15:42.
