data_PCOD9385530
_publ_section_title
;
Structure prediction by ZEFSAII (Michael W. Deem and Ramdas Pophale) SiO2 
 PCOD9385530
Probable space group: P M M M
;
_chemical_formula_sum "Si O2"
_cell_formula_units_Z 56
_cell_length_a 8.956110
_cell_length_b 14.437157
_cell_length_c 23.624632
_cell_angle_alpha 90.000000
_cell_angle_beta 90.000000
_cell_angle_gamma 90.000000
_cell_volume 3054.683018
_symmetry_space_group_name_H-M "P M M M"
_symmetry_group_IT_number 47
_symmetry_cell_setting 'orthorhombic'
loop_
_space_group_symop_operation_xyz
x,y,z
-x,-y,z
x,-y,-z
-x,y,-z
-x,-y,-z
x,y,-z
-x,y,z
x,-y,z
loop_
_atom_site_type_symbol
_atom_site_label
_atom_site_fract_x
_atom_site_fract_y
_atom_site_fract_z
Si Si1 0.826827 0.389462 0.724385
Si Si2 0.325334 0.110825 0.216969
Si Si3 0.820666 0.291007 0.393111
Si Si4 0.321206 0.607888 0.500000
Si Si5 0.820707 0.894082 0.661840
Si Si6 0.178900 0.783490 0.887582
Si Si7 0.818186 0.893443 0.000000
Si Si8 0.677742 0.607418 0.156702
O O1 0.820045 0.500000 0.715134
O O2 0.782160 0.339394 0.666681
O O3 0.728884 0.368215 0.779298
O O4 0.000000 0.364604 0.736699
O O5 0.500000 0.135739 0.216054
O O6 0.255732 0.130158 0.278506
O O7 0.239531 0.163023 0.167380
O O8 0.312209 0.000000 0.208232
O O9 0.740929 0.340784 0.444689
O O10 0.782426 0.182873 0.384648
O O11 0.000000 0.299451 0.400454
O O12 0.273801 0.500000 0.500000
O O13 0.500000 0.610677 0.500000
O O14 0.000000 0.890020 0.670044
O O15 0.780720 0.000000 0.647140
O O16 0.227536 0.838869 0.943606
O O17 0.243482 0.680057 0.884343
O O18 0.000000 0.780784 0.886085
O O19 0.000000 0.895521 0.000000
O O20 0.766582 0.000000 0.000000
O O21 0.500000 0.614888 0.152268
O O22 0.720941 0.500000 0.147012
#
# Coordination Sequence:
#
# PCOD9385530 Si02
#       8
#     8   8   8   4   8   8   4   8
#     4   9  17  30  51  80 109 137 175 221 265 313
#     4  10  20  33  52  82 117 148 178 216 266 323
#     4  10  20  35  56  79 104 139 179 217 260 309
#     4  11  25  41  56  77 104 134 171 217 268 321
#     4   9  18  33  54  82 113 143 178 219 262 310
#     4  11  21  35  57  80 105 141 183 227 272 318
#     4   9  20  38  58  81 106 134 175 225 272 317
#     4  10  21  36  54  79 112 146 178 217 268 324
#
# _framework density 18.332509000000002
#
# number of rings (size 3 to 8) (size 9 to 14) (size 15 to 20)
#    0.000    2.143    0.000    3.214    0.000    5.714 
#    0.000    3.571    0.000    6.857    0.000    0.000 
#    0.000    0.000    0.000    0.000    0.000    0.000 
#
# Total GULP energy -312738.415424 kJ/mol
# GULP energy per Si atom -5584.614561 kJ/mol
# Density = 1.829078 g / cm^3
# Si number density = 18.332509 Si / 1000 Ang^3
#
#
#
# Elastic Constant Matrix: (Units=GPa)
#
#
# Indices 1 2 3 4 5 6 
#
# 1 47.3087 54.0913 43.1655 0.0000 0.0000 0.0000
# 2 54.0913 136.5336 100.8456 0.0000 0.0000 0.0000
# 3 43.1655 100.8456 100.3638 0.0000 0.0000 0.0000
# 4 0.0000 0.0000 0.0000 33.6894 0.0000 0.0000
# 5 0.0000 0.0000 0.0000 0.0000 -72.6532 0.0000
# 6 0.0000 0.0000 0.0000 0.0000 0.0000 26.7757
#
#
#
# Elastic Compliance Matrix: (Units=1/GPa)
#
#
# Indices 1 2 3 4 5 6 
#
# 1 0.039246 -0.011949 -0.004873 0.000000 0.000000 0.000000
# 2 -0.011949 0.032044 -0.027059 0.000000 0.000000 0.000000
# 3 -0.004873 -0.027059 0.039248 0.000000 0.000000 0.000000
# 4 0.000000 0.000000 0.000000 0.029683 0.000000 0.000000
# 5 0.000000 0.000000 0.000000 0.000000 -0.013764 0.000000
# 6 0.000000 0.000000 0.000000 0.000000 0.000000 0.037347
#
#
# Mechanical properties :
#
#
# Convention : Reuss Voigt Hill
#
# Bulk Modulus (GPa) = 43.90404 75.60120 59.75262
# Shear Modulus (GPa) = 19.29317 3.30263 11.29790
#
# Velocity S-wave (km/s) = 3.24759 1.34366 2.48519
# Velocity P-wave (km/s) = 6.16954 6.61329 6.39527
#
# Compressibility (1/GPa) = 0.02277695
#
# Stress axis : x y z
#
# Youngs Moduli (GPa) = 25.48016 31.20680 25.47887
#
# Poissons Ratio (x) = 0.37290 0.12415
# Poissons Ratio (y) = 0.30447 0.68943
# Poissons Ratio (z) = 0.12416 0.84442
#
# Static dielectric constant tensor:
#      x y z
#    x 1.615390 0.000000 0.000000 
#    y 0.000000 1.664290 0.000000 
#    z 0.000000 0.000000 1.587280 
# 
# From -- ./inp_files/29793.got.cif
#   From: 2010.05.17/outbox.cif.g08.bks.cpg/sg47_15_cif.got.tgz:29793.got - 2010.06.03 20:15:42.
