data_PCOD9385328
_publ_section_title
;
Structure prediction by ZEFSAII (Michael W. Deem and Ramdas Pophale) SiO2 
 PCOD9385328
Probable space group: P M M M
;
_chemical_formula_sum "Si O2"
_cell_formula_units_Z 40
_cell_length_a 7.462934
_cell_length_b 8.245458
_cell_length_c 29.370231
_cell_angle_alpha 90.000000
_cell_angle_beta 90.000000
_cell_angle_gamma 90.000000
_cell_volume 1807.306236
_symmetry_space_group_name_H-M "P M M M"
_symmetry_group_IT_number 47
_symmetry_cell_setting 'orthorhombic'
loop_
_space_group_symop_operation_xyz
x,y,z
-x,-y,z
x,-y,-z
-x,y,-z
-x,-y,-z
x,y,-z
-x,y,z
x,-y,z
loop_
_atom_site_type_symbol
_atom_site_label
_atom_site_fract_x
_atom_site_fract_y
_atom_site_fract_z
Si Si1 0.209425 0.685712 0.892845
Si Si2 0.209866 0.674662 0.600435
Si Si3 0.283292 0.180303 0.693880
Si Si4 0.218931 0.000000 0.553006
Si Si5 0.284000 0.687425 0.210265
Si Si6 0.219357 0.000000 0.052974
O O1 0.283909 0.500000 0.897005
O O2 0.222071 0.736698 0.839829
O O3 0.282979 0.833842 0.922802
O O4 0.000000 0.672434 0.904603
O O5 0.287918 0.500000 0.587549
O O6 0.223519 0.698432 0.654759
O O7 0.000000 0.670679 0.588366
O O8 0.285250 0.836099 0.577192
O O9 0.500000 0.184406 0.694503
O O10 0.222024 0.218639 0.745037
O O11 0.224168 0.000000 0.680726
O O12 0.264693 0.000000 0.500000
O O13 0.000000 0.000000 0.556513
O O14 0.500000 0.696416 0.209381
O O15 0.231788 0.500000 0.216151
O O16 0.000000 0.000000 0.056256
O O17 0.266652 0.000000 0.000000
#
# Coordination Sequence:
#
# PCOD9385328 Si02
#       6
#     8   8   8   4   8   4
#     4   9  18  32  50  73  99 127 162 202 243 289
#     4  10  20  34  54  79 105 135 171 210 254 301
#     4  10  20  33  51  76 105 139 175 208 248 300
#     4   9  18  34  54  77 106 134 165 211 260 305
#     4   9  18  32  49  71 100 133 166 200 241 291
#     4   9  18  32  50  73  98 124 159 203 250 295
#
# _framework density 22.132387999999999
#
# number of rings (size 3 to 8) (size 9 to 14) (size 15 to 20)
#    0.000    2.600    1.000    0.600    1.400    2.800 
#    0.000    6.000    0.000    2.400    0.000    4.200 
#    0.000    0.000    0.000    0.000    0.000    0.000 
#
# Total GULP energy -223260.922168 kJ/mol
# GULP energy per Si atom -5581.523054 kJ/mol
# Density = 2.208201 g / cm^3
# Si number density = 22.132388 Si / 1000 Ang^3
#
#
#
# Elastic Constant Matrix: (Units=GPa)
#
#
# Indices 1 2 3 4 5 6 
#
# 1 63.1363 9.6830 -4.9637 0.0000 0.0000 0.0000
# 2 9.6830 185.2750 98.7947 0.0000 0.0000 0.0000
# 3 -4.9637 98.7947 123.6279 0.0000 0.0000 0.0000
# 4 0.0000 0.0000 0.0000 -11.3991 0.0000 0.0000
# 5 0.0000 0.0000 0.0000 0.0000 26.5412 0.0000
# 6 0.0000 0.0000 0.0000 0.0000 0.0000 0.9116
#
#
#
# Elastic Compliance Matrix: (Units=1/GPa)
#
#
# Indices 1 2 3 4 5 6 
#
# 1 0.016344 -0.002098 0.002333 0.000000 0.000000 0.000000
# 2 -0.002098 0.009674 -0.007815 0.000000 0.000000 0.000000
# 3 0.002333 -0.007815 0.014428 0.000000 0.000000 0.000000
# 4 0.000000 0.000000 0.000000 -0.087726 0.000000 0.000000
# 5 0.000000 0.000000 0.000000 0.000000 0.037677 0.000000
# 6 0.000000 0.000000 0.000000 0.000000 0.000000 1.096965
#
#
# Mechanical properties :
#
#
# Convention : Reuss Voigt Hill
#
# Bulk Modulus (GPa) = 39.54899 64.34081 51.94490
# Shear Modulus (GPa) = 4.50065 21.11242 12.80653
#
# Velocity S-wave (km/s) = 1.42756 3.09190 2.40809
# Velocity P-wave (km/s) = 4.54151 6.47151 5.59043
#
# Compressibility (1/GPa) = 0.02528509
#
# Stress axis : x y z
#
# Youngs Moduli (GPa) = 61.18475 103.36493 69.30983
#
# Poissons Ratio (x) = 0.21688 -0.16169
# Poissons Ratio (y) = 0.12838 0.54168
# Poissons Ratio (z) = -0.14274 0.80784
#
# Static dielectric constant tensor:
#      x y z
#    x 1.841780 0.000000 0.000000 
#    y 0.000000 1.827700 0.000000 
#    z 0.000000 0.000000 1.762910 
# 
# From -- ./inp_files/1855.got.cif
#   From: 2010.05.17/outbox.cif.g08.bks.cpg/sg47_1_cif.got.tgz:1855.got - 2010.06.03 20:15:42.
