data_PCOD9385030
_publ_section_title
;
Structure prediction by ZEFSAII (Michael W. Deem and Ramdas Pophale) SiO2 
 PCOD9385030
Probable space group: P M M M
;
_chemical_formula_sum "Si O2"
_cell_formula_units_Z 56
_cell_length_a 7.799155
_cell_length_b 23.154485
_cell_length_c 15.312782
_cell_angle_alpha 90.000000
_cell_angle_beta 90.000000
_cell_angle_gamma 90.000000
_cell_volume 2765.265130
_symmetry_space_group_name_H-M "P M M M"
_symmetry_group_IT_number 47
_symmetry_cell_setting 'orthorhombic'
loop_
_space_group_symop_operation_xyz
x,y,z
-x,-y,z
x,-y,-z
-x,y,-z
-x,-y,-z
x,y,-z
-x,y,z
x,-y,z
loop_
_atom_site_type_symbol
_atom_site_label
_atom_site_fract_x
_atom_site_fract_y
_atom_site_fract_z
Si Si1 0.700452 0.613514 0.094959
Si Si2 0.800317 0.811832 0.734186
Si Si3 0.191878 0.930702 0.500000
Si Si4 0.289615 0.610283 0.288768
Si Si5 0.290938 0.500000 0.599004
Si Si6 0.791972 0.747015 0.094979
Si Si7 0.698746 0.065203 0.307596
Si Si8 0.702658 0.720222 0.400382
O O1 0.500000 0.596543 0.094164
O O2 0.772834 0.597772 0.190075
O O3 0.715167 0.683039 0.096882
O O4 0.774042 0.594930 0.000000
O O5 0.729769 0.782514 0.821887
O O6 0.781292 0.880579 0.739571
O O7 0.723082 0.781225 0.648798
O O8 0.000000 0.798188 0.729003
O O9 0.284790 0.918402 0.409927
O O10 0.000000 0.905326 0.500000
O O11 0.176398 0.000000 0.500000
O O12 0.500000 0.612773 0.283606
O O13 0.239855 0.557551 0.350469
O O14 0.230825 0.670036 0.334608
O O15 0.500000 0.500000 0.597420
O O16 0.229914 0.500000 0.500000
O O17 0.000000 0.741760 0.099332
O O18 0.750442 0.773022 0.000000
O O19 0.500000 0.063125 0.284198
O O20 0.770770 0.000000 0.295899
O O21 0.772417 0.719270 0.500000
O O22 0.500000 0.708964 0.407986
#
# Coordination Sequence:
#
# PCOD9385030 Si02
#       8
#     8   8   4   8   4   8   8   8
#     4   9  16  27  46  71  98 128 161 203 259 314
#     4  11  22  34  52  77 103 131 166 211 261 309
#     4   9  17  31  51  73  97 129 171 214 251 290
#     4   9  16  28  45  68  99 132 170 213 253 301
#     4   9  16  26  43  67  96 135 179 215 250 296
#     4   9  18  33  52  75 101 129 165 208 256 310
#     4  10  21  36  53  72  99 137 176 211 250 302
#     4  10  20  33  49  70 100 136 170 209 256 305
#
# _framework density 20.251221999999999
#
# number of rings (size 3 to 8) (size 9 to 14) (size 15 to 20)
#    0.000    2.429    1.429    1.500    1.000    4.286 
#    0.000    0.357    0.000    2.571    0.000    5.000 
#    0.000    5.714    0.000    0.000    0.000    0.000 
#
# Total GULP energy -312098.326993 kJ/mol
# GULP energy per Si atom -5573.184411 kJ/mol
# Density = 2.020513 g / cm^3
# Si number density = 20.251222 Si / 1000 Ang^3
#
#
#
# Elastic Constant Matrix: (Units=GPa)
#
#
# Indices 1 2 3 4 5 6 
#
# 1 25.5051 -6.8908 4.7907 0.0000 0.0000 0.0000
# 2 -6.8908 75.9961 39.6797 0.0000 0.0000 0.0000
# 3 4.7907 39.6797 161.5173 0.0000 0.0000 0.0000
# 4 0.0000 0.0000 0.0000 -31.2711 0.0000 0.0000
# 5 0.0000 0.0000 0.0000 0.0000 1.2904 0.0000
# 6 0.0000 0.0000 0.0000 0.0000 0.0000 -74.3305
#
#
#
# Elastic Compliance Matrix: (Units=1/GPa)
#
#
# Indices 1 2 3 4 5 6 
#
# 1 0.041016 0.004995 -0.002444 0.000000 0.000000 0.000000
# 2 0.004995 0.015703 -0.004006 0.000000 0.000000 0.000000
# 3 -0.002444 -0.004006 0.007248 0.000000 0.000000 0.000000
# 4 0.000000 0.000000 0.000000 -0.031978 0.000000 0.000000
# 5 0.000000 0.000000 0.000000 0.000000 0.774970 0.000000
# 6 0.000000 0.000000 0.000000 0.000000 0.000000 -0.013453
#
#
# Mechanical properties :
#
#
# Convention : Reuss Voigt Hill
#
# Bulk Modulus (GPa) = 16.37780 37.57528 26.97654
# Shear Modulus (GPa) = 6.12170 -5.83299 0.14436
#
# Velocity S-wave (km/s) = 1.74053 -1.69899 0.26728
# Velocity P-wave (km/s) = 3.48484 3.84007 3.66676
#
# Compressibility (1/GPa) = 0.06105825
#
# Stress axis : x y z
#
# Youngs Moduli (GPa) = 24.38049 63.68178 137.97122
#
# Poissons Ratio (x) = -0.31809 0.33716
# Poissons Ratio (y) = -0.12178 0.55270
# Poissons Ratio (z) = 0.05958 0.25510
#
# Static dielectric constant tensor:
#      x y z
#    x 1.750570 0.000000 0.000000 
#    y 0.000000 1.708060 0.000000 
#    z 0.000000 0.000000 1.760800 
# 
# From -- ./inp_files/21676.got.cif
#   From: 2010.05.17/outbox.cif.g08.bks.cpg/sg47_11_cif.got.tgz:21676.got - 2010.06.03 20:15:42.
