data_PCOD9385059
_publ_section_title
;
Structure prediction by ZEFSAII (Michael W. Deem and Ramdas Pophale) SiO2 
 PCOD9385059
Probable space group: P M M M
;
_chemical_formula_sum "Si O2"
_cell_formula_units_Z 48
_cell_length_a 34.161133
_cell_length_b 9.426965
_cell_length_c 7.798589
_cell_angle_alpha 90.000000
_cell_angle_beta 90.000000
_cell_angle_gamma 90.000000
_cell_volume 2511.424888
_symmetry_space_group_name_H-M "P M M M"
_symmetry_group_IT_number 47
_symmetry_cell_setting 'orthorhombic'
loop_
_space_group_symop_operation_xyz
x,y,z
-x,-y,z
x,-y,-z
-x,y,-z
-x,-y,-z
x,y,-z
-x,y,z
x,-y,z
loop_
_atom_site_type_symbol
_atom_site_label
_atom_site_fract_x
_atom_site_fract_y
_atom_site_fract_z
Si Si1 0.925756 0.158935 0.202735
Si Si2 0.000000 0.337248 0.789269
Si Si3 0.396803 0.829498 0.799711
Si Si4 0.544696 0.827394 0.500000
Si Si5 0.852068 0.661277 0.700212
Si Si6 0.681247 0.663860 0.790707
Si Si7 0.233819 0.327991 0.199683
O O1 0.961204 0.255049 0.270258
O O2 0.884392 0.236751 0.222316
O O3 0.925277 0.000000 0.275889
O O4 0.933140 0.146612 0.000000
O O5 0.000000 0.500000 0.733294
O O6 0.000000 0.339346 0.000000
O O7 0.431089 0.785765 0.669674
O O8 0.356098 0.757098 0.744926
O O9 0.392797 0.000000 0.790743
O O10 0.404534 0.792878 0.000000
O O11 0.500000 0.776635 0.500000
O O12 0.543562 0.000000 0.500000
O O13 0.860742 0.652515 0.500000
O O14 0.854243 0.500000 0.772917
O O15 0.807387 0.713744 0.719535
O O16 0.675994 0.500000 0.736596
O O17 0.723848 0.718772 0.730447
O O18 0.683356 0.663093 0.000000
O O19 0.235556 0.500000 0.210333
O O20 0.231512 0.288591 0.000000
#
# Coordination Sequence:
#
# PCOD9385059 Si02
#       7
#     8   4   8   4   8   8   8
#     4  10  20  34  53  76 101 129 161 199 245 296
#     4   9  17  31  54  81 102 121 154 202 250 295
#     4   9  17  30  49  72  97 126 162 206 253 299
#     4   9  18  32  49  71  99 129 165 209 253 302
#     4  10  20  33  49  71 100 132 166 204 243 286
#     4   8  14  27  48  72  98 128 161 198 244 296
#     4   8  14  27  48  71  95 126 164 203 241 285
#
# _framework density 19.112656000000001
#
# number of rings (size 3 to 8) (size 9 to 14) (size 15 to 20)
#    0.000    3.000    0.000    2.250    0.000    3.333 
#    1.500    3.333    0.000    6.500    0.000    2.333 
#    0.000    0.000    0.000    0.000    0.000    0.000 
#
# Total GULP energy -267458.180125 kJ/mol
# GULP energy per Si atom -5572.045419 kJ/mol
# Density = 1.906915 g / cm^3
# Si number density = 19.112656 Si / 1000 Ang^3
#
#
#
# Elastic Constant Matrix: (Units=GPa)
#
#
# Indices 1 2 3 4 5 6 
#
# 1 178.7017 73.5199 34.6421 0.0000 0.0000 0.0000
# 2 73.5199 70.3035 20.4528 0.0000 0.0000 0.0000
# 3 34.6421 20.4528 41.0170 0.0000 0.0000 0.0000
# 4 0.0000 0.0000 0.0000 6.6179 0.0000 0.0000
# 5 0.0000 0.0000 0.0000 0.0000 163.8925 0.0000
# 6 0.0000 0.0000 0.0000 0.0000 0.0000 39.3552
#
#
#
# Elastic Compliance Matrix: (Units=1/GPa)
#
#
# Indices 1 2 3 4 5 6 
#
# 1 0.010330 -0.009666 -0.003904 0.000000 0.000000 0.000000
# 2 -0.009666 0.025683 -0.004643 0.000000 0.000000 0.000000
# 3 -0.003904 -0.004643 0.029993 0.000000 0.000000 0.000000
# 4 0.000000 0.000000 0.000000 0.151104 0.000000 0.000000
# 5 0.000000 0.000000 0.000000 0.000000 0.006102 0.000000
# 6 0.000000 0.000000 0.000000 0.000000 0.000000 0.025410
#
#
# Mechanical properties :
#
#
# Convention : Reuss Voigt Hill
#
# Bulk Modulus (GPa) = 33.80780 60.80575 47.30677
# Shear Modulus (GPa) = 16.95448 52.73362 34.84405
#
# Velocity S-wave (km/s) = 2.98162 5.25841 4.27440
# Velocity P-wave (km/s) = 5.43880 8.29164 7.01184
#
# Compressibility (1/GPa) = 0.02957897
#
# Stress axis : x y z
#
# Youngs Moduli (GPa) = 96.80900 38.93563 33.34163
#
# Poissons Ratio (x) = 0.37637 0.13017
# Poissons Ratio (y) = 0.93580 0.15480
# Poissons Ratio (z) = 0.37795 0.18077
#
# Static dielectric constant tensor:
#      x y z
#    x 1.662490 0.000000 0.000000 
#    y 0.000000 1.658510 0.000000 
#    z 0.000000 0.000000 1.702210 
# 
# From -- ./inp_files/13943.got.cif
#   From: 2010.05.17/outbox.cif.g08.bks.cpg/sg47_7_cif.got.tgz:13943.got - 2010.06.03 20:15:42.
