data_PCOD9385674
_publ_section_title
;
Structure prediction by ZEFSAII (Michael W. Deem and Ramdas Pophale) SiO2 
 PCOD9385674
Probable space group: P M M M
;
_chemical_formula_sum "Si O2"
_cell_formula_units_Z 40
_cell_length_a 9.228394
_cell_length_b 15.626595
_cell_length_c 15.362476
_cell_angle_alpha 90.000000
_cell_angle_beta 90.000000
_cell_angle_gamma 90.000000
_cell_volume 2215.397708
_symmetry_space_group_name_H-M "P M M M"
_symmetry_group_IT_number 47
_symmetry_cell_setting 'orthorhombic'
loop_
_space_group_symop_operation_xyz
x,y,z
-x,-y,z
x,-y,-z
-x,y,-z
-x,-y,-z
x,y,-z
-x,y,z
x,-y,z
loop_
_atom_site_type_symbol
_atom_site_label
_atom_site_fract_x
_atom_site_fract_y
_atom_site_fract_z
Si Si1 0.829760 0.837109 0.833123
Si Si2 0.171431 0.095773 0.642094
Si Si3 0.326534 0.727300 0.404285
Si Si4 0.660742 0.100778 0.000000
Si Si5 0.676061 0.500000 0.898137
Si Si6 0.325130 0.337136 0.780814
O O1 0.813423 0.894445 0.746531
O O2 0.749268 0.875088 0.915083
O O3 0.754933 0.746620 0.814902
O O4 0.000000 0.826933 0.849389
O O5 0.253540 0.179060 0.606062
O O6 0.000000 0.102821 0.621313
O O7 0.220043 0.000000 0.615388
O O8 0.288373 0.693056 0.500000
O O9 0.500000 0.739717 0.400793
O O10 0.289761 0.665564 0.322868
O O11 0.500000 0.141176 0.000000
O O12 0.644974 0.000000 0.000000
O O13 0.500000 0.500000 0.901414
O O14 0.718505 0.582561 0.840449
O O15 0.725017 0.500000 0.000000
O O16 0.500000 0.328858 0.788144
#
# Coordination Sequence:
#
# PCOD9385674 Si02
#       6
#     8   8   8   4   4   8
#     4  10  20  34  52  73 101 136 172 213 263 311
#     4   9  18  32  49  70  98 133 173 215 257 302
#     4   9  18  32  49  71 101 136 172 212 258 307
#     4  11  23  35  49  72 101 136 179 219 254 301
#     4   9  18  32  54  82 106 131 166 212 263 315
#     4   9  18  34  54  76 103 135 170 210 258 316
#
# _framework density 18.055448999999999
#
# number of rings (size 3 to 8) (size 9 to 14) (size 15 to 20)
#    0.000    2.600    0.000    1.500    1.400    3.600 
#    0.000    3.000    0.000    3.600    0.000    0.000 
#    0.000    6.400    0.000    0.000    0.000    0.000 
#
# Total GULP energy -222850.533058 kJ/mol
# GULP energy per Si atom -5571.263326 kJ/mol
# Density = 1.801435 g / cm^3
# Si number density = 18.055449 Si / 1000 Ang^3
#
#
#
# Elastic Constant Matrix: (Units=GPa)
#
#
# Indices 1 2 3 4 5 6 
#
# 1 28.1240 17.0273 39.4390 0.0000 0.0000 0.0000
# 2 17.0273 90.0261 54.7340 0.0000 0.0000 0.0000
# 3 39.4390 54.7340 150.7570 0.0000 0.0000 0.0000
# 4 0.0000 0.0000 0.0000 -312.8788 0.0000 0.0000
# 5 0.0000 0.0000 0.0000 0.0000 19.4687 0.0000
# 6 0.0000 0.0000 0.0000 0.0000 0.0000 8.3959
#
#
#
# Elastic Compliance Matrix: (Units=1/GPa)
#
#
# Indices 1 2 3 4 5 6 
#
# 1 0.056491 -0.002181 -0.013987 0.000000 0.000000 0.000000
# 2 -0.002181 0.014339 -0.004635 0.000000 0.000000 0.000000
# 3 -0.013987 -0.004635 0.011975 0.000000 0.000000 0.000000
# 4 0.000000 0.000000 0.000000 -0.003196 0.000000 0.000000
# 5 0.000000 0.000000 0.000000 0.000000 0.051365 0.000000
# 6 0.000000 0.000000 0.000000 0.000000 0.000000 0.119105
#
#
# Mechanical properties :
#
#
# Convention : Reuss Voigt Hill
#
# Bulk Modulus (GPa) = 24.27242 54.58972 39.43107
# Shear Modulus (GPa) = 16.37107 -46.48905 -15.05899
#
# Velocity S-wave (km/s) = 3.01443 -5.07975 -2.89111
# Velocity P-wave (km/s) = 5.05848 2.02608 3.27744
#
# Compressibility (1/GPa) = 0.04119902
#
# Stress axis : x y z
#
# Youngs Moduli (GPa) = 17.70192 69.74229 83.50718
#
# Poissons Ratio (x) = 0.15211 1.16798
# Poissons Ratio (y) = 0.03861 0.38707
# Poissons Ratio (z) = 0.24759 0.32327
#
# Static dielectric constant tensor:
#      x y z
#    x 1.607550 0.000000 0.000000 
#    y 0.000000 1.596070 0.000000 
#    z 0.000000 0.000000 1.672180 
# 
# From -- ./inp_files/5710.got.cif
#   From: 2010.05.17/outbox.cif.g08.bks.cpg/sg47_3_cif.got.tgz:5710.got - 2010.06.03 20:15:42.
