data_PCOD9385456
_publ_section_title
;
Structure prediction by ZEFSAII (Michael W. Deem and Ramdas Pophale) SiO2 
 PCOD9385456
Probable space group: P M M M
;
_chemical_formula_sum "Si O2"
_cell_formula_units_Z 48
_cell_length_a 35.579233
_cell_length_b 7.749689
_cell_length_c 9.392327
_cell_angle_alpha 90.000000
_cell_angle_beta 90.000000
_cell_angle_gamma 90.000000
_cell_volume 2589.727451
_symmetry_space_group_name_H-M "P M M M"
_symmetry_group_IT_number 47
_symmetry_cell_setting 'orthorhombic'
loop_
_space_group_symop_operation_xyz
x,y,z
-x,-y,z
x,-y,-z
-x,y,-z
-x,-y,-z
x,y,-z
-x,y,z
x,-y,z
loop_
_atom_site_type_symbol
_atom_site_label
_atom_site_fract_x
_atom_site_fract_y
_atom_site_fract_z
Si Si1 0.228198 0.703620 0.330170
Si Si2 0.000000 0.704967 0.337823
Si Si3 0.154465 0.705542 0.839989
Si Si4 0.712856 0.000000 0.670522
Si Si5 0.424883 0.702923 0.169889
Si Si6 0.918636 0.204064 0.338010
Si Si7 0.500000 0.709814 0.662973
Si Si8 0.365974 0.000000 0.170366
O O1 0.221481 0.717061 0.500000
O O2 0.235518 0.500000 0.299218
O O3 0.190820 0.764538 0.248219
O O4 0.262492 0.830140 0.293874
O O5 0.040074 0.757379 0.274807
O O6 0.000000 0.500000 0.345569
O O7 0.000000 0.778457 0.500000
O O8 0.158898 0.500000 0.850097
O O9 0.115917 0.735387 0.756239
O O10 0.153206 0.777442 0.000000
O O11 0.673380 0.000000 0.749652
O O12 0.707076 0.000000 0.500000
O O13 0.417163 0.500000 0.201066
O O14 0.462244 0.758911 0.253766
O O15 0.390770 0.830552 0.205438
O O16 0.431845 0.716142 0.000000
O O17 0.916984 0.277834 0.500000
O O18 0.915377 0.000000 0.349140
O O19 0.500000 0.500000 0.661551
O O20 0.500000 0.770077 0.500000
O O21 0.359902 0.000000 0.000000
#
# Coordination Sequence:
#
# PCOD9385456 Si02
#       8
#     8   4   8   4   8   8   4   4
#     4   9  19  37  59  81 107 139 175 218 267 321
#     4   9  17  31  52  75 100 135 178 218 254 297
#     4  10  21  36  54  79 108 136 170 213 262 315
#     4  10  22  38  57  81 108 137 176 220 268 326
#     4   9  18  34  54  75 105 145 184 222 266 318
#     4  10  20  33  52  78 107 138 173 213 257 307
#     4   9  17  30  51  80 109 139 180 229 277 320
#     4  10  22  37  53  78 107 140 183 223 264 320
#
# _framework density 18.534770999999999
#
# number of rings (size 3 to 8) (size 9 to 14) (size 15 to 20)
#    0.000    2.500    0.000    1.500    1.167    6.333 
#    0.000    2.083    0.000    2.500    0.000    0.000 
#    0.000    0.000    0.000    0.000    0.000    0.000 
#
# Total GULP energy -267712.913963 kJ/mol
# GULP energy per Si atom -5577.352374 kJ/mol
# Density = 1.849258 g / cm^3
# Si number density = 18.534771 Si / 1000 Ang^3
#
#
#
# Elastic Constant Matrix: (Units=GPa)
#
#
# Indices 1 2 3 4 5 6 
#
# 1 210.0815 62.4775 88.9476 0.0000 0.0000 0.0000
# 2 62.4775 71.4883 39.3036 0.0000 0.0000 0.0000
# 3 88.9476 39.3036 65.2586 0.0000 0.0000 0.0000
# 4 0.0000 0.0000 0.0000 12.2148 0.0000 0.0000
# 5 0.0000 0.0000 0.0000 0.0000 -170.6682 0.0000
# 6 0.0000 0.0000 0.0000 0.0000 0.0000 33.2268
#
#
#
# Elastic Compliance Matrix: (Units=1/GPa)
#
#
# Indices 1 2 3 4 5 6 
#
# 1 0.011470 -0.002136 -0.014346 0.000000 0.000000 0.000000
# 2 -0.002136 0.021311 -0.009923 0.000000 0.000000 0.000000
# 3 -0.014346 -0.009923 0.040854 0.000000 0.000000 0.000000
# 4 0.000000 0.000000 0.000000 0.081868 0.000000 0.000000
# 5 0.000000 0.000000 0.000000 0.000000 -0.005859 0.000000
# 6 0.000000 0.000000 0.000000 0.000000 0.000000 0.030096
#
#
# Mechanical properties :
#
#
# Convention : Reuss Voigt Hill
#
# Bulk Modulus (GPa) = 48.02378 80.92064 64.47221
# Shear Modulus (GPa) = 20.87743 -14.63867 3.11938
#
# Velocity S-wave (km/s) = 3.35982 -2.81338 1.29871
# Velocity P-wave (km/s) = 6.40449 5.76196 6.09170
#
# Compressibility (1/GPa) = 0.02082302
#
# Stress axis : x y z
#
# Youngs Moduli (GPa) = 87.18660 46.92388 24.47714
#
# Poissons Ratio (x) = 0.10025 0.35116
# Poissons Ratio (y) = 0.18626 0.24289
# Poissons Ratio (z) = 1.25082 0.46564
#
# Static dielectric constant tensor:
#      x y z
#    x 1.615910 0.000000 0.000000 
#    y 0.000000 1.658320 0.000000 
#    z 0.000000 0.000000 1.654570 
# 
# From -- ./inp_files/14011.got.cif
#   From: 2010.05.17/outbox.cif.g08.bks.cpg/sg47_8_cif.got.tgz:14011.got - 2010.06.03 20:15:42.
