data_PCOD9385070
_publ_section_title
;
Structure prediction by ZEFSAII (Michael W. Deem and Ramdas Pophale) SiO2 
 PCOD9385070
Probable space group: P M M M
;
_chemical_formula_sum "Si O2"
_cell_formula_units_Z 40
_cell_length_a 7.691739
_cell_length_b 13.001424
_cell_length_c 19.826742
_cell_angle_alpha 90.000000
_cell_angle_beta 90.000000
_cell_angle_gamma 90.000000
_cell_volume 1982.744784
_symmetry_space_group_name_H-M "P M M M"
_symmetry_group_IT_number 47
_symmetry_cell_setting 'orthorhombic'
loop_
_space_group_symop_operation_xyz
x,y,z
-x,-y,z
x,-y,-z
-x,y,-z
-x,-y,-z
x,y,-z
-x,y,z
x,-y,z
loop_
_atom_site_type_symbol
_atom_site_label
_atom_site_fract_x
_atom_site_fract_y
_atom_site_fract_z
Si Si1 0.700583 0.000000 0.081983
Si Si2 0.290333 0.117237 0.423808
Si Si3 0.713853 0.224854 0.922025
Si Si4 0.795058 0.691094 0.333522
Si Si5 0.787057 0.500000 0.577118
Si Si6 0.295011 0.383839 0.811902
O O1 0.775539 0.888985 0.100777
O O2 0.500000 0.000000 0.105295
O O3 0.698268 0.000000 0.000000
O O4 0.231465 0.145902 0.500000
O O5 0.500000 0.116109 0.424901
O O6 0.235903 0.199869 0.368712
O O7 0.232189 0.000000 0.410407
O O8 0.500000 0.221657 0.920970
O O9 0.776096 0.313474 0.872089
O O10 0.763208 0.241732 0.000000
O O11 0.728030 0.601120 0.382908
O O12 0.721872 0.673980 0.259219
O O13 0.000000 0.675611 0.327049
O O14 0.728756 0.500000 0.500000
O O15 0.000000 0.500000 0.576149
O O16 0.500000 0.393602 0.825535
O O17 0.222556 0.500000 0.807130
#
# Coordination Sequence:
#
# PCOD9385070 Si02
#       6
#     4   8   8   8   4   8
#     4   7  10  20  40  66  95 121 152 201 254 303
#     4   9  19  37  59  82 109 138 169 212 265 316
#     4   8  14  26  46  72  99 129 168 214 263 313
#     4  11  21  35  54  75 106 144 179 218 259 311
#     4   9  18  32  51  75  98 127 172 220 261 297
#     4  10  20  33  49  71 104 140 174 218 268 315
#
# _framework density 20.174054000000002
#
# number of rings (size 3 to 8) (size 9 to 14) (size 15 to 20)
#    0.000    2.800    1.000    3.000    0.000    2.000 
#    1.800    3.000    0.000    3.000    0.000    1.400 
#    0.000    2.400    0.000    0.000    0.000    0.000 
#
# Total GULP energy -223079.095932 kJ/mol
# GULP energy per Si atom -5576.977398 kJ/mol
# Density = 2.012814 g / cm^3
# Si number density = 20.174054 Si / 1000 Ang^3
#
#
#
# Elastic Constant Matrix: (Units=GPa)
#
#
# Indices 1 2 3 4 5 6 
#
# 1 32.3849 0.6312 -2.7324 0.0000 0.0000 0.0000
# 2 0.6312 157.7868 96.7990 0.0000 0.0000 0.0000
# 3 -2.7324 96.7990 133.1185 0.0000 0.0000 0.0000
# 4 0.0000 0.0000 0.0000 15.2355 0.0000 0.0000
# 5 0.0000 0.0000 0.0000 0.0000 -27.9913 0.0000
# 6 0.0000 0.0000 0.0000 0.0000 0.0000 5.3112
#
#
#
# Elastic Compliance Matrix: (Units=1/GPa)
#
#
# Indices 1 2 3 4 5 6 
#
# 1 0.031007 -0.000929 0.001312 0.000000 0.000000 0.000000
# 2 -0.000929 0.011470 -0.008359 0.000000 0.000000 0.000000
# 3 0.001312 -0.008359 0.013618 0.000000 0.000000 0.000000
# 4 0.000000 0.000000 0.000000 0.065636 0.000000 0.000000
# 5 0.000000 0.000000 0.000000 0.000000 -0.035725 0.000000
# 6 0.000000 0.000000 0.000000 0.000000 0.000000 0.188281
#
#
# Mechanical properties :
#
#
# Convention : Reuss Voigt Hill
#
# Bulk Modulus (GPa) = 24.91158 56.96508 40.93833
# Shear Modulus (GPa) = 16.46795 13.75058 15.10927
#
# Velocity S-wave (km/s) = 2.86018 2.61357 2.73966
# Velocity P-wave (km/s) = 4.82521 6.11603 5.50856
#
# Compressibility (1/GPa) = 0.04014197
#
# Stress axis : x y z
#
# Youngs Moduli (GPa) = 32.25043 87.18596 73.43371
#
# Poissons Ratio (x) = 0.08098 -0.09634
# Poissons Ratio (y) = 0.02996 0.61387
# Poissons Ratio (z) = -0.04231 0.72883
#
# Static dielectric constant tensor:
#      x y z
#    x 1.751920 0.000000 0.000000 
#    y 0.000000 1.738530 0.000000 
#    z 0.000000 0.000000 1.678690 
# 
# From -- ./inp_files/29335.got.cif
#   From: 2010.05.17/outbox.cif.g08.bks.cpg/sg47_15_cif.got.tgz:29335.got - 2010.06.03 20:15:42.
