data_PCOD9385385
_publ_section_title
;
Structure prediction by ZEFSAII (Michael W. Deem and Ramdas Pophale) SiO2 
 PCOD9385385
Probable space group: P M M M
;
_chemical_formula_sum "Si O2"
_cell_formula_units_Z 40
_cell_length_a 9.084689
_cell_length_b 20.146149
_cell_length_c 12.560079
_cell_angle_alpha 90.000000
_cell_angle_beta 90.000000
_cell_angle_gamma 90.000000
_cell_volume 2298.764476
_symmetry_space_group_name_H-M "P M M M"
_symmetry_group_IT_number 47
_symmetry_cell_setting 'orthorhombic'
loop_
_space_group_symop_operation_xyz
x,y,z
-x,-y,z
x,-y,-z
-x,y,-z
-x,-y,-z
x,y,-z
-x,y,z
x,-y,z
loop_
_atom_site_type_symbol
_atom_site_label
_atom_site_fract_x
_atom_site_fract_y
_atom_site_fract_z
Si Si1 0.330355 0.399147 0.500000
Si Si2 0.323797 0.500000 0.874102
Si Si3 0.325905 0.863377 0.872792
Si Si4 0.174959 0.602879 0.279510
Si Si5 0.830464 0.000000 0.129411
Si Si6 0.669125 0.761984 0.500000
Si Si7 0.174477 0.238797 0.719157
O O1 0.500000 0.421369 0.500000
O O2 0.246305 0.418402 0.607787
O O3 0.331665 0.318597 0.500000
O O4 0.500000 0.500000 0.859539
O O5 0.252811 0.436986 0.814743
O O6 0.292481 0.500000 0.000000
O O7 0.500000 0.864515 0.851831
O O8 0.252668 0.932938 0.838193
O O9 0.249772 0.803160 0.811738
O O10 0.304775 0.856775 0.000000
O O11 0.197967 0.682055 0.267411
O O12 0.000000 0.590285 0.280760
O O13 0.000000 0.000000 0.164622
O O14 0.830106 0.000000 0.000000
O O15 0.500000 0.784514 0.500000
O O16 0.753343 0.781822 0.606954
O O17 0.000000 0.227287 0.717178
#
# Coordination Sequence:
#
# PCOD9385385 Si02
#       7
#     4   4   8   8   4   4   8
#     4   9  17  32  56  83 108 132 165 212 263 311
#     4  11  25  42  57  74 101 139 179 217 262 317
#     4  10  20  33  51  77 108 141 177 217 261 309
#     4  10  21  37  57  80 106 136 173 217 263 312
#     4   9  17  31  51  74 103 138 175 217 264 311
#     4   9  17  31  52  77 106 139 172 210 259 310
#     4  10  20  34  54  80 108 138 174 216 260 308
#
# _framework density 17.400651
#
# number of rings (size 3 to 8) (size 9 to 14) (size 15 to 20)
#    0.000    2.200    0.000    3.000    0.000    9.200 
#    0.000    6.000    0.000    0.600    0.000    4.200 
#    0.000    0.000    0.000    0.000    0.000    0.000 
#
# Total GULP energy -223301.353415 kJ/mol
# GULP energy per Si atom -5582.533835 kJ/mol
# Density = 1.736105 g / cm^3
# Si number density = 17.400651 Si / 1000 Ang^3
#
#
#
# Elastic Constant Matrix: (Units=GPa)
#
#
# Indices 1 2 3 4 5 6 
#
# 1 161.8485 79.2474 96.1547 0.0000 0.0000 0.0000
# 2 79.2474 88.3683 59.2752 0.0000 0.0000 0.0000
# 3 96.1547 59.2752 113.3234 0.0000 0.0000 0.0000
# 4 0.0000 0.0000 0.0000 -72.8687 0.0000 0.0000
# 5 0.0000 0.0000 0.0000 0.0000 30.5902 0.0000
# 6 0.0000 0.0000 0.0000 0.0000 0.0000 29.4049
#
#
#
# Elastic Compliance Matrix: (Units=1/GPa)
#
#
# Indices 1 2 3 4 5 6 
#
# 1 0.015233 -0.007688 -0.008903 0.000000 0.000000 0.000000
# 2 -0.007688 0.021313 -0.004625 0.000000 0.000000 0.000000
# 3 -0.008903 -0.004625 0.018798 0.000000 0.000000 0.000000
# 4 0.000000 0.000000 0.000000 -0.013723 0.000000 0.000000
# 5 0.000000 0.000000 0.000000 0.000000 0.032690 0.000000
# 6 0.000000 0.000000 0.000000 0.000000 0.000000 0.034008
#
#
# Mechanical properties :
#
#
# Convention : Reuss Voigt Hill
#
# Bulk Modulus (GPa) = 77.45367 92.54387 84.99877
# Shear Modulus (GPa) = 32.24673 6.01614 19.13143
#
# Velocity S-wave (km/s) = 4.30954 1.86143 3.31942
# Velocity P-wave (km/s) = 8.32895 7.61049 7.97781
#
# Compressibility (1/GPa) = 0.01291094
#
# Stress axis : x y z
#
# Youngs Moduli (GPa) = 65.64863 46.91965 53.19764
#
# Poissons Ratio (x) = 0.36073 0.47364
# Poissons Ratio (y) = 0.50472 0.24602
# Poissons Ratio (z) = 0.58450 0.21699
#
# Static dielectric constant tensor:
#      x y z
#    x 1.578660 0.000000 0.000000 
#    y 0.000000 1.588830 0.000000 
#    z 0.000000 0.000000 1.564090 
# 
# From -- ./inp_files/4183.got.cif
#   From: 2010.05.17/outbox.cif.g08.bks.cpg/sg47_3_cif.got.tgz:4183.got - 2010.06.03 20:15:42.
