data_PCOD9385766
_publ_section_title
;
Structure prediction by ZEFSAII (Michael W. Deem and Ramdas Pophale) SiO2 
 PCOD9385766
Probable space group: P M M M
;
_chemical_formula_sum "Si O2"
_cell_formula_units_Z 40
_cell_length_a 9.292459
_cell_length_b 7.869869
_cell_length_c 28.513077
_cell_angle_alpha 90.000000
_cell_angle_beta 90.000000
_cell_angle_gamma 90.000000
_cell_volume 2085.173725
_symmetry_space_group_name_H-M "P M M M"
_symmetry_group_IT_number 47
_symmetry_cell_setting 'orthorhombic'
loop_
_space_group_symop_operation_xyz
x,y,z
-x,-y,z
x,-y,-z
-x,y,-z
-x,-y,-z
x,y,-z
-x,y,z
x,-y,z
loop_
_atom_site_type_symbol
_atom_site_label
_atom_site_fract_x
_atom_site_fract_y
_atom_site_fract_z
Si Si1 0.324709 0.810905 0.118591
Si Si2 0.336235 0.204620 0.407788
Si Si3 0.675990 0.500000 0.946062
Si Si4 0.332687 0.294082 0.777523
Si Si5 0.165794 0.208155 0.500000
Si Si6 0.836474 0.295015 0.685517
O O1 0.500000 0.805177 0.119028
O O2 0.276957 0.665653 0.082882
O O3 0.281392 0.773087 0.172169
O O4 0.280481 0.000000 0.104660
O O5 0.500000 0.268980 0.407596
O O6 0.248315 0.265026 0.453232
O O7 0.255108 0.248233 0.359984
O O8 0.342136 0.000000 0.411085
O O9 0.500000 0.500000 0.946165
O O10 0.722479 0.500000 0.000000
O O11 0.500000 0.244477 0.770876
O O12 0.328891 0.500000 0.779764
O O13 0.239716 0.235794 0.733318
O O14 0.000000 0.262547 0.500000
O O15 0.166102 0.000000 0.500000
O O16 0.840541 0.500000 0.687911
O O17 0.000000 0.232120 0.681545
#
# Coordination Sequence:
#
# PCOD9385766 Si02
#       6
#     8   8   4   8   4   8
#     4   9  16  26  42  65  93 128 172 216 258 311
#     4  10  20  34  53  76 101 131 171 215 258 311
#     4   9  16  26  40  62  97 137 173 212 261 312
#     4   9  16  29  48  66  91 130 169 206 254 311
#     4   9  17  31  52  75 100 133 170 212 266 317
#     4  10  21  35  51  74 104 135 167 207 259 315
#
# _framework density 19.183055
#
# number of rings (size 3 to 8) (size 9 to 14) (size 15 to 20)
#    0.000    2.600    1.000    1.500    0.000    4.800 
#    0.000    4.500    0.000    3.000    0.000    0.000 
#    0.000    1.600    0.000    1.800    0.000    2.000 
#
# Total GULP energy -223234.121714 kJ/mol
# GULP energy per Si atom -5580.853043 kJ/mol
# Density = 1.913939 g / cm^3
# Si number density = 19.183055 Si / 1000 Ang^3
#
#
#
# Elastic Constant Matrix: (Units=GPa)
#
#
# Indices 1 2 3 4 5 6 
#
# 1 106.1768 28.1603 79.9506 0.0000 0.0000 0.0000
# 2 28.1603 64.1636 60.2639 0.0000 0.0000 0.0000
# 3 79.9506 60.2639 205.6698 0.0000 0.0000 0.0000
# 4 0.0000 0.0000 0.0000 35.1231 0.0000 0.0000
# 5 0.0000 0.0000 0.0000 0.0000 -11.0504 0.0000
# 6 0.0000 0.0000 0.0000 0.0000 0.0000 10.8198
#
#
#
# Elastic Compliance Matrix: (Units=1/GPa)
#
#
# Indices 1 2 3 4 5 6 
#
# 1 0.013402 -0.001364 -0.004810 0.000000 0.000000 0.000000
# 2 -0.001364 0.021642 -0.005811 0.000000 0.000000 0.000000
# 3 -0.004810 -0.005811 0.008435 0.000000 0.000000 0.000000
# 4 0.000000 0.000000 0.000000 0.028471 0.000000 0.000000
# 5 0.000000 0.000000 0.000000 0.000000 -0.090494 0.000000
# 6 0.000000 0.000000 0.000000 0.000000 0.000000 0.092423
#
#
# Mechanical properties :
#
#
# Convention : Reuss Voigt Hill
#
# Bulk Modulus (GPa) = 51.26131 79.19552 65.22842
# Shear Modulus (GPa) = 47.91509 20.82088 34.36798
#
# Velocity S-wave (km/s) = 5.00320 3.29808 4.23730
# Velocity P-wave (km/s) = 7.75605 7.47508 7.61686
#
# Compressibility (1/GPa) = 0.01950789
#
# Stress axis : x y z
#
# Youngs Moduli (GPa) = 74.61560 46.20715 118.55801
#
# Poissons Ratio (x) = 0.06304 0.57027
# Poissons Ratio (y) = 0.10179 0.68894
# Poissons Ratio (z) = 0.35891 0.26851
#
# Static dielectric constant tensor:
#      x y z
#    x 1.646360 0.000000 0.000000 
#    y 0.000000 1.703550 0.000000 
#    z 0.000000 0.000000 1.631130 
# 
# From -- ./inp_files/33090.got.cif
#   From: 2010.05.17/outbox.cif.g08.bks.cpg/sg47_17_cif.got.tgz:33090.got - 2010.06.03 20:15:42.
