data_PCOD9385811
_publ_section_title
;
Structure prediction by ZEFSAII (Michael W. Deem and Ramdas Pophale) SiO2 
 PCOD9385811
Probable space group: P M M M
;
_chemical_formula_sum "Si O2"
_cell_formula_units_Z 48
_cell_length_a 9.344153
_cell_length_b 8.611982
_cell_length_c 32.231208
_cell_angle_alpha 90.000000
_cell_angle_beta 90.000000
_cell_angle_gamma 90.000000
_cell_volume 2593.699374
_symmetry_space_group_name_H-M "P M M M"
_symmetry_group_IT_number 47
_symmetry_cell_setting 'orthorhombic'
loop_
_space_group_symop_operation_xyz
x,y,z
-x,-y,z
x,-y,-z
-x,y,-z
-x,-y,-z
x,y,-z
-x,y,z
x,-y,z
loop_
_atom_site_type_symbol
_atom_site_label
_atom_site_fract_x
_atom_site_fract_y
_atom_site_fract_z
Si Si1 0.835081 0.312313 0.917969
Si Si2 0.666561 0.812748 0.336100
Si Si3 0.673479 0.319563 0.751666
Si Si4 0.835216 0.189753 0.417919
Si Si5 0.335048 0.189770 0.500000
Si Si6 0.333612 0.185308 0.160552
Si Si7 0.664860 0.689607 0.000000
O O1 0.833641 0.500000 0.917871
O O2 0.759239 0.254556 0.876403
O O3 0.747404 0.260221 0.958558
O O4 0.000000 0.261464 0.920153
O O5 0.500000 0.765002 0.341262
O O6 0.722155 0.752116 0.291896
O O7 0.758296 0.760350 0.375517
O O8 0.668638 0.000000 0.334961
O O9 0.500000 0.305144 0.750983
O O10 0.710648 0.500000 0.753599
O O11 0.719795 0.237149 0.794017
O O12 0.747493 0.239390 0.458511
O O13 0.000000 0.239162 0.419826
O O14 0.834074 0.000000 0.417920
O O15 0.500000 0.239577 0.500000
O O16 0.335017 0.000000 0.500000
O O17 0.500000 0.237429 0.156161
O O18 0.331551 0.000000 0.158386
O O19 0.665035 0.500000 0.000000
O O20 0.500000 0.740348 0.000000
#
# Coordination Sequence:
#
# PCOD9385811 Si02
#       7
#     8   8   8   8   4   8   4
#     4  10  20  34  53  78 108 140 173 210 253 301
#     4   9  16  27  44  66  92 122 157 197 240 286
#     4   9  17  30  50  74  97 124 162 207 250 292
#     4   9  16  25  38  59  89 123 156 191 234 283
#     4   9  15  23  37  59  88 121 156 193 232 276
#     4  10  20  34  53  77 104 135 172 213 256 302
#     4   9  17  31  54  81 106 135 172 212 252 295
#
# _framework density 18.506385000000002
#
# number of rings (size 3 to 8) (size 9 to 14) (size 15 to 20)
#    0.000    2.667    0.000    2.500    0.000    8.000 
#    0.000    1.250    0.000    6.000    0.000    0.583 
#    0.000    4.667    0.000    0.000    0.000    0.000 
#
# Total GULP energy -267738.702836 kJ/mol
# GULP energy per Si atom -5577.889642 kJ/mol
# Density = 1.846426 g / cm^3
# Si number density = 18.506385 Si / 1000 Ang^3
#
#
#
# Elastic Constant Matrix: (Units=GPa)
#
#
# Indices 1 2 3 4 5 6 
#
# 1 130.8426 18.6748 112.4262 0.0000 0.0000 0.0000
# 2 18.6748 4.9049 28.4795 0.0000 0.0000 0.0000
# 3 112.4262 28.4795 215.9316 0.0000 0.0000 0.0000
# 4 0.0000 0.0000 0.0000 28.9652 0.0000 0.0000
# 5 0.0000 0.0000 0.0000 0.0000 -6.7634 0.0000
# 6 0.0000 0.0000 0.0000 0.0000 0.0000 11.2855
#
#
#
# Elastic Compliance Matrix: (Units=1/GPa)
#
#
# Indices 1 2 3 4 5 6 
#
# 1 0.016828 -0.056351 -0.001329 0.000000 0.000000 0.000000
# 2 -0.056351 1.059232 -0.110364 0.000000 0.000000 0.000000
# 3 -0.001329 -0.110364 0.019879 0.000000 0.000000 0.000000
# 4 0.000000 0.000000 0.000000 0.034524 0.000000 0.000000
# 5 0.000000 0.000000 0.000000 0.000000 -0.147854 0.000000
# 6 0.000000 0.000000 0.000000 0.000000 0.000000 0.088609
#
#
# Mechanical properties :
#
#
# Convention : Reuss Voigt Hill
#
# Bulk Modulus (GPa) = 1.31605 74.53778 37.92692
# Shear Modulus (GPa) = 3.01098 19.50404 11.25751
#
# Velocity S-wave (km/s) = 1.27692 3.24992 2.46906
# Velocity P-wave (km/s) = 1.69903 7.37881 5.35414
#
# Compressibility (1/GPa) = 0.75985076
#
# Stress axis : x y z
#
# Youngs Moduli (GPa) = 59.42548 0.94408 50.30397
#
# Poissons Ratio (x) = 0.05320 0.06687
# Poissons Ratio (y) = 3.34871 5.55172
# Poissons Ratio (z) = 0.07899 0.10419
#
# Static dielectric constant tensor:
#      x y z
#    x 1.626550 0.000000 0.000000 
#    y 0.000000 1.633400 0.000000 
#    z 0.000000 0.000000 1.619380 
# 
# From -- ./inp_files/34095.got.cif
#   From: 2010.05.17/outbox.cif.g08.bks.cpg/sg47_18_cif.got.tgz:34095.got - 2010.06.03 20:15:42.
