data_PCOD9385046
_publ_section_title
;
Structure prediction by ZEFSAII (Michael W. Deem and Ramdas Pophale) SiO2 
 PCOD9385046
Probable space group: P M M M
;
_chemical_formula_sum "Si O2"
_cell_formula_units_Z 52
_cell_length_a 14.421240
_cell_length_b 21.912027
_cell_length_c 8.362650
_cell_angle_alpha 90.000000
_cell_angle_beta 90.000000
_cell_angle_gamma 90.000000
_cell_volume 2642.585694
_symmetry_space_group_name_H-M "P M M M"
_symmetry_group_IT_number 47
_symmetry_cell_setting 'orthorhombic'
loop_
_space_group_symop_operation_xyz
x,y,z
-x,-y,z
x,-y,-z
-x,y,-z
-x,-y,-z
x,y,-z
-x,y,z
x,-y,z
loop_
_atom_site_type_symbol
_atom_site_label
_atom_site_fract_x
_atom_site_fract_y
_atom_site_fract_z
Si Si1 0.759821 0.827550 0.814954
Si Si2 0.393100 0.258635 0.689627
Si Si3 0.893152 0.410512 0.189922
Si Si4 0.891517 0.725866 0.314520
Si Si5 0.265094 0.500000 0.294846
Si Si6 0.388597 0.608879 0.813681
Si Si7 0.895864 0.071113 0.692694
O O1 0.669002 0.799831 0.730574
O O2 0.834966 0.774745 0.783789
O O3 0.811388 0.887847 0.752454
O O4 0.738717 0.834764 0.000000
O O5 0.391669 0.268555 0.500000
O O6 0.500000 0.249647 0.740876
O O7 0.358692 0.322163 0.768894
O O8 0.882889 0.340109 0.235445
O O9 0.817453 0.448175 0.284303
O O10 0.000000 0.427444 0.224400
O O11 0.877326 0.420461 0.000000
O O12 0.859631 0.724723 0.500000
O O13 0.000000 0.741969 0.315728
O O14 0.342857 0.445268 0.286086
O O15 0.500000 0.607457 0.797600
O O16 0.364200 0.596515 0.000000
O O17 0.896459 0.074764 0.500000
O O18 0.000000 0.090979 0.746912
O O19 0.885273 0.000000 0.737335
#
# Coordination Sequence:
#
# PCOD9385046 Si02
#       7
#     8   8   8   8   4   8   8
#     4  12  23  34  56  88 118 149 186 229 277 328
#     4  10  22  41  62  82 107 141 183 232 284 336
#     4  10  20  33  49  70  97 131 175 224 272 326
#     4  10  21  37  55  76 106 143 184 231 279 328
#     4  12  21  32  51  72  97 134 175 216 269 332
#     4  10  20  34  53  77 103 131 169 219 275 336
#     4   9  19  37  60  87 123 165 201 230 263 308
#
# _framework density 19.677696000000001
#
# number of rings (size 3 to 8) (size 9 to 14) (size 15 to 20)
#    0.000    1.692    0.000    6.000    0.000    5.538 
#    0.000    2.308    0.000    4.154    0.000    3.231 
#    0.000    0.000    0.000    0.000    0.000    0.000 
#
# Total GULP energy -289518.634969 kJ/mol
# GULP energy per Si atom -5567.666057 kJ/mol
# Density = 1.963291 g / cm^3
# Si number density = 19.677696 Si / 1000 Ang^3
#
#
#
# Elastic Constant Matrix: (Units=GPa)
#
#
# Indices 1 2 3 4 5 6 
#
# 1 92.3321 46.0779 8.0644 0.0000 0.0000 0.0000
# 2 46.0779 91.2276 7.5991 0.0000 0.0000 0.0000
# 3 8.0644 7.5991 30.0651 0.0000 0.0000 0.0000
# 4 0.0000 0.0000 0.0000 73.6783 0.0000 0.0000
# 5 0.0000 0.0000 0.0000 0.0000 7.0685 0.0000
# 6 0.0000 0.0000 0.0000 0.0000 0.0000 44.1246
#
#
#
# Elastic Compliance Matrix: (Units=1/GPa)
#
#
# Indices 1 2 3 4 5 6 
#
# 1 0.014609 -0.007204 -0.002098 0.000000 0.000000 0.000000
# 2 -0.007204 0.014750 -0.001796 0.000000 0.000000 0.000000
# 3 -0.002098 -0.001796 0.034278 0.000000 0.000000 0.000000
# 4 0.000000 0.000000 0.000000 0.013573 0.000000 0.000000
# 5 0.000000 0.000000 0.000000 0.000000 0.141473 0.000000
# 6 0.000000 0.000000 0.000000 0.000000 0.000000 0.022663
#
#
# Mechanical properties :
#
#
# Convention : Reuss Voigt Hill
#
# Bulk Modulus (GPa) = 24.13045 37.45641 30.79343
# Shear Modulus (GPa) = 18.02749 35.09981 26.56365
#
# Velocity S-wave (km/s) = 3.03006 4.22801 3.67814
# Velocity P-wave (km/s) = 4.95289 6.55065 5.80699
#
# Compressibility (1/GPa) = 0.04144141
#
# Stress axis : x y z
#
# Youngs Moduli (GPa) = 68.45189 67.79744 29.17350
#
# Poissons Ratio (x) = 0.48841 0.06120
# Poissons Ratio (y) = 0.49313 0.05239
# Poissons Ratio (z) = 0.14359 0.12175
#
# Static dielectric constant tensor:
#      x y z
#    x 1.712430 0.000000 0.000000 
#    y 0.000000 1.678900 0.000000 
#    z 0.000000 0.000000 1.704930 
# 
# From -- ./inp_files/7052.got.cif
#   From: 2010.05.17/outbox.cif.g08.bks.cpg/sg47_4_cif.got.tgz:7052.got - 2010.06.03 20:15:42.
