data_PCOD9385852
_publ_section_title
;
Structure prediction by ZEFSAII (Michael W. Deem and Ramdas Pophale) SiO2 
 PCOD9385852
Probable space group: P M M M
;
_chemical_formula_sum "Si O2"
_cell_formula_units_Z 56
_cell_length_a 21.491180
_cell_length_b 9.215017
_cell_length_c 14.737439
_cell_angle_alpha 90.000000
_cell_angle_beta 90.000000
_cell_angle_gamma 90.000000
_cell_volume 2918.625838
_symmetry_space_group_name_H-M "P M M M"
_symmetry_group_IT_number 47
_symmetry_cell_setting 'orthorhombic'
loop_
_space_group_symop_operation_xyz
x,y,z
-x,-y,z
x,-y,-z
-x,y,-z
-x,-y,-z
x,y,-z
-x,y,z
x,-y,z
loop_
_atom_site_type_symbol
_atom_site_label
_atom_site_fract_x
_atom_site_fract_y
_atom_site_fract_z
Si Si1 0.202635 0.663578 0.606133
Si Si2 0.386143 0.827469 0.793278
Si Si3 0.672134 0.825716 0.605728
Si Si4 0.746407 0.828027 0.108877
Si Si5 0.930398 0.331481 0.347637
Si Si6 0.500000 0.325920 0.892995
Si Si7 0.930770 0.171556 0.000000
Si Si8 0.864614 0.665710 0.157238
O O1 0.212659 0.644454 0.500000
O O2 0.201433 0.500000 0.648896
O O3 0.261392 0.758150 0.634213
O O4 0.133724 0.732601 0.613428
O O5 0.374854 0.786094 0.687301
O O6 0.321950 0.806798 0.849184
O O7 0.440027 0.739020 0.842348
O O8 0.400472 0.000000 0.795706
O O9 0.657271 0.784333 0.500000
O O10 0.677558 0.000000 0.606711
O O11 0.795621 0.731894 0.165522
O O12 0.761614 0.000000 0.117307
O O13 0.748515 0.793175 0.000000
O O14 0.932464 0.500000 0.379627
O O15 0.911216 0.332804 0.242352
O O16 0.000000 0.271177 0.363075
O O17 0.500000 0.500000 0.887586
O O18 0.500000 0.285230 0.000000
O O19 0.895150 0.229717 0.085489
O O20 0.000000 0.231983 0.000000
O O21 0.932519 0.000000 0.000000
O O22 0.859755 0.500000 0.125763
#
# Coordination Sequence:
#
# PCOD9385852 Si02
#       8
#     8   8   8   8   8   4   4   8
#     4   9  17  30  51  78 106 139 179 223 275 331
#     4  10  21  38  62  88 115 155 197 229 270 328
#     4   9  18  34  57  86 118 149 184 229 279 328
#     4  10  20  34  53  78 108 139 177 229 279 326
#     4   9  18  31  46  68  99 133 174 225 274 326
#     4  11  25  43  62  89 124 158 191 233 280 325
#     4  11  23  37  51  67  93 130 171 218 271 327
#     4  11  21  33  51  73  98 132 173 219 275 333
#
# _framework density 19.187111999999999
#
# number of rings (size 3 to 8) (size 9 to 14) (size 15 to 20)
#    0.000    2.143    0.714    2.571    0.000    3.714 
#    0.000    2.500    0.000    4.286    0.000    2.000 
#    0.000    0.000    0.000    0.000    0.000    0.000 
#
# Total GULP energy -311970.446226 kJ/mol
# GULP energy per Si atom -5570.900825 kJ/mol
# Density = 1.914344 g / cm^3
# Si number density = 19.187112 Si / 1000 Ang^3
#
#
#
# Elastic Constant Matrix: (Units=GPa)
#
#
# Indices 1 2 3 4 5 6 
#
# 1 125.5776 45.1489 45.1166 0.0000 0.0000 0.0000
# 2 45.1489 38.1848 25.3361 0.0000 0.0000 0.0000
# 3 45.1166 25.3361 92.0735 0.0000 0.0000 0.0000
# 4 0.0000 0.0000 0.0000 12.6690 0.0000 0.0000
# 5 0.0000 0.0000 0.0000 0.0000 -112.1836 0.0000
# 6 0.0000 0.0000 0.0000 0.0000 0.0000 24.5688
#
#
#
# Elastic Compliance Matrix: (Units=1/GPa)
#
#
# Indices 1 2 3 4 5 6 
#
# 1 0.014463 -0.015168 -0.002913 0.000000 0.000000 0.000000
# 2 -0.015168 0.047945 -0.005761 0.000000 0.000000 0.000000
# 3 -0.002913 -0.005761 0.013874 0.000000 0.000000 0.000000
# 4 0.000000 0.000000 0.000000 0.078933 0.000000 0.000000
# 5 0.000000 0.000000 0.000000 0.000000 -0.008914 0.000000
# 6 0.000000 0.000000 0.000000 0.000000 0.000000 0.040702
#
#
# Mechanical properties :
#
#
# Convention : Reuss Voigt Hill
#
# Bulk Modulus (GPa) = 34.96762 54.11544 44.54153
# Shear Modulus (GPa) = 20.47338 -5.64020 7.41659
#
# Velocity S-wave (km/s) = 3.27010 -1.71638 1.96820
# Velocity P-wave (km/s) = 5.70282 4.93329 5.33196
#
# Compressibility (1/GPa) = 0.02859789
#
# Stress axis : x y z
#
# Youngs Moduli (GPa) = 69.14095 20.85718 72.07935
#
# Poissons Ratio (x) = 0.31636 0.20998
# Poissons Ratio (y) = 1.04873 0.41523
# Poissons Ratio (z) = 0.20142 0.12015
#
# Static dielectric constant tensor:
#      x y z
#    x 1.672990 0.000000 0.000000 
#    y 0.000000 1.663660 0.000000 
#    z 0.000000 0.000000 1.760460 
# 
# From -- ./inp_files/25195.got.cif
#   From: 2010.05.17/outbox.cif.g08.bks.cpg/sg47_13_cif.got.tgz:25195.got - 2010.06.03 20:15:42.
