data_PCOD9385135
_publ_section_title
;
Structure prediction by ZEFSAII (Michael W. Deem and Ramdas Pophale) SiO2 
 PCOD9385135
Probable space group: P M M M
;
_chemical_formula_sum "Si O2"
_cell_formula_units_Z 64
_cell_length_a 26.286171
_cell_length_b 7.455422
_cell_length_c 13.230566
_cell_angle_alpha 90.000000
_cell_angle_beta 90.000000
_cell_angle_gamma 90.000000
_cell_volume 2592.853524
_symmetry_space_group_name_H-M "P M M M"
_symmetry_group_IT_number 47
_symmetry_cell_setting 'orthorhombic'
loop_
_space_group_symop_operation_xyz
x,y,z
-x,-y,z
x,-y,-z
-x,y,-z
-x,-y,-z
x,y,-z
-x,y,z
x,-y,z
loop_
_atom_site_type_symbol
_atom_site_label
_atom_site_fract_x
_atom_site_fract_y
_atom_site_fract_z
Si Si1 0.166684 0.781041 0.392371
Si Si2 0.914429 0.219017 0.108264
Si Si3 0.945338 0.218350 0.330513
Si Si4 0.693975 0.703504 0.836955
Si Si5 0.331802 0.793174 0.610265
Si Si6 0.416377 0.719404 0.109333
Si Si7 0.194705 0.210598 0.824746
Si Si8 0.444992 0.717600 0.332657
O O1 0.187492 0.720374 0.500000
O O2 0.107235 0.728487 0.382740
O O3 0.193308 0.717312 0.290153
O O4 0.168812 0.000000 0.392542
O O5 0.940524 0.272605 0.212731
O O6 0.855181 0.277641 0.117799
O O7 0.916809 0.000000 0.107719
O O8 0.934959 0.278987 0.000000
O O9 0.000000 0.277923 0.371114
O O10 0.945133 0.000000 0.334096
O O11 0.693091 0.500000 0.870409
O O12 0.687888 0.710742 0.714797
O O13 0.642077 0.784396 0.879965
O O14 0.749090 0.771984 0.867570
O O15 0.317340 0.718672 0.500000
O O16 0.393325 0.786207 0.617699
O O17 0.314810 0.000000 0.613303
O O18 0.416937 0.500000 0.110428
O O19 0.442560 0.770636 0.214097
O O20 0.436860 0.774773 0.000000
O O21 0.184887 0.000000 0.816545
O O22 0.500000 0.772338 0.374090
O O23 0.442241 0.500000 0.338242
#
# Coordination Sequence:
#
# PCOD9385135 Si02
#       8
#     8   8   8   8   8   8   8   8
#     4   8  14  24  37  54  78 109 144 181 221 267
#     4   8  14  24  37  55  82 116 151 186 225 269
#     4   8  13  20  31  51  80 113 148 183 220 267
#     4  10  20  33  50  72  96 121 152 194 241 281
#     4  10  21  36  53  72  95 126 162 196 232 278
#     4   8  15  29  48  70  96 124 154 188 226 271
#     4   9  17  29  44  62  86 117 152 185 220 272
#     4   9  18  32  51  76 103 130 160 195 235 274
#
# _framework density 24.683230999999999
#
# number of rings (size 3 to 8) (size 9 to 14) (size 15 to 20)
#    0.000    3.250    0.000    3.000    0.000    3.250 
#    0.000    6.250    0.000    9.000    0.000    3.500 
#    0.000    8.000    0.000    9.000    0.000   10.000 
#
# Total GULP energy -357166.901044 kJ/mol
# GULP energy per Si atom -5580.732829 kJ/mol
# Density = 2.462705 g / cm^3
# Si number density = 24.683231 Si / 1000 Ang^3
#
#
#
# Elastic Constant Matrix: (Units=GPa)
#
#
# Indices 1 2 3 4 5 6 
#
# 1 107.5366 -8.4029 -5.0001 0.0000 0.0000 0.0000
# 2 -8.4029 66.6894 -1.0809 0.0000 0.0000 0.0000
# 3 -5.0001 -1.0809 114.7870 0.0000 0.0000 0.0000
# 4 0.0000 0.0000 0.0000 -5.9130 0.0000 0.0000
# 5 0.0000 0.0000 0.0000 0.0000 -14.4084 0.0000
# 6 0.0000 0.0000 0.0000 0.0000 0.0000 12.0255
#
#
#
# Elastic Compliance Matrix: (Units=1/GPa)
#
#
# Indices 1 2 3 4 5 6 
#
# 1 0.009412 0.001193 0.000421 0.000000 0.000000 0.000000
# 2 0.001193 0.015148 0.000195 0.000000 0.000000 0.000000
# 3 0.000421 0.000195 0.008732 0.000000 0.000000 0.000000
# 4 0.000000 0.000000 0.000000 -0.169118 0.000000 0.000000
# 5 0.000000 0.000000 0.000000 0.000000 -0.069404 0.000000
# 6 0.000000 0.000000 0.000000 0.000000 0.000000 0.083157
#
#
# Mechanical properties :
#
#
# Convention : Reuss Voigt Hill
#
# Bulk Modulus (GPa) = 27.09340 28.89390 27.99365
# Shear Modulus (GPa) = -44.09658 18.57395 -12.76131
#
# Velocity S-wave (km/s) = -4.23129 2.74614 -2.27624
# Velocity P-wave (km/s) = 3.58768 4.66758 2.11126
#
# Compressibility (1/GPa) = 0.03690936
#
# Stress axis : x y z
#
# Youngs Moduli (GPa) = 106.24793 66.01394 114.52170
#
# Poissons Ratio (x) = -0.07874 -0.04824
# Poissons Ratio (y) = -0.12673 -0.02229
# Poissons Ratio (z) = -0.04475 -0.01285
#
# Static dielectric constant tensor:
#      x y z
#    x 1.946890 0.000000 0.000000 
#    y 0.000000 1.974930 0.000000 
#    z 0.000000 0.000000 1.946150 
# 
# From -- ./inp_files/25891.got.cif
#   From: 2010.05.17/outbox.cif.g08.bks.cpg/sg47_13_cif.got.tgz:25891.got - 2010.06.03 20:15:42.
