data_PCOD9385730
_publ_section_title
;
Structure prediction by ZEFSAII (Michael W. Deem and Ramdas Pophale) SiO2 
 PCOD9385730
Probable space group: P M M M
;
_chemical_formula_sum "Si O2"
_cell_formula_units_Z 52
_cell_length_a 13.502139
_cell_length_b 23.706430
_cell_length_c 7.588753
_cell_angle_alpha 90.000000
_cell_angle_beta 90.000000
_cell_angle_gamma 90.000000
_cell_volume 2429.065075
_symmetry_space_group_name_H-M "P M M M"
_symmetry_group_IT_number 47
_symmetry_cell_setting 'orthorhombic'
loop_
_space_group_symop_operation_xyz
x,y,z
-x,-y,z
x,-y,-z
-x,y,-z
-x,-y,-z
x,y,-z
-x,y,z
x,-y,z
loop_
_atom_site_type_symbol
_atom_site_label
_atom_site_fract_x
_atom_site_fract_y
_atom_site_fract_z
Si Si1 0.000000 0.759570 0.216796
Si Si2 0.500000 0.068804 0.703628
Si Si3 0.389870 0.633998 0.713154
Si Si4 0.798894 0.563876 0.289373
Si Si5 0.194895 0.176155 0.209736
Si Si6 0.715412 0.064052 0.712572
Si Si7 0.391703 0.233599 0.790564
Si Si8 0.000000 0.369509 0.209455
O O1 0.097772 0.792590 0.276863
O O2 0.000000 0.694739 0.276947
O O3 0.000000 0.759505 0.000000
O O4 0.500000 0.087358 0.500000
O O5 0.606797 0.084034 0.782088
O O6 0.500000 0.000000 0.702747
O O7 0.389113 0.632189 0.500000
O O8 0.500000 0.614965 0.771035
O O9 0.297322 0.597456 0.778836
O O10 0.379171 0.699323 0.765652
O O11 0.786455 0.560209 0.500000
O O12 0.805210 0.500000 0.220105
O O13 0.900586 0.597390 0.259980
O O14 0.202544 0.109496 0.239610
O O15 0.296121 0.202591 0.284891
O O16 0.195720 0.185917 0.000000
O O17 0.707668 0.062195 0.500000
O O18 0.733617 0.000000 0.772885
O O19 0.500000 0.217380 0.717761
O O20 0.394640 0.222817 0.000000
O O21 0.000000 0.365794 0.000000
#
# Coordination Sequence:
#
# PCOD9385730 Si02
#       8
#     4   4   8   8   8   8   8   4
#     4   9  20  38  55  74 100 135 172 211 258 307
#     4   7  12  26  47  69  97 133 163 187 230 293
#     4   9  18  33  53  77 105 140 182 218 250 305
#     4  10  21  36  54  79 112 144 172 212 268 317
#     4  10  20  34  53  74 100 132 172 213 254 307
#     4   9  18  33  52  75 104 136 168 204 251 304
#     4   9  18  32  50  74 104 136 169 213 270 315
#     4  11  22  38  61  81 101 134 180 225 266 313
#
# _framework density 21.407412000000001
#
# number of rings (size 3 to 8) (size 9 to 14) (size 15 to 20)
#    0.000    2.692    0.000    2.308    1.077    4.308 
#    0.000    3.846    0.000    3.692    0.000    3.231 
#    0.000    0.000    0.000    0.000    0.000    0.000 
#
# Total GULP energy -290291.891869 kJ/mol
# GULP energy per Si atom -5582.536382 kJ/mol
# Density = 2.135869 g / cm^3
# Si number density = 21.407412 Si / 1000 Ang^3
#
#
#
# Elastic Constant Matrix: (Units=GPa)
#
#
# Indices 1 2 3 4 5 6 
#
# 1 177.8795 105.4450 6.0508 0.0000 0.0000 0.0000
# 2 105.4450 130.8998 -4.0562 0.0000 0.0000 0.0000
# 3 6.0508 -4.0562 49.8372 0.0000 0.0000 0.0000
# 4 0.0000 0.0000 0.0000 22.6294 0.0000 0.0000
# 5 0.0000 0.0000 0.0000 0.0000 -13.5021 0.0000
# 6 0.0000 0.0000 0.0000 0.0000 0.0000 36.5051
#
#
#
# Elastic Compliance Matrix: (Units=1/GPa)
#
#
# Indices 1 2 3 4 5 6 
#
# 1 0.010966 -0.008897 -0.002056 0.000000 0.000000 0.000000
# 2 -0.008897 0.014877 0.002291 0.000000 0.000000 0.000000
# 3 -0.002056 0.002291 0.020501 0.000000 0.000000 0.000000
# 4 0.000000 0.000000 0.000000 0.044190 0.000000 0.000000
# 5 0.000000 0.000000 0.000000 0.000000 -0.074063 0.000000
# 6 0.000000 0.000000 0.000000 0.000000 0.000000 0.027393
#
#
# Mechanical properties :
#
#
# Convention : Reuss Voigt Hill
#
# Bulk Modulus (GPa) = 34.45721 63.72175 49.08948
# Shear Modulus (GPa) = 70.55920 25.87162 48.21541
#
# Velocity S-wave (km/s) = 5.74732 3.48017 4.75096
# Velocity P-wave (km/s) = 7.75714 6.78083 7.28535
#
# Compressibility (1/GPa) = 0.02902151
#
# Stress axis : x y z
#
# Youngs Moduli (GPa) = 91.19263 67.21613 48.77727
#
# Poissons Ratio (x) = 0.59803 0.10026
# Poissons Ratio (y) = 0.81135 -0.11175
# Poissons Ratio (z) = 0.18745 -0.15400
#
# Static dielectric constant tensor:
#      x y z
#    x 1.795140 0.000000 0.000000 
#    y 0.000000 1.762620 0.000000 
#    z 0.000000 0.000000 1.798160 
# 
# From -- ./inp_files/7158.got.cif
#   From: 2010.05.17/outbox.cif.g08.bks.cpg/sg47_4_cif.got.tgz:7158.got - 2010.06.03 20:15:42.
