data_PCOD9385192
_publ_section_title
;
Structure prediction by ZEFSAII (Michael W. Deem and Ramdas Pophale) SiO2 
 PCOD9385192
Probable space group: P M M M
;
_chemical_formula_sum "Si O2"
_cell_formula_units_Z 56
_cell_length_a 14.766140
_cell_length_b 23.954786
_cell_length_c 8.884519
_cell_angle_alpha 90.000000
_cell_angle_beta 90.000000
_cell_angle_gamma 90.000000
_cell_volume 3142.629606
_symmetry_space_group_name_H-M "P M M M"
_symmetry_group_IT_number 47
_symmetry_cell_setting 'orthorhombic'
loop_
_space_group_symop_operation_xyz
x,y,z
-x,-y,z
x,-y,-z
-x,y,-z
-x,-y,-z
x,y,-z
-x,y,z
x,-y,z
loop_
_atom_site_type_symbol
_atom_site_label
_atom_site_fract_x
_atom_site_fract_y
_atom_site_fract_z
Si Si1 0.607567 0.757663 0.322336
Si Si2 0.725499 0.340403 0.821315
Si Si3 0.782217 0.938392 0.817042
Si Si4 0.891953 0.169733 0.823259
Si Si5 0.105331 0.288356 0.320415
Si Si6 0.396269 0.434129 0.680239
Si Si7 0.396943 0.878246 0.819144
O O1 0.627427 0.755515 0.500000
O O2 0.500000 0.747051 0.302004
O O3 0.665344 0.711374 0.237691
O O4 0.625561 0.819309 0.257889
O O5 0.825231 0.331180 0.753736
O O6 0.675825 0.395708 0.762386
O O7 0.729358 0.339844 0.000000
O O8 0.842432 0.885956 0.767204
O O9 0.678504 0.923558 0.779532
O O10 0.808137 0.000000 0.762256
O O11 0.789444 0.939427 0.000000
O O12 0.868889 0.226007 0.734651
O O13 0.000000 0.161738 0.813823
O O14 0.868343 0.178103 0.000000
O O15 0.112139 0.291103 0.500000
O O16 0.000000 0.297274 0.277245
O O17 0.389085 0.425709 0.500000
O O18 0.500000 0.419253 0.723267
O O19 0.384001 0.500000 0.709730
O O20 0.500000 0.893666 0.778798
O O21 0.393509 0.870351 0.000000
#
# Coordination Sequence:
#
# PCOD9385192 Si02
#       7
#     8   8   8   8   8   8   8
#     4  10  20  33  50  73 102 135 171 212 258 310
#     4  12  23  33  52  81 112 143 174 214 262 309
#     4   9  17  28  43  65  91 120 158 202 247 299
#     4   9  17  30  49  72  97 124 156 200 255 309
#     4  10  21  37  57  79 103 134 173 216 262 314
#     4   9  19  37  59  82 112 151 190 223 254 293
#     4   9  17  29  45  65  90 121 159 205 255 303
#
# _framework density 17.819472000000001
#
# number of rings (size 3 to 8) (size 9 to 14) (size 15 to 20)
#    0.000    2.286    0.000    3.857    0.000    5.714 
#    0.000    3.571    0.000    2.143    0.000    7.000 
#    0.000    0.000    0.000    0.000    0.000    0.000 
#
# Total GULP energy -312614.084067 kJ/mol
# GULP energy per Si atom -5582.394358 kJ/mol
# Density = 1.777891 g / cm^3
# Si number density = 17.819472 Si / 1000 Ang^3
#
#
#
# Elastic Constant Matrix: (Units=GPa)
#
#
# Indices 1 2 3 4 5 6 
#
# 1 84.5488 65.1164 45.2268 0.0000 0.0000 0.0000
# 2 65.1164 79.7518 42.1089 0.0000 0.0000 0.0000
# 3 45.2268 42.1089 52.3202 0.0000 0.0000 0.0000
# 4 0.0000 0.0000 0.0000 32.3520 0.0000 0.0000
# 5 0.0000 0.0000 0.0000 0.0000 20.0824 0.0000
# 6 0.0000 0.0000 0.0000 0.0000 0.0000 25.4157
#
#
#
# Elastic Compliance Matrix: (Units=1/GPa)
#
#
# Indices 1 2 3 4 5 6 
#
# 1 0.036400 -0.022792 -0.013121 0.000000 0.000000 0.000000
# 2 -0.022792 0.036076 -0.009333 0.000000 0.000000 0.000000
# 3 -0.013121 -0.009333 0.037967 0.000000 0.000000 0.000000
# 4 0.000000 0.000000 0.000000 0.030910 0.000000 0.000000
# 5 0.000000 0.000000 0.000000 0.000000 0.049795 0.000000
# 6 0.000000 0.000000 0.000000 0.000000 0.000000 0.039346
#
#
# Mechanical properties :
#
#
# Convention : Reuss Voigt Hill
#
# Bulk Modulus (GPa) = 50.12492 57.94723 54.03608
# Shear Modulus (GPa) = 15.26079 19.84795 17.55437
#
# Velocity S-wave (km/s) = 2.92962 3.34104 3.14207
# Velocity P-wave (km/s) = 6.29555 6.89007 6.59951
#
# Compressibility (1/GPa) = 0.01995016
#
# Stress axis : x y z
#
# Youngs Moduli (GPa) = 27.47259 27.71896 26.33865
#
# Poissons Ratio (x) = 0.63177 0.34559
# Poissons Ratio (y) = 0.62616 0.24583
# Poissons Ratio (z) = 0.36047 0.25871
#
# Static dielectric constant tensor:
#      x y z
#    x 1.627840 0.000000 0.000000 
#    y 0.000000 1.587060 0.000000 
#    z 0.000000 0.000000 1.598430 
# 
# From -- ./inp_files/7298.got.cif
#   From: 2010.05.17/outbox.cif.g08.bks.cpg/sg47_4_cif.got.tgz:7298.got - 2010.06.03 20:15:42.
