data_PCOD9385112
_publ_section_title
;
Structure prediction by ZEFSAII (Michael W. Deem and Ramdas Pophale) SiO2 
 PCOD9385112
Probable space group: P M M M
;
_chemical_formula_sum "Si O2"
_cell_formula_units_Z 64
_cell_length_a 15.014568
_cell_length_b 29.886422
_cell_length_c 9.055176
_cell_angle_alpha 90.000000
_cell_angle_beta 90.000000
_cell_angle_gamma 90.000000
_cell_volume 4063.344660
_symmetry_space_group_name_H-M "P M M M"
_symmetry_group_IT_number 47
_symmetry_cell_setting 'orthorhombic'
loop_
_space_group_symop_operation_xyz
x,y,z
-x,-y,z
x,-y,-z
-x,y,-z
-x,-y,-z
x,y,-z
-x,y,z
x,-y,z
loop_
_atom_site_type_symbol
_atom_site_label
_atom_site_fract_x
_atom_site_fract_y
_atom_site_fract_z
Si Si1 0.143926 0.449336 0.675970
Si Si2 0.102116 0.354742 0.825780
Si Si3 0.607616 0.138926 0.332611
Si Si4 0.594806 0.623564 0.662136
Si Si5 0.258424 0.699313 0.329086
Si Si6 0.391734 0.049692 0.827398
Si Si7 0.669420 0.548916 0.832956
Si Si8 0.395199 0.232142 0.176936
O O1 0.132229 0.445082 0.500000
O O2 0.111334 0.500000 0.718257
O O3 0.107520 0.404694 0.754493
O O4 0.247666 0.448947 0.721724
O O5 0.170191 0.319740 0.750564
O O6 0.000000 0.339526 0.809769
O O7 0.123412 0.358440 0.000000
O O8 0.639350 0.146187 0.500000
O O9 0.500000 0.135501 0.338316
O O10 0.640528 0.092021 0.265648
O O11 0.625107 0.181684 0.230474
O O12 0.597669 0.601393 0.500000
O O13 0.500000 0.647792 0.672892
O O14 0.676100 0.656754 0.670091
O O15 0.603478 0.587573 0.788847
O O16 0.240306 0.711846 0.500000
O O17 0.319481 0.736506 0.248979
O O18 0.500000 0.049909 0.821323
O O19 0.363166 0.000000 0.777341
O O20 0.368223 0.054897 0.000000
O O21 0.627952 0.500000 0.822107
O O22 0.703462 0.554535 0.000000
O O23 0.500000 0.241700 0.220224
O O24 0.391232 0.235750 0.000000
#
# Coordination Sequence:
#
# PCOD9385112 Si02
#       8
#     8   8   8   8   8   8   8   8
#     4  10  20  35  56  79 101 125 152 181 218 266
#     4  11  24  40  58  80 103 125 151 184 225 276
#     4   9  16  25  38  58  85 117 157 205 249 288
#     4  10  21  35  51  72  96 123 153 185 224 269
#     4  11  22  37  56  75  96 123 155 193 235 279
#     4   8  13  21  33  50  76 113 156 201 248 294
#     4  10  20  33  50  71  95 123 153 184 219 260
#     4  10  20  33  50  71  96 128 164 202 245 290
#
# _framework density 15.75057
#
# number of rings (size 3 to 8) (size 9 to 14) (size 15 to 20)
#    0.000    2.125    1.250    3.000    0.000    6.750 
#    0.000    3.750    0.000    0.000    0.000    0.000 
#    0.000    0.000    0.000    0.000    0.000    0.625 
#
# Total GULP energy -356443.872377 kJ/mol
# GULP energy per Si atom -5569.435506 kJ/mol
# Density = 1.571472 g / cm^3
# Si number density = 15.750570 Si / 1000 Ang^3
#
#
#
# Elastic Constant Matrix: (Units=GPa)
#
#
# Indices 1 2 3 4 5 6 
#
# 1 61.6954 32.5350 32.0508 0.0000 0.0000 0.0000
# 2 32.5350 96.9735 53.3531 0.0000 0.0000 0.0000
# 3 32.0508 53.3531 85.6577 0.0000 0.0000 0.0000
# 4 0.0000 0.0000 0.0000 24.6823 0.0000 0.0000
# 5 0.0000 0.0000 0.0000 0.0000 14.0445 0.0000
# 6 0.0000 0.0000 0.0000 0.0000 0.0000 8.6179
#
#
#
# Elastic Compliance Matrix: (Units=1/GPa)
#
#
# Indices 1 2 3 4 5 6 
#
# 1 0.021176 -0.004176 -0.005322 0.000000 0.000000 0.000000
# 2 -0.004176 0.016512 -0.008722 0.000000 0.000000 0.000000
# 3 -0.005322 -0.008722 0.019098 0.000000 0.000000 0.000000
# 4 0.000000 0.000000 0.000000 0.040515 0.000000 0.000000
# 5 0.000000 0.000000 0.000000 0.000000 0.071202 0.000000
# 6 0.000000 0.000000 0.000000 0.000000 0.000000 0.116037
#
#
# Mechanical properties :
#
#
# Convention : Reuss Voigt Hill
#
# Bulk Modulus (GPa) = 49.15171 53.35604 51.25388
# Shear Modulus (GPa) = 15.25490 17.89479 16.57485
#
# Velocity S-wave (km/s) = 3.11550 3.37432 3.24749
# Velocity P-wave (km/s) = 6.64950 7.00932 6.83178
#
# Compressibility (1/GPa) = 0.02034517
#
# Stress axis : x y z
#
# Youngs Moduli (GPa) = 47.22337 60.56190 52.36038
#
# Poissons Ratio (x) = 0.25294 0.27867
# Poissons Ratio (y) = 0.19723 0.45669
# Poissons Ratio (z) = 0.25133 0.52822
#
# Static dielectric constant tensor:
#      x y z
#    x 1.520260 0.000000 0.000000 
#    y 0.000000 1.537510 0.000000 
#    z 0.000000 0.000000 1.554680 
# 
# From -- ./inp_files/8265.got.cif
#   From: 2010.05.17/outbox.cif.g08.bks.cpg/sg47_5_cif.got.tgz:8265.got - 2010.06.03 20:15:42.
