data_PCOD9385509
_publ_section_title
;
Structure prediction by ZEFSAII (Michael W. Deem and Ramdas Pophale) SiO2 
 PCOD9385509
Probable space group: P M M M
;
_chemical_formula_sum "Si O2"
_cell_formula_units_Z 56
_cell_length_a 20.125540
_cell_length_b 16.495334
_cell_length_c 7.455088
_cell_angle_alpha 90.000000
_cell_angle_beta 90.000000
_cell_angle_gamma 90.000000
_cell_volume 2474.921508
_symmetry_space_group_name_H-M "P M M M"
_symmetry_group_IT_number 47
_symmetry_cell_setting 'orthorhombic'
loop_
_space_group_symop_operation_xyz
x,y,z
-x,-y,z
x,-y,-z
-x,y,-z
-x,-y,-z
x,y,-z
-x,y,z
x,-y,z
loop_
_atom_site_type_symbol
_atom_site_label
_atom_site_fract_x
_atom_site_fract_y
_atom_site_fract_z
Si Si1 0.719389 0.590952 0.280497
Si Si2 0.782274 0.239861 0.712229
Si Si3 0.574720 0.647180 0.710377
Si Si4 0.293382 0.087448 0.292031
Si Si5 0.074155 0.239649 0.783311
Si Si6 0.080207 0.416125 0.793225
Si Si7 0.426091 0.837311 0.784807
O O1 0.720585 0.590962 0.500000
O O2 0.740297 0.500000 0.223519
O O3 0.763651 0.669042 0.219852
O O4 0.642600 0.606050 0.221952
O O5 0.770732 0.246539 0.500000
O O6 0.734995 0.170277 0.789616
O O7 0.855738 0.200962 0.739451
O O8 0.571809 0.626325 0.500000
O O9 0.500000 0.629516 0.784560
O O10 0.585583 0.744008 0.726746
O O11 0.271710 0.085945 0.500000
O O12 0.371725 0.101816 0.287070
O O13 0.275731 0.000000 0.212694
O O14 0.090216 0.329622 0.707803
O O15 0.000000 0.213730 0.723422
O O16 0.070146 0.244788 0.000000
O O17 0.103898 0.500000 0.708828
O O18 0.000000 0.419791 0.801163
O O19 0.103123 0.414185 0.000000
O O20 0.500000 0.858780 0.726267
O O21 0.423438 0.838398 0.000000
#
# Coordination Sequence:
#
# PCOD9385509 Si02
#       7
#     8   8   8   8   8   8   8
#     4   9  17  30  49  75 107 140 176 221 269 312
#     4  10  20  35  53  76 106 136 168 212 266 316
#     4   9  16  29  51  75 102 141 188 228 261 302
#     4  10  21  38  59  80 103 137 181 221 258 307
#     4   9  18  32  51  75 100 130 169 210 255 311
#     4   7  10  19  37  61  89 120 155 195 234 275
#     4  10  20  33  52  80 113 144 174 215 268 317
#
# _framework density 22.62698
#
# number of rings (size 3 to 8) (size 9 to 14) (size 15 to 20)
#    0.000    2.857    1.429    1.714    0.000    3.143 
#    0.000    2.857    0.000    1.714    0.000    9.000 
#    0.000    0.000    0.000    0.000    0.000    0.000 
#
# Total GULP energy -311850.314820 kJ/mol
# GULP energy per Si atom -5568.755622 kJ/mol
# Density = 2.257548 g / cm^3
# Si number density = 22.626980 Si / 1000 Ang^3
#
#
#
# Elastic Constant Matrix: (Units=GPa)
#
#
# Indices 1 2 3 4 5 6 
#
# 1 130.4498 52.6060 -3.8698 0.0000 0.0000 0.0000
# 2 52.6060 99.1408 7.0465 0.0000 0.0000 0.0000
# 3 -3.8698 7.0465 73.6048 0.0000 0.0000 0.0000
# 4 0.0000 0.0000 0.0000 -38.6816 0.0000 0.0000
# 5 0.0000 0.0000 0.0000 0.0000 13.1773 0.0000
# 6 0.0000 0.0000 0.0000 0.0000 0.0000 18.7200
#
#
#
# Elastic Compliance Matrix: (Units=1/GPa)
#
#
# Indices 1 2 3 4 5 6 
#
# 1 0.009829 -0.005288 0.001023 0.000000 0.000000 0.000000
# 2 -0.005288 0.013001 -0.001523 0.000000 0.000000 0.000000
# 3 0.001023 -0.001523 0.013786 0.000000 0.000000 0.000000
# 4 0.000000 0.000000 0.000000 -0.025852 0.000000 0.000000
# 5 0.000000 0.000000 0.000000 0.000000 0.075888 0.000000
# 6 0.000000 0.000000 0.000000 0.000000 0.000000 0.053419
#
#
# Mechanical properties :
#
#
# Convention : Reuss Voigt Hill
#
# Bulk Modulus (GPa) = 39.93647 46.08453 43.01050
# Shear Modulus (GPa) = 31.25164 15.13731 23.19447
#
# Velocity S-wave (km/s) = 3.72044 2.58930 3.20516
# Velocity P-wave (km/s) = 6.01197 5.41762 5.72252
#
# Compressibility (1/GPa) = 0.02503977
#
# Stress axis : x y z
#
# Youngs Moduli (GPa) = 101.74406 76.91853 72.53940
#
# Poissons Ratio (x) = 0.40674 -0.07421
# Poissons Ratio (y) = 0.53802 0.11045
# Poissons Ratio (z) = -0.10408 0.11712
#
# Static dielectric constant tensor:
#      x y z
#    x 1.892350 0.000000 0.000000 
#    y 0.000000 1.900690 0.000000 
#    z 0.000000 0.000000 1.873150 
# 
# From -- ./inp_files/11237.got.cif
#   From: 2010.05.17/outbox.cif.g08.bks.cpg/sg47_6_cif.got.tgz:11237.got - 2010.06.03 20:15:42.
