data_PCOD9385144
_publ_section_title
;
Structure prediction by ZEFSAII (Michael W. Deem and Ramdas Pophale) SiO2 
 PCOD9385144
Probable space group: P M M M
;
_chemical_formula_sum "Si O2"
_cell_formula_units_Z 28
_cell_length_a 19.163530
_cell_length_b 9.358832
_cell_length_c 7.505206
_cell_angle_alpha 90.000000
_cell_angle_beta 90.000000
_cell_angle_gamma 90.000000
_cell_volume 1346.045621
_symmetry_space_group_name_H-M "P M M M"
_symmetry_group_IT_number 47
_symmetry_cell_setting 'orthorhombic'
loop_
_space_group_symop_operation_xyz
x,y,z
-x,-y,z
x,-y,-z
-x,y,-z
-x,-y,-z
x,y,-z
-x,y,z
x,-y,z
loop_
_atom_site_type_symbol
_atom_site_label
_atom_site_fract_x
_atom_site_fract_y
_atom_site_fract_z
Si Si1 0.138759 0.339176 0.787685
Si Si2 0.574999 0.828415 0.214239
Si Si3 0.727254 0.166410 0.781808
Si Si4 0.000000 0.161127 0.288294
O O1 0.131061 0.500000 0.716925
O O2 0.207364 0.258309 0.718611
O O3 0.069306 0.247237 0.761316
O O4 0.148416 0.349892 0.000000
O O5 0.500000 0.773750 0.282750
O O6 0.650890 0.778144 0.277614
O O7 0.575523 0.000000 0.243542
O O8 0.574184 0.807804 0.000000
O O9 0.735163 0.000000 0.730160
O O10 0.726735 0.167608 0.000000
O O11 0.000000 0.150552 0.500000
O O12 0.000000 0.000000 0.213790
#
# Coordination Sequence:
#
# PCOD9385144 Si02
#       4
#     8   8   8   4
#     4  10  20  33  50  72  97 125 156 188 225 273
#     4   7   9  14  27  50  80 113 149 187 224 260
#     4   8  13  22  38  60  86 118 155 192 227 262
#     4  11  24  39  54  72  92 115 148 191 236 280
#
# _framework density 20.801672
#
# number of rings (size 3 to 8) (size 9 to 14) (size 15 to 20)
#    0.000    3.286    0.000    4.286    0.000    4.571 
#    0.000    0.000    0.000    0.857    0.000    6.000 
#    0.000    1.143    0.000   13.143    0.000   15.143 
#
# Total GULP energy -156029.947837 kJ/mol
# GULP energy per Si atom -5572.498137 kJ/mol
# Density = 2.075433 g / cm^3
# Si number density = 20.801672 Si / 1000 Ang^3
#
#
#
# Elastic Constant Matrix: (Units=GPa)
#
#
# Indices 1 2 3 4 5 6 
#
# 1 271.5336 110.3562 2.3325 0.0000 0.0000 0.0000
# 2 110.3562 119.9617 5.0494 0.0000 0.0000 0.0000
# 3 2.3325 5.0494 52.7844 0.0000 0.0000 0.0000
# 4 0.0000 0.0000 0.0000 -11.1391 0.0000 0.0000
# 5 0.0000 0.0000 0.0000 0.0000 -47.2649 0.0000
# 6 0.0000 0.0000 0.0000 0.0000 0.0000 -8.3464
#
#
#
# Elastic Compliance Matrix: (Units=1/GPa)
#
#
# Indices 1 2 3 4 5 6 
#
# 1 0.005885 -0.005425 0.000259 0.000000 0.000000 0.000000
# 2 -0.005425 0.013370 -0.001039 0.000000 0.000000 0.000000
# 3 0.000259 -0.001039 0.019033 0.000000 0.000000 0.000000
# 4 0.000000 0.000000 0.000000 -0.089773 0.000000 0.000000
# 5 0.000000 0.000000 0.000000 0.000000 -0.021157 0.000000
# 6 0.000000 0.000000 0.000000 0.000000 0.000000 -0.119812
#
#
# Mechanical properties :
#
#
# Convention : Reuss Voigt Hill
#
# Bulk Modulus (GPa) = 38.64304 75.52842 57.08573
# Shear Modulus (GPa) = -29.16859 8.41934 -10.37462
#
# Velocity S-wave (km/s) = -3.74869 2.01401 -2.23567
# Velocity P-wave (km/s) = 0.34594 6.46498 4.56488
#
# Compressibility (1/GPa) = 0.02587788
#
# Stress axis : x y z
#
# Youngs Moduli (GPa) = 169.91211 74.79218 52.54039
#
# Poissons Ratio (x) = 0.40575 -0.01360
# Poissons Ratio (y) = 0.92178 0.05460
# Poissons Ratio (z) = -0.04399 0.07773
#
# Static dielectric constant tensor:
#      x y z
#    x 1.786940 0.000000 0.000000 
#    y 0.000000 1.714030 0.000000 
#    z 0.000000 0.000000 1.787870 
# 
# From -- ./inp_files/827.got.cif
#   From: 2010.05.17/outbox.cif.g08.bks.cpg/sg47_1_cif.got.tgz:827.got - 2010.06.03 20:15:42.
