data_PCOD9385145
_publ_section_title
;
Structure prediction by ZEFSAII (Michael W. Deem and Ramdas Pophale) SiO2 
 PCOD9385145
Probable space group: P M M M
;
_chemical_formula_sum "Si O2"
_cell_formula_units_Z 48
_cell_length_a 7.562640
_cell_length_b 32.423268
_cell_length_c 9.424581
_cell_angle_alpha 90.000000
_cell_angle_beta 90.000000
_cell_angle_gamma 90.000000
_cell_volume 2310.959129
_symmetry_space_group_name_H-M "P M M M"
_symmetry_group_IT_number 47
_symmetry_cell_setting 'orthorhombic'
loop_
_space_group_symop_operation_xyz
x,y,z
-x,-y,z
x,-y,-z
-x,y,-z
-x,-y,-z
x,y,-z
-x,y,z
x,-y,z
loop_
_atom_site_type_symbol
_atom_site_label
_atom_site_fract_x
_atom_site_fract_y
_atom_site_fract_z
Si Si1 0.784150 0.453691 0.163842
Si Si2 0.783339 0.134387 0.165251
Si Si3 0.787691 0.955681 0.170631
Si Si4 0.289754 0.294392 0.160318
Si Si5 0.210879 0.786943 0.339986
Si Si6 0.211378 0.624274 0.659804
O O1 0.729582 0.500000 0.205982
O O2 0.720253 0.416879 0.263175
O O3 0.000000 0.453317 0.165618
O O4 0.731761 0.446807 0.000000
O O5 0.723961 0.089197 0.219555
O O6 0.720745 0.172675 0.258396
O O7 0.000000 0.134045 0.166256
O O8 0.731989 0.139391 0.000000
O O9 0.000000 0.956175 0.192949
O O10 0.718603 0.000000 0.224226
O O11 0.760887 0.955374 0.000000
O O12 0.500000 0.293844 0.150062
O O13 0.238046 0.254005 0.248222
O O14 0.241133 0.335593 0.244889
O O15 0.216208 0.294101 0.000000
O O16 0.280946 0.782604 0.500000
O O17 0.000000 0.792519 0.350595
O O18 0.280631 0.629551 0.500000
O O19 0.000000 0.619356 0.649650
#
# Coordination Sequence:
#
# PCOD9385145 Si02
#       6
#     8   8   8   8   8   8
#     4   8  14  26  46  73 104 136 168 201 236 273
#     4   8  13  22  38  60  86 118 155 193 232 273
#     4   7   9  14  27  50  80 113 149 187 225 266
#     4  11  24  39  54  72  94 123 161 203 246 291
#     4  10  20  33  50  72  97 125 158 196 239 288
#     4  10  20  33  52  79 107 134 164 197 237 286
#
# _framework density 20.770596000000001
#
# number of rings (size 3 to 8) (size 9 to 14) (size 15 to 20)
#    0.000    3.000    0.000    4.000    0.000    5.667 
#    0.000    1.667    0.000    1.000    0.000    7.000 
#    0.000    0.667    0.000    7.667    0.000    8.833 
#
# Total GULP energy -267691.386844 kJ/mol
# GULP energy per Si atom -5576.903893 kJ/mol
# Density = 2.072332 g / cm^3
# Si number density = 20.770596 Si / 1000 Ang^3
#
#
#
# Elastic Constant Matrix: (Units=GPa)
#
#
# Indices 1 2 3 4 5 6 
#
# 1 47.2431 1.5961 5.7551 0.0000 0.0000 0.0000
# 2 1.5961 242.1346 129.1409 0.0000 0.0000 0.0000
# 3 5.7551 129.1409 152.8111 0.0000 0.0000 0.0000
# 4 0.0000 0.0000 0.0000 -9.0804 0.0000 0.0000
# 5 0.0000 0.0000 0.0000 0.0000 -3.6323 0.0000
# 6 0.0000 0.0000 0.0000 0.0000 0.0000 -51.9815
#
#
#
# Elastic Compliance Matrix: (Units=1/GPa)
#
#
# Indices 1 2 3 4 5 6 
#
# 1 0.021301 0.000523 -0.001244 0.000000 0.000000 0.000000
# 2 0.000523 0.007532 -0.006385 0.000000 0.000000 0.000000
# 3 -0.001244 -0.006385 0.011987 0.000000 0.000000 0.000000
# 4 0.000000 0.000000 0.000000 -0.110127 0.000000 0.000000
# 5 0.000000 0.000000 0.000000 0.000000 -0.275304 0.000000
# 6 0.000000 0.000000 0.000000 0.000000 0.000000 -0.019238
#
#
# Mechanical properties :
#
#
# Convention : Reuss Voigt Hill
#
# Bulk Modulus (GPa) = 37.58329 79.46366 58.52347
# Shear Modulus (GPa) = -14.67273 7.44093 -3.61590
#
# Velocity S-wave (km/s) = -2.66074 1.89478 -1.32085
# Velocity P-wave (km/s) = 2.94863 6.56717 5.09029
#
# Compressibility (1/GPa) = 0.02660757
#
# Stress axis : x y z
#
# Youngs Moduli (GPa) = 46.94604 132.77048 83.42555
#
# Poissons Ratio (x) = -0.06948 0.10382
# Poissons Ratio (y) = -0.02457 0.53266
# Poissons Ratio (z) = 0.05842 0.84772
#
# Static dielectric constant tensor:
#      x y z
#    x 1.785070 0.000000 0.000000 
#    y 0.000000 1.753970 0.000000 
#    z 0.000000 0.000000 1.723200 
# 
# From -- ./inp_files/2486.got.cif
#   From: 2010.05.17/outbox.cif.g08.bks.cpg/sg47_2_cif.got.tgz:2486.got - 2010.06.03 20:15:42.
