data_PCOD9385241
_publ_section_title
;
Structure prediction by ZEFSAII (Michael W. Deem and Ramdas Pophale) SiO2 
 PCOD9385241
Probable space group: P M M M
;
_chemical_formula_sum "Si O2"
_cell_formula_units_Z 48
_cell_length_a 9.340180
_cell_length_b 31.728751
_cell_length_c 8.558443
_cell_angle_alpha 90.000000
_cell_angle_beta 90.000000
_cell_angle_gamma 90.000000
_cell_volume 2536.313801
_symmetry_space_group_name_H-M "P M M M"
_symmetry_group_IT_number 47
_symmetry_cell_setting 'orthorhombic'
loop_
_space_group_symop_operation_xyz
x,y,z
-x,-y,z
x,-y,-z
-x,y,-z
-x,-y,-z
x,y,-z
-x,y,z
x,-y,z
loop_
_atom_site_type_symbol
_atom_site_label
_atom_site_fract_x
_atom_site_fract_y
_atom_site_fract_z
Si Si1 0.333575 0.247529 0.686989
Si Si2 0.666968 0.660768 0.187060
Si Si3 0.165611 0.832794 0.188995
Si Si4 0.334874 0.083604 0.190817
Si Si5 0.334751 0.500000 0.187351
Si Si6 0.165382 0.580667 0.312791
Si Si7 0.834671 0.000000 0.190958
O O1 0.327115 0.249386 0.500000
O O2 0.500000 0.240391 0.733620
O O3 0.289615 0.292833 0.755208
O O4 0.237810 0.209507 0.748271
O O5 0.500000 0.654555 0.233505
O O6 0.762829 0.623997 0.257610
O O7 0.674469 0.659161 0.000000
O O8 0.254654 0.873851 0.240575
O O9 0.000000 0.836105 0.236902
O O10 0.169690 0.831771 0.000000
O O11 0.500000 0.082772 0.241486
O O12 0.248847 0.042027 0.240712
O O13 0.335007 0.083436 0.000000
O O14 0.500000 0.500000 0.240560
O O15 0.254006 0.541439 0.246611
O O16 0.333927 0.500000 0.000000
O O17 0.168545 0.578730 0.500000
O O18 0.000000 0.578317 0.261210
O O19 0.000000 0.000000 0.241053
O O20 0.835087 0.000000 0.000000
#
# Coordination Sequence:
#
# PCOD9385241 Si02
#       7
#     8   8   8   8   4   8   4
#     4  10  21  37  57  80 106 139 179 222 269 321
#     4  10  21  38  61  87 113 144 184 227 272 325
#     4  10  20  33  50  74 104 138 176 219 269 322
#     4   9  16  26  42  65  95 132 173 216 263 316
#     4  11  24  41  62  88 116 149 192 237 280 328
#     4  11  24  40  59  86 119 153 189 229 275 327
#     4   9  15  23  37  61  96 133 168 211 264 319
#
# _framework density 18.925103
#
# number of rings (size 3 to 8) (size 9 to 14) (size 15 to 20)
#    0.000    2.000    0.000    3.750    0.000   11.667 
#    0.000    0.000    0.000    0.000    0.000    0.583 
#    0.000    4.667    0.000    0.000    0.000    0.000 
#
# Total GULP energy -268197.209383 kJ/mol
# GULP energy per Si atom -5587.441862 kJ/mol
# Density = 1.888203 g / cm^3
# Si number density = 18.925103 Si / 1000 Ang^3
#
#
#
# Elastic Constant Matrix: (Units=GPa)
#
#
# Indices 1 2 3 4 5 6 
#
# 1 183.2302 137.1978 35.4900 0.0000 0.0000 0.0000
# 2 137.1978 201.8535 33.1920 0.0000 0.0000 0.0000
# 3 35.4900 33.1920 21.8558 0.0000 0.0000 0.0000
# 4 0.0000 0.0000 0.0000 3319.1604 0.0000 0.0000
# 5 0.0000 0.0000 0.0000 0.0000 21.3795 0.0000
# 6 0.0000 0.0000 0.0000 0.0000 0.0000 249.2727
#
#
#
# Elastic Compliance Matrix: (Units=1/GPa)
#
#
# Indices 1 2 3 4 5 6 
#
# 1 0.012534 -0.006894 -0.009883 0.000000 0.000000 0.000000
# 2 -0.006894 0.010395 -0.004592 0.000000 0.000000 0.000000
# 3 -0.009883 -0.004592 0.068777 0.000000 0.000000 0.000000
# 4 0.000000 0.000000 0.000000 0.000301 0.000000 0.000000
# 5 0.000000 0.000000 0.000000 0.000000 0.046774 0.000000
# 6 0.000000 0.000000 0.000000 0.000000 0.000000 0.004012
#
#
# Mechanical properties :
#
#
# Convention : Reuss Voigt Hill
#
# Bulk Modulus (GPa) = 20.42174 90.96654 55.69414
# Shear Modulus (GPa) = 24.77051 731.36650 378.06850
#
# Velocity S-wave (km/s) = 3.62176 19.67974 14.14937
# Velocity P-wave (km/s) = 5.32013 23.76048 17.21720
#
# Compressibility (1/GPa) = 0.04896742
#
# Stress axis : x y z
#
# Youngs Moduli (GPa) = 79.78309 96.20005 14.53983
#
# Poissons Ratio (x) = 0.66321 0.14370
# Poissons Ratio (y) = 0.55003 0.06677
# Poissons Ratio (z) = 0.78850 0.44174
#
# Static dielectric constant tensor:
#      x y z
#    x 1.644270 0.000000 0.000000 
#    y 0.000000 1.612810 0.000000 
#    z 0.000000 0.000000 1.641350 
# 
# From -- ./inp_files/2669.got.cif
#   From: 2010.05.17/outbox.cif.g08.bks.cpg/sg47_2_cif.got.tgz:2669.got - 2010.06.03 20:15:42.
