data_PCOD9385285
_publ_section_title
;
Structure prediction by ZEFSAII (Michael W. Deem and Ramdas Pophale) SiO2 
 PCOD9385285
Probable space group: P M M M
;
_chemical_formula_sum "Si O2"
_cell_formula_units_Z 40
_cell_length_a 7.966613
_cell_length_b 30.486920
_cell_length_c 7.534148
_cell_angle_alpha 90.000000
_cell_angle_beta 90.000000
_cell_angle_gamma 90.000000
_cell_volume 1829.874980
_symmetry_space_group_name_H-M "P M M M"
_symmetry_group_IT_number 47
_symmetry_cell_setting 'orthorhombic'
loop_
_space_group_symop_operation_xyz
x,y,z
-x,-y,z
x,-y,-z
-x,y,-z
-x,-y,-z
x,y,-z
-x,y,z
x,-y,z
loop_
_atom_site_type_symbol
_atom_site_label
_atom_site_fract_x
_atom_site_fract_y
_atom_site_fract_z
Si Si1 0.192445 0.596690 0.790560
Si Si2 0.192616 0.500000 0.288167
Si Si3 0.305575 0.905154 0.285202
Si Si4 0.819723 0.809894 0.789885
Si Si5 0.500000 0.344802 0.782140
Si Si6 0.705220 0.000000 0.292030
Si Si7 0.500000 0.243399 0.217808
O O1 0.261166 0.546987 0.769291
O O2 0.331503 0.630254 0.720558
O O3 0.000000 0.598969 0.717556
O O4 0.178105 0.605072 0.000000
O O5 0.191670 0.500000 0.500000
O O6 0.000000 0.500000 0.220587
O O7 0.305117 0.907080 0.500000
O O8 0.500000 0.900038 0.228418
O O9 0.208827 0.861800 0.231564
O O10 0.241848 0.952644 0.219180
O O11 0.663260 0.782802 0.718364
O O12 0.000000 0.797576 0.713608
O O13 0.823788 0.801077 0.000000
O O14 0.500000 0.294046 0.730546
O O15 0.500000 0.346506 0.000000
O O16 0.500000 0.000000 0.285161
O O17 0.752799 0.000000 0.500000
O O18 0.500000 0.242130 0.000000
#
# Coordination Sequence:
#
# PCOD9385285 Si02
#       7
#     8   4   8   8   4   4   4
#     4   9  17  30  49  73 100 128 161 202 241 278
#     4   9  17  30  49  72 101 137 168 193 231 284
#     4   9  16  29  51  75  99 128 162 201 244 291
#     4  10  20  33  51  74  99 130 165 201 246 297
#     4   9  18  31  50  75  97 123 162 205 248 289
#     4   7  12  24  44  71  98 125 159 196 237 288
#     4   9  18  34  52  71  98 126 159 207 252 293
#
# _framework density 21.859414999999998
#
# number of rings (size 3 to 8) (size 9 to 14) (size 15 to 20)
#    0.000    3.000    1.000    1.500    0.000    2.800 
#    0.000    7.500    0.000    7.200    0.000    2.800 
#    0.000    0.000    0.000    0.000    0.000    0.000 
#
# Total GULP energy -223096.695232 kJ/mol
# GULP energy per Si atom -5577.417381 kJ/mol
# Density = 2.180966 g / cm^3
# Si number density = 21.859415 Si / 1000 Ang^3
#
#
#
# Elastic Constant Matrix: (Units=GPa)
#
#
# Indices 1 2 3 4 5 6 
#
# 1 149.9543 105.5537 9.5807 0.0000 0.0000 0.0000
# 2 105.5537 186.0014 -4.5248 0.0000 0.0000 0.0000
# 3 9.5807 -4.5248 54.5852 0.0000 0.0000 0.0000
# 4 0.0000 0.0000 0.0000 16.4810 0.0000 0.0000
# 5 0.0000 0.0000 0.0000 0.0000 -9.1260 0.0000
# 6 0.0000 0.0000 0.0000 0.0000 0.0000 -37.8729
#
#
#
# Elastic Compliance Matrix: (Units=1/GPa)
#
#
# Indices 1 2 3 4 5 6 
#
# 1 0.011449 -0.006559 -0.002553 0.000000 0.000000 0.000000
# 2 -0.006559 0.009145 0.001909 0.000000 0.000000 0.000000
# 3 -0.002553 0.001909 0.018926 0.000000 0.000000 0.000000
# 4 0.000000 0.000000 0.000000 0.060676 0.000000 0.000000
# 5 0.000000 0.000000 0.000000 0.000000 -0.109577 0.000000
# 6 0.000000 0.000000 0.000000 0.000000 0.000000 -0.026404
#
#
# Mechanical properties :
#
#
# Convention : Reuss Voigt Hill
#
# Bulk Modulus (GPa) = 39.81822 67.97334 53.89578
# Shear Modulus (GPa) = -384.39240 12.55850 -185.91695
#
# Velocity S-wave (km/s) = -13.27514 2.39950 -9.23233
# Velocity P-wave (km/s) = 14.72132 6.23217 9.43073
#
# Compressibility (1/GPa) = 0.02511413
#
# Stress axis : x y z
#
# Youngs Moduli (GPa) = 87.34448 109.34871 52.83623
#
# Poissons Ratio (x) = 0.71725 0.13490
# Poissons Ratio (y) = 0.57291 -0.10088
# Poissons Ratio (z) = 0.22301 -0.20879
#
# Static dielectric constant tensor:
#      x y z
#    x 1.818130 0.000000 0.000000 
#    y 0.000000 1.777140 0.000000 
#    z 0.000000 0.000000 1.823000 
# 
# From -- ./inp_files/1916.got.cif
#   From: 2010.05.17/outbox.cif.g08.bks.cpg/sg47_1_cif.got.tgz:1916.got - 2010.06.03 20:15:42.
