data_PCOD9385828
_publ_section_title
;
Structure prediction by ZEFSAII (Michael W. Deem and Ramdas Pophale) SiO2 
 PCOD9385828
Probable space group: P M M M
;
_chemical_formula_sum "Si O2"
_cell_formula_units_Z 40
_cell_length_a 12.874922
_cell_length_b 20.511712
_cell_length_c 8.734587
_cell_angle_alpha 90.000000
_cell_angle_beta 90.000000
_cell_angle_gamma 90.000000
_cell_volume 2306.688188
_symmetry_space_group_name_H-M "P M M M"
_symmetry_group_IT_number 47
_symmetry_cell_setting 'orthorhombic'
loop_
_space_group_symop_operation_xyz
x,y,z
-x,-y,z
x,-y,-z
-x,y,-z
-x,-y,-z
x,y,-z
-x,y,z
x,-y,z
loop_
_atom_site_type_symbol
_atom_site_label
_atom_site_fract_x
_atom_site_fract_y
_atom_site_fract_z
Si Si1 0.720195 0.242720 0.682329
Si Si2 0.500000 0.397987 0.175230
Si Si3 0.500000 0.239478 0.823979
Si Si4 0.874052 0.000000 0.323932
Si Si5 0.118247 0.500000 0.813491
Si Si6 0.725236 0.387587 0.186668
Si Si7 0.877741 0.861780 0.183031
O O1 0.719801 0.246075 0.500000
O O2 0.606541 0.220452 0.741547
O O3 0.739198 0.314903 0.750597
O O4 0.807451 0.193349 0.741185
O O5 0.500000 0.318835 0.173885
O O6 0.612633 0.414761 0.241309
O O7 0.500000 0.421746 0.000000
O O8 0.500000 0.217579 0.000000
O O9 0.843505 0.933304 0.240508
O O10 0.839208 0.000000 0.500000
O O11 0.000000 0.000000 0.323249
O O12 0.183188 0.436185 0.768321
O O13 0.000000 0.500000 0.758860
O O14 0.116195 0.500000 0.000000
O O15 0.720752 0.384191 0.000000
O O16 0.000000 0.853414 0.222869
O O17 0.868861 0.858352 0.000000
#
# Coordination Sequence:
#
# PCOD9385828 Si02
#       7
#     8   4   4   4   4   8   8
#     4  11  21  33  52  79 108 136 170 215 265 310
#     4   7  12  24  45  69  89 113 151 200 247 291
#     4   9  17  33  54  75 102 136 172 208 253 310
#     4   9  17  31  51  76 107 138 169 213 266 311
#     4   9  18  31  48  70  95 127 169 212 253 303
#     4   9  17  31  49  69  95 128 167 210 255 304
#     4  10  20  34  53  77 105 140 180 217 255 304
#
# _framework density 17.340879000000001
#
# number of rings (size 3 to 8) (size 9 to 14) (size 15 to 20)
#    0.000    2.600    0.000    4.200    0.000    3.600 
#    0.000    4.500    0.000    1.200    0.000    8.400 
#    0.000    0.000    0.000    0.000    0.000    0.000 
#
# Total GULP energy -222991.801121 kJ/mol
# GULP energy per Si atom -5574.795028 kJ/mol
# Density = 1.730141 g / cm^3
# Si number density = 17.340879 Si / 1000 Ang^3
#
#
#
# Elastic Constant Matrix: (Units=GPa)
#
#
# Indices 1 2 3 4 5 6 
#
# 1 147.7528 83.2040 49.4709 0.0000 0.0000 0.0000
# 2 83.2040 112.6656 42.0473 0.0000 0.0000 0.0000
# 3 49.4709 42.0473 73.0824 0.0000 0.0000 0.0000
# 4 0.0000 0.0000 0.0000 0.7828 0.0000 0.0000
# 5 0.0000 0.0000 0.0000 0.0000 18.6516 0.0000
# 6 0.0000 0.0000 0.0000 0.0000 0.0000 -41.8317
#
#
#
# Elastic Compliance Matrix: (Units=1/GPa)
#
#
# Indices 1 2 3 4 5 6 
#
# 1 0.012439 -0.007696 -0.003992 0.000000 0.000000 0.000000
# 2 -0.007696 0.016065 -0.004033 0.000000 0.000000 0.000000
# 3 -0.003992 -0.004033 0.018706 0.000000 0.000000 0.000000
# 4 0.000000 0.000000 0.000000 1.277522 0.000000 0.000000
# 5 0.000000 0.000000 0.000000 0.000000 0.053615 0.000000
# 6 0.000000 0.000000 0.000000 0.000000 0.000000 -0.023905
#
#
# Mechanical properties :
#
#
# Convention : Reuss Voigt Hill
#
# Bulk Modulus (GPa) = 63.42464 75.88280 69.65372
# Shear Modulus (GPa) = 3.59418 6.10578 4.84998
#
# Velocity S-wave (km/s) = 1.44124 1.87848 1.67419
# Velocity P-wave (km/s) = 6.27887 6.96846 6.63263
#
# Compressibility (1/GPa) = 0.01576674
#
# Stress axis : x y z
#
# Youngs Moduli (GPa) = 80.39496 62.24893 53.45938
#
# Poissons Ratio (x) = 0.47907 0.21341
# Poissons Ratio (y) = 0.61873 0.21560
# Poissons Ratio (z) = 0.32094 0.25105
#
# Static dielectric constant tensor:
#      x y z
#    x 1.601480 0.000000 0.000000 
#    y 0.000000 1.569260 0.000000 
#    z 0.000000 0.000000 1.578270 
# 
# From -- ./inp_files/4182.got.cif
#   From: 2010.05.17/outbox.cif.g08.bks.cpg/sg47_3_cif.got.tgz:4182.got - 2010.06.03 20:15:42.
