data_PCOD9385555
_publ_section_title
;
Structure prediction by ZEFSAII (Michael W. Deem and Ramdas Pophale) SiO2 
 PCOD9385555
Probable space group: P M M M
;
_chemical_formula_sum "Si O2"
_cell_formula_units_Z 40
_cell_length_a 9.837036
_cell_length_b 28.546018
_cell_length_c 7.862779
_cell_angle_alpha 90.000000
_cell_angle_beta 90.000000
_cell_angle_gamma 90.000000
_cell_volume 2207.932871
_symmetry_space_group_name_H-M "P M M M"
_symmetry_group_IT_number 47
_symmetry_cell_setting 'orthorhombic'
loop_
_space_group_symop_operation_xyz
x,y,z
-x,-y,z
x,-y,-z
-x,y,-z
-x,-y,-z
x,y,-z
-x,y,z
x,-y,z
loop_
_atom_site_type_symbol
_atom_site_label
_atom_site_fract_x
_atom_site_fract_y
_atom_site_fract_z
Si Si1 0.161048 0.379407 0.307395
Si Si2 0.834894 0.446626 0.000000
Si Si3 0.154705 0.101355 0.295060
Si Si4 0.659794 0.292211 0.794440
Si Si5 0.654289 0.187170 0.795225
Si Si6 0.165779 0.000000 0.697275
O O1 0.177955 0.396877 0.500000
O O2 0.204789 0.417252 0.166814
O O3 0.246451 0.332170 0.282738
O O4 0.000000 0.369804 0.281117
O O5 0.785046 0.500000 0.000000
O O6 0.000000 0.448510 0.000000
O O7 0.148911 0.097110 0.500000
O O8 0.248299 0.145077 0.253885
O O9 0.205295 0.050529 0.228392
O O10 0.000000 0.108888 0.234153
O O11 0.500000 0.299038 0.753794
O O12 0.697544 0.239348 0.738955
O O13 0.672419 0.294756 0.000000
O O14 0.500000 0.179020 0.734036
O O15 0.649781 0.189057 0.000000
O O16 0.210867 0.000000 0.500000
O O17 0.000000 0.000000 0.697311
#
# Coordination Sequence:
#
# PCOD9385555 Si02
#       6
#     8   4   8   8   8   4
#     4  10  20  33  53  82 110 137 175 219 259 305
#     4   9  18  34  55  79 111 147 177 212 261 306
#     4   9  17  30  49  71  93 120 159 205 250 298
#     4   9  18  34  54  72  96 136 177 210 253 309
#     4   9  19  34  49  68  97 131 165 200 243 299
#     4   7  12  26  46  65  88 120 156 197 246 297
#
# _framework density 18.116493999999999
#
# number of rings (size 3 to 8) (size 9 to 14) (size 15 to 20)
#    0.000    3.000    1.000    2.400    0.000    3.200 
#    0.000    9.000    0.000    6.000    0.000    1.400 
#    0.000    0.000    0.000    0.000    0.000    0.000 
#
# Total GULP energy -222854.774670 kJ/mol
# GULP energy per Si atom -5571.369367 kJ/mol
# Density = 1.807526 g / cm^3
# Si number density = 18.116494 Si / 1000 Ang^3
#
#
#
# Elastic Constant Matrix: (Units=GPa)
#
#
# Indices 1 2 3 4 5 6 
#
# 1 44.7359 70.5224 28.2915 0.0000 0.0000 0.0000
# 2 70.5224 189.4307 54.9581 0.0000 0.0000 0.0000
# 3 28.2915 54.9581 61.4921 0.0000 0.0000 0.0000
# 4 0.0000 0.0000 0.0000 27.4571 0.0000 0.0000
# 5 0.0000 0.0000 0.0000 0.0000 21.9077 0.0000
# 6 0.0000 0.0000 0.0000 0.0000 0.0000 -42.9927
#
#
#
# Elastic Compliance Matrix: (Units=1/GPa)
#
#
# Indices 1 2 3 4 5 6 
#
# 1 0.058360 -0.018816 -0.010034 0.000000 0.000000 0.000000
# 2 -0.018816 0.013193 -0.003135 0.000000 0.000000 0.000000
# 3 -0.010034 -0.003135 0.023680 0.000000 0.000000 0.000000
# 4 0.000000 0.000000 0.000000 0.036420 0.000000 0.000000
# 5 0.000000 0.000000 0.000000 0.000000 0.045646 0.000000
# 6 0.000000 0.000000 0.000000 0.000000 0.000000 -0.023260
#
#
# Mechanical properties :
#
#
# Convention : Reuss Voigt Hill
#
# Bulk Modulus (GPa) = 31.98470 67.02253 49.50361
# Shear Modulus (GPa) = 21.88843 10.73354 16.31098
#
# Velocity S-wave (km/s) = 3.47969 2.43672 3.00382
# Velocity P-wave (km/s) = 5.81702 6.70764 6.27814
#
# Compressibility (1/GPa) = 0.03126495
#
# Stress axis : x y z
#
# Youngs Moduli (GPa) = 17.13493 75.79694 42.22901
#
# Poissons Ratio (x) = 1.42616 0.42374
# Poissons Ratio (y) = 0.32240 0.13237
# Poissons Ratio (z) = 0.17194 0.23759
#
# Static dielectric constant tensor:
#      x y z
#    x 1.597810 0.000000 0.000000 
#    y 0.000000 1.627000 0.000000 
#    z 0.000000 0.000000 1.664610 
# 
# From -- ./inp_files/1759.got.cif
#   From: 2010.05.17/outbox.cif.g08.bks.cpg/sg47_1_cif.got.tgz:1759.got - 2010.06.03 20:15:42.
