data_PCOD9385673
_publ_section_title
;
Structure prediction by ZEFSAII (Michael W. Deem and Ramdas Pophale) SiO2 
 PCOD9385673
Probable space group: P M M M
;
_chemical_formula_sum "Si O2"
_cell_formula_units_Z 44
_cell_length_a 9.141169
_cell_length_b 15.278739
_cell_length_c 17.648877
_cell_angle_alpha 90.000000
_cell_angle_beta 90.000000
_cell_angle_gamma 90.000000
_cell_volume 2464.939854
_symmetry_space_group_name_H-M "P M M M"
_symmetry_group_IT_number 47
_symmetry_cell_setting 'orthorhombic'
loop_
_space_group_symop_operation_xyz
x,y,z
-x,-y,z
x,-y,-z
-x,y,-z
-x,-y,-z
x,y,-z
-x,y,z
x,-y,z
loop_
_atom_site_type_symbol
_atom_site_label
_atom_site_fract_x
_atom_site_fract_y
_atom_site_fract_z
Si Si1 0.840366 0.897430 0.000000
Si Si2 0.176908 0.500000 0.087548
Si Si3 0.174240 0.280526 0.357801
Si Si4 0.672851 0.846163 0.849820
Si Si5 0.821570 0.398496 0.500000
Si Si6 0.323648 0.901916 0.681752
Si Si7 0.825615 0.668205 0.812333
O O1 0.753517 0.877050 0.924288
O O2 0.000000 0.852870 0.000000
O O3 0.859478 0.000000 0.000000
O O4 0.215512 0.584180 0.138118
O O5 0.000000 0.500000 0.082893
O O6 0.230867 0.500000 0.000000
O O7 0.223311 0.342563 0.426408
O O8 0.251378 0.185138 0.354120
O O9 0.195340 0.332730 0.278575
O O10 0.000000 0.264835 0.365470
O O11 0.500000 0.853508 0.859453
O O12 0.712037 0.895295 0.771606
O O13 0.725774 0.747555 0.838544
O O14 0.772511 0.500000 0.500000
O O15 0.000000 0.401083 0.500000
O O16 0.500000 0.895025 0.674302
O O17 0.280480 0.000000 0.654642
O O18 0.000000 0.685407 0.824431
#
# Coordination Sequence:
#
# PCOD9385673 Si02
#       7
#     4   4   8   8   4   8   8
#     4  11  23  35  49  72 101 132 169 215 262 307
#     4   9  18  30  47  72 100 134 172 214 262 312
#     4   9  18  32  52  80 107 135 174 218 263 312
#     4  10  20  34  52  73 100 134 173 214 261 313
#     4   9  18  32  54  81 110 140 173 219 268 313
#     4   9  18  34  55  76 102 139 177 212 257 315
#     4   9  18  32  51  74 101 134 174 216 260 313
#
# _framework density 17.850332999999999
#
# number of rings (size 3 to 8) (size 9 to 14) (size 15 to 20)
#    0.000    2.636    0.000    1.364    2.545    2.545 
#    0.000    1.364    0.000    4.364    0.000    0.000 
#    0.000    0.000    0.000    0.000    0.000    0.000 
#
# Total GULP energy -245065.144225 kJ/mol
# GULP energy per Si atom -5569.662369 kJ/mol
# Density = 1.780971 g / cm^3
# Si number density = 17.850333 Si / 1000 Ang^3
#
#
#
# Elastic Constant Matrix: (Units=GPa)
#
#
# Indices 1 2 3 4 5 6 
#
# 1 28.9567 28.6307 34.7527 0.0000 0.0000 0.0000
# 2 28.6307 140.1270 77.4641 0.0000 0.0000 0.0000
# 3 34.7527 77.4641 113.3284 0.0000 0.0000 0.0000
# 4 0.0000 0.0000 0.0000 -2.0326 0.0000 0.0000
# 5 0.0000 0.0000 0.0000 0.0000 17.5949 0.0000
# 6 0.0000 0.0000 0.0000 0.0000 0.0000 -37.3323
#
#
#
# Elastic Compliance Matrix: (Units=1/GPa)
#
#
# Indices 1 2 3 4 5 6 
#
# 1 0.055473 -0.003103 -0.014890 0.000000 0.000000 0.000000
# 2 -0.003103 0.011644 -0.007008 0.000000 0.000000 0.000000
# 3 -0.014890 -0.007008 0.018180 0.000000 0.000000 0.000000
# 4 0.000000 0.000000 0.000000 -0.491975 0.000000 0.000000
# 5 0.000000 0.000000 0.000000 0.000000 0.056835 0.000000
# 6 0.000000 0.000000 0.000000 0.000000 0.000000 -0.026786
#
#
# Mechanical properties :
#
#
# Convention : Reuss Voigt Hill
#
# Bulk Modulus (GPa) = 28.33197 62.67856 45.50526
# Shear Modulus (GPa) = -15.87992 5.08363 -5.39814
#
# Velocity S-wave (km/s) = -2.98588 1.68941 -1.74088
# Velocity P-wave (km/s) = 2.00478 6.24460 4.63758
#
# Compressibility (1/GPa) = 0.03529582
#
# Stress axis : x y z
#
# Youngs Moduli (GPa) = 18.02685 85.87824 55.00485
#
# Poissons Ratio (x) = 0.26645 0.81903
# Poissons Ratio (y) = 0.05593 0.38547
# Poissons Ratio (z) = 0.26842 0.60183
#
# Static dielectric constant tensor:
#      x y z
#    x 1.637010 0.000000 0.000000 
#    y 0.000000 1.629090 0.000000 
#    z 0.000000 0.000000 1.580260 
# 
# From -- ./inp_files/6253.got.cif
#   From: 2010.05.17/outbox.cif.g08.bks.cpg/sg47_4_cif.got.tgz:6253.got - 2010.06.03 20:15:42.
