data_PCOD9385055
_publ_section_title
;
Structure prediction by ZEFSAII (Michael W. Deem and Ramdas Pophale) SiO2 
 PCOD9385055
Probable space group: P M M M
;
_chemical_formula_sum "Si O2"
_cell_formula_units_Z 52
_cell_length_a 7.988909
_cell_length_b 12.801938
_cell_length_c 25.420746
_cell_angle_alpha 90.000000
_cell_angle_beta 90.000000
_cell_angle_gamma 90.000000
_cell_volume 2599.869116
_symmetry_space_group_name_H-M "P M M M"
_symmetry_group_IT_number 47
_symmetry_cell_setting 'orthorhombic'
loop_
_space_group_symop_operation_xyz
x,y,z
-x,-y,z
x,-y,-z
-x,y,-z
-x,-y,-z
x,y,-z
-x,y,z
x,-y,z
loop_
_atom_site_type_symbol
_atom_site_label
_atom_site_fract_x
_atom_site_fract_y
_atom_site_fract_z
Si Si1 0.305203 0.112863 0.083435
Si Si2 0.295320 0.500000 0.265298
Si Si3 0.704239 0.500000 0.143480
Si Si4 0.294917 0.336952 0.057251
Si Si5 0.195020 0.884106 0.200440
Si Si6 0.301669 0.270253 0.709137
Si Si7 0.700249 0.879176 0.500000
Si Si8 0.198634 0.879173 0.614807
O O1 0.500000 0.109820 0.067563
O O2 0.232563 0.218467 0.060576
O O3 0.296761 0.124675 0.146621
O O4 0.229578 0.000000 0.070117
O O5 0.500000 0.500000 0.266457
O O6 0.241977 0.500000 0.203874
O O7 0.240032 0.609612 0.291210
O O8 0.500000 0.500000 0.144802
O O9 0.758833 0.598394 0.108181
O O10 0.500000 0.336448 0.059098
O O11 0.249073 0.380660 0.000000
O O12 0.229349 0.793674 0.241640
O O13 0.000000 0.882046 0.185795
O O14 0.230385 0.000000 0.223863
O O15 0.500000 0.274476 0.717029
O O16 0.266666 0.200893 0.657790
O O17 0.500000 0.875955 0.500000
O O18 0.762786 0.838355 0.444047
O O19 0.758141 0.000000 0.500000
O O20 0.000000 0.884706 0.621848
O O21 0.264052 0.000000 0.619824
#
# Coordination Sequence:
#
# PCOD9385055 Si02
#       8
#     8   4   4   8   8   8   4   8
#     4   9  17  29  45  65  91 124 158 192 237 297
#     4   9  20  35  51  73 101 134 170 213 261 306
#     4   9  15  26  43  63  91 123 154 193 248 306
#     4   9  16  25  41  67  94 118 149 194 245 295
#     4  10  20  33  49  71 100 131 164 206 256 308
#     4  11  21  34  53  76 103 135 174 217 260 307
#     4   9  17  31  53  82 113 146 185 221 255 299
#     4  10  20  34  53  80 115 149 178 213 259 305
#
# _framework density 20.001006
#
# number of rings (size 3 to 8) (size 9 to 14) (size 15 to 20)
#    0.000    2.385    0.000    3.231    0.000    8.308 
#    0.000    3.077    0.000    0.923    0.000    5.385 
#    0.000    2.462    0.000    0.000    0.000    0.000 
#
# Total GULP energy -290076.280377 kJ/mol
# GULP energy per Si atom -5578.390007 kJ/mol
# Density = 1.995548 g / cm^3
# Si number density = 20.001006 Si / 1000 Ang^3
#
#
#
# Elastic Constant Matrix: (Units=GPa)
#
#
# Indices 1 2 3 4 5 6 
#
# 1 26.3095 6.8996 -3.2329 0.0000 0.0000 0.0000
# 2 6.8996 147.5057 54.1737 0.0000 0.0000 0.0000
# 3 -3.2329 54.1737 84.8326 0.0000 0.0000 0.0000
# 4 0.0000 0.0000 0.0000 20.1355 0.0000 0.0000
# 5 0.0000 0.0000 0.0000 0.0000 539.1522 0.0000
# 6 0.0000 0.0000 0.0000 0.0000 0.0000 5.4672
#
#
#
# Elastic Compliance Matrix: (Units=1/GPa)
#
#
# Indices 1 2 3 4 5 6 
#
# 1 0.039255 -0.003116 0.003486 0.000000 0.000000 0.000000
# 2 -0.003116 0.009104 -0.005933 0.000000 0.000000 0.000000
# 3 0.003486 -0.005933 0.015709 0.000000 0.000000 0.000000
# 4 0.000000 0.000000 0.000000 0.049664 0.000000 0.000000
# 5 0.000000 0.000000 0.000000 0.000000 0.001855 0.000000
# 6 0.000000 0.000000 0.000000 0.000000 0.000000 0.182911
#
#
# Mechanical properties :
#
#
# Convention : Reuss Voigt Hill
#
# Bulk Modulus (GPa) = 18.88854 41.59209 30.24031
# Shear Modulus (GPa) = 15.27790 126.33813 70.80802
#
# Velocity S-wave (km/s) = 2.76679 7.95632 5.95643
# Velocity P-wave (km/s) = 4.43522 10.25886 7.90302
#
# Compressibility (1/GPa) = 0.05294215
#
# Stress axis : x y z
#
# Youngs Moduli (GPa) = 25.47466 109.84205 63.65678
#
# Poissons Ratio (x) = 0.34232 -0.22192
# Poissons Ratio (y) = 0.07939 0.37765
# Poissons Ratio (z) = -0.08881 0.65164
#
# Static dielectric constant tensor:
#      x y z
#    x 1.722470 0.000000 0.000000 
#    y 0.000000 1.747290 0.000000 
#    z 0.000000 0.000000 1.689870 
# 
# From -- ./inp_files/33293.got.cif
#   From: 2010.05.17/outbox.cif.g08.bks.cpg/sg47_17_cif.got.tgz:33293.got - 2010.06.03 20:15:42.
