data_PCOD9385441
_publ_section_title
;
Structure prediction by ZEFSAII (Michael W. Deem and Ramdas Pophale) SiO2 
 PCOD9385441
Probable space group: P M M M
;
_chemical_formula_sum "Si O2"
_cell_formula_units_Z 48
_cell_length_a 32.270264
_cell_length_b 9.664541
_cell_length_c 8.594069
_cell_angle_alpha 90.000000
_cell_angle_beta 90.000000
_cell_angle_gamma 90.000000
_cell_volume 2680.294946
_symmetry_space_group_name_H-M "P M M M"
_symmetry_group_IT_number 47
_symmetry_cell_setting 'orthorhombic'
loop_
_space_group_symop_operation_xyz
x,y,z
-x,-y,z
x,-y,-z
-x,y,-z
-x,-y,-z
x,y,-z
-x,y,z
x,-y,z
loop_
_atom_site_type_symbol
_atom_site_label
_atom_site_fract_x
_atom_site_fract_y
_atom_site_fract_z
Si Si1 0.291785 0.159100 0.186114
Si Si2 0.366978 0.660965 0.685281
Si Si3 0.783590 0.661523 0.312055
Si Si4 0.954124 0.839143 0.310282
Si Si5 0.454697 0.332515 0.183094
Si Si6 0.876920 0.340372 0.689672
O O1 0.331855 0.243239 0.242733
O O2 0.251272 0.239742 0.244765
O O3 0.292386 0.000000 0.241996
O O4 0.291605 0.158007 0.000000
O O5 0.362701 0.661364 0.500000
O O6 0.362400 0.500000 0.738488
O O7 0.413067 0.711215 0.730701
O O8 0.781792 0.667171 0.500000
O O9 0.776778 0.500000 0.268399
O O10 0.830395 0.701497 0.263022
O O11 0.953728 0.833959 0.500000
O O12 0.914941 0.752160 0.254122
O O13 0.000000 0.789609 0.261336
O O14 0.950142 0.000000 0.266975
O O15 0.500000 0.282933 0.239513
O O16 0.455523 0.500000 0.195232
O O17 0.451290 0.299001 0.000000
O O18 0.877115 0.335943 0.500000
O O19 0.882992 0.500000 0.734368
#
# Coordination Sequence:
#
# PCOD9385441 Si02
#       6
#     8   8   8   8   8   8
#     4  11  24  38  51  70  96 126 162 202 243 290
#     4  10  20  33  52  78 104 131 164 201 243 290
#     4   9  18  33  52  73  96 122 156 198 243 293
#     4   8  13  20  30  48  78 116 155 190 223 265
#     4   8  14  26  46  73 104 136 168 201 238 281
#     4   8  14  24  38  58  84 113 146 186 231 278
#
# _framework density 17.908476
#
# number of rings (size 3 to 8) (size 9 to 14) (size 15 to 20)
#    0.000    3.000    0.000    3.500    0.000    6.000 
#    0.000    5.000    0.000    0.500    0.000    3.500 
#    0.000    0.667    0.000    7.333    0.000   12.000 
#
# Total GULP energy -267430.706088 kJ/mol
# GULP energy per Si atom -5571.473044 kJ/mol
# Density = 1.786772 g / cm^3
# Si number density = 17.908476 Si / 1000 Ang^3
#
#
#
# Elastic Constant Matrix: (Units=GPa)
#
#
# Indices 1 2 3 4 5 6 
#
# 1 204.6640 103.1834 33.3860 0.0000 0.0000 0.0000
# 2 103.1834 84.2680 23.1390 0.0000 0.0000 0.0000
# 3 33.3860 23.1390 14.2372 0.0000 0.0000 0.0000
# 4 0.0000 0.0000 0.0000 15.5068 0.0000 0.0000
# 5 0.0000 0.0000 0.0000 0.0000 -458.8615 0.0000
# 6 0.0000 0.0000 0.0000 0.0000 0.0000 -14.0332
#
#
#
# Elastic Compliance Matrix: (Units=1/GPa)
#
#
# Indices 1 2 3 4 5 6 
#
# 1 0.013319 -0.013965 -0.008537 0.000000 0.000000 0.000000
# 2 -0.013965 0.036072 -0.025880 0.000000 0.000000 0.000000
# 3 -0.008537 -0.025880 0.132319 0.000000 0.000000 0.000000
# 4 0.000000 0.000000 0.000000 0.064488 0.000000 0.000000
# 5 0.000000 0.000000 0.000000 0.000000 -0.002179 0.000000
# 6 0.000000 0.000000 0.000000 0.000000 0.000000 -0.071260
#
#
# Mechanical properties :
#
#
# Convention : Reuss Voigt Hill
#
# Bulk Modulus (GPa) = 11.77198 69.17621 40.47410
# Shear Modulus (GPa) = 16.78759 -81.91352 -32.56296
#
# Velocity S-wave (km/s) = 3.06504 -6.77048 -4.26878
# Velocity P-wave (km/s) = 4.37191 4.73368 1.28337
#
# Compressibility (1/GPa) = 0.08494748
#
# Stress axis : x y z
#
# Youngs Moduli (GPa) = 75.08069 27.72204 7.55747
#
# Poissons Ratio (x) = 0.38713 0.06452
# Poissons Ratio (y) = 1.04847 0.19559
# Poissons Ratio (z) = 0.64096 0.71745
#
# Static dielectric constant tensor:
#      x y z
#    x 1.626480 0.000000 0.000000 
#    y 0.000000 1.597130 0.000000 
#    z 0.000000 0.000000 1.615850 
# 
# From -- ./inp_files/13802.got.cif
#   From: 2010.05.17/outbox.cif.g08.bks.cpg/sg47_7_cif.got.tgz:13802.got - 2010.06.03 20:15:42.
