data_PCOD9385516
_publ_section_title
;
Structure prediction by ZEFSAII (Michael W. Deem and Ramdas Pophale) SiO2 
 PCOD9385516
Probable space group: P M M M
;
_chemical_formula_sum "Si O2"
_cell_formula_units_Z 44
_cell_length_a 14.473325
_cell_length_b 11.515049
_cell_length_c 15.923947
_cell_angle_alpha 90.000000
_cell_angle_beta 90.000000
_cell_angle_gamma 90.000000
_cell_volume 2653.901673
_symmetry_space_group_name_H-M "P M M M"
_symmetry_group_IT_number 47
_symmetry_cell_setting 'orthorhombic'
loop_
_space_group_symop_operation_xyz
x,y,z
-x,-y,z
x,-y,-z
-x,y,-z
-x,-y,-z
x,y,-z
-x,y,z
x,-y,z
loop_
_atom_site_type_symbol
_atom_site_label
_atom_site_fract_x
_atom_site_fract_y
_atom_site_fract_z
Si Si1 0.894434 0.140871 0.500000
Si Si2 0.792126 0.140570 0.672405
Si Si3 0.398445 0.140837 0.403146
Si Si4 0.110559 0.500000 0.901070
Si Si5 0.798150 0.736037 0.844912
Si Si6 0.892918 0.138530 0.000000
Si Si7 0.606332 0.637835 0.101280
O O1 0.845352 0.174463 0.586963
O O2 0.000000 0.179524 0.500000
O O3 0.892147 0.000000 0.500000
O O4 0.685716 0.173511 0.655093
O O5 0.821508 0.204858 0.756490
O O6 0.799672 0.000000 0.681903
O O7 0.382390 0.176551 0.500000
O O8 0.500000 0.180973 0.376928
O O9 0.399370 0.000000 0.404537
O O10 0.152006 0.386875 0.857727
O O11 0.000000 0.500000 0.897604
O O12 0.138335 0.500000 0.000000
O O13 0.688575 0.711571 0.857375
O O14 0.838738 0.815416 0.919071
O O15 0.000000 0.181644 0.000000
O O16 0.895046 0.000000 0.000000
O O17 0.500000 0.669000 0.123870
O O18 0.618826 0.500000 0.119778
O O19 0.614684 0.649963 0.000000
#
# Coordination Sequence:
#
# PCOD9385516 Si02
#       7
#     4   8   8   4   8   4   8
#     4   9  18  34  53  72 102 143 185 224 260 315
#     4  10  20  33  52  81 112 143 177 214 267 327
#     4   8  13  25  48  75 104 138 175 215 257 307
#     4  11  22  38  59  80 102 137 187 238 276 310
#     4  12  21  35  58  83 111 141 179 229 273 323
#     4  11  24  39  54  77 112 149 181 220 274 328
#     4   9  17  32  55  81 106 138 183 228 269 317
#
# _framework density 16.579363000000001
#
# number of rings (size 3 to 8) (size 9 to 14) (size 15 to 20)
#    0.000    2.091    3.636    2.182    0.000    2.182 
#    0.000    1.818    0.000    2.727    0.000    1.273 
#    0.000    2.909    0.000    0.000    0.000    0.000 
#
# Total GULP energy -245254.352741 kJ/mol
# GULP energy per Si atom -5573.962562 kJ/mol
# Density = 1.654163 g / cm^3
# Si number density = 16.579363 Si / 1000 Ang^3
#
#
#
# Elastic Constant Matrix: (Units=GPa)
#
#
# Indices 1 2 3 4 5 6 
#
# 1 107.3390 36.7012 63.7649 0.0000 0.0000 0.0000
# 2 36.7012 55.7457 46.7484 0.0000 0.0000 0.0000
# 3 63.7649 46.7484 139.0649 0.0000 0.0000 0.0000
# 4 0.0000 0.0000 0.0000 -7.8709 0.0000 0.0000
# 5 0.0000 0.0000 0.0000 0.0000 5.9110 0.0000
# 6 0.0000 0.0000 0.0000 0.0000 0.0000 1122.4574
#
#
#
# Elastic Compliance Matrix: (Units=1/GPa)
#
#
# Indices 1 2 3 4 5 6 
#
# 1 0.013835 -0.005276 -0.004570 0.000000 0.000000 0.000000
# 2 -0.005276 0.026993 -0.006655 0.000000 0.000000 0.000000
# 3 -0.004570 -0.006655 0.011524 0.000000 0.000000 0.000000
# 4 0.000000 0.000000 0.000000 -0.127050 0.000000 0.000000
# 5 0.000000 0.000000 0.000000 0.000000 0.169177 0.000000
# 6 0.000000 0.000000 0.000000 0.000000 0.000000 0.000891
#
#
# Mechanical properties :
#
#
# Convention : Reuss Voigt Hill
#
# Bulk Modulus (GPa) = 51.68086 66.28652 58.98369
# Shear Modulus (GPa) = 37.08588 234.42850 135.75719
#
# Velocity S-wave (km/s) = 4.73469 11.90398 9.05875
# Velocity P-wave (km/s) = 7.81851 15.13300 12.04444
#
# Compressibility (1/GPa) = 0.01934952
#
# Stress axis : x y z
#
# Youngs Moduli (GPa) = 72.27935 37.04677 86.77910
#
# Poissons Ratio (x) = 0.19546 0.39660
# Poissons Ratio (y) = 0.38135 0.57749
# Poissons Ratio (z) = 0.33033 0.24654
#
# Static dielectric constant tensor:
#      x y z
#    x 1.594220 0.000000 0.000000 
#    y 0.000000 1.642600 0.000000 
#    z 0.000000 0.000000 1.547880 
# 
# From -- ./inp_files/17447.got.cif
#   From: 2010.05.17/outbox.cif.g08.bks.cpg/sg47_9_cif.got.tgz:17447.got - 2010.06.03 20:15:42.
