data_PCOD9385322
_publ_section_title
;
Structure prediction by ZEFSAII (Michael W. Deem and Ramdas Pophale) SiO2 
 PCOD9385322
Probable space group: P M M M
;
_chemical_formula_sum "Si O2"
_cell_formula_units_Z 44
_cell_length_a 30.160257
_cell_length_b 7.878193
_cell_length_c 9.493639
_cell_angle_alpha 90.000000
_cell_angle_beta 90.000000
_cell_angle_gamma 90.000000
_cell_volume 2255.767666
_symmetry_space_group_name_H-M "P M M M"
_symmetry_group_IT_number 47
_symmetry_cell_setting 'orthorhombic'
loop_
_space_group_symop_operation_xyz
x,y,z
-x,-y,z
x,-y,-z
-x,y,-z
-x,-y,-z
x,y,-z
-x,y,z
x,-y,z
loop_
_atom_site_type_symbol
_atom_site_label
_atom_site_fract_x
_atom_site_fract_y
_atom_site_fract_z
Si Si1 0.902958 0.692263 0.667947
Si Si2 0.633696 0.204788 0.659944
Si Si3 0.053098 0.000000 0.835031
Si Si4 0.804703 0.200183 0.660720
Si Si5 0.549861 0.207183 0.162533
Si Si6 0.280181 0.297111 0.839934
O O1 0.908257 0.725386 0.500000
O O2 0.918026 0.500000 0.696875
O O3 0.927750 0.834181 0.757412
O O4 0.850282 0.706218 0.697331
O O5 0.637311 0.267977 0.500000
O O6 0.589201 0.267102 0.737390
O O7 0.676818 0.247774 0.750440
O O8 0.630889 0.000000 0.654360
O O9 0.000000 0.000000 0.825257
O O10 0.065704 0.000000 0.000000
O O11 0.791999 0.247633 0.500000
O O12 0.764139 0.233952 0.763663
O O13 0.814950 0.000000 0.661677
O O14 0.500000 0.260378 0.203117
O O15 0.550133 0.000000 0.164684
O O16 0.557681 0.257554 0.000000
O O17 0.277975 0.500000 0.844355
O O18 0.283525 0.232118 0.000000
#
# Coordination Sequence:
#
# PCOD9385322 Si02
#       6
#     8   8   4   8   8   8
#     4  10  21  40  67  96 126 164 211 262 314 369
#     4  10  20  33  51  76 104 136 176 222 274 330
#     4  11  25  43  63  91 131 175 215 261 316 371
#     4  10  20  37  62  89 117 149 188 236 291 351
#     4   8  14  26  46  72 101 133 169 212 266 328
#     4  11  24  38  52  75 108 146 187 229 277 336
#
# _framework density 19.505555999999999
#
# number of rings (size 3 to 8) (size 9 to 14) (size 15 to 20)
#    0.000    2.091    0.909    3.000    0.000    8.364 
#    0.000    3.636    0.000    0.545    0.000    3.818 
#    0.000    0.000    0.000    0.000    0.000    0.000 
#
# Total GULP energy -245776.645614 kJ/mol
# GULP energy per Si atom -5585.832855 kJ/mol
# Density = 1.946116 g / cm^3
# Si number density = 19.505556 Si / 1000 Ang^3
#
#
#
# Elastic Constant Matrix: (Units=GPa)
#
#
# Indices 1 2 3 4 5 6 
#
# 1 106.5529 42.4271 88.6788 0.0000 0.0000 0.0000
# 2 42.4271 77.2983 49.7924 0.0000 0.0000 0.0000
# 3 88.6788 49.7924 135.4375 0.0000 0.0000 0.0000
# 4 0.0000 0.0000 0.0000 15.5048 0.0000 0.0000
# 5 0.0000 0.0000 0.0000 0.0000 98.2945 0.0000
# 6 0.0000 0.0000 0.0000 0.0000 0.0000 -32.0600
#
#
#
# Elastic Compliance Matrix: (Units=1/GPa)
#
#
# Indices 1 2 3 4 5 6 
#
# 1 0.021343 -0.003555 -0.012668 0.000000 0.000000 0.000000
# 2 -0.003555 0.017543 -0.004122 0.000000 0.000000 0.000000
# 3 -0.012668 -0.004122 0.017193 0.000000 0.000000 0.000000
# 4 0.000000 0.000000 0.000000 0.064496 0.000000 0.000000
# 5 0.000000 0.000000 0.000000 0.000000 0.010174 0.000000
# 6 0.000000 0.000000 0.000000 0.000000 0.000000 -0.031192
#
#
# Mechanical properties :
#
#
# Convention : Reuss Voigt Hill
#
# Bulk Modulus (GPa) = 64.97515 75.67617 70.32566
# Shear Modulus (GPa) = 34.39320 25.57388 29.98354
#
# Velocity S-wave (km/s) = 4.20366 3.62485 3.92494
# Velocity P-wave (km/s) = 7.54616 7.51005 7.52812
#
# Compressibility (1/GPa) = 0.01539050
#
# Stress axis : x y z
#
# Youngs Moduli (GPa) = 46.85337 57.00177 58.16221
#
# Poissons Ratio (x) = 0.20262 0.73679
# Poissons Ratio (y) = 0.16655 0.23976
# Poissons Ratio (z) = 0.59353 0.23497
#
# Static dielectric constant tensor:
#      x y z
#    x 1.649950 0.000000 0.000000 
#    y 0.000000 1.714120 0.000000 
#    z 0.000000 0.000000 1.670660 
# 
# From -- ./inp_files/13681.got.cif
#   From: 2010.05.17/outbox.cif.g08.bks.cpg/sg47_7_cif.got.tgz:13681.got - 2010.06.03 20:15:42.
