data_PCOD9385632
_publ_section_title
;
Structure prediction by ZEFSAII (Michael W. Deem and Ramdas Pophale) SiO2 
 PCOD9385632
Probable space group: P M M M
;
_chemical_formula_sum "Si O2"
_cell_formula_units_Z 56
_cell_length_a 15.347762
_cell_length_b 23.636471
_cell_length_c 8.021892
_cell_angle_alpha 90.000000
_cell_angle_beta 90.000000
_cell_angle_gamma 90.000000
_cell_volume 2910.077145
_symmetry_space_group_name_H-M "P M M M"
_symmetry_group_IT_number 47
_symmetry_cell_setting 'orthorhombic'
loop_
_space_group_symop_operation_xyz
x,y,z
-x,-y,z
x,-y,-z
-x,y,-z
-x,-y,-z
x,y,-z
-x,y,z
x,-y,z
loop_
_atom_site_type_symbol
_atom_site_label
_atom_site_fract_x
_atom_site_fract_y
_atom_site_fract_z
Si Si1 0.095208 0.815607 0.704034
Si Si2 0.400242 0.235775 0.801162
Si Si3 0.100150 0.624155 0.803374
Si Si4 0.894703 0.500000 0.308846
Si Si5 0.326016 0.117271 0.193503
Si Si6 0.150997 0.936619 0.304530
Si Si7 0.500000 0.066336 0.311014
Si Si8 0.228680 0.278365 0.304084
O O1 0.099866 0.816493 0.500000
O O2 0.103360 0.880553 0.763169
O O3 0.172586 0.775171 0.764858
O O4 0.000000 0.792719 0.749646
O O5 0.500000 0.243265 0.738756
O O6 0.353340 0.178664 0.735536
O O7 0.325995 0.282340 0.768908
O O8 0.407519 0.228217 0.000000
O O9 0.129479 0.559376 0.774087
O O10 0.167409 0.667672 0.723904
O O11 0.000000 0.630497 0.738865
O O12 0.098058 0.635020 0.000000
O O13 0.865509 0.500000 0.500000
O O14 0.000000 0.500000 0.305677
O O15 0.251430 0.082738 0.287621
O O16 0.415470 0.084203 0.211008
O O17 0.299420 0.122334 0.000000
O O18 0.128066 0.940068 0.500000
O O19 0.137284 0.000000 0.233774
O O20 0.500000 0.091011 0.500000
O O21 0.500000 0.000000 0.327933
O O22 0.239392 0.269540 0.500000
#
# Coordination Sequence:
#
# PCOD9385632 Si02
#       8
#     8   8   8   4   8   8   4   8
#     4   9  18  32  50  74 102 133 173 222 272 320
#     4  10  21  38  56  75 101 134 173 220 274 334
#     4  10  20  34  54  83 121 162 197 228 268 318
#     4   9  17  31  53  83 120 159 198 237 271 307
#     4  11  21  35  53  72  96 126 162 208 265 330
#     4  10  20  34  51  71  96 128 170 218 269 326
#     4  11  23  35  49  71  97 123 157 204 259 326
#     4  11  21  34  55  81 110 143 181 229 276 324
#
# _framework density 19.243476999999999
#
# number of rings (size 3 to 8) (size 9 to 14) (size 15 to 20)
#    0.000    1.857    2.143    2.571    0.000    6.000 
#    0.000    1.429    0.000    1.286    0.000    1.500 
#    0.000    4.000    0.000    0.000    0.000    0.000 
#
# Total GULP energy -312273.148007 kJ/mol
# GULP energy per Si atom -5576.306214 kJ/mol
# Density = 1.919968 g / cm^3
# Si number density = 19.243477 Si / 1000 Ang^3
#
#
#
# Elastic Constant Matrix: (Units=GPa)
#
#
# Indices 1 2 3 4 5 6 
#
# 1 102.4952 41.9641 -2.0520 0.0000 0.0000 0.0000
# 2 41.9641 88.0907 1.8250 0.0000 0.0000 0.0000
# 3 -2.0520 1.8250 28.1804 0.0000 0.0000 0.0000
# 4 0.0000 0.0000 0.0000 18.0231 0.0000 0.0000
# 5 0.0000 0.0000 0.0000 0.0000 19.6017 0.0000
# 6 0.0000 0.0000 0.0000 0.0000 0.0000 16.1362
#
#
#
# Elastic Compliance Matrix: (Units=1/GPa)
#
#
# Indices 1 2 3 4 5 6 
#
# 1 0.012165 -0.005821 0.001263 0.000000 0.000000 0.000000
# 2 -0.005821 0.014153 -0.001340 0.000000 0.000000 0.000000
# 3 0.001263 -0.001340 0.035664 0.000000 0.000000 0.000000
# 4 0.000000 0.000000 0.000000 0.055484 0.000000 0.000000
# 5 0.000000 0.000000 0.000000 0.000000 0.051016 0.000000
# 6 0.000000 0.000000 0.000000 0.000000 0.000000 0.061973
#
#
# Mechanical properties :
#
#
# Convention : Reuss Voigt Hill
#
# Bulk Modulus (GPa) = 19.92646 33.58228 26.75437
# Shear Modulus (GPa) = 19.30639 22.55414 20.93026
#
# Velocity S-wave (km/s) = 3.17088 3.42722 3.30154
# Velocity P-wave (km/s) = 4.87682 5.75763 5.33543
#
# Compressibility (1/GPa) = 0.05018452
#
# Stress axis : x y z
#
# Youngs Moduli (GPa) = 82.20132 70.65716 28.03918
#
# Poissons Ratio (x) = 0.41132 -0.03541
# Poissons Ratio (y) = 0.47852 0.03758
# Poissons Ratio (z) = -0.10380 0.09471
#
# Static dielectric constant tensor:
#      x y z
#    x 1.696570 0.000000 0.000000 
#    y 0.000000 1.695290 0.000000 
#    z 0.000000 0.000000 1.713880 
# 
# From -- ./inp_files/7440.got.cif
#   From: 2010.05.17/outbox.cif.g08.bks.cpg/sg47_4_cif.got.tgz:7440.got - 2010.06.03 20:15:42.
