data_PCOD9385984
_publ_section_title
;
Structure prediction by ZEFSAII (Michael W. Deem and Ramdas Pophale) SiO2 
 PCOD9385984
Probable space group: P M M M
;
_chemical_formula_sum "Si O2"
_cell_formula_units_Z 40
_cell_length_a 7.589571
_cell_length_b 26.760409
_cell_length_c 9.356366
_cell_angle_alpha 90.000000
_cell_angle_beta 90.000000
_cell_angle_gamma 90.000000
_cell_volume 1900.278160
_symmetry_space_group_name_H-M "P M M M"
_symmetry_group_IT_number 47
_symmetry_cell_setting 'orthorhombic'
loop_
_space_group_symop_operation_xyz
x,y,z
-x,-y,z
x,-y,-z
-x,y,-z
-x,-y,-z
x,y,-z
-x,y,z
x,-y,z
loop_
_atom_site_type_symbol
_atom_site_label
_atom_site_fract_x
_atom_site_fract_y
_atom_site_fract_z
Si Si1 0.289222 0.292580 0.661482
Si Si2 0.788417 0.097567 0.337251
Si Si3 0.288377 0.197574 0.837958
Si Si4 0.784178 0.000000 0.835002
Si Si5 0.787346 0.608463 0.836531
Si Si6 0.796110 0.500000 0.174140
O O1 0.219257 0.291162 0.500000
O O2 0.500000 0.286178 0.653083
O O3 0.220223 0.246942 0.757590
O O4 0.257170 0.345442 0.736592
O O5 0.721062 0.098599 0.500000
O O6 0.749139 0.148383 0.253711
O O7 0.000000 0.093070 0.344967
O O8 0.725203 0.049546 0.248512
O O9 0.500000 0.202149 0.846815
O O10 0.220494 0.193407 0.000000
O O11 0.000000 0.000000 0.835468
O O12 0.728065 0.000000 0.000000
O O13 0.719647 0.553991 0.785683
O O14 0.000000 0.604608 0.842134
O O15 0.726356 0.617434 0.000000
O O16 0.000000 0.500000 0.222508
O O17 0.796767 0.500000 0.000000
#
# Coordination Sequence:
#
# PCOD9385984 Si02
#       6
#     8   8   8   4   8   4
#     4  10  21  36  52  71  99 135 170 205 250 302
#     4  10  20  34  54  80 108 137 169 206 250 301
#     4  10  21  37  56  76  99 131 171 213 256 301
#     4   9  17  31  52  77 106 139 172 208 250 293
#     4   9  17  31  53  78 101 128 165 208 251 296
#     4   7  12  26  48  73 100 128 160 201 248 295
#
# _framework density 21.049551999999998
#
# number of rings (size 3 to 8) (size 9 to 14) (size 15 to 20)
#    0.000    2.600    0.000    3.300    0.000    6.000 
#    0.000    1.500    0.000    7.800    0.000    0.000 
#    0.000    0.000    0.000    0.000    0.000    0.000 
#
# Total GULP energy -223310.701984 kJ/mol
# GULP energy per Si atom -5582.767550 kJ/mol
# Density = 2.100164 g / cm^3
# Si number density = 21.049552 Si / 1000 Ang^3
#
#
#
# Elastic Constant Matrix: (Units=GPa)
#
#
# Indices 1 2 3 4 5 6 
#
# 1 46.1906 -0.8315 8.3562 0.0000 0.0000 0.0000
# 2 -0.8315 233.1811 135.2533 0.0000 0.0000 0.0000
# 3 8.3562 135.2533 203.8202 0.0000 0.0000 0.0000
# 4 0.0000 0.0000 0.0000 102.2057 0.0000 0.0000
# 5 0.0000 0.0000 0.0000 0.0000 16.4224 0.0000
# 6 0.0000 0.0000 0.0000 0.0000 0.0000 32.7562
#
#
#
# Elastic Compliance Matrix: (Units=1/GPa)
#
#
# Indices 1 2 3 4 5 6 
#
# 1 0.021947 0.000976 -0.001547 0.000000 0.000000 0.000000
# 2 0.000976 0.007016 -0.004695 0.000000 0.000000 0.000000
# 3 -0.001547 -0.004695 0.008086 0.000000 0.000000 0.000000
# 4 0.000000 0.000000 0.000000 0.009784 0.000000 0.000000
# 5 0.000000 0.000000 0.000000 0.000000 0.060893 0.000000
# 6 0.000000 0.000000 0.000000 0.000000 0.000000 0.030529
#
#
# Mechanical properties :
#
#
# Convention : Reuss Voigt Hill
#
# Bulk Modulus (GPa) = 37.71590 85.41646 61.56618
# Shear Modulus (GPa) = 31.72083 52.97112 42.34597
#
# Velocity S-wave (km/s) = 3.88617 5.02191 4.49009
# Velocity P-wave (km/s) = 6.17195 8.61934 7.49620
#
# Compressibility (1/GPa) = 0.02651402
#
# Stress axis : x y z
#
# Youngs Moduli (GPa) = 45.56457 142.54135 123.67715
#
# Poissons Ratio (x) = -0.13908 0.19136
# Poissons Ratio (y) = -0.04446 0.58072
# Poissons Ratio (z) = 0.07050 0.66929
#
# Static dielectric constant tensor:
#      x y z
#    x 1.807530 0.000000 0.000000 
#    y 0.000000 1.733750 0.000000 
#    z 0.000000 0.000000 1.730030 
# 
# From -- ./inp_files/1709.got.cif
#   From: 2010.05.17/outbox.cif.g08.bks.cpg/sg47_1_cif.got.tgz:1709.got - 2010.06.03 20:15:42.
