data_PCOD9385201
_publ_section_title
;
Structure prediction by ZEFSAII (Michael W. Deem and Ramdas Pophale) SiO2 
 PCOD9385201
Probable space group: P M M M
;
_chemical_formula_sum "Si O2"
_cell_formula_units_Z 44
_cell_length_a 9.438353
_cell_length_b 30.029285
_cell_length_c 7.665411
_cell_angle_alpha 90.000000
_cell_angle_beta 90.000000
_cell_angle_gamma 90.000000
_cell_volume 2172.584383
_symmetry_space_group_name_H-M "P M M M"
_symmetry_group_IT_number 47
_symmetry_cell_setting 'orthorhombic'
loop_
_space_group_symop_operation_xyz
x,y,z
-x,-y,z
x,-y,-z
-x,y,-z
-x,-y,-z
x,y,-z
-x,y,z
x,-y,z
loop_
_atom_site_type_symbol
_atom_site_label
_atom_site_fract_x
_atom_site_fract_y
_atom_site_fract_z
Si Si1 0.171584 0.547887 0.292535
Si Si2 0.659632 0.731940 0.207012
Si Si3 0.664381 0.097126 0.285741
Si Si4 0.840924 0.818483 0.292373
Si Si5 0.327574 0.000000 0.702997
Si Si6 0.162652 0.644565 0.710426
O O1 0.203312 0.547084 0.500000
O O2 0.220676 0.500000 0.219690
O O3 0.216928 0.596243 0.223955
O O4 0.000000 0.548502 0.277307
O O5 0.500000 0.732687 0.280150
O O6 0.751485 0.773775 0.267928
O O7 0.738871 0.685867 0.246286
O O8 0.650182 0.735818 0.000000
O O9 0.666072 0.096092 0.500000
O O10 0.500000 0.103565 0.235907
O O11 0.758414 0.138227 0.224115
O O12 0.714278 0.048169 0.224033
O O13 0.851955 0.825145 0.500000
O O14 0.000000 0.813994 0.221515
O O15 0.500000 0.000000 0.705641
O O16 0.283446 0.000000 0.500000
O O17 0.156250 0.641448 0.500000
O O18 0.000000 0.651745 0.771258
#
# Coordination Sequence:
#
# PCOD9385201 Si02
#       6
#     8   8   8   8   4   8
#     4   7  10  19  39  69 101 126 148 180 223 269
#     4  11  24  38  50  66  90 123 163 202 240 285
#     4   8  13  23  41  65  94 127 159 190 225 267
#     4  10  20  33  50  73  98 123 155 195 239 287
#     4   7  10  18  35  61  92 125 158 187 218 262
#     4   9  17  30  51  78 102 124 154 192 234 280
#
# _framework density 20.252376999999999
#
# number of rings (size 3 to 8) (size 9 to 14) (size 15 to 20)
#    0.000    3.182    0.000    4.364    0.000    5.091 
#    0.000    0.455    0.000    3.818    0.000    7.000 
#    0.000    5.091    0.000    0.000    0.000    0.000 
#
# Total GULP energy -245136.773396 kJ/mol
# GULP energy per Si atom -5571.290304 kJ/mol
# Density = 2.020628 g / cm^3
# Si number density = 20.252377 Si / 1000 Ang^3
#
#
#
# Elastic Constant Matrix: (Units=GPa)
#
#
# Indices 1 2 3 4 5 6 
#
# 1 112.2037 105.3257 4.4860 0.0000 0.0000 0.0000
# 2 105.3257 242.4946 0.6962 0.0000 0.0000 0.0000
# 3 4.4860 0.6962 35.8896 0.0000 0.0000 0.0000
# 4 0.0000 0.0000 0.0000 -49.3309 0.0000 0.0000
# 5 0.0000 0.0000 0.0000 0.0000 15.6467 0.0000
# 6 0.0000 0.0000 0.0000 0.0000 0.0000 35.9726
#
#
#
# Elastic Compliance Matrix: (Units=1/GPa)
#
#
# Indices 1 2 3 4 5 6 
#
# 1 0.015159 -0.006579 -0.001767 0.000000 0.000000 0.000000
# 2 -0.006579 0.006979 0.000687 0.000000 0.000000 0.000000
# 3 -0.001767 0.000687 0.028071 0.000000 0.000000 0.000000
# 4 0.000000 0.000000 0.000000 -0.020271 0.000000 0.000000
# 5 0.000000 0.000000 0.000000 0.000000 0.063911 0.000000
# 6 0.000000 0.000000 0.000000 0.000000 0.000000 0.027799
#
#
# Mechanical properties :
#
#
# Convention : Reuss Voigt Hill
#
# Bulk Modulus (GPa) = 28.66108 67.95596 48.30852
# Shear Modulus (GPa) = 33.64823 19.12968 26.38896
#
# Velocity S-wave (km/s) = 4.08051 3.07671 3.61363
# Velocity P-wave (km/s) = 6.03186 6.80066 6.42776
#
# Compressibility (1/GPa) = 0.03489052
#
# Stress axis : x y z
#
# Youngs Moduli (GPa) = 65.96861 143.27945 35.62419
#
# Poissons Ratio (x) = 0.94264 0.06295
# Poissons Ratio (y) = 0.43401 -0.02447
# Poissons Ratio (z) = 0.11658 -0.09843
#
# Static dielectric constant tensor:
#      x y z
#    x 1.700140 0.000000 0.000000 
#    y 0.000000 1.759240 0.000000 
#    z 0.000000 0.000000 1.752470 
# 
# From -- ./inp_files/2318.got.cif
#   From: 2010.05.17/outbox.cif.g08.bks.cpg/sg47_2_cif.got.tgz:2318.got - 2010.06.03 20:15:42.
