data_PCOD9385585
_publ_section_title
;
Structure prediction by ZEFSAII (Michael W. Deem and Ramdas Pophale) SiO2 
 PCOD9385585
Probable space group: P M M M
;
_chemical_formula_sum "Si O2"
_cell_formula_units_Z 64
_cell_length_a 24.632913
_cell_length_b 15.985730
_cell_length_c 7.957603
_cell_angle_alpha 90.000000
_cell_angle_beta 90.000000
_cell_angle_gamma 90.000000
_cell_volume 3133.505888
_symmetry_space_group_name_H-M "P M M M"
_symmetry_group_IT_number 47
_symmetry_cell_setting 'orthorhombic'
loop_
_space_group_symop_operation_xyz
x,y,z
-x,-y,z
x,-y,-z
-x,y,-z
-x,-y,-z
x,y,-z
-x,y,z
x,-y,z
loop_
_atom_site_type_symbol
_atom_site_label
_atom_site_fract_x
_atom_site_fract_y
_atom_site_fract_z
Si Si1 0.822272 0.090861 0.696979
Si Si2 0.365044 0.751859 0.798070
Si Si3 0.059977 0.332696 0.299132
Si Si4 0.172101 0.408278 0.797667
Si Si5 0.562235 0.404990 0.702942
Si Si6 0.939721 0.859660 0.197335
Si Si7 0.242468 0.253837 0.199977
Si Si8 0.562586 0.905817 0.794828
O O1 0.809957 0.092157 0.500000
O O2 0.887010 0.101437 0.718553
O O3 0.791185 0.169035 0.774972
O O4 0.806389 0.000000 0.767528
O O5 0.397035 0.666390 0.761830
O O6 0.303547 0.750852 0.731892
O O7 0.398958 0.831652 0.733776
O O8 0.362384 0.760880 0.000000
O O9 0.062303 0.321607 0.500000
O O10 0.109709 0.389275 0.244400
O O11 0.065310 0.240641 0.218818
O O12 0.000000 0.365651 0.255259
O O13 0.188091 0.500000 0.734939
O O14 0.208532 0.332301 0.730385
O O15 0.176680 0.408556 0.000000
O O16 0.562292 0.404844 0.500000
O O17 0.500000 0.387358 0.757771
O O18 0.576085 0.500000 0.757616
O O19 0.000000 0.883093 0.261857
O O20 0.937775 0.880096 0.000000
O O21 0.246990 0.266948 0.000000
O O22 0.500000 0.891604 0.744205
O O23 0.578570 0.000000 0.743078
O O24 0.563184 0.904967 0.000000
#
# Coordination Sequence:
#
# PCOD9385585 Si02
#       8
#     8   8   8   8   8   8   8   8
#     4  11  24  40  59  83 112 148 189 234 282 331
#     4  10  20  33  55  85 111 140 186 238 281 323
#     4  10  20  34  55  83 112 140 174 222 278 334
#     4  10  21  37  56  77 105 144 187 229 278 336
#     4   9  19  36  56  80 114 154 191 227 274 334
#     4  10  20  35  58  86 114 144 179 223 280 343
#     4  10  22  39  57  80 111 148 189 234 282 331
#     4   8  14  26  46  75 111 144 172 211 268 327
#
# _framework density 20.424406000000001
#
# number of rings (size 3 to 8) (size 9 to 14) (size 15 to 20)
#    0.000    2.250    1.250    2.250    0.000    5.750 
#    0.000    5.625    0.000    0.375    0.000    1.750 
#    0.000    0.000    0.000    0.000    0.000    0.000 
#
# Total GULP energy -357304.088243 kJ/mol
# GULP energy per Si atom -5582.876379 kJ/mol
# Density = 2.037792 g / cm^3
# Si number density = 20.424406 Si / 1000 Ang^3
#
#
#
# Elastic Constant Matrix: (Units=GPa)
#
#
# Indices 1 2 3 4 5 6 
#
# 1 144.0202 101.4989 3.0095 0.0000 0.0000 0.0000
# 2 101.4989 157.4160 0.6063 0.0000 0.0000 0.0000
# 3 3.0095 0.6063 16.7184 0.0000 0.0000 0.0000
# 4 0.0000 0.0000 0.0000 13.2994 0.0000 0.0000
# 5 0.0000 0.0000 0.0000 0.0000 11.3674 0.0000
# 6 0.0000 0.0000 0.0000 0.0000 0.0000-4154.2961
#
#
#
# Elastic Compliance Matrix: (Units=1/GPa)
#
#
# Indices 1 2 3 4 5 6 
#
# 1 0.012793 -0.008241 -0.002004 0.000000 0.000000 0.000000
# 2 -0.008241 0.011662 0.001061 0.000000 0.000000 0.000000
# 3 -0.002004 0.001061 0.060137 0.000000 0.000000 0.000000
# 4 0.000000 0.000000 0.000000 0.075192 0.000000 0.000000
# 5 0.000000 0.000000 0.000000 0.000000 0.087971 0.000000
# 6 0.000000 0.000000 0.000000 0.000000 0.000000 -0.000241
#
#
# Mechanical properties :
#
#
# Convention : Reuss Voigt Hill
#
# Bulk Modulus (GPa) = 15.10055 58.70934 36.90495
# Shear Modulus (GPa) = 17.36365 -811.72322 -397.17979
#
# Velocity S-wave (km/s) = 2.91888 -19.95723 -13.96014
# Velocity P-wave (km/s) = 4.33235 22.41088 15.54796
#
# Compressibility (1/GPa) = 0.06622275
#
# Stress axis : x y z
#
# Youngs Moduli (GPa) = 78.16540 85.74638 16.62883
#
# Poissons Ratio (x) = 0.70665 0.03332
# Poissons Ratio (y) = 0.64418 -0.01764
# Poissons Ratio (z) = 0.15665 -0.09094
#
# Static dielectric constant tensor:
#      x y z
#    x 1.711860 0.000000 0.000000 
#    y 0.000000 1.726610 0.000000 
#    z 0.000000 0.000000 1.733970 
# 
# From -- ./inp_files/7871.got.cif
#   From: 2010.05.17/outbox.cif.g08.bks.cpg/sg47_4_cif.got.tgz:7871.got - 2010.06.03 20:15:42.
