data_PCOD9385263
_publ_section_title
;
Structure prediction by ZEFSAII (Michael W. Deem and Ramdas Pophale) SiO2 
 PCOD9385263
Probable space group: P M M M
;
_chemical_formula_sum "Si O2"
_cell_formula_units_Z 52
_cell_length_a 14.524714
_cell_length_b 8.932319
_cell_length_c 23.808837
_cell_angle_alpha 90.000000
_cell_angle_beta 90.000000
_cell_angle_gamma 90.000000
_cell_volume 3088.943723
_symmetry_space_group_name_H-M "P M M M"
_symmetry_group_IT_number 47
_symmetry_cell_setting 'orthorhombic'
loop_
_space_group_symop_operation_xyz
x,y,z
-x,-y,z
x,-y,-z
-x,y,-z
-x,-y,-z
x,y,-z
-x,y,z
x,-y,z
loop_
_atom_site_type_symbol
_atom_site_label
_atom_site_fract_x
_atom_site_fract_y
_atom_site_fract_z
Si Si1 0.105036 0.678292 0.100680
Si Si2 0.103798 0.822749 0.777355
Si Si3 0.710921 0.178244 0.937128
Si Si4 0.611749 0.827637 0.500000
Si Si5 0.391343 0.321113 0.382880
Si Si6 0.609755 0.676925 0.168338
Si Si7 0.293535 0.821391 0.276295
O O1 0.117588 0.500000 0.095480
O O2 0.114836 0.728079 0.165744
O O3 0.184345 0.764311 0.067925
O O4 0.000000 0.714817 0.083540
O O5 0.185771 0.788130 0.734734
O O6 0.000000 0.798293 0.755864
O O7 0.112068 0.000000 0.792124
O O8 0.653639 0.258560 0.888462
O O9 0.708346 0.000000 0.928286
O O10 0.676294 0.211095 0.000000
O O11 0.500000 0.825266 0.500000
O O12 0.639507 0.745767 0.442680
O O13 0.641637 0.000000 0.500000
O O14 0.500000 0.283394 0.374977
O O15 0.384017 0.500000 0.383907
O O16 0.334192 0.254222 0.331583
O O17 0.500000 0.697437 0.168127
O O18 0.629730 0.500000 0.172541
O O19 0.653370 0.760080 0.221667
O O20 0.305030 0.000000 0.279955
#
# Coordination Sequence:
#
# PCOD9385263 Si02
#       7
#     8   8   8   4   8   8   8
#     4  10  20  34  55  81 106 133 166 208 260 317
#     4   9  18  33  53  77 106 138 171 210 260 316
#     4  11  24  40  57  77 101 133 173 215 262 318
#     4   9  17  31  51  75 106 143 184 227 265 306
#     4  10  20  33  50  75 110 150 186 220 261 308
#     4  11  24  40  57  77 103 135 171 216 269 319
#     4  11  21  33  54  82 109 140 177 217 261 310
#
# _framework density 16.834232
#
# number of rings (size 3 to 8) (size 9 to 14) (size 15 to 20)
#    0.000    1.769    1.538    3.000    0.000    8.308 
#    0.000    3.077    0.000    0.000    0.000    0.538 
#    0.000    4.308    0.000    0.000    0.000    0.000 
#
# Total GULP energy -290386.779026 kJ/mol
# GULP energy per Si atom -5584.361135 kJ/mol
# Density = 1.679592 g / cm^3
# Si number density = 16.834232 Si / 1000 Ang^3
#
#
#
# Elastic Constant Matrix: (Units=GPa)
#
#
# Indices 1 2 3 4 5 6 
#
# 1 69.7169 39.2639 52.6253 0.0000 0.0000 0.0000
# 2 39.2639 57.4156 46.3691 0.0000 0.0000 0.0000
# 3 52.6253 46.3691 124.8535 0.0000 0.0000 0.0000
# 4 0.0000 0.0000 0.0000 48.8886 0.0000 0.0000
# 5 0.0000 0.0000 0.0000 0.0000 25.7256 0.0000
# 6 0.0000 0.0000 0.0000 0.0000 0.0000 25.9196
#
#
#
# Elastic Compliance Matrix: (Units=1/GPa)
#
#
# Indices 1 2 3 4 5 6 
#
# 1 0.026412 -0.012958 -0.006320 0.000000 0.000000 0.000000
# 2 -0.012958 0.031236 -0.006139 0.000000 0.000000 0.000000
# 3 -0.006320 -0.006139 0.012953 0.000000 0.000000 0.000000
# 4 0.000000 0.000000 0.000000 0.020455 0.000000 0.000000
# 5 0.000000 0.000000 0.000000 0.000000 0.038872 0.000000
# 6 0.000000 0.000000 0.000000 0.000000 0.000000 0.038581
#
#
# Mechanical properties :
#
#
# Convention : Reuss Voigt Hill
#
# Bulk Modulus (GPa) = 50.58849 58.72252 54.65551
# Shear Modulus (GPa) = 22.13054 27.68861 24.90957
#
# Velocity S-wave (km/s) = 3.62970 4.05999 3.85086
# Velocity P-wave (km/s) = 6.90525 7.54563 7.23253
#
# Compressibility (1/GPa) = 0.01976734
#
# Stress axis : x y z
#
# Youngs Moduli (GPa) = 37.86124 32.01435 77.20025
#
# Poissons Ratio (x) = 0.41484 0.48793
# Poissons Ratio (y) = 0.49060 0.47393
# Poissons Ratio (z) = 0.23929 0.19654
#
# Static dielectric constant tensor:
#      x y z
#    x 1.572620 0.000000 0.000000 
#    y 0.000000 1.561700 0.000000 
#    z 0.000000 0.000000 1.542540 
# 
# From -- ./inp_files/6929.got.cif
#   From: 2010.05.17/outbox.cif.g08.bks.cpg/sg47_4_cif.got.tgz:6929.got - 2010.06.03 20:15:42.
