data_PCOD9385935
_publ_section_title
;
Structure prediction by ZEFSAII (Michael W. Deem and Ramdas Pophale) SiO2 
 PCOD9385935
Probable space group: P M M M
;
_chemical_formula_sum "Si O2"
_cell_formula_units_Z 44
_cell_length_a 29.460869
_cell_length_b 7.517621
_cell_length_c 9.466020
_cell_angle_alpha 90.000000
_cell_angle_beta 90.000000
_cell_angle_gamma 90.000000
_cell_volume 2096.492908
_symmetry_space_group_name_H-M "P M M M"
_symmetry_group_IT_number 47
_symmetry_cell_setting 'orthorhombic'
loop_
_space_group_symop_operation_xyz
x,y,z
-x,-y,z
x,-y,-z
-x,y,-z
-x,-y,-z
x,y,-z
-x,y,z
x,-y,z
loop_
_atom_site_type_symbol
_atom_site_label
_atom_site_fract_x
_atom_site_fract_y
_atom_site_fract_z
Si Si1 0.322309 0.213597 0.839682
Si Si2 0.762892 0.212621 0.338361
Si Si3 0.136055 0.713638 0.339238
Si Si4 0.587610 0.713094 0.338871
Si Si5 0.500000 0.282149 0.836563
Si Si6 0.949959 0.282960 0.163790
O O1 0.277197 0.281604 0.760791
O O2 0.366134 0.250669 0.744505
O O3 0.318228 0.000000 0.848623
O O4 0.327206 0.281304 0.000000
O O5 0.759888 0.282232 0.500000
O O6 0.813655 0.246570 0.282851
O O7 0.757498 0.000000 0.346835
O O8 0.134392 0.781436 0.500000
O O9 0.132283 0.500000 0.344141
O O10 0.093351 0.780576 0.250691
O O11 0.588481 0.781527 0.500000
O O12 0.582826 0.500000 0.347765
O O13 0.544704 0.777354 0.247864
O O14 0.500000 0.500000 0.837849
O O15 0.500000 0.225452 0.000000
O O16 0.949495 0.500000 0.167064
O O17 0.000000 0.228057 0.216532
O O18 0.946197 0.231110 0.000000
#
# Coordination Sequence:
#
# PCOD9385935 Si02
#       6
#     8   8   8   8   4   8
#     4  10  21  36  53  74 100 130 166 207 249 293
#     4   9  18  33  50  66  90 126 160 190 234 291
#     4   9  17  28  44  68  93 115 147 193 235 271
#     4  10  20  34  54  79 105 134 168 204 243 290
#     4   9  17  31  52  77 106 137 166 200 244 291
#     4   8  14  25  41  62  89 119 148 180 224 277
#
# _framework density 20.987431999999998
#
# number of rings (size 3 to 8) (size 9 to 14) (size 15 to 20)
#    0.000    2.818    0.000    1.909    0.000    5.091 
#    0.000    4.091    0.000    3.273    0.000    3.818 
#    0.000    0.000    0.000    0.000    0.000    0.000 
#
# Total GULP energy -245589.328801 kJ/mol
# GULP energy per Si atom -5581.575655 kJ/mol
# Density = 2.093966 g / cm^3
# Si number density = 20.987432 Si / 1000 Ang^3
#
#
#
# Elastic Constant Matrix: (Units=GPa)
#
#
# Indices 1 2 3 4 5 6 
#
# 1 248.5365 -1.6840 135.3954 0.0000 0.0000 0.0000
# 2 -1.6840 54.6050 6.0193 0.0000 0.0000 0.0000
# 3 135.3954 6.0193 159.8449 0.0000 0.0000 0.0000
# 4 0.0000 0.0000 0.0000 8.6512 0.0000 0.0000
# 5 0.0000 0.0000 0.0000 0.0000 47.0885 0.0000
# 6 0.0000 0.0000 0.0000 0.0000 0.0000 30.6932
#
#
#
# Elastic Compliance Matrix: (Units=1/GPa)
#
#
# Indices 1 2 3 4 5 6 
#
# 1 0.007519 0.000938 -0.006404 0.000000 0.000000 0.000000
# 2 0.000938 0.018507 -0.001491 0.000000 0.000000 0.000000
# 3 -0.006404 -0.001491 0.011737 0.000000 0.000000 0.000000
# 4 0.000000 0.000000 0.000000 0.115591 0.000000 0.000000
# 5 0.000000 0.000000 0.000000 0.000000 0.021237 0.000000
# 6 0.000000 0.000000 0.000000 0.000000 0.000000 0.032581
#
#
# Mechanical properties :
#
#
# Convention : Reuss Voigt Hill
#
# Bulk Modulus (GPa) = 41.93378 82.49422 62.21400
# Shear Modulus (GPa) = 21.83091 38.83696 30.33394
#
# Velocity S-wave (km/s) = 3.22870 4.30640 3.80588
# Velocity P-wave (km/s) = 5.82435 8.00741 7.00149
#
# Compressibility (1/GPa) = 0.02384712
#
# Stress axis : x y z
#
# Youngs Moduli (GPa) = 133.00485 54.03461 85.20404
#
# Poissons Ratio (x) = -0.05067 0.54563
# Poissons Ratio (y) = -0.12473 0.12706
# Poissons Ratio (z) = 0.85174 0.08058
#
# Static dielectric constant tensor:
#      x y z
#    x 1.726710 0.000000 0.000000 
#    y 0.000000 1.802750 0.000000 
#    z 0.000000 0.000000 1.737840 
# 
# From -- ./inp_files/2293.got.cif
#   From: 2010.05.17/outbox.cif.g08.bks.cpg/sg47_2_cif.got.tgz:2293.got - 2010.06.03 20:15:42.
