data_PCOD9385380
_publ_section_title
;
Structure prediction by ZEFSAII (Michael W. Deem and Ramdas Pophale) SiO2 
 PCOD9385380
Probable space group: P M M M
;
_chemical_formula_sum "Si O2"
_cell_formula_units_Z 48
_cell_length_a 8.159459
_cell_length_b 31.946829
_cell_length_c 9.583651
_cell_angle_alpha 90.000000
_cell_angle_beta 90.000000
_cell_angle_gamma 90.000000
_cell_volume 2498.159203
_symmetry_space_group_name_H-M "P M M M"
_symmetry_group_IT_number 47
_symmetry_cell_setting 'orthorhombic'
loop_
_space_group_symop_operation_xyz
x,y,z
-x,-y,z
x,-y,-z
-x,y,-z
-x,-y,-z
x,y,-z
-x,y,z
x,-y,z
loop_
_atom_site_type_symbol
_atom_site_label
_atom_site_fract_x
_atom_site_fract_y
_atom_site_fract_z
Si Si1 0.799303 0.500000 0.161114
Si Si2 0.302055 0.657743 0.839969
Si Si3 0.697913 0.752715 0.159607
Si Si4 0.310365 0.000000 0.830049
Si Si5 0.698071 0.090886 0.840045
Si Si6 0.802880 0.420285 0.659157
Si Si7 0.804656 0.169353 0.342279
O O1 0.744724 0.541174 0.245080
O O2 0.000000 0.500000 0.159797
O O3 0.745758 0.500000 0.000000
O O4 0.500000 0.657239 0.838860
O O5 0.249389 0.705263 0.805438
O O6 0.240481 0.623080 0.733763
O O7 0.249558 0.648596 0.000000
O O8 0.500000 0.753065 0.160365
O O9 0.757441 0.788241 0.262885
O O10 0.750450 0.761635 0.000000
O O11 0.238437 0.045170 0.790642
O O12 0.500000 0.000000 0.782417
O O13 0.312439 0.000000 0.000000
O O14 0.500000 0.088005 0.844245
O O15 0.744097 0.129253 0.743230
O O16 0.753510 0.098080 0.000000
O O17 0.741099 0.422572 0.500000
O O18 0.000000 0.423515 0.653330
O O19 0.738833 0.169259 0.500000
O O20 0.000000 0.167158 0.347701
#
# Coordination Sequence:
#
# PCOD9385380 Si02
#       7
#     4   8   8   4   8   8   8
#     4   9  17  31  52  75 100 135 178 218 254 295
#     4   9  19  36  56  78 104 132 165 208 256 305
#     4   9  19  37  59  79  98 126 168 214 257 302
#     4   7  12  26  50  79 104 124 156 207 256 295
#     4   9  17  32  56  81 102 128 166 210 254 301
#     4  10  20  33  51  77 108 139 171 209 253 301
#     4  11  24  37  48  70 106 141 171 206 250 300
#
# _framework density 19.214147000000001
#
# number of rings (size 3 to 8) (size 9 to 14) (size 15 to 20)
#    0.000    2.667    0.000    3.750    0.000    7.667 
#    0.000    6.250    0.000    6.500    0.000    0.000 
#    0.000    0.000    0.000    0.000    0.000    0.000 
#
# Total GULP energy -267747.760028 kJ/mol
# GULP energy per Si atom -5578.078334 kJ/mol
# Density = 1.917042 g / cm^3
# Si number density = 19.214147 Si / 1000 Ang^3
#
#
#
# Elastic Constant Matrix: (Units=GPa)
#
#
# Indices 1 2 3 4 5 6 
#
# 1 9.7904 13.3783 15.3577 0.0000 0.0000 0.0000
# 2 13.3783 186.5449 131.9205 0.0000 0.0000 0.0000
# 3 15.3577 131.9205 161.2170 0.0000 0.0000 0.0000
# 4 0.0000 0.0000 0.0000 -13.2534 0.0000 0.0000
# 5 0.0000 0.0000 0.0000 0.0000 22.8677 0.0000
# 6 0.0000 0.0000 0.0000 0.0000 0.0000 28.8007
#
#
#
# Elastic Compliance Matrix: (Units=1/GPa)
#
#
# Indices 1 2 3 4 5 6 
#
# 1 0.120206 -0.001241 -0.010436 0.000000 0.000000 0.000000
# 2 -0.001241 0.012736 -0.010303 0.000000 0.000000 0.000000
# 3 -0.010436 -0.010303 0.015628 0.000000 0.000000 0.000000
# 4 0.000000 0.000000 0.000000 -0.075452 0.000000 0.000000
# 5 0.000000 0.000000 0.000000 0.000000 0.043730 0.000000
# 6 0.000000 0.000000 0.000000 0.000000 0.000000 0.034721
#
#
# Mechanical properties :
#
#
# Convention : Reuss Voigt Hill
#
# Bulk Modulus (GPa) = 9.55929 75.42950 42.49439
# Shear Modulus (GPa) = 21.70153 20.80939 21.25546
#
# Velocity S-wave (km/s) = 3.36438 3.29450 3.32963
# Velocity P-wave (km/s) = 4.48085 7.33581 6.07833
#
# Compressibility (1/GPa) = 0.10461031
#
# Stress axis : x y z
#
# Youngs Moduli (GPa) = 8.31905 78.51807 63.98807
#
# Poissons Ratio (x) = 0.09744 0.66775
# Poissons Ratio (y) = 0.01032 0.65929
# Poissons Ratio (z) = 0.08681 0.80900
#
# Static dielectric constant tensor:
#      x y z
#    x 1.688360 0.000000 0.000000 
#    y 0.000000 1.667850 0.000000 
#    z 0.000000 0.000000 1.654250 
# 
# From -- ./inp_files/2582.got.cif
#   From: 2010.05.17/outbox.cif.g08.bks.cpg/sg47_2_cif.got.tgz:2582.got - 2010.06.03 20:15:42.
