data_PCOD9385109
_publ_section_title
;
Structure prediction by ZEFSAII (Michael W. Deem and Ramdas Pophale) SiO2 
 PCOD9385109
Probable space group: P M M M
;
_chemical_formula_sum "Si O2"
_cell_formula_units_Z 64
_cell_length_a 32.402489
_cell_length_b 14.777213
_cell_length_c 8.419398
_cell_angle_alpha 90.000000
_cell_angle_beta 90.000000
_cell_angle_gamma 90.000000
_cell_volume 4031.363367
_symmetry_space_group_name_H-M "P M M M"
_symmetry_group_IT_number 47
_symmetry_cell_setting 'orthorhombic'
loop_
_space_group_symop_operation_xyz
x,y,z
-x,-y,z
x,-y,-z
-x,y,-z
-x,-y,-z
x,y,-z
-x,y,z
x,-y,z
loop_
_atom_site_type_symbol
_atom_site_label
_atom_site_fract_x
_atom_site_fract_y
_atom_site_fract_z
Si Si1 0.455615 0.109539 0.188486
Si Si2 0.874059 0.213583 0.690176
Si Si3 0.634424 0.895111 0.192183
Si Si4 0.713701 0.789210 0.309897
Si Si5 0.842381 0.398165 0.190208
Si Si6 0.953661 0.895467 0.306459
Si Si7 0.251359 0.398904 0.307930
Si Si8 0.794230 0.895163 0.190474
O O1 0.500000 0.140484 0.256197
O O2 0.410746 0.138028 0.251157
O O3 0.455117 0.000000 0.199644
O O4 0.456233 0.130746 0.000000
O O5 0.872803 0.207851 0.500000
O O6 0.869360 0.317460 0.740581
O O7 0.916499 0.167914 0.747887
O O8 0.834800 0.158547 0.755390
O O9 0.672230 0.834182 0.245718
O O10 0.640595 0.000000 0.242870
O O11 0.633038 0.895956 0.000000
O O12 0.712161 0.789497 0.500000
O O13 0.721144 0.685709 0.255052
O O14 0.753429 0.846996 0.256741
O O15 0.854704 0.500000 0.239452
O O16 0.795221 0.384677 0.247028
O O17 0.843073 0.393470 0.000000
O O18 0.953677 0.893808 0.500000
O O19 0.000000 0.869631 0.255016
O O20 0.946299 0.000000 0.259889
O O21 0.250038 0.397756 0.500000
O O22 0.264626 0.500000 0.257531
O O23 0.796193 0.000000 0.242354
O O24 0.792089 0.893080 0.000000
#
# Coordination Sequence:
#
# PCOD9385109 Si02
#       8
#     8   8   8   8   8   8   8   8
#     4   7  10  19  37  59  80 106 147 193 227 259
#     4  11  20  31  51  76  97 120 152 191 233 274
#     4   9  17  28  42  61  88 123 156 186 224 269
#     4  11  21  31  45  65  89 120 153 188 228 271
#     4  10  20  33  50  71  94 121 153 189 230 276
#     4   8  15  29  49  73  99 124 151 186 227 270
#     4   9  18  33  50  66  85 112 150 194 236 274
#     4  11  23  35  46  63  92 128 159 188 222 263
#
# _framework density 15.875522
#
# number of rings (size 3 to 8) (size 9 to 14) (size 15 to 20)
#    0.000    2.500    1.250    3.750    0.000    4.500 
#    0.000    0.000    0.000    2.250    0.000    8.750 
#    0.000    0.500    0.000    6.250    0.000    0.250 
#
# Total GULP energy -356657.452624 kJ/mol
# GULP energy per Si atom -5572.772697 kJ/mol
# Density = 1.583939 g / cm^3
# Si number density = 15.875522 Si / 1000 Ang^3
#
#
#
# Elastic Constant Matrix: (Units=GPa)
#
#
# Indices 1 2 3 4 5 6 
#
# 1 153.7618 80.5263 15.4257 0.0000 0.0000 0.0000
# 2 80.5263 109.1452 16.7040 0.0000 0.0000 0.0000
# 3 15.4257 16.7040 13.0581 0.0000 0.0000 0.0000
# 4 0.0000 0.0000 0.0000 19.4522 0.0000 0.0000
# 5 0.0000 0.0000 0.0000 0.0000 15.8686 0.0000
# 6 0.0000 0.0000 0.0000 0.0000 0.0000 6.8704
#
#
#
# Elastic Compliance Matrix: (Units=1/GPa)
#
#
# Indices 1 2 3 4 5 6 
#
# 1 0.010703 -0.007413 -0.003161 0.000000 0.000000 0.000000
# 2 -0.007413 0.016526 -0.012384 0.000000 0.000000 0.000000
# 3 -0.003161 -0.012384 0.096156 0.000000 0.000000 0.000000
# 4 0.000000 0.000000 0.000000 0.051408 0.000000 0.000000
# 5 0.000000 0.000000 0.000000 0.000000 0.063018 0.000000
# 6 0.000000 0.000000 0.000000 0.000000 0.000000 0.145552
#
#
# Mechanical properties :
#
#
# Convention : Reuss Voigt Hill
#
# Bulk Modulus (GPa) = 12.90816 55.69745 34.30280
# Shear Modulus (GPa) = 10.98655 19.32551 15.15603
#
# Velocity S-wave (km/s) = 2.63353 3.49279 3.09314
# Velocity P-wave (km/s) = 4.17083 7.17120 5.86608
#
# Compressibility (1/GPa) = 0.07747038
#
# Stress axis : x y z
#
# Youngs Moduli (GPa) = 93.43421 60.50949 10.39972
#
# Poissons Ratio (x) = 0.44853 0.03287
# Poissons Ratio (y) = 0.69259 0.12879
# Poissons Ratio (z) = 0.29535 0.74935
#
# Static dielectric constant tensor:
#      x y z
#    x 1.539050 0.000000 0.000000 
#    y 0.000000 1.533850 0.000000 
#    z 0.000000 0.000000 1.553290 
# 
# From -- ./inp_files/8310.got.cif
#   From: 2010.05.17/outbox.cif.g08.bks.cpg/sg47_5_cif.got.tgz:8310.got - 2010.06.03 20:15:42.
