data_PCOD9385638
_publ_section_title
;
Structure prediction by ZEFSAII (Michael W. Deem and Ramdas Pophale) SiO2 
 PCOD9385638
Probable space group: P M M M
;
_chemical_formula_sum "Si O2"
_cell_formula_units_Z 44
_cell_length_a 14.462180
_cell_length_b 8.570792
_cell_length_c 16.079077
_cell_angle_alpha 90.000000
_cell_angle_beta 90.000000
_cell_angle_gamma 90.000000
_cell_volume 1993.039165
_symmetry_space_group_name_H-M "P M M M"
_symmetry_group_IT_number 47
_symmetry_cell_setting 'orthorhombic'
loop_
_space_group_symop_operation_xyz
x,y,z
-x,-y,z
x,-y,-z
-x,y,-z
-x,-y,-z
x,y,-z
-x,y,z
x,-y,z
loop_
_atom_site_type_symbol
_atom_site_label
_atom_site_fract_x
_atom_site_fract_y
_atom_site_fract_z
Si Si1 0.337192 0.185023 0.500000
Si Si2 0.896944 0.185512 0.317667
Si Si3 0.198063 0.686441 0.162217
Si Si4 0.000000 0.320634 0.098838
Si Si5 0.132606 0.313819 0.500000
Si Si6 0.391920 0.327286 0.674369
Si Si7 0.393038 0.182235 0.850125
O O1 0.234215 0.246010 0.500000
O O2 0.375264 0.253582 0.585234
O O3 0.345316 0.000000 0.500000
O O4 0.820266 0.264457 0.259068
O O5 0.902006 0.250939 0.411228
O O6 0.000000 0.212263 0.281290
O O7 0.879885 0.000000 0.321227
O O8 0.200776 0.500000 0.156042
O O9 0.101286 0.746838 0.122343
O O10 0.294427 0.745332 0.120771
O O11 0.000000 0.500000 0.132743
O O12 0.000000 0.328331 0.000000
O O13 0.125811 0.500000 0.500000
O O14 0.500000 0.352586 0.677913
O O15 0.346910 0.500000 0.683976
O O16 0.378174 0.212787 0.751756
O O17 0.500000 0.240229 0.870650
O O18 0.393288 0.000000 0.870049
#
# Coordination Sequence:
#
# PCOD9385638 Si02
#       7
#     4   8   8   4   4   8   8
#     4  12  23  34  47  65  95 137 189 244 306 369
#     4  11  23  39  58  81 115 156 200 250 307 367
#     4  11  21  37  64  94 125 160 204 252 302 361
#     4   9  20  40  67 100 133 162 195 243 302 359
#     4  12  25  38  53  73 105 149 202 257 305 356
#     4  10  20  34  51  72 100 137 188 248 304 356
#     4  10  21  37  57  83 118 158 199 243 295 355
#
# _framework density 22.076837000000001
#
# number of rings (size 3 to 8) (size 9 to 14) (size 15 to 20)
#    0.000    1.364    0.909    5.455    0.000    5.455 
#    0.000    0.000    0.000    4.909    0.000    3.818 
#    0.000    0.000    0.000    0.000    0.000    0.000 
#
# Total GULP energy -245110.007722 kJ/mol
# GULP energy per Si atom -5570.681994 kJ/mol
# Density = 2.202659 g / cm^3
# Si number density = 22.076837 Si / 1000 Ang^3
#
#
#
# Elastic Constant Matrix: (Units=GPa)
#
#
# Indices 1 2 3 4 5 6 
#
# 1 174.6198 33.8114 21.9499 0.0000 0.0000 0.0000
# 2 33.8114 72.2760 -7.4183 0.0000 0.0000 0.0000
# 3 21.9499 -7.4183 21.8423 0.0000 0.0000 0.0000
# 4 0.0000 0.0000 0.0000 27.4581 0.0000 0.0000
# 5 0.0000 0.0000 0.0000 0.0000 6.4076 0.0000
# 6 0.0000 0.0000 0.0000 0.0000 0.0000 22.4975
#
#
#
# Elastic Compliance Matrix: (Units=1/GPa)
#
#
# Indices 1 2 3 4 5 6 
#
# 1 0.007803 -0.004616 -0.009410 0.000000 0.000000 0.000000
# 2 -0.004616 0.017066 0.010435 0.000000 0.000000 0.000000
# 3 -0.009410 0.010435 0.058783 0.000000 0.000000 0.000000
# 4 0.000000 0.000000 0.000000 0.036419 0.000000 0.000000
# 5 0.000000 0.000000 0.000000 0.000000 0.156066 0.000000
# 6 0.000000 0.000000 0.000000 0.000000 0.000000 0.044449
#
#
# Mechanical properties :
#
#
# Convention : Reuss Voigt Hill
#
# Bulk Modulus (GPa) = 13.07678 40.60267 26.83973
# Shear Modulus (GPa) = 14.15393 25.96563 20.05978
#
# Velocity S-wave (km/s) = 2.53478 3.43322 3.01763
# Velocity P-wave (km/s) = 3.80828 5.84358 4.93206
#
# Compressibility (1/GPa) = 0.07647144
#
# Stress axis : x y z
#
# Youngs Moduli (GPa) = 128.14958 58.59438 17.01178
#
# Poissons Ratio (x) = 0.27049 0.16007
# Poissons Ratio (y) = 0.59158 -0.17752
# Poissons Ratio (z) = 1.20584 -0.61145
#
# Static dielectric constant tensor:
#      x y z
#    x 1.897620 0.000000 0.000000 
#    y 0.000000 1.782140 0.000000 
#    z 0.000000 0.000000 1.511600 
# 
# From -- ./inp_files/27927.got.cif
#   From: 2010.05.17/outbox.cif.g08.bks.cpg/sg47_14_cif.got.tgz:27927.got - 2010.06.03 20:15:42.
