data_PCOD9385268
_publ_section_title
;
Structure prediction by ZEFSAII (Michael W. Deem and Ramdas Pophale) SiO2 
 PCOD9385268
Probable space group: P M M M
;
_chemical_formula_sum "Si O2"
_cell_formula_units_Z 41
_cell_length_a 11.757650
_cell_length_b 7.865930
_cell_length_c 24.125198
_cell_angle_alpha 90.000000
_cell_angle_beta 90.000000
_cell_angle_gamma 90.000000
_cell_volume 2231.215363
_symmetry_space_group_name_H-M "P M M M"
_symmetry_group_IT_number 47
_symmetry_cell_setting 'orthorhombic'
loop_
_space_group_symop_operation_xyz
x,y,z
-x,-y,z
x,-y,-z
-x,y,-z
-x,-y,-z
x,y,-z
-x,y,z
x,-y,z
loop_
_atom_site_type_symbol
_atom_site_label
_atom_site_fract_x
_atom_site_fract_y
_atom_site_fract_z
Si Si1 0.126928 0.000000 0.385461
Si Si2 0.500000 0.797711 0.288812
Si Si3 0.743817 0.688114 0.669198
Si Si4 0.500000 0.706022 0.158045
Si Si5 0.741328 0.295006 0.111529
Si Si6 0.867380 0.291694 0.000000
Si Si7 0.000000 0.000000 0.500000
Si Si8 0.133712 0.800735 0.776772
O O1 0.196323 0.834282 0.366752
O O2 0.000000 0.000000 0.357432
O O3 0.097177 0.000000 0.450285
O O4 0.387678 0.725322 0.317911
O O5 0.500000 0.757855 0.222788
O O6 0.500000 0.000000 0.294488
O O7 0.758719 0.500000 0.645204
O O8 0.803306 0.697619 0.729265
O O9 0.500000 0.500000 0.157737
O O10 0.385887 0.765076 0.126744
O O11 0.736316 0.500000 0.108392
O O12 0.819266 0.245201 0.163206
O O13 0.799223 0.235183 0.054712
O O14 0.868442 0.500000 0.000000
O O15 0.000000 0.238397 0.000000
O O16 0.000000 0.770495 0.774513
O O17 0.156898 0.000000 0.766098
#
# Coordination Sequence:
#
# PCOD9385268 Si02
#       8
#     4   4   8   4   8   4   1   8
#     4  10  22  45  67 103 137 181 222 261 316 368
#     4  12  22  38  61  92 135 178 214 268 339 395
#     4  12  23  38  64  97 136 174 220 272 322 386
#     4  10  20  33  50  80 116 151 203 260 321 401
#     4  10  20  34  53  75 107 151 202 260 326 394
#     4   9  18  33  52  74 101 145 206 266 319 391
#     4   8  24  48  78  94 156 186 224 274 304 372
#     4  11  22  35  52  82 121 160 202 259 326 392
#
# _framework density 18.375636
#
# number of rings (size 3 to 8) (size 9 to 14) (size 15 to 20)
#    0.293    1.073    3.902    2.634    0.000    3.902 
#    0.000    3.415    0.000    2.927    0.000    3.415 
#    0.000    0.000    0.000    0.000    0.000    0.000 
#
# Total GULP energy -228749.998201 kJ/mol
# GULP energy per Si atom -5579.268249 kJ/mol
# Density = 1.833381 g / cm^3
# Si number density = 18.375636 Si / 1000 Ang^3
#
#
#
# Elastic Constant Matrix: (Units=GPa)
#
#
# Indices 1 2 3 4 5 6 
#
# 1 121.9243 63.0636 54.6662 0.0000 0.0000 0.0000
# 2 63.0636 89.4713 40.7646 0.0000 0.0000 0.0000
# 3 54.6662 40.7646 122.7159 0.0000 0.0000 0.0000
# 4 0.0000 0.0000 0.0000 5.6507 0.0000 0.0000
# 5 0.0000 0.0000 0.0000 0.0000 -23.5866 0.0000
# 6 0.0000 0.0000 0.0000 0.0000 0.0000 51.9386
#
#
#
# Elastic Compliance Matrix: (Units=1/GPa)
#
#
# Indices 1 2 3 4 5 6 
#
# 1 0.014081 -0.008328 -0.003506 0.000000 0.000000 0.000000
# 2 -0.008328 0.018095 -0.002301 0.000000 0.000000 0.000000
# 3 -0.003506 -0.002301 0.010475 0.000000 0.000000 0.000000
# 4 0.000000 0.000000 0.000000 0.176970 0.000000 0.000000
# 5 0.000000 0.000000 0.000000 0.000000 -0.042397 0.000000
# 6 0.000000 0.000000 0.000000 0.000000 0.000000 0.019254
#
#
# Mechanical properties :
#
#
# Convention : Reuss Voigt Hill
#
# Bulk Modulus (GPa) = 69.53594 72.34449 70.94022
# Shear Modulus (GPa) = 21.78251 18.50833 20.14542
#
# Velocity S-wave (km/s) = 3.44670 3.17712 3.31465
# Velocity P-wave (km/s) = 7.33234 7.27420 7.30333
#
# Compressibility (1/GPa) = 0.01438105
#
# Stress axis : x y z
#
# Youngs Moduli (GPa) = 71.01623 55.26427 95.46200
#
# Poissons Ratio (x) = 0.46022 0.33474
# Poissons Ratio (y) = 0.59139 0.21968
# Poissons Ratio (z) = 0.24902 0.12717
#
# Static dielectric constant tensor:
#      x y z
#    x 1.637560 0.000000 0.000000 
#    y 0.000000 1.670080 0.000000 
#    z 0.000000 0.000000 1.590190 
# 
# From -- ./inp_files/32334.got.cif
#   From: 2010.05.17/outbox.cif.g08.bks.cpg/sg47_17_cif.got.tgz:32334.got - 2010.06.03 20:15:42.
