data_PCOD9385500
_publ_section_title
;
Structure prediction by ZEFSAII (Michael W. Deem and Ramdas Pophale) SiO2 
 PCOD9385500
Probable space group: P M M M
;
_chemical_formula_sum "Si O2"
_cell_formula_units_Z 40
_cell_length_a 17.030400
_cell_length_b 14.032106
_cell_length_c 7.449975
_cell_angle_alpha 90.000000
_cell_angle_beta 90.000000
_cell_angle_gamma 90.000000
_cell_volume 1780.338242
_symmetry_space_group_name_H-M "P M M M"
_symmetry_group_IT_number 47
_symmetry_cell_setting 'orthorhombic'
loop_
_space_group_symop_operation_xyz
x,y,z
-x,-y,z
x,-y,-z
-x,y,-z
-x,-y,-z
x,y,-z
-x,y,z
x,-y,z
loop_
_atom_site_type_symbol
_atom_site_label
_atom_site_fract_x
_atom_site_fract_y
_atom_site_fract_z
Si Si1 0.592527 0.500000 0.716141
Si Si2 0.838358 0.700146 0.203776
Si Si3 0.000000 0.388323 0.217038
Si Si4 0.662274 0.304448 0.294745
Si Si5 0.090729 0.892703 0.716983
Si Si6 0.407159 0.106163 0.282133
O O1 0.500000 0.500000 0.741956
O O2 0.609054 0.500000 0.500000
O O3 0.626933 0.599401 0.787873
O O4 0.918442 0.656436 0.283944
O O5 0.755844 0.682903 0.295606
O O6 0.854134 0.812727 0.205482
O O7 0.831103 0.664312 0.000000
O O8 0.000000 0.500000 0.252257
O O9 0.000000 0.372691 0.000000
O O10 0.632523 0.301246 0.500000
O O11 0.637968 0.201028 0.217520
O O12 0.094257 0.888013 0.500000
O O13 0.000000 0.874107 0.769007
O O14 0.110533 0.000000 0.770474
O O15 0.399608 0.103588 0.500000
O O16 0.500000 0.116333 0.241460
O O17 0.381724 0.000000 0.219544
#
# Coordination Sequence:
#
# PCOD9385500 Si02
#       6
#     4   8   4   8   8   8
#     4   9  18  34  57  82 109 142 180 226 278 329
#     4  11  22  36  55  79 107 142 184 227 271 322
#     4   9  20  38  56  71  94 138 189 229 268 319
#     4  10  20  33  52  80 111 139 175 223 275 327
#     4   9  18  34  56  79 105 139 177 220 271 322
#     4   8  14  27  50  78 104 133 172 214 256 310
#
# _framework density 22.467638000000001
#
# number of rings (size 3 to 8) (size 9 to 14) (size 15 to 20)
#    0.000    2.600    1.000    2.400    1.400    3.600 
#    0.000    3.000    0.000    5.400    0.000    1.400 
#    0.000    0.000    0.000    0.000    0.000    0.000 
#
# Total GULP energy -223270.247555 kJ/mol
# GULP energy per Si atom -5581.756189 kJ/mol
# Density = 2.241650 g / cm^3
# Si number density = 22.467638 Si / 1000 Ang^3
#
#
#
# Elastic Constant Matrix: (Units=GPa)
#
#
# Indices 1 2 3 4 5 6 
#
# 1 74.4643 86.8178 0.1214 0.0000 0.0000 0.0000
# 2 86.8178 183.8715 7.4670 0.0000 0.0000 0.0000
# 3 0.1214 7.4670 65.4298 0.0000 0.0000 0.0000
# 4 0.0000 0.0000 0.0000 -2.3308 0.0000 0.0000
# 5 0.0000 0.0000 0.0000 0.0000 53.9840 0.0000
# 6 0.0000 0.0000 0.0000 0.0000 0.0000 24.6558
#
#
#
# Elastic Compliance Matrix: (Units=1/GPa)
#
#
# Indices 1 2 3 4 5 6 
#
# 1 0.030035 -0.014245 0.001570 0.000000 0.000000 0.000000
# 2 -0.014245 0.012220 -0.001368 0.000000 0.000000 0.000000
# 3 0.001570 -0.001368 0.015437 0.000000 0.000000 0.000000
# 4 0.000000 0.000000 0.000000 -0.429042 0.000000 0.000000
# 5 0.000000 0.000000 0.000000 0.000000 0.018524 0.000000
# 6 0.000000 0.000000 0.000000 0.000000 0.000000 0.040558
#
#
# Mechanical properties :
#
#
# Convention : Reuss Voigt Hill
#
# Bulk Modulus (GPa) = 33.77777 56.95313 45.36545
# Shear Modulus (GPa) = -18.22747 30.55242 6.16248
#
# Velocity S-wave (km/s) = -2.85138 3.69160 1.65794
# Velocity P-wave (km/s) = 2.05575 6.60110 4.88880
#
# Compressibility (1/GPa) = 0.02960527
#
# Stress axis : x y z
#
# Youngs Moduli (GPa) = 33.29399 81.83063 64.78037
#
# Poissons Ratio (x) = 1.16572 -0.10170
# Poissons Ratio (y) = 0.47429 0.08863
# Poissons Ratio (z) = -0.05227 0.11196
#
# Static dielectric constant tensor:
#      x y z
#    x 1.787040 0.000000 0.000000 
#    y 0.000000 1.836080 0.000000 
#    z 0.000000 0.000000 1.888880 
# 
# From -- ./inp_files/5799.got.cif
#   From: 2010.05.17/outbox.cif.g08.bks.cpg/sg47_3_cif.got.tgz:5799.got - 2010.06.03 20:15:42.
