data_PCOD9385007
_publ_section_title
;
Structure prediction by ZEFSAII (Michael W. Deem and Ramdas Pophale) SiO2 
 PCOD9385007
Probable space group: P M M M
;
_chemical_formula_sum "Si O2"
_cell_formula_units_Z 56
_cell_length_a 23.653569
_cell_length_b 15.922905
_cell_length_c 9.037062
_cell_angle_alpha 90.000000
_cell_angle_beta 90.000000
_cell_angle_gamma 90.000000
_cell_volume 3403.660581
_symmetry_space_group_name_H-M "P M M M"
_symmetry_group_IT_number 47
_symmetry_cell_setting 'orthorhombic'
loop_
_space_group_symop_operation_xyz
x,y,z
-x,-y,z
x,-y,-z
-x,y,-z
-x,-y,-z
x,y,-z
-x,y,z
x,-y,z
loop_
_atom_site_type_symbol
_atom_site_label
_atom_site_fract_x
_atom_site_fract_y
_atom_site_fract_z
Si Si1 0.000000 0.601545 0.330370
Si Si2 0.881964 0.599597 0.822632
Si Si3 0.562791 0.399115 0.671364
Si Si4 0.668006 0.316867 0.829407
Si Si5 0.787242 0.282952 0.678107
Si Si6 0.648519 0.121400 0.170788
Si Si7 0.231700 0.907779 0.678059
Si Si8 0.433666 0.000000 0.325462
O O1 0.942879 0.624505 0.244478
O O2 0.000000 0.500000 0.335418
O O3 0.000000 0.632267 0.500000
O O4 0.872436 0.500000 0.789211
O O5 0.834639 0.658310 0.750185
O O6 0.882152 0.608320 0.000000
O O7 0.568770 0.371563 0.500000
O O8 0.500000 0.370861 0.724204
O O9 0.561920 0.500000 0.672007
O O10 0.617007 0.370212 0.762345
O O11 0.726283 0.314813 0.737213
O O12 0.646342 0.221316 0.825509
O O13 0.679949 0.340280 0.000000
O O14 0.788982 0.288596 0.500000
O O15 0.794361 0.183452 0.720458
O O16 0.705762 0.094799 0.253367
O O17 0.596133 0.079537 0.251441
O O18 0.651163 0.095459 0.000000
O O19 0.235427 0.906403 0.500000
O O20 0.206334 0.000000 0.719302
O O21 0.500000 0.000000 0.300000
O O22 0.422486 0.000000 0.500000
#
# Coordination Sequence:
#
# PCOD9385007 Si02
#       8
#     4   8   8   8   8   8   8   4
#     4   9  17  31  53  79 106 141 184 221 255 302
#     4  10  20  34  52  76 110 148 182 218 258 300
#     4   9  19  36  55  72  90 117 158 205 249 298
#     4  10  21  35  51  73 100 127 158 200 252 307
#     4  10  20  33  51  77 106 137 174 213 256 307
#     4  10  20  33  49  69  92 119 151 190 239 293
#     4   9  17  31  52  74  97 127 163 205 251 301
#     4  11  23  35  47  65  89 119 155 192 235 292
#
# _framework density 16.452876
#
# number of rings (size 3 to 8) (size 9 to 14) (size 15 to 20)
#    0.000    2.286    0.714    2.571    0.000    6.286 
#    0.000    3.571    0.000    0.000    0.000    0.500 
#    0.000    4.000    0.000    0.000    0.000    0.000 
#
# Total GULP energy -312053.338227 kJ/mol
# GULP energy per Si atom -5572.381040 kJ/mol
# Density = 1.641543 g / cm^3
# Si number density = 16.452876 Si / 1000 Ang^3
#
#
#
# Elastic Constant Matrix: (Units=GPa)
#
#
# Indices 1 2 3 4 5 6 
#
# 1 89.4266 50.9871 61.1463 0.0000 0.0000 0.0000
# 2 50.9871 74.0785 44.1547 0.0000 0.0000 0.0000
# 3 61.1463 44.1547 66.2178 0.0000 0.0000 0.0000
# 4 0.0000 0.0000 0.0000 39.5747 0.0000 0.0000
# 5 0.0000 0.0000 0.0000 0.0000 53.8602 0.0000
# 6 0.0000 0.0000 0.0000 0.0000 0.0000 9.6781
#
#
#
# Elastic Compliance Matrix: (Units=1/GPa)
#
#
# Indices 1 2 3 4 5 6 
#
# 1 0.032652 -0.007472 -0.025169 0.000000 0.000000 0.000000
# 2 -0.007472 0.024113 -0.009179 0.000000 0.000000 0.000000
# 3 -0.025169 -0.009179 0.044464 0.000000 0.000000 0.000000
# 4 0.000000 0.000000 0.000000 0.025269 0.000000 0.000000
# 5 0.000000 0.000000 0.000000 0.000000 0.018567 0.000000
# 6 0.000000 0.000000 0.000000 0.000000 0.000000 0.103326
#
#
# Mechanical properties :
#
#
# Convention : Reuss Voigt Hill
#
# Bulk Modulus (GPa) = 56.85426 60.25546 58.55486
# Shear Modulus (GPa) = 14.79755 25.51825 20.15790
#
# Velocity S-wave (km/s) = 3.00224 3.94253 3.50407
# Velocity P-wave (km/s) = 6.82999 7.57808 7.21374
#
# Compressibility (1/GPa) = 0.01758883
#
# Stress axis : x y z
#
# Youngs Moduli (GPa) = 30.62606 41.47074 22.49019
#
# Poissons Ratio (x) = 0.30986 0.56605
# Poissons Ratio (y) = 0.22883 0.20645
# Poissons Ratio (z) = 0.77082 0.38068
#
# Static dielectric constant tensor:
#      x y z
#    x 1.519150 0.000000 0.000000 
#    y 0.000000 1.583920 0.000000 
#    z 0.000000 0.000000 1.558120 
# 
# From -- ./inp_files/11347.got.cif
#   From: 2010.05.17/outbox.cif.g08.bks.cpg/sg47_6_cif.got.tgz:11347.got - 2010.06.03 20:15:42.
