data_PCOD9385688
_publ_section_title
;
Structure prediction by ZEFSAII (Michael W. Deem and Ramdas Pophale) SiO2 
 PCOD9385688
Probable space group: P M M M
;
_chemical_formula_sum "Si O2"
_cell_formula_units_Z 48
_cell_length_a 19.238500
_cell_length_b 8.421508
_cell_length_c 16.840053
_cell_angle_alpha 90.000000
_cell_angle_beta 90.000000
_cell_angle_gamma 90.000000
_cell_volume 2728.377926
_symmetry_space_group_name_H-M "P M M M"
_symmetry_group_IT_number 47
_symmetry_cell_setting 'orthorhombic'
loop_
_space_group_symop_operation_xyz
x,y,z
-x,-y,z
x,-y,-z
-x,y,-z
-x,-y,-z
x,y,-z
-x,y,z
x,-y,z
loop_
_atom_site_type_symbol
_atom_site_label
_atom_site_fract_x
_atom_site_fract_y
_atom_site_fract_z
Si Si1 0.711892 0.693376 0.588292
Si Si2 0.084253 0.819279 0.000000
Si Si3 0.578151 0.692085 0.681912
Si Si4 0.920306 0.807367 0.172899
Si Si5 0.347085 0.811308 0.160749
Si Si6 0.785446 0.690214 0.251374
Si Si7 0.581095 0.690257 0.000000
O O1 0.729012 0.750546 0.500000
O O2 0.714604 0.500000 0.586673
O O3 0.634074 0.738252 0.615369
O O4 0.760152 0.745123 0.661452
O O5 0.101446 0.746039 0.084848
O O6 0.000000 0.829827 0.000000
O O7 0.111963 0.000000 0.000000
O O8 0.500000 0.742806 0.664409
O O9 0.579726 0.500000 0.687360
O O10 0.603823 0.757318 0.766376
O O11 0.862312 0.749496 0.232740
O O12 0.000000 0.758550 0.189296
O O13 0.920281 0.000000 0.169443
O O14 0.270558 0.750844 0.186621
O O15 0.378209 0.745959 0.078721
O O16 0.345087 0.000000 0.156148
O O17 0.783194 0.500000 0.250016
O O18 0.579464 0.500000 0.000000
O O19 0.500000 0.746388 0.000000
#
# Coordination Sequence:
#
# PCOD9385688 Si02
#       7
#     8   4   8   8   8   8   4
#     4   8  15  29  49  72  96 125 164 207 250 297
#     4   7  12  25  45  68  93 122 154 185 218 262
#     4   9  17  30  49  73 100 127 157 201 256 304
#     4   9  17  31  52  76 102 132 166 204 247 297
#     4  11  22  35  51  71  98 134 174 209 246 298
#     4  10  20  34  52  74 101 131 165 208 255 300
#     4  11  23  38  55  74 100 134 174 221 263 292
#
# _framework density 17.592870000000001
#
# number of rings (size 3 to 8) (size 9 to 14) (size 15 to 20)
#    0.000    2.667    0.000    4.750    0.000    4.333 
#    0.000    4.583    0.000   14.500    0.000    8.167 
#    0.000    0.000    0.000    0.000    0.000    0.000 
#
# Total GULP energy -267513.900527 kJ/mol
# GULP energy per Si atom -5573.206261 kJ/mol
# Density = 1.755283 g / cm^3
# Si number density = 17.592870 Si / 1000 Ang^3
#
#
#
# Elastic Constant Matrix: (Units=GPa)
#
#
# Indices 1 2 3 4 5 6 
#
# 1 132.2130 24.3563 76.1447 0.0000 0.0000 0.0000
# 2 24.3563 29.2217 18.3775 0.0000 0.0000 0.0000
# 3 76.1447 18.3775 133.0287 0.0000 0.0000 0.0000
# 4 0.0000 0.0000 0.0000 -7.8309 0.0000 0.0000
# 5 0.0000 0.0000 0.0000 0.0000 10.9771 0.0000
# 6 0.0000 0.0000 0.0000 0.0000 0.0000 3.3701
#
#
#
# Elastic Compliance Matrix: (Units=1/GPa)
#
#
# Indices 1 2 3 4 5 6 
#
# 1 0.012277 -0.006367 -0.006148 0.000000 0.000000 0.000000
# 2 -0.006367 0.040779 -0.001989 0.000000 0.000000 0.000000
# 3 -0.006148 -0.001989 0.011311 0.000000 0.000000 0.000000
# 4 0.000000 0.000000 0.000000 -0.127699 0.000000 0.000000
# 5 0.000000 0.000000 0.000000 0.000000 0.091099 0.000000
# 6 0.000000 0.000000 0.000000 0.000000 0.000000 0.296730
#
#
# Mechanical properties :
#
#
# Convention : Reuss Voigt Hill
#
# Bulk Modulus (GPa) = 28.28096 59.13561 43.70828
# Shear Modulus (GPa) = 13.68771 13.00890 13.34831
#
# Velocity S-wave (km/s) = 2.79234 2.72222 2.75750
# Velocity P-wave (km/s) = 5.14843 6.60053 5.91918
#
# Compressibility (1/GPa) = 0.03535948
#
# Stress axis : x y z
#
# Youngs Moduli (GPa) = 81.45270 24.52255 88.41004
#
# Poissons Ratio (x) = 0.15613 0.54353
# Poissons Ratio (y) = 0.51858 0.17587
# Poissons Ratio (z) = 0.50075 0.04878
#
# Static dielectric constant tensor:
#      x y z
#    x 1.595650 0.000000 0.000000 
#    y 0.000000 1.609800 0.000000 
#    z 0.000000 0.000000 1.604560 
# 
# From -- ./inp_files/24505.got.cif
#   From: 2010.05.17/outbox.cif.g08.bks.cpg/sg47_13_cif.got.tgz:24505.got - 2010.06.03 20:15:42.
