data_PCOD9385835
_publ_section_title
;
Structure prediction by ZEFSAII (Michael W. Deem and Ramdas Pophale) SiO2 
 PCOD9385835
Probable space group: P M M M
;
_chemical_formula_sum "Si O2"
_cell_formula_units_Z 44
_cell_length_a 8.063212
_cell_length_b 29.332517
_cell_length_c 10.220348
_cell_angle_alpha 90.000000
_cell_angle_beta 90.000000
_cell_angle_gamma 90.000000
_cell_volume 2417.258484
_symmetry_space_group_name_H-M "P M M M"
_symmetry_group_IT_number 47
_symmetry_cell_setting 'orthorhombic'
loop_
_space_group_symop_operation_xyz
x,y,z
-x,-y,z
x,-y,-z
-x,y,-z
-x,-y,-z
x,y,-z
-x,y,z
x,-y,z
loop_
_atom_site_type_symbol
_atom_site_label
_atom_site_fract_x
_atom_site_fract_y
_atom_site_fract_z
Si Si1 0.683545 0.610753 0.341479
Si Si2 0.297043 0.948342 0.000000
Si Si3 0.802723 0.052459 0.500000
Si Si4 0.000000 0.552772 0.340092
Si Si5 0.700975 0.208104 0.846972
Si Si6 0.299989 0.109295 0.247405
Si Si7 0.802058 0.711953 0.349079
O O1 0.683048 0.607465 0.500000
O O2 0.500000 0.597594 0.294676
O O3 0.834936 0.579326 0.295672
O O4 0.719150 0.663775 0.313284
O O5 0.242247 0.921231 0.126633
O O6 0.500000 0.948664 0.000000
O O7 0.239915 0.000000 0.000000
O O8 0.750230 0.082440 0.623829
O O9 0.000000 0.048871 0.500000
O O10 0.735751 0.000000 0.500000
O O11 0.000000 0.500000 0.301216
O O12 0.000000 0.554011 0.500000
O O13 0.500000 0.207909 0.848975
O O14 0.757866 0.160892 0.778752
O O15 0.757640 0.249643 0.755959
O O16 0.754628 0.210335 0.000000
O O17 0.500000 0.111099 0.245238
O O18 0.752727 0.723884 0.500000
O O19 0.000000 0.705080 0.350058
#
# Coordination Sequence:
#
# PCOD9385835 Si02
#       7
#     8   4   4   4   8   8   8
#     4   9  16  28  46  69 102 143 188 236 283 334
#     4   9  16  30  57  85 103 127 169 217 265 318
#     4  11  25  41  55  77 111 143 173 215 265 320
#     4   9  16  26  42  68 107 149 189 235 282 335
#     4  10  21  37  55  79 110 138 172 223 279 331
#     4  10  20  37  59  82 106 134 172 219 267 320
#     4  10  20  34  53  77 106 144 189 230 274 330
#
# _framework density 18.202438999999998
#
# number of rings (size 3 to 8) (size 9 to 14) (size 15 to 20)
#    0.000    2.273    1.818    1.364    1.273    4.000 
#    0.000    2.273    0.000    1.636    0.000    0.000 
#    0.000    1.455    0.000    3.818    0.000    3.636 
#
# Total GULP energy -245384.999877 kJ/mol
# GULP energy per Si atom -5576.931815 kJ/mol
# Density = 1.816101 g / cm^3
# Si number density = 18.202439 Si / 1000 Ang^3
#
#
#
# Elastic Constant Matrix: (Units=GPa)
#
#
# Indices 1 2 3 4 5 6 
#
# 1 77.1015 61.4830 24.9001 0.0000 0.0000 0.0000
# 2 61.4830 159.2044 63.3168 0.0000 0.0000 0.0000
# 3 24.9001 63.3168 104.9243 0.0000 0.0000 0.0000
# 4 0.0000 0.0000 0.0000 18.9774 0.0000 0.0000
# 5 0.0000 0.0000 0.0000 0.0000 18.7846 0.0000
# 6 0.0000 0.0000 0.0000 0.0000 0.0000 22.0556
#
#
#
# Elastic Compliance Matrix: (Units=1/GPa)
#
#
# Indices 1 2 3 4 5 6 
#
# 1 0.018742 -0.007196 -0.000105 0.000000 0.000000 0.000000
# 2 -0.007196 0.011028 -0.004947 0.000000 0.000000 0.000000
# 3 -0.000105 -0.004947 0.012541 0.000000 0.000000 0.000000
# 4 0.000000 0.000000 0.000000 0.052694 0.000000 0.000000
# 5 0.000000 0.000000 0.000000 0.000000 0.053235 0.000000
# 6 0.000000 0.000000 0.000000 0.000000 0.000000 0.045340
#
#
# Mechanical properties :
#
#
# Convention : Reuss Voigt Hill
#
# Bulk Modulus (GPa) = 56.13509 71.18111 63.65810
# Shear Modulus (GPa) = 22.31989 24.73220 23.52604
#
# Velocity S-wave (km/s) = 3.50552 3.69009 3.59899
# Velocity P-wave (km/s) = 6.87686 7.57271 7.23315
#
# Compressibility (1/GPa) = 0.01781417
#
# Stress axis : x y z
#
# Youngs Moduli (GPa) = 53.35490 90.67998 79.73894
#
# Poissons Ratio (x) = 0.65256 0.00839
# Poissons Ratio (y) = 0.38396 0.39447
# Poissons Ratio (z) = 0.00562 0.44859
#
# Static dielectric constant tensor:
#      x y z
#    x 1.656020 0.000000 0.000000 
#    y 0.000000 1.612780 0.000000 
#    z 0.000000 0.000000 1.641250 
# 
# From -- ./inp_files/2392.got.cif
#   From: 2010.05.17/outbox.cif.g08.bks.cpg/sg47_2_cif.got.tgz:2392.got - 2010.06.03 20:15:42.
