data_PCOD9385378
_publ_section_title
;
Structure prediction by ZEFSAII (Michael W. Deem and Ramdas Pophale) SiO2 
 PCOD9385378
Probable space group: P M M M
;
_chemical_formula_sum "Si O2"
_cell_formula_units_Z 64
_cell_length_a 14.682162
_cell_length_b 9.921342
_cell_length_c 23.624781
_cell_angle_alpha 90.000000
_cell_angle_beta 90.000000
_cell_angle_gamma 90.000000
_cell_volume 3441.345080
_symmetry_space_group_name_H-M "P M M M"
_symmetry_group_IT_number 47
_symmetry_cell_setting 'orthorhombic'
loop_
_space_group_symop_operation_xyz
x,y,z
-x,-y,z
x,-y,-z
-x,y,-z
-x,-y,-z
x,y,-z
-x,y,z
x,-y,z
loop_
_atom_site_type_symbol
_atom_site_label
_atom_site_fract_x
_atom_site_fract_y
_atom_site_fract_z
Si Si1 0.705129 0.660487 0.433597
Si Si2 0.900708 0.338819 0.389904
Si Si3 0.262185 0.348657 0.067715
Si Si4 0.392785 0.847678 0.123258
Si Si5 0.896064 0.847908 0.930935
Si Si6 0.730091 0.844209 0.234505
Si Si7 0.896861 0.340568 0.746075
Si Si8 0.393756 0.840411 0.656355
O O1 0.686961 0.675886 0.500000
O O2 0.699109 0.500000 0.419829
O O3 0.808633 0.708034 0.419793
O O4 0.637745 0.747109 0.395175
O O5 0.903609 0.500000 0.399669
O O6 0.892835 0.319978 0.322223
O O7 0.000000 0.284165 0.408134
O O8 0.263327 0.500000 0.090774
O O9 0.351523 0.264684 0.082771
O O10 0.176011 0.261799 0.088562
O O11 0.254187 0.356408 0.000000
O O12 0.500000 0.832177 0.132333
O O13 0.338014 0.834753 0.181709
O O14 0.376633 0.000000 0.100993
O O15 0.000000 0.819717 0.913931
O O16 0.871423 0.000000 0.912628
O O17 0.894978 0.848620 0.000000
O O18 0.816795 0.748449 0.228531
O O19 0.671762 0.810113 0.290509
O O20 0.760036 0.000000 0.239288
O O21 0.883450 0.500000 0.756418
O O22 0.000000 0.305183 0.764246
O O23 0.500000 0.817911 0.670540
O O24 0.383537 0.000000 0.643217
#
# Coordination Sequence:
#
# PCOD9385378 Si02
#       8
#     8   8   8   8   8   8   8   8
#     4  10  20  33  51  77 107 138 177 224 266 309
#     4   8  14  27  48  74 104 137 172 210 255 309
#     4  10  21  36  55  82 116 150 182 220 269 325
#     4  10  22  40  60  81 106 139 182 231 278 323
#     4   8  14  27  50  79 109 143 184 225 262 306
#     4  10  20  36  59  84 107 133 173 226 273 316
#     4   9  17  31  54  82 111 143 176 211 257 318
#     4  10  21  37  56  76 100 135 176 218 271 329
#
# _framework density 18.597380000000001
#
# number of rings (size 3 to 8) (size 9 to 14) (size 15 to 20)
#    0.000    2.625    1.250    1.875    0.000    4.750 
#    0.000    5.625    0.000    3.375    0.000    0.875 
#    0.000    0.000    0.000    0.000    0.000    0.000 
#
# Total GULP energy -356984.450857 kJ/mol
# GULP energy per Si atom -5577.882045 kJ/mol
# Density = 1.855505 g / cm^3
# Si number density = 18.597380 Si / 1000 Ang^3
#
#
#
# Elastic Constant Matrix: (Units=GPa)
#
#
# Indices 1 2 3 4 5 6 
#
# 1 131.0509 80.5047 21.9895 0.0000 0.0000 0.0000
# 2 80.5047 97.7839 31.7329 0.0000 0.0000 0.0000
# 3 21.9895 31.7329 30.2089 0.0000 0.0000 0.0000
# 4 0.0000 0.0000 0.0000 18.1421 0.0000 0.0000
# 5 0.0000 0.0000 0.0000 0.0000 21.6949 0.0000
# 6 0.0000 0.0000 0.0000 0.0000 0.0000 15.2496
#
#
#
# Elastic Compliance Matrix: (Units=1/GPa)
#
#
# Indices 1 2 3 4 5 6 
#
# 1 0.015646 -0.013936 0.003250 0.000000 0.000000 0.000000
# 2 -0.013936 0.027929 -0.019194 0.000000 0.000000 0.000000
# 3 0.003250 -0.019194 0.050899 0.000000 0.000000 0.000000
# 4 0.000000 0.000000 0.000000 0.055120 0.000000 0.000000
# 5 0.000000 0.000000 0.000000 0.000000 0.046094 0.000000
# 6 0.000000 0.000000 0.000000 0.000000 0.000000 0.065575
#
#
# Mechanical properties :
#
#
# Convention : Reuss Voigt Hill
#
# Bulk Modulus (GPa) = 28.80614 58.61087 43.70851
# Shear Modulus (GPa) = 15.03332 19.33843 17.18588
#
# Velocity S-wave (km/s) = 2.84625 3.22816 3.04320
# Velocity P-wave (km/s) = 5.13074 6.74380 5.99180
#
# Compressibility (1/GPa) = 0.03471482
#
# Stress axis : x y z
#
# Youngs Moduli (GPa) = 63.91284 35.80520 19.64680
#
# Poissons Ratio (x) = 0.49899 -0.06385
# Poissons Ratio (y) = 0.89070 0.37709
# Poissons Ratio (z) = -0.20772 0.68723
#
# Static dielectric constant tensor:
#      x y z
#    x 1.642520 0.000000 0.000000 
#    y 0.000000 1.630360 0.000000 
#    z 0.000000 0.000000 1.650950 
# 
# From -- ./inp_files/32752.got.cif
#   From: 2010.05.17/outbox.cif.g08.bks.cpg/sg47_17_cif.got.tgz:32752.got - 2010.06.03 20:15:42.
