data_PCOD9385800
_publ_section_title
;
Structure prediction by ZEFSAII (Michael W. Deem and Ramdas Pophale) SiO2 
 PCOD9385800
Probable space group: P M M M
;
_chemical_formula_sum "Si O2"
_cell_formula_units_Z 52
_cell_length_a 18.522076
_cell_length_b 15.334098
_cell_length_c 9.524648
_cell_angle_alpha 90.000000
_cell_angle_beta 90.000000
_cell_angle_gamma 90.000000
_cell_volume 2705.184130
_symmetry_space_group_name_H-M "P M M M"
_symmetry_group_IT_number 47
_symmetry_cell_setting 'orthorhombic'
loop_
_space_group_symop_operation_xyz
x,y,z
-x,-y,z
x,-y,-z
-x,y,-z
-x,-y,-z
x,y,-z
-x,y,z
x,-y,z
loop_
_atom_site_type_symbol
_atom_site_label
_atom_site_fract_x
_atom_site_fract_y
_atom_site_fract_z
Si Si1 0.731019 0.849954 0.159842
Si Si2 0.782897 0.350029 0.158348
Si Si3 0.579434 0.785792 0.828940
Si Si4 0.864523 0.102359 0.657313
Si Si5 0.000000 0.892736 0.161687
Si Si6 0.920409 0.605383 0.664573
Si Si7 0.627375 0.405811 0.171081
O O1 0.756170 0.749385 0.151084
O O2 0.648217 0.844373 0.211125
O O3 0.788012 0.891352 0.264991
O O4 0.734659 0.885873 0.000000
O O5 0.853057 0.357794 0.252008
O O6 0.711900 0.400509 0.210963
O O7 0.799197 0.380259 0.000000
O O8 0.500000 0.815809 0.785199
O O9 0.590977 0.684796 0.783163
O O10 0.581561 0.784700 0.000000
O O11 0.863490 0.140570 0.500000
O O12 0.928646 0.137784 0.755541
O O13 0.881008 0.000000 0.643442
O O14 0.000000 0.000000 0.158352
O O15 0.000000 0.864092 0.000000
O O16 0.915015 0.627077 0.500000
O O17 0.917625 0.500000 0.675674
O O18 0.000000 0.633535 0.715306
O O19 0.597185 0.500000 0.215590
O O20 0.625074 0.404042 0.000000
#
# Coordination Sequence:
#
# PCOD9385800 Si02
#       7
#     8   8   8   8   4   8   8
#     4   9  18  32  49  71  98 128 162 199 243 294
#     4   9  17  29  44  63  88 118 154 194 236 285
#     4   8  14  25  42  65  94 127 162 201 244 291
#     4  10  20  34  53  77 103 130 163 200 236 282
#     4   9  17  31  53  79 105 131 156 185 228 279
#     4   9  18  31  44  59  82 114 154 199 242 281
#     4   8  13  21  36  61  91 120 151 191 239 288
#
# _framework density 19.222351
#
# number of rings (size 3 to 8) (size 9 to 14) (size 15 to 20)
#    0.000    3.154    0.000    3.462    0.000    4.000 
#    1.385    2.308    0.000    0.923    0.000    3.231 
#    0.000    0.000    0.000   16.308    0.000   12.308 
#
# Total GULP energy -289660.190037 kJ/mol
# GULP energy per Si atom -5570.388270 kJ/mol
# Density = 1.917860 g / cm^3
# Si number density = 19.222351 Si / 1000 Ang^3
#
#
#
# Elastic Constant Matrix: (Units=GPa)
#
#
# Indices 1 2 3 4 5 6 
#
# 1 162.2716 0.6461 60.9294 0.0000 0.0000 0.0000
# 2 0.6461 13.8038 5.3416 0.0000 0.0000 0.0000
# 3 60.9294 5.3416 69.8222 0.0000 0.0000 0.0000
# 4 0.0000 0.0000 0.0000 10.4531 0.0000 0.0000
# 5 0.0000 0.0000 0.0000 0.0000 -28.2384 0.0000
# 6 0.0000 0.0000 0.0000 0.0000 0.0000 11.1921
#
#
#
# Elastic Compliance Matrix: (Units=1/GPa)
#
#
# Indices 1 2 3 4 5 6 
#
# 1 0.009268 0.002778 -0.008300 0.000000 0.000000 0.000000
# 2 0.002778 0.075487 -0.008199 0.000000 0.000000 0.000000
# 3 -0.008300 -0.008199 0.022192 0.000000 0.000000 0.000000
# 4 0.000000 0.000000 0.000000 0.095665 0.000000 0.000000
# 5 0.000000 0.000000 0.000000 0.000000 -0.035413 0.000000
# 6 0.000000 0.000000 0.000000 0.000000 0.000000 0.089349
#
#
# Mechanical properties :
#
#
# Convention : Reuss Voigt Hill
#
# Bulk Modulus (GPa) = 12.57790 42.19243 27.38516
# Shear Modulus (GPa) = 16.10346 10.61339 13.35842
#
# Velocity S-wave (km/s) = 2.89753 2.35231 2.63904
# Velocity P-wave (km/s) = 4.21329 5.41988 4.85422
#
# Compressibility (1/GPa) = 0.07950455
#
# Stress axis : x y z
#
# Youngs Moduli (GPa) = 107.89894 13.24735 45.06072
#
# Poissons Ratio (x) = -0.03680 0.37401
# Poissons Ratio (y) = -0.29975 0.36946
# Poissons Ratio (z) = 0.89557 0.10862
#
# Static dielectric constant tensor:
#      x y z
#    x 1.687880 0.000000 0.000000 
#    y 0.000000 1.723740 0.000000 
#    z 0.000000 0.000000 1.652040 
# 
# From -- ./inp_files/9558.got.cif
#   From: 2010.05.17/outbox.cif.g08.bks.cpg/sg47_5_cif.got.tgz:9558.got - 2010.06.03 20:15:42.
