data_PCOD9385595
_publ_section_title
;
Structure prediction by ZEFSAII (Michael W. Deem and Ramdas Pophale) SiO2 
 PCOD9385595
Probable space group: P M M M
;
_chemical_formula_sum "Si O2"
_cell_formula_units_Z 52
_cell_length_a 11.100941
_cell_length_b 10.188763
_cell_length_c 28.995834
_cell_angle_alpha 90.000000
_cell_angle_beta 90.000000
_cell_angle_gamma 90.000000
_cell_volume 3279.569656
_symmetry_space_group_name_H-M "P M M M"
_symmetry_group_IT_number 47
_symmetry_cell_setting 'orthorhombic'
loop_
_space_group_symop_operation_xyz
x,y,z
-x,-y,z
x,-y,-z
-x,y,-z
-x,-y,-z
x,y,-z
-x,y,z
x,-y,z
loop_
_atom_site_type_symbol
_atom_site_label
_atom_site_fract_x
_atom_site_fract_y
_atom_site_fract_z
Si Si1 0.258747 0.249956 0.400615
Si Si2 0.143597 0.000000 0.552784
Si Si3 0.354617 0.649548 0.778101
Si Si4 0.857458 0.500000 0.553623
Si Si5 0.500000 0.346710 0.445098
Si Si6 0.135767 0.659536 0.946033
Si Si7 0.645968 0.156325 0.303742
Si Si8 0.638661 0.340937 0.115579
O O1 0.183880 0.375799 0.416777
O O2 0.385237 0.273358 0.425561
O O3 0.288064 0.221954 0.347367
O O4 0.192243 0.125861 0.421358
O O5 0.186251 0.000000 0.500000
O O6 0.000000 0.000000 0.552598
O O7 0.500000 0.642617 0.775599
O O8 0.310132 0.500000 0.768781
O O9 0.318213 0.759490 0.741311
O O10 0.328596 0.686399 0.831078
O O11 0.807898 0.500000 0.500000
O O12 0.000000 0.500000 0.549275
O O13 0.500000 0.500000 0.429838
O O14 0.500000 0.345863 0.500000
O O15 0.136171 0.500000 0.943511
O O16 0.252181 0.705514 0.917089
O O17 0.000000 0.701066 0.930903
O O18 0.148967 0.694173 0.000000
O O19 0.500000 0.167813 0.309684
O O20 0.672162 0.000000 0.300537
O O21 0.500000 0.295292 0.106156
O O22 0.633995 0.500000 0.111744
#
# Coordination Sequence:
#
# PCOD9385595 Si02
#       8
#     8   4   8   4   4   8   8   8
#     4  12  22  37  57  81 106 131 162 203 249 300
#     4  11  24  41  59  77  99 134 175 205 238 291
#     4   8  15  27  46  67  91 124 162 200 238 286
#     4  11  24  41  59  77  99 134 175 205 232 281
#     4  11  22  35  53  81 113 135 155 195 254 305
#     4   8  13  20  31  51  84 125 159 186 230 291
#     4  10  20  34  49  75 106 130 157 194 247 307
#     4   8  13  22  36  58  83 113 158 202 237 275
#
# _framework density 15.855739
#
# number of rings (size 3 to 8) (size 9 to 14) (size 15 to 20)
#    0.000    2.385    2.308    3.231    1.077    1.846 
#    0.000    2.308    0.000    1.846    0.000    0.000 
#    0.000    0.615    0.000    7.692    0.000    8.923 
#
# Total GULP energy -289475.552144 kJ/mol
# GULP energy per Si atom -5566.837541 kJ/mol
# Density = 1.581965 g / cm^3
# Si number density = 15.855739 Si / 1000 Ang^3
#
#
#
# Elastic Constant Matrix: (Units=GPa)
#
#
# Indices 1 2 3 4 5 6 
#
# 1 88.1903 34.6841 62.8124 0.0000 0.0000 0.0000
# 2 34.6841 85.8953 47.4657 0.0000 0.0000 0.0000
# 3 62.8124 47.4657 115.0652 0.0000 0.0000 0.0000
# 4 0.0000 0.0000 0.0000 14.6840 0.0000 0.0000
# 5 0.0000 0.0000 0.0000 0.0000 26.2314 0.0000
# 6 0.0000 0.0000 0.0000 0.0000 0.0000 12.6036
#
#
#
# Elastic Compliance Matrix: (Units=1/GPa)
#
#
# Indices 1 2 3 4 5 6 
#
# 1 0.018960 -0.002508 -0.009316 0.000000 0.000000 0.000000
# 2 -0.002508 0.015411 -0.004988 0.000000 0.000000 0.000000
# 3 -0.009316 -0.004988 0.015834 0.000000 0.000000 0.000000
# 4 0.000000 0.000000 0.000000 0.068102 0.000000 0.000000
# 5 0.000000 0.000000 0.000000 0.000000 0.038122 0.000000
# 6 0.000000 0.000000 0.000000 0.000000 0.000000 0.079342
#
#
# Mechanical properties :
#
#
# Convention : Reuss Voigt Hill
#
# Bulk Modulus (GPa) = 60.30832 64.34168 62.32500
# Shear Modulus (GPa) = 18.18694 20.31637 19.25166
#
# Velocity S-wave (km/s) = 3.39045 3.58344 3.48828
# Velocity P-wave (km/s) = 7.31062 7.60191 7.45768
#
# Compressibility (1/GPa) = 0.01658146
#
# Stress axis : x y z
#
# Youngs Moduli (GPa) = 52.74125 64.88717 63.15700
#
# Poissons Ratio (x) = 0.16276 0.58834
# Poissons Ratio (y) = 0.13230 0.31503
# Poissons Ratio (z) = 0.49131 0.32366
#
# Static dielectric constant tensor:
#      x y z
#    x 1.529520 0.000000 0.000000 
#    y 0.000000 1.501620 0.000000 
#    z 0.000000 0.000000 1.532020 
# 
# From -- ./inp_files/33683.got.cif
#   From: 2010.05.17/outbox.cif.g08.bks.cpg/sg47_17_cif.got.tgz:33683.got - 2010.06.03 20:15:42.
