data_PCOD9385580
_publ_section_title
;
Structure prediction by ZEFSAII (Michael W. Deem and Ramdas Pophale) SiO2 
 PCOD9385580
Probable space group: P M M M
;
_chemical_formula_sum "Si O2"
_cell_formula_units_Z 52
_cell_length_a 20.998354
_cell_length_b 16.272043
_cell_length_c 8.043384
_cell_angle_alpha 90.000000
_cell_angle_beta 90.000000
_cell_angle_gamma 90.000000
_cell_volume 2748.312664
_symmetry_space_group_name_H-M "P M M M"
_symmetry_group_IT_number 47
_symmetry_cell_setting 'orthorhombic'
loop_
_space_group_symop_operation_xyz
x,y,z
-x,-y,z
x,-y,-z
-x,y,-z
-x,-y,-z
x,y,-z
-x,y,z
x,-y,z
loop_
_atom_site_type_symbol
_atom_site_label
_atom_site_fract_x
_atom_site_fract_y
_atom_site_fract_z
Si Si1 0.302393 0.410238 0.199841
Si Si2 0.070084 0.097968 0.197654
Si Si3 0.843351 0.370940 0.815395
Si Si4 0.426149 0.907317 0.700912
Si Si5 0.185926 0.798886 0.688673
Si Si6 0.322585 0.775775 0.198111
Si Si7 0.069700 0.597076 0.500000
O O1 0.325855 0.500000 0.263530
O O2 0.226045 0.407812 0.225658
O O3 0.326983 0.320157 0.259174
O O4 0.312633 0.410770 0.000000
O O5 0.131964 0.133534 0.286295
O O6 0.000000 0.128966 0.254660
O O7 0.069786 0.000000 0.217379
O O8 0.074730 0.115237 0.000000
O O9 0.831076 0.273859 0.813798
O O10 0.892578 0.384798 0.668718
O O11 0.862932 0.398310 0.000000
O O12 0.424004 0.906254 0.500000
O O13 0.500000 0.896573 0.750752
O O14 0.382232 0.833720 0.764070
O O15 0.406072 0.000000 0.754157
O O16 0.182000 0.767507 0.500000
O O17 0.259619 0.817929 0.724009
O O18 0.313483 0.771561 0.000000
O O19 0.062778 0.500000 0.500000
O O20 0.000000 0.637320 0.500000
#
# Coordination Sequence:
#
# PCOD9385580 Si02
#       7
#     8   8   8   8   8   8   4
#     4   8  15  30  54  80 106 141 181 223 279 340
#     4   9  19  36  55  74  99 135 180 229 283 344
#     4  10  20  37  57  77 104 140 182 232 287 342
#     4   9  19  37  59  81 110 152 195 232 278 337
#     4  11  21  35  55  79 109 142 181 231 283 338
#     4  10  20  33  54  85 116 143 180 233 285 335
#     4  11  24  38  52  76 105 135 180 229 279 347
#
# _framework density 18.9207
#
# number of rings (size 3 to 8) (size 9 to 14) (size 15 to 20)
#    0.000    2.385    0.769    4.154    0.000    3.692 
#    0.000    2.308    0.000    0.462    0.000    3.231 
#    0.000    0.000    0.000    0.000    0.000    0.000 
#
# Total GULP energy -289675.748087 kJ/mol
# GULP energy per Si atom -5570.687463 kJ/mol
# Density = 1.887764 g / cm^3
# Si number density = 18.920700 Si / 1000 Ang^3
#
#
#
# Elastic Constant Matrix: (Units=GPa)
#
#
# Indices 1 2 3 4 5 6 
#
# 1 91.7626 68.8248 30.4179 0.0000 0.0000 0.0000
# 2 68.8248 103.8974 24.1125 0.0000 0.0000 0.0000
# 3 30.4179 24.1125 66.2255 0.0000 0.0000 0.0000
# 4 0.0000 0.0000 0.0000 -0.0584 0.0000 0.0000
# 5 0.0000 0.0000 0.0000 0.0000 24.7640 0.0000
# 6 0.0000 0.0000 0.0000 0.0000 0.0000 18.2463
#
#
#
# Elastic Compliance Matrix: (Units=1/GPa)
#
#
# Indices 1 2 3 4 5 6 
#
# 1 0.023403 -0.014209 -0.005576 0.000000 0.000000 0.000000
# 2 -0.014209 0.019140 -0.000443 0.000000 0.000000 0.000000
# 3 -0.005576 -0.000443 0.017822 0.000000 0.000000 0.000000
# 4 0.000000 0.000000 0.000000-17.121602 0.000000 0.000000
# 5 0.000000 0.000000 0.000000 0.000000 0.040381 0.000000
# 6 0.000000 0.000000 0.000000 0.000000 0.000000 0.054806
#
#
# Mechanical properties :
#
#
# Convention : Reuss Voigt Hill
#
# Bulk Modulus (GPa) = 50.22438 56.51063 53.36751
# Shear Modulus (GPa) = -0.29553 17.82572 8.76510
#
# Velocity S-wave (km/s) = -0.39564 3.07274 2.15467
# Velocity P-wave (km/s) = 5.13747 6.52081 5.87003
#
# Compressibility (1/GPa) = 0.01991065
#
# Stress axis : x y z
#
# Youngs Moduli (GPa) = 42.72940 52.24662 56.11021
#
# Poissons Ratio (x) = 0.74237 0.31286
# Poissons Ratio (y) = 0.60714 0.02483
# Poissons Ratio (z) = 0.23825 0.02312
#
# Static dielectric constant tensor:
#      x y z
#    x 1.689940 0.000000 0.000000 
#    y 0.000000 1.698220 0.000000 
#    z 0.000000 0.000000 1.537000 
# 
# From -- ./inp_files/9544.got.cif
#   From: 2010.05.17/outbox.cif.g08.bks.cpg/sg47_5_cif.got.tgz:9544.got - 2010.06.03 20:15:42.
