data_PCOD9385498
_publ_section_title
;
Structure prediction by ZEFSAII (Michael W. Deem and Ramdas Pophale) SiO2 
 PCOD9385498
Probable space group: P M M M
;
_chemical_formula_sum "Si O2"
_cell_formula_units_Z 52
_cell_length_a 12.035671
_cell_length_b 29.128392
_cell_length_c 8.707589
_cell_angle_alpha 90.000000
_cell_angle_beta 90.000000
_cell_angle_gamma 90.000000
_cell_volume 3052.704313
_symmetry_space_group_name_H-M "P M M M"
_symmetry_group_IT_number 47
_symmetry_cell_setting 'orthorhombic'
loop_
_space_group_symop_operation_xyz
x,y,z
-x,-y,z
x,-y,-z
-x,y,-z
-x,-y,-z
x,y,-z
-x,y,z
x,-y,z
loop_
_atom_site_type_symbol
_atom_site_label
_atom_site_fract_x
_atom_site_fract_y
_atom_site_fract_z
Si Si1 0.500000 0.287528 0.818306
Si Si2 0.747242 0.591699 0.684280
Si Si3 0.500000 0.612730 0.682993
Si Si4 0.872050 0.500000 0.687514
Si Si5 0.871354 0.680444 0.816098
Si Si6 0.370660 0.853594 0.315413
Si Si7 0.633909 0.950032 0.817917
Si Si8 0.278486 0.757776 0.684312
O O1 0.500000 0.341247 0.781821
O O2 0.608692 0.266406 0.740482
O O3 0.500000 0.278927 0.000000
O O4 0.761048 0.595347 0.500000
O O5 0.615741 0.587469 0.714529
O O6 0.811509 0.546445 0.738549
O O7 0.798022 0.637978 0.755075
O O8 0.500000 0.624658 0.500000
O O9 0.868766 0.500000 0.500000
O O10 0.000000 0.500000 0.734961
O O11 0.821183 0.728031 0.753308
O O12 0.000000 0.674471 0.769450
O O13 0.865266 0.680911 0.000000
O O14 0.374240 0.853587 0.500000
O O15 0.500000 0.846964 0.262426
O O16 0.328462 0.903049 0.259806
O O17 0.294554 0.810802 0.266835
O O18 0.500000 0.950513 0.797360
O O19 0.675031 0.000000 0.761361
O O20 0.654942 0.947600 0.000000
O O21 0.272329 0.755941 0.500000
#
# Coordination Sequence:
#
# PCOD9385498 Si02
#       8
#     4   8   4   4   8   8   8   8
#     4  12  22  32  51  77 106 138 169 206 255 303
#     4  10  20  35  57  80 106 137 171 212 256 305
#     4  10  20  33  52  80 108 136 170 208 251 304
#     4   9  18  33  54  80 105 135 180 222 253 298
#     4  11  24  39  54  76 104 133 171 214 257 309
#     4   9  17  28  42  64  94 126 163 207 249 293
#     4   8  14  24  37  56  86 125 167 206 243 290
#     4  11  21  35  53  74 103 135 173 214 254 306
#
# _framework density 17.034078000000001
#
# number of rings (size 3 to 8) (size 9 to 14) (size 15 to 20)
#    0.000    2.077    2.308    2.538    0.000    3.692 
#    0.000    3.462    0.000    1.385    0.000    1.615 
#    0.000    0.615    0.000    6.769    0.000    5.231 
#
# Total GULP energy -289954.892399 kJ/mol
# GULP energy per Si atom -5576.055623 kJ/mol
# Density = 1.699531 g / cm^3
# Si number density = 17.034078 Si / 1000 Ang^3
#
#
#
# Elastic Constant Matrix: (Units=GPa)
#
#
# Indices 1 2 3 4 5 6 
#
# 1 97.1528 54.1157 26.3064 0.0000 0.0000 0.0000
# 2 54.1157 148.5895 28.4742 0.0000 0.0000 0.0000
# 3 26.3064 28.4742 17.3843 0.0000 0.0000 0.0000
# 4 0.0000 0.0000 0.0000 205.2644 0.0000 0.0000
# 5 0.0000 0.0000 0.0000 0.0000 14.2172 0.0000
# 6 0.0000 0.0000 0.0000 0.0000 0.0000 20.0425
#
#
#
# Elastic Compliance Matrix: (Units=1/GPa)
#
#
# Indices 1 2 3 4 5 6 
#
# 1 0.017809 -0.001926 -0.023793 0.000000 0.000000 0.000000
# 2 -0.001926 0.010017 -0.013492 0.000000 0.000000 0.000000
# 3 -0.023793 -0.013492 0.115627 0.000000 0.000000 0.000000
# 4 0.000000 0.000000 0.000000 0.004872 0.000000 0.000000
# 5 0.000000 0.000000 0.000000 0.000000 0.070337 0.000000
# 6 0.000000 0.000000 0.000000 0.000000 0.000000 0.049894
#
#
# Mechanical properties :
#
#
# Convention : Reuss Voigt Hill
#
# Bulk Modulus (GPa) = 15.37770 53.43547 34.40659
# Shear Modulus (GPa) = 13.56276 58.18684 35.87480
#
# Velocity S-wave (km/s) = 2.82479 5.85092 4.59416
# Velocity P-wave (km/s) = 4.43694 8.77964 6.95588
#
# Compressibility (1/GPa) = 0.06502922
#
# Stress axis : x y z
#
# Youngs Moduli (GPa) = 56.15238 99.83010 8.64846
#
# Poissons Ratio (x) = 0.19230 0.20578
# Poissons Ratio (y) = 0.10817 0.11669
# Poissons Ratio (z) = 1.33606 1.34693
#
# Static dielectric constant tensor:
#      x y z
#    x 1.567440 0.000000 0.000000 
#    y 0.000000 1.605270 0.000000 
#    z 0.000000 0.000000 1.577410 
# 
# From -- ./inp_files/4608.got.cif
#   From: 2010.05.17/outbox.cif.g08.bks.cpg/sg47_3_cif.got.tgz:4608.got - 2010.06.03 20:15:42.
