data_PCOD9385630
_publ_section_title
;
Structure prediction by ZEFSAII (Michael W. Deem and Ramdas Pophale) SiO2 
 PCOD9385630
Probable space group: P M M M
;
_chemical_formula_sum "Si O2"
_cell_formula_units_Z 40
_cell_length_a 7.372337
_cell_length_b 29.419355
_cell_length_c 8.199846
_cell_angle_alpha 90.000000
_cell_angle_beta 90.000000
_cell_angle_gamma 90.000000
_cell_volume 1778.459674
_symmetry_space_group_name_H-M "P M M M"
_symmetry_group_IT_number 47
_symmetry_cell_setting 'orthorhombic'
loop_
_space_group_symop_operation_xyz
x,y,z
-x,-y,z
x,-y,-z
-x,y,-z
-x,-y,-z
x,y,-z
-x,y,z
x,-y,z
loop_
_atom_site_type_symbol
_atom_site_label
_atom_site_fract_x
_atom_site_fract_y
_atom_site_fract_z
Si Si1 0.213348 0.192494 0.500000
Si Si2 0.789230 0.147048 0.176172
Si Si3 0.281160 0.701017 0.500000
Si Si4 0.720488 0.550099 0.690878
Si Si5 0.281020 0.949488 0.310289
Si Si6 0.278557 0.353536 0.180118
O O1 0.292005 0.171086 0.665109
O O2 0.230598 0.246404 0.500000
O O3 0.000000 0.180010 0.500000
O O4 0.782760 0.093050 0.206866
O O5 0.000000 0.160788 0.169524
O O6 0.708043 0.157908 0.000000
O O7 0.500000 0.697880 0.500000
O O8 0.218435 0.676144 0.665310
O O9 0.770340 0.555368 0.500000
O O10 0.500000 0.549906 0.695508
O O11 0.780229 0.500000 0.746604
O O12 0.778584 0.594288 0.789239
O O13 0.226287 0.943262 0.500000
O O14 0.500000 0.949004 0.306749
O O15 0.222561 0.000000 0.257884
O O16 0.500000 0.352959 0.181881
O O17 0.221543 0.338009 0.000000
#
# Coordination Sequence:
#
# PCOD9385630 Si02
#       6
#     4   8   4   8   8   8
#     4  10  22  40  57  74  99 130 164 212 265 304
#     4  10  21  37  57  80 104 133 172 213 254 303
#     4  10  20  34  51  71  95 124 160 205 251 298
#     4   8  12  19  33  54  85 126 163 191 227 281
#     4   9  18  33  54  81 113 146 176 206 244 293
#     4   9  16  26  41  63  93 126 159 197 242 291
#
# _framework density 22.491372999999999
#
# number of rings (size 3 to 8) (size 9 to 14) (size 15 to 20)
#    0.000    2.800    2.000    1.200    0.000    3.200 
#    0.000    5.000    0.000    0.000    0.000    0.000 
#    0.000    1.600    0.000    1.800    0.000    2.000 
#
# Total GULP energy -223358.274919 kJ/mol
# GULP energy per Si atom -5583.956873 kJ/mol
# Density = 2.244018 g / cm^3
# Si number density = 22.491373 Si / 1000 Ang^3
#
#
#
# Elastic Constant Matrix: (Units=GPa)
#
#
# Indices 1 2 3 4 5 6 
#
# 1 80.0652 -9.5089 10.0141 0.0000 0.0000 0.0000
# 2 -9.5089 120.8779 95.3112 0.0000 0.0000 0.0000
# 3 10.0141 95.3112 205.7532 0.0000 0.0000 0.0000
# 4 0.0000 0.0000 0.0000 -27.5563 0.0000 0.0000
# 5 0.0000 0.0000 0.0000 0.0000 -13.4976 0.0000
# 6 0.0000 0.0000 0.0000 0.0000 0.0000 9.2980
#
#
#
# Elastic Compliance Matrix: (Units=1/GPa)
#
#
# Indices 1 2 3 4 5 6 
#
# 1 0.012992 0.002396 -0.001742 0.000000 0.000000 0.000000
# 2 0.002396 0.013475 -0.006359 0.000000 0.000000 0.000000
# 3 -0.001742 -0.006359 0.007890 0.000000 0.000000 0.000000
# 4 0.000000 0.000000 0.000000 -0.036289 0.000000 0.000000
# 5 0.000000 0.000000 0.000000 0.000000 -0.074087 0.000000
# 6 0.000000 0.000000 0.000000 0.000000 0.000000 0.107550
#
#
# Mechanical properties :
#
#
# Convention : Reuss Voigt Hill
#
# Bulk Modulus (GPa) = 43.57753 66.48100 55.02926
# Shear Modulus (GPa) = 98.83403 14.37417 56.60410
#
# Velocity S-wave (km/s) = 6.63615 2.53078 5.02212
# Velocity P-wave (km/s) = 8.83941 6.17757 7.62554
#
# Compressibility (1/GPa) = 0.02294761
#
# Stress axis : x y z
#
# Youngs Moduli (GPa) = 76.96912 74.21160 126.73491
#
# Poissons Ratio (x) = -0.17779 0.22078
# Poissons Ratio (y) = -0.18439 0.80586
# Poissons Ratio (z) = 0.13409 0.47188
#
# Static dielectric constant tensor:
#      x y z
#    x 1.868910 0.000000 0.000000 
#    y 0.000000 1.777500 0.000000 
#    z 0.000000 0.000000 1.839640 
# 
# From -- ./inp_files/1803.got.cif
#   From: 2010.05.17/outbox.cif.g08.bks.cpg/sg47_1_cif.got.tgz:1803.got - 2010.06.03 20:15:42.
