data_PCOD9385428
_publ_section_title
;
Structure prediction by ZEFSAII (Michael W. Deem and Ramdas Pophale) SiO2 
 PCOD9385428
Probable space group: P M M M
;
_chemical_formula_sum "Si O2"
_cell_formula_units_Z 52
_cell_length_a 7.647723
_cell_length_b 20.737077
_cell_length_c 15.157355
_cell_angle_alpha 90.000000
_cell_angle_beta 90.000000
_cell_angle_gamma 90.000000
_cell_volume 2403.826464
_symmetry_space_group_name_H-M "P M M M"
_symmetry_group_IT_number 47
_symmetry_cell_setting 'orthorhombic'
loop_
_space_group_symop_operation_xyz
x,y,z
-x,-y,z
x,-y,-z
-x,y,-z
-x,-y,-z
x,y,-z
-x,y,z
x,-y,z
loop_
_atom_site_type_symbol
_atom_site_label
_atom_site_fract_x
_atom_site_fract_y
_atom_site_fract_z
Si Si1 0.210409 0.575782 0.094651
Si Si2 0.293118 0.572841 0.712581
Si Si3 0.706951 0.193613 0.722383
Si Si4 0.705320 0.143409 0.900892
Si Si5 0.285091 0.309243 0.399479
Si Si6 0.211266 0.927236 0.398302
Si Si7 0.196708 0.000000 0.106747
O O1 0.262867 0.500000 0.094806
O O2 0.271163 0.601416 0.188671
O O3 0.000000 0.577819 0.094979
O O4 0.270514 0.603442 0.000000
O O5 0.500000 0.567231 0.697768
O O6 0.218609 0.500000 0.709768
O O7 0.225220 0.622816 0.640954
O O8 0.500000 0.205332 0.732883
O O9 0.782232 0.184517 0.820631
O O10 0.777073 0.251953 0.663817
O O11 0.727139 0.127834 0.667276
O O12 0.500000 0.158163 0.907752
O O13 0.718560 0.068302 0.871843
O O14 0.780960 0.150297 0.000000
O O15 0.230045 0.299826 0.500000
O O16 0.500000 0.308821 0.399057
O O17 0.266226 0.914721 0.500000
O O18 0.000000 0.926814 0.397338
O O19 0.267962 0.000000 0.374271
O O20 0.000000 0.000000 0.142559
O O21 0.191134 0.000000 0.000000
#
# Coordination Sequence:
#
# PCOD9385428 Si02
#       7
#     8   8   8   8   8   8   4
#     4   8  14  26  45  69  99 134 165 194 237 292
#     4   9  17  29  48  75 102 129 167 211 252 299
#     4  10  20  33  52  74  96 128 170 207 243 293
#     4   9  18  32  48  68  98 131 162 200 243 287
#     4   9  18  33  51  72 100 130 162 207 260 306
#     4   9  19  35  52  72 100 130 159 198 250 298
#     4   9  17  29  47  71  96 125 162 199 237 282
#
# _framework density 21.632176999999999
#
# number of rings (size 3 to 8) (size 9 to 14) (size 15 to 20)
#    0.000    3.000    0.000    1.615    1.077    3.385 
#    0.000    5.385    0.000    4.154    0.000    4.308 
#    0.000    0.000    0.000    0.000    0.000    0.000 
#
# Total GULP energy -289954.745543 kJ/mol
# GULP energy per Si atom -5576.052799 kJ/mol
# Density = 2.158294 g / cm^3
# Si number density = 21.632177 Si / 1000 Ang^3
#
#
#
# Elastic Constant Matrix: (Units=GPa)
#
#
# Indices 1 2 3 4 5 6 
#
# 1 39.3599 1.4823 5.8635 0.0000 0.0000 0.0000
# 2 1.4823 89.2997 92.7468 0.0000 0.0000 0.0000
# 3 5.8635 92.7468 173.7017 0.0000 0.0000 0.0000
# 4 0.0000 0.0000 0.0000 170.7037 0.0000 0.0000
# 5 0.0000 0.0000 0.0000 0.0000 -56.8649 0.0000
# 6 0.0000 0.0000 0.0000 0.0000 0.0000 -75.0152
#
#
#
# Elastic Compliance Matrix: (Units=1/GPa)
#
#
# Indices 1 2 3 4 5 6 
#
# 1 0.025580 0.001060 -0.001429 0.000000 0.000000 0.000000
# 2 0.001060 0.025183 -0.013482 0.000000 0.000000 0.000000
# 3 -0.001429 -0.013482 0.013004 0.000000 0.000000 0.000000
# 4 0.000000 0.000000 0.000000 0.005858 0.000000 0.000000
# 5 0.000000 0.000000 0.000000 0.000000 -0.017586 0.000000
# 6 0.000000 0.000000 0.000000 0.000000 0.000000 -0.013331
#
#
# Mechanical properties :
#
#
# Convention : Reuss Voigt Hill
#
# Bulk Modulus (GPa) = 27.72881 55.83850 41.78366
# Shear Modulus (GPa) = 63.74838 21.24930 42.49884
#
# Velocity S-wave (km/s) = 5.43445 3.13757 4.43720
# Velocity P-wave (km/s) = 7.22660 6.24456 6.75345
#
# Compressibility (1/GPa) = 0.03606357
#
# Stress axis : x y z
#
# Youngs Moduli (GPa) = 39.09368 39.70881 76.89946
#
# Poissons Ratio (x) = -0.04209 0.10993
# Poissons Ratio (y) = -0.04144 1.03678
# Poissons Ratio (z) = 0.05588 0.53536
#
# Static dielectric constant tensor:
#      x y z
#    x 1.797230 0.000000 0.000000 
#    y 0.000000 1.776350 0.000000 
#    z 0.000000 0.000000 1.819300 
# 
# From -- ./inp_files/21397.got.cif
#   From: 2010.05.17/outbox.cif.g08.bks.cpg/sg47_11_cif.got.tgz:21397.got - 2010.06.03 20:15:42.
