data_PCOD9385175
_publ_section_title
;
Structure prediction by ZEFSAII (Michael W. Deem and Ramdas Pophale) SiO2 
 PCOD9385175
Probable space group: P M M M
;
_chemical_formula_sum "Si O2"
_cell_formula_units_Z 48
_cell_length_a 9.203539
_cell_length_b 9.175148
_cell_length_c 32.072031
_cell_angle_alpha 90.000000
_cell_angle_beta 90.000000
_cell_angle_gamma 90.000000
_cell_volume 2708.285212
_symmetry_space_group_name_H-M "P M M M"
_symmetry_group_IT_number 47
_symmetry_cell_setting 'orthorhombic'
loop_
_space_group_symop_operation_xyz
x,y,z
-x,-y,z
x,-y,-z
-x,y,-z
-x,-y,-z
x,y,-z
-x,y,z
x,-y,z
loop_
_atom_site_type_symbol
_atom_site_label
_atom_site_fract_x
_atom_site_fract_y
_atom_site_fract_z
Si Si1 0.332574 0.178029 0.500000
Si Si2 0.177091 0.667939 0.916044
Si Si3 0.167272 0.822271 0.583488
Si Si4 0.674524 0.671259 0.246168
Si Si5 0.824989 0.171076 0.831102
Si Si6 0.177447 0.831716 0.000000
Si Si7 0.326802 0.172903 0.667992
O O1 0.500000 0.223335 0.500000
O O2 0.251644 0.225737 0.457956
O O3 0.330454 0.000000 0.500000
O O4 0.224150 0.500000 0.915539
O O5 0.221177 0.751350 0.874097
O O6 0.000000 0.668483 0.916557
O O7 0.224580 0.749449 0.958068
O O8 0.244666 0.777865 0.626340
O O9 0.000000 0.776506 0.582340
O O10 0.170078 0.000000 0.583181
O O11 0.500000 0.688114 0.242277
O O12 0.708715 0.500000 0.245243
O O13 0.751618 0.752949 0.208306
O O14 0.716854 0.741138 0.290532
O O15 0.000000 0.184880 0.827855
O O16 0.789737 0.000000 0.832419
O O17 0.000000 0.830422 0.000000
O O18 0.222777 0.000000 0.000000
O O19 0.500000 0.190752 0.661835
O O20 0.299423 0.000000 0.674167
#
# Coordination Sequence:
#
# PCOD9385175 Si02
#       7
#     4   8   8   8   8   4   8
#     4   9  15  23  37  59  90 127 162 195 236 286
#     4   9  16  26  41  63  93 128 164 203 249 299
#     4   9  16  25  39  62  92 123 156 196 240 285
#     4  10  21  36  53  73  97 127 164 204 246 295
#     4  10  20  33  50  73 100 129 162 202 249 299
#     4   9  15  23  37  59  90 127 166 207 250 297
#     4   9  17  30  47  66  90 121 156 194 237 286
#
# _framework density 17.723392
#
# number of rings (size 3 to 8) (size 9 to 14) (size 15 to 20)
#    0.000    2.667    0.000    2.500    0.000    8.667 
#    0.000    1.667    0.000    0.000    0.000    1.167 
#    0.000    9.333    0.000    0.000    0.000    0.000 
#
# Total GULP energy -267723.084348 kJ/mol
# GULP energy per Si atom -5577.564257 kJ/mol
# Density = 1.768305 g / cm^3
# Si number density = 17.723392 Si / 1000 Ang^3
#
#
#
# Elastic Constant Matrix: (Units=GPa)
#
#
# Indices 1 2 3 4 5 6 
#
# 1 43.3505 44.2280 71.4489 0.0000 0.0000 0.0000
# 2 44.2280 108.0452 103.3944 0.0000 0.0000 0.0000
# 3 71.4489 103.3944 233.1075 0.0000 0.0000 0.0000
# 4 0.0000 0.0000 0.0000 -8.8808 0.0000 0.0000
# 5 0.0000 0.0000 0.0000 0.0000 124.5245 0.0000
# 6 0.0000 0.0000 0.0000 0.0000 0.0000 13.3376
#
#
#
# Elastic Compliance Matrix: (Units=1/GPa)
#
#
# Indices 1 2 3 4 5 6 
#
# 1 0.052845 -0.010654 -0.011472 0.000000 0.000000 0.000000
# 2 -0.010654 0.018229 -0.004820 0.000000 0.000000 0.000000
# 3 -0.011472 -0.004820 0.009944 0.000000 0.000000 0.000000
# 4 0.000000 0.000000 0.000000 -0.112602 0.000000 0.000000
# 5 0.000000 0.000000 0.000000 0.000000 0.008031 0.000000
# 6 0.000000 0.000000 0.000000 0.000000 0.000000 0.074976
#
#
# Mechanical properties :
#
#
# Convention : Reuss Voigt Hill
#
# Bulk Modulus (GPa) = 36.86440 91.40510 64.13475
# Shear Modulus (GPa) = 43.72333 36.82505 40.27419
#
# Velocity S-wave (km/s) = 4.97226 4.56320 4.77211
# Velocity P-wave (km/s) = 7.33550 8.91340 8.16267
#
# Compressibility (1/GPa) = 0.02712644
#
# Stress axis : x y z
#
# Youngs Moduli (GPa) = 18.92335 54.85758 100.56430
#
# Poissons Ratio (x) = 0.58445 1.15364
# Poissons Ratio (y) = 0.20161 0.48471
# Poissons Ratio (z) = 0.21708 0.26441
#
# Static dielectric constant tensor:
#      x y z
#    x 1.594660 0.000000 0.000000 
#    y 0.000000 1.588410 0.000000 
#    z 0.000000 0.000000 1.579950 
# 
# From -- ./inp_files/34177.got.cif
#   From: 2010.05.17/outbox.cif.g08.bks.cpg/sg47_18_cif.got.tgz:34177.got - 2010.06.03 20:15:42.
