data_PCOD9385988
_publ_section_title
;
Structure prediction by ZEFSAII (Michael W. Deem and Ramdas Pophale) SiO2 
 PCOD9385988
Probable space group: P M M M
;
_chemical_formula_sum "Si O2"
_cell_formula_units_Z 40
_cell_length_a 28.536200
_cell_length_b 7.913525
_cell_length_c 9.310849
_cell_angle_alpha 90.000000
_cell_angle_beta 90.000000
_cell_angle_gamma 90.000000
_cell_volume 2102.593911
_symmetry_space_group_name_H-M "P M M M"
_symmetry_group_IT_number 47
_symmetry_cell_setting 'orthorhombic'
loop_
_space_group_symop_operation_xyz
x,y,z
-x,-y,z
x,-y,-z
-x,y,-z
-x,-y,-z
x,y,-z
-x,y,z
x,-y,z
loop_
_atom_site_type_symbol
_atom_site_label
_atom_site_fract_x
_atom_site_fract_y
_atom_site_fract_z
Si Si1 0.000000 0.201543 0.337046
Si Si2 0.815225 0.796957 0.337840
Si Si3 0.274930 0.206130 0.835096
Si Si4 0.446082 0.500000 0.175396
Si Si5 0.092635 0.298620 0.837299
Si Si6 0.620031 0.194257 0.824899
O O1 0.046404 0.252922 0.251542
O O2 0.000000 0.270276 0.500000
O O3 0.000000 0.000000 0.346084
O O4 0.820479 0.731763 0.500000
O O5 0.767908 0.733468 0.261734
O O6 0.860830 0.759995 0.243890
O O7 0.810995 0.000000 0.345564
O O8 0.327242 0.249266 0.783335
O O9 0.274065 0.000000 0.837728
O O10 0.268891 0.263105 0.000000
O O11 0.500000 0.500000 0.222032
O O12 0.418044 0.331802 0.220800
O O13 0.445941 0.500000 0.000000
O O14 0.094590 0.500000 0.845701
O O15 0.090479 0.229957 0.000000
O O16 0.611384 0.000000 0.778465
O O17 0.620383 0.191303 0.000000
#
# Coordination Sequence:
#
# PCOD9385988 Si02
#       6
#     4   8   8   4   8   8
#     4  11  24  41  62  86 108 135 174 217 264 314
#     4  10  20  34  54  80 108 137 171 214 264 317
#     4   8  14  27  47  68  94 131 170 207 252 307
#     4   9  16  24  36  60  93 127 165 210 259 312
#     4  11  24  40  57  80 109 141 178 216 257 309
#     4   8  14  25  40  59  87 126 168 209 258 313
#
# _framework density 19.024118999999999
#
# number of rings (size 3 to 8) (size 9 to 14) (size 15 to 20)
#    0.000    2.600    0.000    3.600    0.000    7.600 
#    1.800    2.000    0.000    0.000    0.000    0.000 
#    0.000    1.600    0.000    7.800    0.000    8.000 
#
# Total GULP energy -223147.068919 kJ/mol
# GULP energy per Si atom -5578.676723 kJ/mol
# Density = 1.898082 g / cm^3
# Si number density = 19.024119 Si / 1000 Ang^3
#
#
#
# Elastic Constant Matrix: (Units=GPa)
#
#
# Indices 1 2 3 4 5 6 
#
# 1 206.5156 52.4515 82.2285 0.0000 0.0000 0.0000
# 2 52.4515 56.4540 24.9077 0.0000 0.0000 0.0000
# 3 82.2285 24.9077 109.0298 0.0000 0.0000 0.0000
# 4 0.0000 0.0000 0.0000 35.8434 0.0000 0.0000
# 5 0.0000 0.0000 0.0000 0.0000 -10.8493 0.0000
# 6 0.0000 0.0000 0.0000 0.0000 0.0000 49.6740
#
#
#
# Elastic Compliance Matrix: (Units=1/GPa)
#
#
# Indices 1 2 3 4 5 6 
#
# 1 0.008185 -0.005428 -0.004933 0.000000 0.000000 0.000000
# 2 -0.005428 0.023299 -0.001229 0.000000 0.000000 0.000000
# 3 -0.004933 -0.001229 0.013173 0.000000 0.000000 0.000000
# 4 0.000000 0.000000 0.000000 0.027899 0.000000 0.000000
# 5 0.000000 0.000000 0.000000 0.000000 -0.092172 0.000000
# 6 0.000000 0.000000 0.000000 0.000000 0.000000 0.020131
#
#
# Mechanical properties :
#
#
# Convention : Reuss Voigt Hill
#
# Bulk Modulus (GPa) = 46.56124 76.79719 61.67921
# Shear Modulus (GPa) = 162.05136 29.09440 95.57288
#
# Velocity S-wave (km/s) = 9.23943 3.91492 7.09555
# Velocity P-wave (km/s) = 11.76225 7.80330 9.98103
#
# Compressibility (1/GPa) = 0.02147709
#
# Stress axis : x y z
#
# Youngs Moduli (GPa) = 122.17262 42.92002 75.91356
#
# Poissons Ratio (x) = 0.23299 0.37448
# Poissons Ratio (y) = 0.66320 0.09327
# Poissons Ratio (z) = 0.60268 0.05273
#
# Static dielectric constant tensor:
#      x y z
#    x 1.591900 0.000000 0.000000 
#    y 0.000000 1.680380 0.000000 
#    z 0.000000 0.000000 1.658200 
# 
# From -- ./inp_files/12972.got.cif
#   From: 2010.05.17/outbox.cif.g08.bks.cpg/sg47_7_cif.got.tgz:12972.got - 2010.06.03 20:15:42.
