data_PCOD9385110
_publ_section_title
;
Structure prediction by ZEFSAII (Michael W. Deem and Ramdas Pophale) SiO2 
 PCOD9385110
Probable space group: P M M M
;
_chemical_formula_sum "Si O2"
_cell_formula_units_Z 48
_cell_length_a 32.364016
_cell_length_b 9.429107
_cell_length_c 7.513253
_cell_angle_alpha 90.000000
_cell_angle_beta 90.000000
_cell_angle_gamma 90.000000
_cell_volume 2292.772609
_symmetry_space_group_name_H-M "P M M M"
_symmetry_group_IT_number 47
_symmetry_cell_setting 'orthorhombic'
loop_
_space_group_symop_operation_xyz
x,y,z
-x,-y,z
x,-y,-z
-x,y,-z
-x,-y,-z
x,y,-z
-x,y,z
x,-y,z
loop_
_atom_site_type_symbol
_atom_site_label
_atom_site_fract_x
_atom_site_fract_y
_atom_site_fract_z
Si Si1 0.705556 0.661018 0.713517
Si Si2 0.044398 0.334789 0.286065
Si Si3 0.865125 0.338224 0.211122
Si Si4 0.546360 0.663727 0.283080
Si Si5 0.373974 0.837072 0.717925
Si Si6 0.787686 0.160500 0.213557
O O1 0.701623 0.652747 0.500000
O O2 0.707761 0.500000 0.781910
O O3 0.665304 0.745545 0.778097
O O4 0.746975 0.747985 0.751068
O O5 0.043628 0.334951 0.500000
O O6 0.045127 0.500000 0.226523
O O7 0.088895 0.275083 0.234634
O O8 0.000000 0.274033 0.225270
O O9 0.864173 0.500000 0.284095
O O10 0.828268 0.241852 0.283041
O O11 0.858659 0.350059 0.000000
O O12 0.546440 0.665531 0.500000
O O13 0.500000 0.704926 0.226567
O O14 0.553595 0.500000 0.230582
O O15 0.583336 0.764270 0.224168
O O16 0.373878 0.836291 0.500000
O O17 0.370790 0.000000 0.774128
O O18 0.783919 0.000000 0.282271
O O19 0.791864 0.151226 0.000000
#
# Coordination Sequence:
#
# PCOD9385110 Si02
#       6
#     8   8   8   8   8   8
#     4  10  20  33  50  71  94 122 157 196 238 285
#     4   8  14  25  42  66  95 123 151 187 230 272
#     4   9  17  29  46  68  92 118 151 191 232 275
#     4   8  13  21  33  50  76 113 154 192 231 277
#     4   9  16  25  38  58  86 118 151 190 235 282
#     4  10  21  36  52  70  95 126 158 195 240 287
#
# _framework density 20.935348999999999
#
# number of rings (size 3 to 8) (size 9 to 14) (size 15 to 20)
#    0.000    3.000    0.000    2.500    0.000    5.333 
#    0.000    5.000    0.000    0.500    0.000    3.500 
#    0.000    0.667    0.000    7.000    0.000    9.667 
#
# Total GULP energy -267745.983566 kJ/mol
# GULP energy per Si atom -5578.041324 kJ/mol
# Density = 2.088770 g / cm^3
# Si number density = 20.935349 Si / 1000 Ang^3
#
#
#
# Elastic Constant Matrix: (Units=GPa)
#
#
# Indices 1 2 3 4 5 6 
#
# 1 238.9596 131.3523 0.8242 0.0000 0.0000 0.0000
# 2 131.3523 155.2160 6.7638 0.0000 0.0000 0.0000
# 3 0.8242 6.7638 53.2601 0.0000 0.0000 0.0000
# 4 0.0000 0.0000 0.0000 4.7304 0.0000 0.0000
# 5 0.0000 0.0000 0.0000 0.0000 25.1388 0.0000
# 6 0.0000 0.0000 0.0000 0.0000 0.0000 -40.8563
#
#
#
# Elastic Compliance Matrix: (Units=1/GPa)
#
#
# Indices 1 2 3 4 5 6 
#
# 1 0.007852 -0.006677 0.000726 0.000000 0.000000 0.000000
# 2 -0.006677 0.012156 -0.001440 0.000000 0.000000 0.000000
# 3 0.000726 -0.001440 0.018947 0.000000 0.000000 0.000000
# 4 0.000000 0.000000 0.000000 0.211397 0.000000 0.000000
# 5 0.000000 0.000000 0.000000 0.000000 0.039779 0.000000
# 6 0.000000 0.000000 0.000000 0.000000 0.000000 -0.024476
#
#
# Mechanical properties :
#
#
# Convention : Reuss Voigt Hill
#
# Bulk Modulus (GPa) = 41.36677 80.59071 60.97874
# Shear Modulus (GPa) = 17.33132 18.36894 17.85013
#
# Velocity S-wave (km/s) = 2.88036 2.96533 2.92315
# Velocity P-wave (km/s) = 5.55555 7.09245 6.37052
#
# Compressibility (1/GPa) = 0.02417399
#
# Stress axis : x y z
#
# Youngs Moduli (GPa) = 127.34889 82.26596 52.77748
#
# Poissons Ratio (x) = 0.54928 -0.03834
# Poissons Ratio (y) = 0.85029 0.07602
# Poissons Ratio (z) = -0.09251 0.11850
#
# Static dielectric constant tensor:
#      x y z
#    x 1.747230 0.000000 0.000000 
#    y 0.000000 1.726500 0.000000 
#    z 0.000000 0.000000 1.815140 
# 
# From -- ./inp_files/2442.got.cif
#   From: 2010.05.17/outbox.cif.g08.bks.cpg/sg47_2_cif.got.tgz:2442.got - 2010.06.03 20:15:42.
