data_PCOD9385427
_publ_section_title
;
Structure prediction by ZEFSAII (Michael W. Deem and Ramdas Pophale) SiO2 
 PCOD9385427
Probable space group: P M M M
;
_chemical_formula_sum "Si O2"
_cell_formula_units_Z 52
_cell_length_a 21.532852
_cell_length_b 15.403031
_cell_length_c 7.510238
_cell_angle_alpha 90.000000
_cell_angle_beta 90.000000
_cell_angle_gamma 90.000000
_cell_volume 2490.929551
_symmetry_space_group_name_H-M "P M M M"
_symmetry_group_IT_number 47
_symmetry_cell_setting 'orthorhombic'
loop_
_space_group_symop_operation_xyz
x,y,z
-x,-y,z
x,-y,-z
-x,y,-z
-x,-y,-z
x,y,-z
-x,y,z
x,-y,z
loop_
_atom_site_type_symbol
_atom_site_label
_atom_site_fract_x
_atom_site_fract_y
_atom_site_fract_z
Si Si1 0.911813 0.405410 0.207005
Si Si2 0.068299 0.789309 0.217480
Si Si3 0.232589 0.593496 0.284454
Si Si4 0.574293 0.000000 0.801522
Si Si5 0.188040 0.900377 0.212999
Si Si6 0.297992 0.232418 0.284892
Si Si7 0.430218 0.191385 0.704084
O O1 0.930656 0.500000 0.283641
O O2 0.930214 0.311233 0.280746
O O3 0.837459 0.404355 0.216850
O O4 0.930624 0.406033 0.000000
O O5 0.128196 0.844530 0.278639
O O6 0.000000 0.825873 0.263454
O O7 0.071851 0.786420 0.000000
O O8 0.230074 0.596684 0.500000
O O9 0.260469 0.500000 0.234181
O O10 0.266685 0.679017 0.221465
O O11 0.587055 0.910760 0.704666
O O12 0.500000 0.000000 0.819315
O O13 0.602170 0.000000 0.000000
O O14 0.251731 0.847438 0.245596
O O15 0.189660 0.000000 0.280046
O O16 0.181056 0.905260 0.000000
O O17 0.302642 0.234857 0.500000
O O18 0.368260 0.230261 0.212599
O O19 0.434798 0.221019 0.500000
O O20 0.500000 0.201472 0.782411
#
# Coordination Sequence:
#
# PCOD9385427 Si02
#       7
#     8   8   8   4   8   8   8
#     4   9  16  27  46  71  97 123 153 193 241 291
#     4   9  17  30  48  70  97 127 159 197 241 289
#     4   9  17  30  49  72  97 124 155 194 241 290
#     4   9  17  29  45  67  95 125 158 195 236 281
#     4  10  21  35  50  71  98 127 163 206 246 281
#     4  10  20  33  52  74  96 127 163 199 241 289
#     4   9  18  32  48  67  95 130 165 198 236 287
#
# _framework density 20.875741000000001
#
# number of rings (size 3 to 8) (size 9 to 14) (size 15 to 20)
#    0.000    2.692    1.538    0.231    1.077    2.462 
#    0.000    3.077    0.000    2.308    0.000    6.462 
#    0.000    0.000    0.000    9.077    0.000    9.538 
#
# Total GULP energy -289721.119833 kJ/mol
# GULP energy per Si atom -5571.559997 kJ/mol
# Density = 2.082823 g / cm^3
# Si number density = 20.875741 Si / 1000 Ang^3
#
#
#
# Elastic Constant Matrix: (Units=GPa)
#
#
# Indices 1 2 3 4 5 6 
#
# 1 176.3538 85.6546 4.4113 0.0000 0.0000 0.0000
# 2 85.6546 143.0744 6.2638 0.0000 0.0000 0.0000
# 3 4.4113 6.2638 58.8029 0.0000 0.0000 0.0000
# 4 0.0000 0.0000 0.0000 6.8170 0.0000 0.0000
# 5 0.0000 0.0000 0.0000 0.0000 1.2342 0.0000
# 6 0.0000 0.0000 0.0000 0.0000 0.0000 -8.8665
#
#
#
# Elastic Compliance Matrix: (Units=1/GPa)
#
#
# Indices 1 2 3 4 5 6 
#
# 1 0.007996 -0.004783 -0.000090 0.000000 0.000000 0.000000
# 2 -0.004783 0.009883 -0.000694 0.000000 0.000000 0.000000
# 3 -0.000090 -0.000694 0.017087 0.000000 0.000000 0.000000
# 4 0.000000 0.000000 0.000000 0.146693 0.000000 0.000000
# 5 0.000000 0.000000 0.000000 0.000000 0.810245 0.000000
# 6 0.000000 0.000000 0.000000 0.000000 0.000000 -0.112784
#
#
# Mechanical properties :
#
#
# Convention : Reuss Voigt Hill
#
# Bulk Modulus (GPa) = 41.96184 63.43224 52.69704
# Shear Modulus (GPa) = 5.56671 18.63035 12.09853
#
# Velocity S-wave (km/s) = 1.63474 2.99061 2.41000
# Velocity P-wave (km/s) = 4.86904 6.50973 5.74823
#
# Compressibility (1/GPa) = 0.02383118
#
# Stress axis : x y z
#
# Youngs Moduli (GPa) = 125.06734 101.18280 58.52514
#
# Poissons Ratio (x) = 0.48394 0.00529
# Poissons Ratio (y) = 0.59818 0.04061
# Poissons Ratio (z) = 0.01130 0.07022
#
# Static dielectric constant tensor:
#      x y z
#    x 1.759070 0.000000 0.000000 
#    y 0.000000 1.767580 0.000000 
#    z 0.000000 0.000000 1.812860 
# 
# From -- ./inp_files/11016.got.cif
#   From: 2010.05.17/outbox.cif.g08.bks.cpg/sg47_6_cif.got.tgz:11016.got - 2010.06.03 20:15:42.
