data_PCOD9385874
_publ_section_title
;
Structure prediction by ZEFSAII (Michael W. Deem and Ramdas Pophale) SiO2 
 PCOD9385874
Probable space group: P M M M
;
_chemical_formula_sum "Si O2"
_cell_formula_units_Z 52
_cell_length_a 8.921262
_cell_length_b 10.980015
_cell_length_c 31.154889
_cell_angle_alpha 90.000000
_cell_angle_beta 90.000000
_cell_angle_gamma 90.000000
_cell_volume 3051.795551
_symmetry_space_group_name_H-M "P M M M"
_symmetry_group_IT_number 47
_symmetry_cell_setting 'orthorhombic'
loop_
_space_group_symop_operation_xyz
x,y,z
-x,-y,z
x,-y,-z
-x,y,-z
-x,-y,-z
x,y,-z
-x,y,z
x,-y,z
loop_
_atom_site_type_symbol
_atom_site_label
_atom_site_fract_x
_atom_site_fract_y
_atom_site_fract_z
Si Si1 0.329592 0.146989 0.087669
Si Si2 0.171719 0.645301 0.328910
Si Si3 0.826524 0.851250 0.000000
Si Si4 0.318633 0.000000 0.549143
Si Si5 0.832004 0.356785 0.500000
Si Si6 0.320017 0.357306 0.763052
Si Si7 0.320324 0.742715 0.584960
Si Si8 0.179718 0.856832 0.821327
O O1 0.500000 0.191892 0.092599
O O2 0.255336 0.190329 0.043410
O O3 0.232933 0.170470 0.130063
O O4 0.336566 0.000000 0.084252
O O5 0.168215 0.500000 0.334958
O O6 0.263266 0.667178 0.285348
O O7 0.248204 0.699463 0.370966
O O8 0.000000 0.688245 0.324208
O O9 0.000000 0.815084 0.000000
O O10 0.823346 0.000000 0.000000
O O11 0.277223 0.118569 0.575251
O O12 0.500000 0.000000 0.545788
O O13 0.261605 0.000000 0.500000
O O14 0.848371 0.500000 0.500000
O O15 0.742670 0.323760 0.542902
O O16 0.000000 0.301147 0.500000
O O17 0.500000 0.351450 0.765237
O O18 0.276814 0.500000 0.773565
O O19 0.250897 0.249521 0.792101
O O20 0.500000 0.729904 0.586833
O O21 0.000000 0.851684 0.818214
O O22 0.223968 0.000000 0.811767
#
# Coordination Sequence:
#
# PCOD9385874 Si02
#       8
#     8   8   4   4   4   8   8   8
#     4   9  16  26  42  66  99 139 181 225 273 324
#     4  10  21  38  58  80 108 137 166 209 262 309
#     4   9  15  23  37  61  96 137 180 225 274 327
#     4   9  18  36  56  76 104 136 168 206 246 287
#     4  11  23  36  51  76 108 135 162 203 254 301
#     4  10  21  38  60  84 108 139 182 226 269 323
#     4  11  21  36  58  79 102 134 172 209 248 299
#     4  10  20  34  53  79 111 145 181 224 275 328
#
# _framework density 17.039148999999998
#
# number of rings (size 3 to 8) (size 9 to 14) (size 15 to 20)
#    0.000    2.077    0.769    3.231    0.000    8.000 
#    1.385    1.923    0.000    0.000    0.000    0.538 
#    0.000    4.308    0.000    0.000    0.000    0.000 
#
# Total GULP energy -289832.921674 kJ/mol
# GULP energy per Si atom -5573.710032 kJ/mol
# Density = 1.700037 g / cm^3
# Si number density = 17.039149 Si / 1000 Ang^3
#
#
#
# Elastic Constant Matrix: (Units=GPa)
#
#
# Indices 1 2 3 4 5 6 
#
# 1 96.6047 44.9284 58.6590 0.0000 0.0000 0.0000
# 2 44.9284 80.3805 72.3294 0.0000 0.0000 0.0000
# 3 58.6590 72.3294 149.3003 0.0000 0.0000 0.0000
# 4 0.0000 0.0000 0.0000 15.2286 0.0000 0.0000
# 5 0.0000 0.0000 0.0000 0.0000 9.7574 0.0000
# 6 0.0000 0.0000 0.0000 0.0000 0.0000 22.4001
#
#
#
# Elastic Compliance Matrix: (Units=1/GPa)
#
#
# Indices 1 2 3 4 5 6 
#
# 1 0.014805 -0.005391 -0.003205 0.000000 0.000000 0.000000
# 2 -0.005391 0.024019 -0.009518 0.000000 0.000000 0.000000
# 3 -0.003205 -0.009518 0.012568 0.000000 0.000000 0.000000
# 4 0.000000 0.000000 0.000000 0.065666 0.000000 0.000000
# 5 0.000000 0.000000 0.000000 0.000000 0.102486 0.000000
# 6 0.000000 0.000000 0.000000 0.000000 0.000000 0.044643
#
#
# Mechanical properties :
#
#
# Convention : Reuss Voigt Hill
#
# Bulk Modulus (GPa) = 65.94693 75.34657 70.64675
# Shear Modulus (GPa) = 16.36829 19.50182 17.93505
#
# Velocity S-wave (km/s) = 3.10276 3.38676 3.24787
# Velocity P-wave (km/s) = 7.18494 7.72070 7.45763
#
# Compressibility (1/GPa) = 0.01516371
#
# Stress axis : x y z
#
# Youngs Moduli (GPa) = 67.54568 41.63419 79.56671
#
# Poissons Ratio (x) = 0.22446 0.25500
# Poissons Ratio (y) = 0.36415 0.75730
# Poissons Ratio (z) = 0.21648 0.39627
#
# Static dielectric constant tensor:
#      x y z
#    x 1.588290 0.000000 0.000000 
#    y 0.000000 1.569750 0.000000 
#    z 0.000000 0.000000 1.480670 
# 
# From -- ./inp_files/33339.got.cif
#   From: 2010.05.17/outbox.cif.g08.bks.cpg/sg47_17_cif.got.tgz:33339.got - 2010.06.03 20:15:42.
