data_PCOD9385491
_publ_section_title
;
Structure prediction by ZEFSAII (Michael W. Deem and Ramdas Pophale) SiO2 
 PCOD9385491
Probable space group: P M M M
;
_chemical_formula_sum "Si O2"
_cell_formula_units_Z 32
_cell_length_a 7.954318
_cell_length_b 23.066362
_cell_length_c 9.001983
_cell_angle_alpha 90.000000
_cell_angle_beta 90.000000
_cell_angle_gamma 90.000000
_cell_volume 1651.658441
_symmetry_space_group_name_H-M "P M M M"
_symmetry_group_IT_number 47
_symmetry_cell_setting 'orthorhombic'
loop_
_space_group_symop_operation_xyz
x,y,z
-x,-y,z
x,-y,-z
-x,y,-z
-x,-y,-z
x,y,-z
-x,y,z
x,-y,z
loop_
_atom_site_type_symbol
_atom_site_label
_atom_site_fract_x
_atom_site_fract_y
_atom_site_fract_z
Si Si1 0.500000 0.930901 0.324052
Si Si2 0.798725 0.259069 0.332848
Si Si3 0.199627 0.500000 0.169905
Si Si4 0.300510 0.375965 0.830971
Si Si5 0.198640 0.860466 0.822174
O O1 0.500000 0.918063 0.500000
O O2 0.668144 0.903877 0.251426
O O3 0.500000 0.000000 0.303575
O O4 0.729860 0.253890 0.500000
O O5 0.753970 0.320292 0.260753
O O6 0.750678 0.203844 0.233712
O O7 0.000000 0.257032 0.341333
O O8 0.252626 0.561527 0.236525
O O9 0.000000 0.500000 0.162193
O O10 0.270497 0.500000 0.000000
O O11 0.500000 0.374541 0.841247
O O12 0.229232 0.372923 0.000000
O O13 0.000000 0.870531 0.782247
O O14 0.210343 0.863483 0.000000
#
# Coordination Sequence:
#
# PCOD9385491 Si02
#       5
#     4   8   4   8   8
#     4  11  25  43  65  95 131 170 207 246 299 365
#     4  10  21  37  57  82 113 150 192 239 295 357
#     4   9  17  31  52  75 102 141 188 238 290 347
#     4  10  20  33  52  79 110 144 185 236 293 353
#     4  10  22  41  66  94 125 163 209 260 308 357
#
# _framework density 19.374466000000002
#
# number of rings (size 3 to 8) (size 9 to 14) (size 15 to 20)
#    0.000    2.000    0.000    3.000    1.750    7.500 
#    0.000    3.125    0.000    3.750    0.000    0.000 
#    0.000    0.000    0.000    0.000    0.000    0.000 
#
# Total GULP energy -178582.113508 kJ/mol
# GULP energy per Si atom -5580.691047 kJ/mol
# Density = 1.933037 g / cm^3
# Si number density = 19.374466 Si / 1000 Ang^3
#
#
#
# Elastic Constant Matrix: (Units=GPa)
#
#
# Indices 1 2 3 4 5 6 
#
# 1 72.4489 61.9780 50.8898 0.0000 0.0000 0.0000
# 2 61.9780 156.2298 74.1670 0.0000 0.0000 0.0000
# 3 50.8898 74.1670 95.0156 0.0000 0.0000 0.0000
# 4 0.0000 0.0000 0.0000 153.0842 0.0000 0.0000
# 5 0.0000 0.0000 0.0000 0.0000 23.8441 0.0000
# 6 0.0000 0.0000 0.0000 0.0000 0.0000 41.1622
#
#
#
# Elastic Compliance Matrix: (Units=1/GPa)
#
#
# Indices 1 2 3 4 5 6 
#
# 1 0.024903 -0.005636 -0.008939 0.000000 0.000000 0.000000
# 2 -0.005636 0.011445 -0.005915 0.000000 0.000000 0.000000
# 3 -0.008939 -0.005915 0.019929 0.000000 0.000000 0.000000
# 4 0.000000 0.000000 0.000000 0.006532 0.000000 0.000000
# 5 0.000000 0.000000 0.000000 0.000000 0.041939 0.000000
# 6 0.000000 0.000000 0.000000 0.000000 0.000000 0.024294
#
#
# Mechanical properties :
#
#
# Convention : Reuss Voigt Hill
#
# Bulk Modulus (GPa) = 65.36855 77.52933 71.44894
# Shear Modulus (GPa) = 28.55187 52.72872 40.64030
#
# Velocity S-wave (km/s) = 3.84303 5.22251 4.58495
# Velocity P-wave (km/s) = 7.31468 8.74467 8.06145
#
# Compressibility (1/GPa) = 0.01529788
#
# Stress axis : x y z
#
# Youngs Moduli (GPa) = 40.15619 87.37769 50.17792
#
# Poissons Ratio (x) = 0.49244 0.44852
# Poissons Ratio (y) = 0.22631 0.29680
# Poissons Ratio (z) = 0.35894 0.51683
#
# Static dielectric constant tensor:
#      x y z
#    x 1.672480 0.000000 0.000000 
#    y 0.000000 1.673860 0.000000 
#    z 0.000000 0.000000 1.695990 
# 
# From -- ./inp_files/1111.got.cif
#   From: 2010.05.17/outbox.cif.g08.bks.cpg/sg47_1_cif.got.tgz:1111.got - 2010.06.03 20:15:42.
