data_PCOD9385408
_publ_section_title
;
Structure prediction by ZEFSAII (Michael W. Deem and Ramdas Pophale) SiO2 
 PCOD9385408
Probable space group: P M M M
;
_chemical_formula_sum "Si O2"
_cell_formula_units_Z 64
_cell_length_a 8.899577
_cell_length_b 21.090819
_cell_length_c 19.923847
_cell_angle_alpha 90.000000
_cell_angle_beta 90.000000
_cell_angle_gamma 90.000000
_cell_volume 3739.693484
_symmetry_space_group_name_H-M "P M M M"
_symmetry_group_IT_number 47
_symmetry_cell_setting 'orthorhombic'
loop_
_space_group_symop_operation_xyz
x,y,z
-x,-y,z
x,-y,-z
-x,y,-z
-x,-y,-z
x,y,-z
-x,y,z
x,-y,z
loop_
_atom_site_type_symbol
_atom_site_label
_atom_site_fract_x
_atom_site_fract_y
_atom_site_fract_z
Si Si1 0.679754 0.194915 0.711312
Si Si2 0.678891 0.265702 0.076999
Si Si3 0.677931 0.428136 0.288173
Si Si4 0.821569 0.388117 0.423805
Si Si5 0.820548 0.125657 0.076065
Si Si6 0.319520 0.070405 0.793562
Si Si7 0.821371 0.764047 0.576081
Si Si8 0.179045 0.687040 0.792001
O O1 0.500000 0.201543 0.715934
O O2 0.724154 0.128013 0.744662
O O3 0.732314 0.201506 0.634710
O O4 0.755566 0.252190 0.752339
O O5 0.500000 0.263258 0.088486
O O6 0.745884 0.194928 0.084028
O O7 0.756760 0.308534 0.132830
O O8 0.705705 0.285897 0.000000
O O9 0.500000 0.416369 0.283046
O O10 0.709287 0.500000 0.265971
O O11 0.729284 0.420766 0.365291
O O12 0.765211 0.375769 0.245506
O O13 0.781105 0.406555 0.500000
O O14 0.799507 0.312034 0.417633
O O15 0.000000 0.400213 0.415031
O O16 0.755491 0.082209 0.134397
O O17 0.000000 0.131662 0.082799
O O18 0.787675 0.103481 0.000000
O O19 0.500000 0.073691 0.801573
O O20 0.280969 0.000000 0.768525
O O21 0.778348 0.781877 0.500000
O O22 0.000000 0.775093 0.583930
O O23 0.000000 0.690285 0.791734
#
# Coordination Sequence:
#
# PCOD9385408 Si02
#       8
#     8   8   8   8   8   8   8   8
#     4  11  21  34  56  83 109 140 184 232 275 325
#     4  10  20  35  57  84 113 144 180 224 273 325
#     4  11  24  39  55  79 112 148 187 230 274 322
#     4   9  18  33  53  78 110 148 185 221 268 327
#     4  10  20  33  51  78 111 146 184 226 272 323
#     4  10  22  38  54  75 108 150 189 228 277 331
#     4   9  18  33  54  81 111 141 176 222 276 330
#     4  12  23  36  58  84 112 145 183 227 274 326
#
# _framework density 17.113702
#
# number of rings (size 3 to 8) (size 9 to 14) (size 15 to 20)
#    0.000    1.750    2.500    3.375    0.000    4.250 
#    0.000    3.750    0.000    0.750    0.000    5.250 
#    0.000    0.000    0.000    0.000    0.000    0.000 
#
# Total GULP energy -357408.397497 kJ/mol
# GULP energy per Si atom -5584.506211 kJ/mol
# Density = 1.707475 g / cm^3
# Si number density = 17.113702 Si / 1000 Ang^3
#
#
#
# Elastic Constant Matrix: (Units=GPa)
#
#
# Indices 1 2 3 4 5 6 
#
# 1 64.2025 52.4015 52.9029 0.0000 0.0000 0.0000
# 2 52.4015 90.2106 58.5955 0.0000 0.0000 0.0000
# 3 52.9029 58.5955 106.1477 0.0000 0.0000 0.0000
# 4 0.0000 0.0000 0.0000 15.4281 0.0000 0.0000
# 5 0.0000 0.0000 0.0000 0.0000 33.7784 0.0000
# 6 0.0000 0.0000 0.0000 0.0000 0.0000 -21.6623
#
#
#
# Elastic Compliance Matrix: (Units=1/GPa)
#
#
# Indices 1 2 3 4 5 6 
#
# 1 0.035043 -0.014049 -0.009710 0.000000 0.000000 0.000000
# 2 -0.014049 0.022914 -0.005647 0.000000 0.000000 0.000000
# 3 -0.009710 -0.005647 0.017377 0.000000 0.000000 0.000000
# 4 0.000000 0.000000 0.000000 0.064817 0.000000 0.000000
# 5 0.000000 0.000000 0.000000 0.000000 0.029605 0.000000
# 6 0.000000 0.000000 0.000000 0.000000 0.000000 -0.046163
#
#
# Mechanical properties :
#
#
# Convention : Reuss Voigt Hill
#
# Bulk Modulus (GPa) = 60.52244 65.37340 62.94792
# Shear Modulus (GPa) = 26.60812 11.95290 19.28051
#
# Velocity S-wave (km/s) = 3.94735 2.64567 3.36015
# Velocity P-wave (km/s) = 7.49781 6.90037 7.20529
#
# Compressibility (1/GPa) = 0.01652280
#
# Stress axis : x y z
#
# Youngs Moduli (GPa) = 28.53604 43.64163 57.54588
#
# Poissons Ratio (x) = 0.61312 0.55877
# Poissons Ratio (y) = 0.40090 0.32496
# Poissons Ratio (z) = 0.27708 0.24645
#
# Static dielectric constant tensor:
#      x y z
#    x 1.568460 0.000000 0.000000 
#    y 0.000000 1.570330 0.000000 
#    z 0.000000 0.000000 1.585140 
# 
# From -- ./inp_files/30008.got.cif
#   From: 2010.05.17/outbox.cif.g08.bks.cpg/sg47_16_cif.got.tgz:30008.got - 2010.06.03 20:15:42.
