data_PCOD9385972
_publ_section_title
;
Structure prediction by ZEFSAII (Michael W. Deem and Ramdas Pophale) SiO2 
 PCOD9385972
Probable space group: P M M M
;
_chemical_formula_sum "Si O2"
_cell_formula_units_Z 40
_cell_length_a 7.646168
_cell_length_b 9.314311
_cell_length_c 26.854497
_cell_angle_alpha 90.000000
_cell_angle_beta 90.000000
_cell_angle_gamma 90.000000
_cell_volume 1912.544694
_symmetry_space_group_name_H-M "P M M M"
_symmetry_group_IT_number 47
_symmetry_cell_setting 'orthorhombic'
loop_
_space_group_symop_operation_xyz
x,y,z
-x,-y,z
x,-y,-z
-x,y,-z
-x,-y,-z
x,y,-z
-x,y,z
x,-y,z
loop_
_atom_site_type_symbol
_atom_site_label
_atom_site_fract_x
_atom_site_fract_y
_atom_site_fract_z
Si Si1 0.207745 0.336279 0.500000
Si Si2 0.708467 0.335933 0.608161
Si Si3 0.791653 0.662853 0.000000
Si Si4 0.285900 0.334615 0.196504
Si Si5 0.714175 0.835030 0.295401
Si Si6 0.290898 0.837246 0.900420
O O1 0.281699 0.500000 0.500000
O O2 0.260411 0.272450 0.446886
O O3 0.000000 0.344257 0.500000
O O4 0.500000 0.345941 0.614359
O O5 0.778821 0.500000 0.609453
O O6 0.774566 0.241619 0.653922
O O7 0.740003 0.749324 0.049277
O O8 0.720271 0.500000 0.000000
O O9 0.000000 0.653670 0.000000
O O10 0.500000 0.335082 0.196052
O O11 0.229726 0.500000 0.195586
O O12 0.231943 0.254465 0.246912
O O13 0.225082 0.248837 0.147743
O O14 0.500000 0.835344 0.295737
O O15 0.770298 0.000000 0.292541
O O16 0.500000 0.847535 0.894323
O O17 0.221915 0.000000 0.903510
#
# Coordination Sequence:
#
# PCOD9385972 Si02
#       6
#     4   8   4   8   8   8
#     4   9  17  29  46  67  90 118 154 195 236 278
#     4   9  16  27  45  68  92 119 153 192 233 279
#     4  11  24  39  54  74 102 137 176 215 254 298
#     4   9  16  27  46  73 103 132 161 197 243 292
#     4   9  16  26  42  67  98 127 155 192 238 285
#     4  10  20  34  54  80 107 135 169 209 253 301
#
# _framework density 20.914545
#
# number of rings (size 3 to 8) (size 9 to 14) (size 15 to 20)
#    0.000    2.600    0.000    2.700    0.000    9.200 
#    0.000    0.500    0.000    4.800    0.000    2.800 
#    0.000    0.000    0.000    0.000    0.000    0.000 
#
# Total GULP energy -223310.600003 kJ/mol
# GULP energy per Si atom -5582.765000 kJ/mol
# Density = 2.086694 g / cm^3
# Si number density = 20.914545 Si / 1000 Ang^3
#
#
#
# Elastic Constant Matrix: (Units=GPa)
#
#
# Indices 1 2 3 4 5 6 
#
# 1 39.5381 7.1368 -0.3353 0.0000 0.0000 0.0000
# 2 7.1368 193.4607 136.9600 0.0000 0.0000 0.0000
# 3 -0.3353 136.9600 249.3073 0.0000 0.0000 0.0000
# 4 0.0000 0.0000 0.0000 75.3212 0.0000 0.0000
# 5 0.0000 0.0000 0.0000 0.0000 -53.7483 0.0000
# 6 0.0000 0.0000 0.0000 0.0000 0.0000 0.8985
#
#
#
# Elastic Compliance Matrix: (Units=1/GPa)
#
#
# Indices 1 2 3 4 5 6 
#
# 1 0.025586 -0.001584 0.000905 0.000000 0.000000 0.000000
# 2 -0.001584 0.008557 -0.004703 0.000000 0.000000 0.000000
# 3 0.000905 -0.004703 0.006596 0.000000 0.000000 0.000000
# 4 0.000000 0.000000 0.000000 0.013276 0.000000 0.000000
# 5 0.000000 0.000000 0.000000 0.000000 -0.018605 0.000000
# 6 0.000000 0.000000 0.000000 0.000000 0.000000 1.112949
#
#
# Mechanical properties :
#
#
# Convention : Reuss Voigt Hill
#
# Bulk Modulus (GPa) = 33.36282 85.53655 59.44969
# Shear Modulus (GPa) = 4.27674 27.06392 15.67033
#
# Velocity S-wave (km/s) = 1.43154 3.60116 2.74022
# Velocity P-wave (km/s) = 4.32655 7.63400 6.20472
#
# Compressibility (1/GPa) = 0.02997348
#
# Stress axis : x y z
#
# Youngs Moduli (GPa) = 39.08427 116.86443 151.60771
#
# Poissons Ratio (x) = 0.18516 -0.13718
# Poissons Ratio (y) = 0.06193 0.71301
# Poissons Ratio (z) = -0.03537 0.54961
#
# Static dielectric constant tensor:
#      x y z
#    x 1.768440 0.000000 0.000000 
#    y 0.000000 1.729020 0.000000 
#    z 0.000000 0.000000 1.729720 
# 
# From -- ./inp_files/1681.got.cif
#   From: 2010.05.17/outbox.cif.g08.bks.cpg/sg47_1_cif.got.tgz:1681.got - 2010.06.03 20:15:42.
