data_PCOD9385512
_publ_section_title
;
Structure prediction by ZEFSAII (Michael W. Deem and Ramdas Pophale) SiO2 
 PCOD9385512
Probable space group: P M M M
;
_chemical_formula_sum "Si O2"
_cell_formula_units_Z 48
_cell_length_a 15.277989
_cell_length_b 20.529864
_cell_length_c 9.144476
_cell_angle_alpha 90.000000
_cell_angle_beta 90.000000
_cell_angle_gamma 90.000000
_cell_volume 2868.210952
_symmetry_space_group_name_H-M "P M M M"
_symmetry_group_IT_number 47
_symmetry_cell_setting 'orthorhombic'
loop_
_space_group_symop_operation_xyz
x,y,z
-x,-y,z
x,-y,-z
-x,y,-z
-x,-y,-z
x,y,-z
-x,y,z
x,-y,z
loop_
_atom_site_type_symbol
_atom_site_label
_atom_site_fract_x
_atom_site_fract_y
_atom_site_fract_z
Si Si1 0.103657 0.635442 0.175642
Si Si2 0.105580 0.500000 0.667411
Si Si3 0.165733 0.118363 0.664042
Si Si4 0.400467 0.208243 0.826796
Si Si5 0.000000 0.073459 0.172832
Si Si6 0.357928 0.072772 0.674740
Si Si7 0.764057 0.734447 0.669007
O O1 0.127960 0.565464 0.244949
O O2 0.169193 0.687817 0.245707
O O3 0.000000 0.648451 0.209635
O O4 0.111559 0.634150 0.000000
O O5 0.138767 0.500000 0.500000
O O6 0.000000 0.500000 0.659444
O O7 0.136517 0.101458 0.500000
O O8 0.253079 0.077514 0.696696
O O9 0.194608 0.193326 0.666555
O O10 0.087285 0.107353 0.772603
O O11 0.500000 0.231451 0.806276
O O12 0.394768 0.135021 0.759968
O O13 0.329171 0.253697 0.747426
O O14 0.381494 0.205099 0.000000
O O15 0.000000 0.000000 0.231807
O O16 0.000000 0.071592 0.000000
O O17 0.373769 0.081187 0.500000
O O18 0.388288 0.000000 0.716264
O O19 0.753416 0.713342 0.500000
#
# Coordination Sequence:
#
# PCOD9385512 Si02
#       7
#     8   4   8   8   4   8   8
#     4  10  20  33  52  80 114 148 179 213 255 299
#     4   9  17  31  51  77 110 149 186 217 247 287
#     4   9  19  34  49  65  88 122 163 207 251 298
#     4  10  21  36  53  74 101 131 165 210 265 321
#     4  11  23  33  43  63  89 120 161 206 253 303
#     4   9  18  33  52  72  93 121 160 206 258 315
#     4  10  21  36  54  76 101 133 174 215 256 305
#
# _framework density 16.735171000000001
#
# number of rings (size 3 to 8) (size 9 to 14) (size 15 to 20)
#    0.000    2.333    0.000    3.500    1.167    8.667 
#    0.000    1.667    0.000    0.000    0.000    0.583 
#    0.000    4.667    0.000    0.000    0.000    0.000 
#
# Total GULP energy -267687.951563 kJ/mol
# GULP energy per Si atom -5576.832324 kJ/mol
# Density = 1.669708 g / cm^3
# Si number density = 16.735171 Si / 1000 Ang^3
#
#
#
# Elastic Constant Matrix: (Units=GPa)
#
#
# Indices 1 2 3 4 5 6 
#
# 1 92.8470 44.2814 66.9404 0.0000 0.0000 0.0000
# 2 44.2814 80.4866 39.9951 0.0000 0.0000 0.0000
# 3 66.9404 39.9951 100.4980 0.0000 0.0000 0.0000
# 4 0.0000 0.0000 0.0000 28.8439 0.0000 0.0000
# 5 0.0000 0.0000 0.0000 0.0000 29.3782 0.0000
# 6 0.0000 0.0000 0.0000 0.0000 0.0000 9.9390
#
#
#
# Elastic Compliance Matrix: (Units=1/GPa)
#
#
# Indices 1 2 3 4 5 6 
#
# 1 0.023021 -0.006290 -0.012831 0.000000 0.000000 0.000000
# 2 -0.006290 0.017205 -0.002658 0.000000 0.000000 0.000000
# 3 -0.012831 -0.002658 0.019555 0.000000 0.000000 0.000000
# 4 0.000000 0.000000 0.000000 0.034669 0.000000 0.000000
# 5 0.000000 0.000000 0.000000 0.000000 0.034039 0.000000
# 6 0.000000 0.000000 0.000000 0.000000 0.000000 0.100614
#
#
# Mechanical properties :
#
#
# Convention : Reuss Voigt Hill
#
# Bulk Modulus (GPa) = 61.63529 64.02949 62.83239
# Shear Modulus (GPa) = 17.98123 21.80653 19.89388
#
# Velocity S-wave (km/s) = 3.28145 3.61368 3.45156
# Velocity P-wave (km/s) = 7.16009 7.46693 7.31512
#
# Compressibility (1/GPa) = 0.01622447
#
# Stress axis : x y z
#
# Youngs Moduli (GPa) = 43.43899 58.12104 51.13872
#
# Poissons Ratio (x) = 0.36555 0.65615
# Poissons Ratio (y) = 0.27321 0.13592
# Poissons Ratio (z) = 0.55736 0.15448
#
# Static dielectric constant tensor:
#      x y z
#    x 1.552860 0.000000 0.000000 
#    y 0.000000 1.551030 0.000000 
#    z 0.000000 0.000000 1.569430 
# 
# From -- ./inp_files/6515.got.cif
#   From: 2010.05.17/outbox.cif.g08.bks.cpg/sg47_4_cif.got.tgz:6515.got - 2010.06.03 20:15:42.
