data_PCOD9385234
_publ_section_title
;
Structure prediction by ZEFSAII (Michael W. Deem and Ramdas Pophale) SiO2 
 PCOD9385234
Probable space group: P M M M
;
_chemical_formula_sum "Si O2"
_cell_formula_units_Z 52
_cell_length_a 8.854822
_cell_length_b 14.697149
_cell_length_c 23.598358
_cell_angle_alpha 90.000000
_cell_angle_beta 90.000000
_cell_angle_gamma 90.000000
_cell_volume 3071.105373
_symmetry_space_group_name_H-M "P M M M"
_symmetry_group_IT_number 47
_symmetry_cell_setting 'orthorhombic'
loop_
_space_group_symop_operation_xyz
x,y,z
-x,-y,z
x,-y,-z
-x,y,-z
-x,-y,-z
x,y,-z
-x,y,z
x,-y,z
loop_
_atom_site_type_symbol
_atom_site_label
_atom_site_fract_x
_atom_site_fract_y
_atom_site_fract_z
Si Si1 0.180868 0.394301 0.500000
Si Si2 0.682111 0.101906 0.652413
Si Si3 0.681941 0.394860 0.065077
Si Si4 0.181887 0.101962 0.777518
Si Si5 0.681970 0.707022 0.607598
Si Si6 0.180662 0.287957 0.168377
Si Si7 0.681112 0.606863 0.274636
O O1 0.229963 0.500000 0.500000
O O2 0.242688 0.343746 0.555436
O O3 0.000000 0.392055 0.500000
O O4 0.500000 0.104176 0.656463
O O5 0.747752 0.115835 0.715333
O O6 0.727347 0.187070 0.613768
O O7 0.726597 0.000000 0.633347
O O8 0.500000 0.390474 0.068393
O O9 0.725114 0.500000 0.077302
O O10 0.752158 0.328596 0.111054
O O11 0.725347 0.374763 0.000000
O O12 0.227990 0.184082 0.818278
O O13 0.000000 0.105101 0.771937
O O14 0.223989 0.000000 0.796667
O O15 0.500000 0.702574 0.601133
O O16 0.720531 0.657528 0.666878
O O17 0.237972 0.347455 0.221423
O O18 0.000000 0.291587 0.165896
O O19 0.500000 0.615775 0.266839
O O20 0.716891 0.500000 0.278574
#
# Coordination Sequence:
#
# PCOD9385234 Si02
#       7
#     4   8   8   8   8   8   8
#     4  11  25  41  56  75 100 134 177 221 260 303
#     4   9  17  31  54  82 106 129 164 211 257 299
#     4   9  19  36  55  73  98 137 179 214 253 305
#     4   9  18  32  49  72 105 141 171 202 249 308
#     4  10  20  36  57  78 102 135 173 211 254 309
#     4  11  21  31  49  78 107 134 169 212 257 303
#     4  10  20  33  50  74 104 136 169 207 253 306
#
# _framework density 16.932013999999999
#
# number of rings (size 3 to 8) (size 9 to 14) (size 15 to 20)
#    0.000    2.231    1.538    2.077    0.000    5.846 
#    0.000    1.154    0.000    2.769    0.000    3.231 
#    0.000    0.000    0.000    0.000    0.000    0.000 
#
# Total GULP energy -290120.591883 kJ/mol
# GULP energy per Si atom -5579.242152 kJ/mol
# Density = 1.689348 g / cm^3
# Si number density = 16.932014 Si / 1000 Ang^3
#
#
#
# Elastic Constant Matrix: (Units=GPa)
#
#
# Indices 1 2 3 4 5 6 
#
# 1 15.3421 42.3899 34.5806 0.0000 0.0000 0.0000
# 2 42.3899 177.6501 96.2888 0.0000 0.0000 0.0000
# 3 34.5806 96.2888 114.5293 0.0000 0.0000 0.0000
# 4 0.0000 0.0000 0.0000 31.1251 0.0000 0.0000
# 5 0.0000 0.0000 0.0000 0.0000 -138.8362 0.0000
# 6 0.0000 0.0000 0.0000 0.0000 0.0000 22.4653
#
#
#
# Elastic Compliance Matrix: (Units=1/GPa)
#
#
# Indices 1 2 3 4 5 6 
#
# 1 0.326055 -0.044903 -0.060696 0.000000 0.000000 0.000000
# 2 -0.044903 0.016526 -0.000336 0.000000 0.000000 0.000000
# 3 -0.060696 -0.000336 0.027340 0.000000 0.000000 0.000000
# 4 0.000000 0.000000 0.000000 0.032128 0.000000 0.000000
# 5 0.000000 0.000000 0.000000 0.000000 -0.007203 0.000000
# 6 0.000000 0.000000 0.000000 0.000000 0.000000 0.044513
#
#
# Mechanical properties :
#
#
# Convention : Reuss Voigt Hill
#
# Bulk Modulus (GPa) = 6.32710 72.67114 39.49912
# Shear Modulus (GPa) = 7.10314 -8.09835 -0.49760
#
# Velocity S-wave (km/s) = 2.05042 -2.18935 -0.54270
# Velocity P-wave (km/s) = 3.05786 6.05157 4.79437
#
# Compressibility (1/GPa) = 0.15805029
#
# Stress axis : x y z
#
# Youngs Moduli (GPa) = 3.06697 60.51228 36.57642
#
# Poissons Ratio (x) = 2.71720 2.22005
# Poissons Ratio (y) = 0.13772 0.01228
# Poissons Ratio (z) = 0.18615 0.02031
#
# Static dielectric constant tensor:
#      x y z
#    x 1.568980 0.000000 0.000000 
#    y 0.000000 1.597290 0.000000 
#    z 0.000000 0.000000 1.530910 
# 
# From -- ./inp_files/10941.got.cif
#   From: 2010.05.17/outbox.cif.g08.bks.cpg/sg47_6_cif.got.tgz:10941.got - 2010.06.03 20:15:42.
