data_PCOD9385226
_publ_section_title
;
Structure prediction by ZEFSAII (Michael W. Deem and Ramdas Pophale) SiO2 
 PCOD9385226
Probable space group: P M M M
;
_chemical_formula_sum "Si O2"
_cell_formula_units_Z 40
_cell_length_a 9.530258
_cell_length_b 26.377855
_cell_length_c 7.633300
_cell_angle_alpha 90.000000
_cell_angle_beta 90.000000
_cell_angle_gamma 90.000000
_cell_volume 1918.918216
_symmetry_space_group_name_H-M "P M M M"
_symmetry_group_IT_number 47
_symmetry_cell_setting 'orthorhombic'
loop_
_space_group_symop_operation_xyz
x,y,z
-x,-y,z
x,-y,-z
-x,y,-z
-x,-y,-z
x,y,-z
-x,y,z
x,-y,z
loop_
_atom_site_type_symbol
_atom_site_label
_atom_site_fract_x
_atom_site_fract_y
_atom_site_fract_z
Si Si1 0.338622 0.807055 0.213943
Si Si2 0.841773 0.404390 0.291494
Si Si3 0.659608 0.307376 0.788852
Si Si4 0.659006 0.000000 0.291518
Si Si5 0.661352 0.500000 0.714946
Si Si6 0.841617 0.901337 0.790329
O O1 0.500000 0.817542 0.265120
O O2 0.302963 0.749703 0.269506
O O3 0.235182 0.850790 0.277211
O O4 0.336173 0.807420 0.000000
O O5 0.851864 0.412181 0.500000
O O6 0.766524 0.350787 0.263941
O O7 0.744321 0.450017 0.225062
O O8 0.000000 0.405444 0.219923
O O9 0.500000 0.318578 0.728486
O O10 0.656276 0.306403 0.000000
O O11 0.745529 0.950161 0.240718
O O12 0.500000 0.000000 0.219257
O O13 0.649101 0.000000 0.500000
O O14 0.500000 0.500000 0.771975
O O15 0.659559 0.500000 0.500000
O O16 0.000000 0.907829 0.722079
O O17 0.851630 0.895660 0.000000
#
# Coordination Sequence:
#
# PCOD9385226 Si02
#       6
#     8   8   8   4   4   8
#     4   8  15  30  52  76 102 133 169 208 248 291
#     4  10  20  33  50  74 103 133 167 208 253 302
#     4   9  18  33  53  77 104 134 169 208 250 297
#     4  11  24  39  54  74 102 137 174 209 250 300
#     4   9  17  31  52  73  94 127 170 212 254 299
#     4  10  20  34  55  82 106 130 166 209 251 299
#
# _framework density 20.845077
#
# number of rings (size 3 to 8) (size 9 to 14) (size 15 to 20)
#    0.000    2.600    0.000    3.300    0.000    6.800 
#    0.000    3.500    0.000    4.200    0.000    0.000 
#    0.000    0.000    0.000    0.000    0.000    0.000 
#
# Total GULP energy -223346.214740 kJ/mol
# GULP energy per Si atom -5583.655369 kJ/mol
# Density = 2.079763 g / cm^3
# Si number density = 20.845077 Si / 1000 Ang^3
#
#
#
# Elastic Constant Matrix: (Units=GPa)
#
#
# Indices 1 2 3 4 5 6 
#
# 1 220.4262 150.8966 7.8118 0.0000 0.0000 0.0000
# 2 150.8966 184.9410 0.2923 0.0000 0.0000 0.0000
# 3 7.8118 0.2923 39.8917 0.0000 0.0000 0.0000
# 4 0.0000 0.0000 0.0000 23.8204 0.0000 0.0000
# 5 0.0000 0.0000 0.0000 0.0000 12.5865 0.0000
# 6 0.0000 0.0000 0.0000 0.0000 0.0000 -20.1486
#
#
#
# Elastic Compliance Matrix: (Units=1/GPa)
#
#
# Indices 1 2 3 4 5 6 
#
# 1 0.010431 -0.008508 -0.001980 0.000000 0.000000 0.000000
# 2 -0.008508 0.012346 0.001576 0.000000 0.000000 0.000000
# 3 -0.001980 0.001576 0.025444 0.000000 0.000000 0.000000
# 4 0.000000 0.000000 0.000000 0.041981 0.000000 0.000000
# 5 0.000000 0.000000 0.000000 0.000000 0.079450 0.000000
# 6 0.000000 0.000000 0.000000 0.000000 0.000000 -0.049631
#
#
# Mechanical properties :
#
#
# Convention : Reuss Voigt Hill
#
# Bulk Modulus (GPa) = 32.89858 84.80670 58.85264
# Shear Modulus (GPa) = 33.78891 22.33554 28.06223
#
# Velocity S-wave (km/s) = 4.03047 3.27693 3.67308
# Velocity P-wave (km/s) = 6.12179 7.42228 6.80318
#
# Compressibility (1/GPa) = 0.03039645
#
# Stress axis : x y z
#
# Youngs Moduli (GPa) = 95.86934 80.99706 39.30177
#
# Poissons Ratio (x) = 0.68909 0.07783
# Poissons Ratio (y) = 0.81562 -0.06192
# Poissons Ratio (z) = 0.18985 -0.12761
#
# Static dielectric constant tensor:
#      x y z
#    x 1.733250 0.000000 0.000000 
#    y 0.000000 1.713290 0.000000 
#    z 0.000000 0.000000 1.794840 
# 
# From -- ./inp_files/1790.got.cif
#   From: 2010.05.17/outbox.cif.g08.bks.cpg/sg47_1_cif.got.tgz:1790.got - 2010.06.03 20:15:42.
