data_PCOD9385376
_publ_section_title
;
Structure prediction by ZEFSAII (Michael W. Deem and Ramdas Pophale) SiO2 
 PCOD9385376
Probable space group: P M M M
;
_chemical_formula_sum "Si O2"
_cell_formula_units_Z 52
_cell_length_a 14.603806
_cell_length_b 8.699654
_cell_length_c 21.461445
_cell_angle_alpha 90.000000
_cell_angle_beta 90.000000
_cell_angle_gamma 90.000000
_cell_volume 2726.634937
_symmetry_space_group_name_H-M "P M M M"
_symmetry_group_IT_number 47
_symmetry_cell_setting 'orthorhombic'
loop_
_space_group_symop_operation_xyz
x,y,z
-x,-y,z
x,-y,-z
-x,y,-z
-x,-y,-z
x,y,-z
-x,y,z
x,-y,z
loop_
_atom_site_type_symbol
_atom_site_label
_atom_site_fract_x
_atom_site_fract_y
_atom_site_fract_z
Si Si1 0.396849 0.685286 0.374028
Si Si2 0.394040 0.687641 0.000000
Si Si3 0.717715 0.316353 0.878002
Si Si4 0.109423 0.679617 0.307780
Si Si5 0.789194 0.687356 0.432019
Si Si6 0.391201 0.181091 0.237978
Si Si7 0.894835 0.183193 0.173745
O O1 0.500000 0.737530 0.389630
O O2 0.397996 0.500000 0.371032
O O3 0.316927 0.729038 0.421331
O O4 0.372104 0.747560 0.305646
O O5 0.338952 0.736751 0.061516
O O6 0.395690 0.500000 0.000000
O O7 0.500000 0.738802 0.000000
O O8 0.720798 0.500000 0.878854
O O9 0.664516 0.261006 0.816615
O O10 0.820565 0.253241 0.872706
O O11 0.135599 0.500000 0.299180
O O12 0.156224 0.739077 0.370809
O O13 0.131714 0.767713 0.244229
O O14 0.000000 0.686262 0.315940
O O15 0.821564 0.740452 0.500000
O O16 0.795620 0.500000 0.432042
O O17 0.500000 0.201483 0.226836
O O18 0.370887 0.000000 0.238793
O O19 0.000000 0.235862 0.163534
O O20 0.892804 0.000000 0.169502
#
# Coordination Sequence:
#
# PCOD9385376 Si02
#       7
#     8   4   8   8   8   8   8
#     4   9  17  29  46  68  93 125 168 215 261 308
#     4   9  20  38  58  83 114 146 179 213 252 301
#     4  11  21  35  58  83 109 142 178 217 259 305
#     4   9  17  30  50  75 100 128 166 212 260 310
#     4   9  17  28  43  66  95 126 163 209 260 311
#     4  10  20  33  51  77 107 137 172 217 267 316
#     4  10  21  37  57  81 109 140 175 218 267 314
#
# _framework density 19.071126
#
# number of rings (size 3 to 8) (size 9 to 14) (size 15 to 20)
#    0.000    2.385    0.000    2.769    0.000    4.308 
#    0.000    5.000    0.000    6.923    0.000    4.308 
#    0.000    0.000    0.000    0.000    0.000    0.000 
#
# Total GULP energy -290213.642071 kJ/mol
# GULP energy per Si atom -5581.031578 kJ/mol
# Density = 1.902772 g / cm^3
# Si number density = 19.071126 Si / 1000 Ang^3
#
#
#
# Elastic Constant Matrix: (Units=GPa)
#
#
# Indices 1 2 3 4 5 6 
#
# 1 86.2231 22.1834 65.2014 0.0000 0.0000 0.0000
# 2 22.1834 17.6626 10.0468 0.0000 0.0000 0.0000
# 3 65.2014 10.0468 73.7717 0.0000 0.0000 0.0000
# 4 0.0000 0.0000 0.0000 -24.5006 0.0000 0.0000
# 5 0.0000 0.0000 0.0000 0.0000 25.7235 0.0000
# 6 0.0000 0.0000 0.0000 0.0000 0.0000 22.6148
#
#
#
# Elastic Compliance Matrix: (Units=1/GPa)
#
#
# Indices 1 2 3 4 5 6 
#
# 1 0.056388 -0.046039 -0.043567 0.000000 0.000000 0.000000
# 2 -0.046039 0.098960 0.027213 0.000000 0.000000 0.000000
# 3 -0.043567 0.027213 0.048355 0.000000 0.000000 0.000000
# 4 0.000000 0.000000 0.000000 -0.040815 0.000000 0.000000
# 5 0.000000 0.000000 0.000000 0.000000 0.038875 0.000000
# 6 0.000000 0.000000 0.000000 0.000000 0.000000 0.044219
#
#
# Mechanical properties :
#
#
# Convention : Reuss Voigt Hill
#
# Bulk Modulus (GPa) = 12.67149 41.39117 27.03133
# Shear Modulus (GPa) = 12.59216 10.11592 11.35404
#
# Velocity S-wave (km/s) = 2.57237 2.30561 2.44263
# Velocity P-wave (km/s) = 3.93466 5.37015 4.70744
#
# Compressibility (1/GPa) = 0.07891732
#
# Stress axis : x y z
#
# Youngs Moduli (GPa) = 17.73436 10.10509 20.68043
#
# Poissons Ratio (x) = 0.46522 0.90098
# Poissons Ratio (y) = 0.81647 -0.56278
# Poissons Ratio (z) = 0.77263 -0.27499
#
# Static dielectric constant tensor:
#      x y z
#    x 1.692810 0.000000 0.000000 
#    y 0.000000 1.645860 0.000000 
#    z 0.000000 0.000000 1.639970 
# 
# From -- ./inp_files/7041.got.cif
#   From: 2010.05.17/outbox.cif.g08.bks.cpg/sg47_4_cif.got.tgz:7041.got - 2010.06.03 20:15:42.
