data_PCOD9385714
_publ_section_title
;
Structure prediction by ZEFSAII (Michael W. Deem and Ramdas Pophale) SiO2 
 PCOD9385714
Probable space group: P M M M
;
_chemical_formula_sum "Si O2"
_cell_formula_units_Z 48
_cell_length_a 16.402464
_cell_length_b 13.715840
_cell_length_c 11.738151
_cell_angle_alpha 90.000000
_cell_angle_beta 90.000000
_cell_angle_gamma 90.000000
_cell_volume 2640.773757
_symmetry_space_group_name_H-M "P M M M"
_symmetry_group_IT_number 47
_symmetry_cell_setting 'orthorhombic'
loop_
_space_group_symop_operation_xyz
x,y,z
-x,-y,z
x,-y,-z
-x,y,-z
-x,-y,-z
x,y,-z
-x,y,z
x,-y,z
loop_
_atom_site_type_symbol
_atom_site_label
_atom_site_fract_x
_atom_site_fract_y
_atom_site_fract_z
Si Si1 0.172828 0.615088 0.871058
Si Si2 0.409155 0.117748 0.740507
Si Si3 0.909493 0.882032 0.252920
Si Si4 0.094717 0.617931 0.624894
Si Si5 0.339233 0.118220 0.500000
Si Si6 0.850748 0.119155 0.500000
Si Si7 0.747154 0.807528 0.128697
O O1 0.191232 0.500000 0.865498
O O2 0.126994 0.641677 0.752309
O O3 0.247528 0.690151 0.869433
O O4 0.134354 0.630517 0.000000
O O5 0.500000 0.149927 0.773785
O O6 0.387346 0.148434 0.612023
O O7 0.334196 0.155421 0.813431
O O8 0.408255 0.000000 0.744139
O O9 0.895325 0.851173 0.384166
O O10 0.830480 0.845855 0.185729
O O11 0.000000 0.850929 0.213407
O O12 0.908284 0.000000 0.249645
O O13 0.130421 0.650511 0.500000
O O14 0.100040 0.500000 0.621862
O O15 0.000000 0.644533 0.623563
O O16 0.244434 0.149295 0.500000
O O17 0.336958 0.000000 0.500000
O O18 0.850984 0.000000 0.500000
O O19 0.748164 0.842474 0.000000
#
# Coordination Sequence:
#
# PCOD9385714 Si02
#       7
#     8   8   8   8   4   4   8
#     4   9  19  36  55  72  96 137 182 222 268 321
#     4  10  20  35  57  84 112 141 172 211 264 322
#     4  10  20  34  52  75 106 145 184 220 261 310
#     4   8  14  27  48  73 100 128 164 218 277 323
#     4   9  15  29  55  82 109 140 174 214 260 311
#     4   9  15  29  53  76 103 140 180 220 258 303
#     4  11  23  37  53  76 107 140 180 226 265 312
#
# _framework density 18.176490999999999
#
# number of rings (size 3 to 8) (size 9 to 14) (size 15 to 20)
#    0.000    2.500    1.667    1.500    0.000    5.000 
#    3.000    5.000    0.000    0.500    0.000    2.333 
#    0.000    1.333    0.000    0.000    0.000    0.000 
#
# Total GULP energy -267303.801704 kJ/mol
# GULP energy per Si atom -5568.829202 kJ/mol
# Density = 1.813512 g / cm^3
# Si number density = 18.176491 Si / 1000 Ang^3
#
#
#
# Elastic Constant Matrix: (Units=GPa)
#
#
# Indices 1 2 3 4 5 6 
#
# 1 149.8093 33.5810 75.7394 0.0000 0.0000 0.0000
# 2 33.5810 40.6500 31.9553 0.0000 0.0000 0.0000
# 3 75.7394 31.9553 162.7389 0.0000 0.0000 0.0000
# 4 0.0000 0.0000 0.0000 22.5157 0.0000 0.0000
# 5 0.0000 0.0000 0.0000 0.0000 -38.8847 0.0000
# 6 0.0000 0.0000 0.0000 0.0000 0.0000 15.2055
#
#
#
# Elastic Compliance Matrix: (Units=1/GPa)
#
#
# Indices 1 2 3 4 5 6 
#
# 1 0.009581 -0.005214 -0.003435 0.000000 0.000000 0.000000
# 2 -0.005214 0.031929 -0.003843 0.000000 0.000000 0.000000
# 3 -0.003435 -0.003843 0.008498 0.000000 0.000000 0.000000
# 4 0.000000 0.000000 0.000000 0.044413 0.000000 0.000000
# 5 0.000000 0.000000 0.000000 0.000000 -0.025717 0.000000
# 6 0.000000 0.000000 0.000000 0.000000 0.000000 0.065765
#
#
# Mechanical properties :
#
#
# Convention : Reuss Voigt Hill
#
# Bulk Modulus (GPa) = 39.96290 70.63886 55.30088
# Shear Modulus (GPa) = 29.79842 13.89547 21.84695
#
# Velocity S-wave (km/s) = 4.05334 2.76791 3.47065
# Velocity P-wave (km/s) = 6.62871 7.01158 6.82283
#
# Compressibility (1/GPa) = 0.02502321
#
# Stress axis : x y z
#
# Youngs Moduli (GPa) = 104.37744 31.31994 117.67435
#
# Poissons Ratio (x) = 0.16331 0.40421
# Poissons Ratio (y) = 0.54425 0.45219
# Poissons Ratio (z) = 0.35854 0.12035
#
# Static dielectric constant tensor:
#      x y z
#    x 1.599050 0.000000 0.000000 
#    y 0.000000 1.668700 0.000000 
#    z 0.000000 0.000000 1.681340 
# 
# From -- ./inp_files/17555.got.cif
#   From: 2010.05.17/outbox.cif.g08.bks.cpg/sg47_9_cif.got.tgz:17555.got - 2010.06.03 20:15:42.
