data_PCOD9385476
_publ_section_title
;
Structure prediction by ZEFSAII (Michael W. Deem and Ramdas Pophale) SiO2 
 PCOD9385476
Probable space group: P M M M
;
_chemical_formula_sum "Si O2"
_cell_formula_units_Z 44
_cell_length_a 31.036030
_cell_length_b 9.816443
_cell_length_c 7.514820
_cell_angle_alpha 90.000000
_cell_angle_beta 90.000000
_cell_angle_gamma 90.000000
_cell_volume 2289.490758
_symmetry_space_group_name_H-M "P M M M"
_symmetry_group_IT_number 47
_symmetry_cell_setting 'orthorhombic'
loop_
_space_group_symop_operation_xyz
x,y,z
-x,-y,z
x,-y,-z
-x,y,-z
-x,-y,-z
x,y,-z
-x,y,z
x,-y,z
loop_
_atom_site_type_symbol
_atom_site_label
_atom_site_fract_x
_atom_site_fract_y
_atom_site_fract_z
Si Si1 0.127547 0.656619 0.717859
Si Si2 0.615551 0.342222 0.797670
Si Si3 0.549001 0.665791 0.500000
Si Si4 0.951073 0.155804 0.283074
Si Si5 0.793420 0.843380 0.716997
Si Si6 0.303799 0.156760 0.284888
O O1 0.127557 0.656839 0.500000
O O2 0.127840 0.500000 0.774919
O O3 0.085005 0.738351 0.775575
O O4 0.169728 0.740167 0.775548
O O5 0.625414 0.500000 0.751135
O O6 0.577653 0.293249 0.668907
O O7 0.658640 0.254453 0.779399
O O8 0.600506 0.338178 0.000000
O O9 0.546838 0.500000 0.500000
O O10 0.500000 0.716016 0.500000
O O11 0.950897 0.156723 0.500000
O O12 0.000000 0.187966 0.227272
O O13 0.941081 0.000000 0.229653
O O14 0.793729 0.843333 0.500000
O O15 0.744801 0.805963 0.772150
O O16 0.802035 0.000000 0.771009
O O17 0.304360 0.160510 0.500000
O O18 0.311382 0.000000 0.230816
#
# Coordination Sequence:
#
# PCOD9385476 Si02
#       6
#     8   8   4   8   8   8
#     4   9  15  20  27  43  66  91 125 174 231 286
#     4  10  20  33  52  79 107 137 174 214 259 309
#     4   9  18  34  55  79 109 143 177 217 262 303
#     4   8  13  20  28  36  50  81 126 174 226 284
#     4   8  14  24  37  53  74 103 140 181 227 284
#     4   9  17  30  49  71  95 127 166 206 252 305
#
# _framework density 19.218247999999999
#
# number of rings (size 3 to 8) (size 9 to 14) (size 15 to 20)
#    0.000    3.182    0.909    2.182    0.000    4.000 
#    0.000    5.455    0.000    1.091    0.000    1.273 
#    0.000    0.000    0.000    0.000    0.000    0.909 
#
# Total GULP energy -245436.656551 kJ/mol
# GULP energy per Si atom -5578.105831 kJ/mol
# Density = 1.917451 g / cm^3
# Si number density = 19.218248 Si / 1000 Ang^3
#
#
#
# Elastic Constant Matrix: (Units=GPa)
#
#
# Indices 1 2 3 4 5 6 
#
# 1 194.2607 117.0549 36.4776 0.0000 0.0000 0.0000
# 2 117.0549 108.9735 25.9700 0.0000 0.0000 0.0000
# 3 36.4776 25.9700 58.2772 0.0000 0.0000 0.0000
# 4 0.0000 0.0000 0.0000 0.5850 0.0000 0.0000
# 5 0.0000 0.0000 0.0000 0.0000 -17.8180 0.0000
# 6 0.0000 0.0000 0.0000 0.0000 0.0000 30.5840
#
#
#
# Elastic Compliance Matrix: (Units=1/GPa)
#
#
# Indices 1 2 3 4 5 6 
#
# 1 0.014901 -0.015421 -0.002455 0.000000 0.000000 0.000000
# 2 -0.015421 0.026226 -0.002035 0.000000 0.000000 0.000000
# 3 -0.002455 -0.002035 0.019603 0.000000 0.000000 0.000000
# 4 0.000000 0.000000 0.000000 1.709287 0.000000 0.000000
# 5 0.000000 0.000000 0.000000 0.000000 -0.056123 0.000000
# 6 0.000000 0.000000 0.000000 0.000000 0.000000 0.032697
#
#
# Mechanical properties :
#
#
# Convention : Reuss Voigt Hill
#
# Bulk Modulus (GPa) = 47.82719 80.05736 63.94228
# Shear Modulus (GPa) = 2.78803 14.80414 8.79609
#
# Velocity S-wave (km/s) = 1.20577 2.77847 2.14170
# Velocity P-wave (km/s) = 5.18448 7.21392 6.28170
#
# Compressibility (1/GPa) = 0.02090861
#
# Stress axis : x y z
#
# Youngs Moduli (GPa) = 67.11123 38.13065 51.01346
#
# Poissons Ratio (x) = 0.58800 0.12523
# Poissons Ratio (y) = 1.03490 0.10379
# Poissons Ratio (z) = 0.16475 0.07758
#
# Static dielectric constant tensor:
#      x y z
#    x 1.637490 0.000000 0.000000 
#    y 0.000000 1.640650 0.000000 
#    z 0.000000 0.000000 1.962740 
# 
# From -- ./inp_files/13606.got.cif
#   From: 2010.05.17/outbox.cif.g08.bks.cpg/sg47_7_cif.got.tgz:13606.got - 2010.06.03 20:15:42.
