data_PCOD9385488
_publ_section_title
;
Structure prediction by ZEFSAII (Michael W. Deem and Ramdas Pophale) SiO2 
 PCOD9385488
Probable space group: P M M M
;
_chemical_formula_sum "Si O2"
_cell_formula_units_Z 48
_cell_length_a 7.633734
_cell_length_b 33.838353
_cell_length_c 9.271813
_cell_angle_alpha 90.000000
_cell_angle_beta 90.000000
_cell_angle_gamma 90.000000
_cell_volume 2395.029700
_symmetry_space_group_name_H-M "P M M M"
_symmetry_group_IT_number 47
_symmetry_cell_setting 'orthorhombic'
loop_
_space_group_symop_operation_xyz
x,y,z
-x,-y,z
x,-y,-z
-x,y,-z
-x,-y,-z
x,y,-z
-x,y,z
x,-y,z
loop_
_atom_site_type_symbol
_atom_site_label
_atom_site_fract_x
_atom_site_fract_y
_atom_site_fract_z
Si Si1 0.000000 0.044924 0.675183
Si Si2 0.785194 0.656712 0.833742
Si Si3 0.706674 0.106849 0.327346
Si Si4 0.289357 0.813739 0.836023
Si Si5 0.209322 0.420658 0.663326
Si Si6 0.708626 0.500000 0.163370
Si Si7 0.209704 0.734200 0.336593
O O1 0.171453 0.070171 0.715760
O O2 0.000000 0.043170 0.500000
O O3 0.000000 0.000000 0.729010
O O4 0.725225 0.617525 0.750124
O O5 0.725815 0.696204 0.751842
O O6 0.000000 0.656668 0.833886
O O7 0.729727 0.656465 0.000000
O O8 0.725093 0.112948 0.500000
O O9 0.500000 0.099911 0.298565
O O10 0.766409 0.146432 0.245613
O O11 0.500000 0.815557 0.841784
O O12 0.243870 0.774660 0.747362
O O13 0.222613 0.811760 0.000000
O O14 0.278855 0.422870 0.500000
O O15 0.239966 0.460804 0.750268
O O16 0.000000 0.415781 0.652951
O O17 0.500000 0.500000 0.154053
O O18 0.780480 0.500000 0.000000
O O19 0.278827 0.735495 0.500000
O O20 0.000000 0.729773 0.345710
#
# Coordination Sequence:
#
# PCOD9385488 Si02
#       7
#     4   8   8   8   8   4   8
#     4   9  18  32  53  83 113 141 183 235 283 338
#     4   9  17  31  52  78 108 140 174 214 261 313
#     4   9  18  33  53  77 108 145 184 230 283 335
#     4  10  21  36  53  75 105 141 181 225 271 320
#     4  10  20  35  57  82 106 135 174 218 264 318
#     4  11  24  39  54  76 106 137 172 217 268 320
#     4  10  20  33  52  79 109 140 175 217 264 314
#
# _framework density 20.041505000000001
#
# number of rings (size 3 to 8) (size 9 to 14) (size 15 to 20)
#    0.000    2.333    0.000    2.500    1.167    7.000 
#    0.000    2.500    0.000    6.000    0.000    2.333 
#    0.000    0.000    0.000    0.000    0.000    0.000 
#
# Total GULP energy -268078.416713 kJ/mol
# GULP energy per Si atom -5584.967015 kJ/mol
# Density = 1.999589 g / cm^3
# Si number density = 20.041505 Si / 1000 Ang^3
#
#
#
# Elastic Constant Matrix: (Units=GPa)
#
#
# Indices 1 2 3 4 5 6 
#
# 1 50.5896 33.7137 29.9972 0.0000 0.0000 0.0000
# 2 33.7137 235.1858 121.7093 0.0000 0.0000 0.0000
# 3 29.9972 121.7093 174.6325 0.0000 0.0000 0.0000
# 4 0.0000 0.0000 0.0000 -113.6418 0.0000 0.0000
# 5 0.0000 0.0000 0.0000 0.0000 10.7044 0.0000
# 6 0.0000 0.0000 0.0000 0.0000 0.0000 130.8568
#
#
#
# Elastic Compliance Matrix: (Units=1/GPa)
#
#
# Indices 1 2 3 4 5 6 
#
# 1 0.022550 -0.001921 -0.002535 0.000000 0.000000 0.000000
# 2 -0.001921 0.006814 -0.004419 0.000000 0.000000 0.000000
# 3 -0.002535 -0.004419 0.009242 0.000000 0.000000 0.000000
# 4 0.000000 0.000000 0.000000 -0.008800 0.000000 0.000000
# 5 0.000000 0.000000 0.000000 0.000000 0.093420 0.000000
# 6 0.000000 0.000000 0.000000 0.000000 0.000000 0.007642
#
#
# Mechanical properties :
#
#
# Convention : Reuss Voigt Hill
#
# Bulk Modulus (GPa) = 47.94713 92.36092 70.15402
# Shear Modulus (GPa) = 32.13997 23.91639 28.02818
#
# Velocity S-wave (km/s) = 4.00893 3.45823 3.74372
# Velocity P-wave (km/s) = 6.73829 7.88230 7.33264
#
# Compressibility (1/GPa) = 0.02085631
#
# Stress axis : x y z
#
# Youngs Moduli (GPa) = 44.34599 146.75101 108.20529
#
# Poissons Ratio (x) = 0.28187 0.27428
# Poissons Ratio (y) = 0.08518 0.47818
# Poissons Ratio (z) = 0.11241 0.64853
#
# Static dielectric constant tensor:
#      x y z
#    x 1.764000 0.000000 0.000000 
#    y 0.000000 1.664700 0.000000 
#    z 0.000000 0.000000 1.700460 
# 
# From -- ./inp_files/2793.got.cif
#   From: 2010.05.17/outbox.cif.g08.bks.cpg/sg47_2_cif.got.tgz:2793.got - 2010.06.03 20:15:42.
