data_PCOD9385706
_publ_section_title
;
Structure prediction by ZEFSAII (Michael W. Deem and Ramdas Pophale) SiO2 
 PCOD9385706
Probable space group: P M M M
;
_chemical_formula_sum "Si O2"
_cell_formula_units_Z 44
_cell_length_a 14.440779
_cell_length_b 16.728083
_cell_length_c 9.196525
_cell_angle_alpha 90.000000
_cell_angle_beta 90.000000
_cell_angle_gamma 90.000000
_cell_volume 2221.572813
_symmetry_space_group_name_H-M "P M M M"
_symmetry_group_IT_number 47
_symmetry_cell_setting 'orthorhombic'
loop_
_space_group_symop_operation_xyz
x,y,z
-x,-y,z
x,-y,-z
-x,y,-z
-x,-y,-z
x,y,-z
-x,y,z
x,-y,z
loop_
_atom_site_type_symbol
_atom_site_label
_atom_site_fract_x
_atom_site_fract_y
_atom_site_fract_z
Si Si1 0.311044 0.404483 0.333300
Si Si2 0.843537 0.179655 0.669320
Si Si3 0.500000 0.597791 0.830613
Si Si4 0.104111 0.363489 0.671434
Si Si5 0.000000 0.906401 0.162518
Si Si6 0.500000 0.095761 0.662785
Si Si7 0.687514 0.093800 0.826419
O O1 0.312291 0.371949 0.500000
O O2 0.320963 0.500000 0.341837
O O3 0.403112 0.376100 0.246856
O O4 0.205927 0.391222 0.272031
O O5 0.828353 0.163052 0.500000
O O6 0.886423 0.267755 0.681262
O O7 0.913738 0.119727 0.743859
O O8 0.752250 0.161532 0.759007
O O9 0.500000 0.500000 0.826346
O O10 0.500000 0.621506 0.000000
O O11 0.103628 0.386724 0.500000
O O12 0.000000 0.386543 0.728026
O O13 0.000000 0.000000 0.146107
O O14 0.000000 0.869824 0.000000
O O15 0.500000 0.130834 0.500000
O O16 0.589178 0.113048 0.757406
O O17 0.500000 0.000000 0.646257
O O18 0.711923 0.000000 0.787266
O O19 0.688024 0.097010 0.000000
#
# Coordination Sequence:
#
# PCOD9385706 Si02
#       7
#     8   8   4   8   4   4   8
#     4   9  17  31  56  86 111 140 181 224 265 318
#     4  11  21  35  54  75 102 138 176 215 261 318
#     4   9  17  31  52  79 114 147 175 219 274 319
#     4   9  18  34  54  78 110 144 178 221 273 321
#     4  11  23  37  53  75 102 131 170 222 273 317
#     4   9  17  31  52  77 102 131 171 215 262 321
#     4  10  20  34  52  75 104 135 169 216 269 317
#
# _framework density 19.805788
#
# number of rings (size 3 to 8) (size 9 to 14) (size 15 to 20)
#    0.000    2.273    0.909    2.455    0.000    6.545 
#    0.000    4.545    0.000    2.182    0.000    2.545 
#    0.000    0.000    0.000    0.000    0.000    0.000 
#
# Total GULP energy -244951.843797 kJ/mol
# GULP energy per Si atom -5567.087359 kJ/mol
# Density = 1.976071 g / cm^3
# Si number density = 19.805788 Si / 1000 Ang^3
#
#
#
# Elastic Constant Matrix: (Units=GPa)
#
#
# Indices 1 2 3 4 5 6 
#
# 1 181.2583 7.7504 47.1176 0.0000 0.0000 0.0000
# 2 7.7504 11.1882 13.0909 0.0000 0.0000 0.0000
# 3 47.1176 13.0909 82.6432 0.0000 0.0000 0.0000
# 4 0.0000 0.0000 0.0000 4.5226 0.0000 0.0000
# 5 0.0000 0.0000 0.0000 0.0000 40.8049 0.0000
# 6 0.0000 0.0000 0.0000 0.0000 0.0000 21.0139
#
#
#
# Elastic Compliance Matrix: (Units=1/GPa)
#
#
# Indices 1 2 3 4 5 6 
#
# 1 0.006477 -0.000204 -0.003661 0.000000 0.000000 0.000000
# 2 -0.000204 0.109720 -0.017264 0.000000 0.000000 0.000000
# 3 -0.003661 -0.017264 0.016922 0.000000 0.000000 0.000000
# 4 0.000000 0.000000 0.000000 0.221113 0.000000 0.000000
# 5 0.000000 0.000000 0.000000 0.000000 0.024507 0.000000
# 6 0.000000 0.000000 0.000000 0.000000 0.000000 0.047588
#
#
# Mechanical properties :
#
#
# Convention : Reuss Voigt Hill
#
# Bulk Modulus (GPa) = 11.00557 45.66749 28.33653
# Shear Modulus (GPa) = 10.02263 27.07700 18.54981
#
# Velocity S-wave (km/s) = 2.25199 3.70148 3.06369
# Velocity P-wave (km/s) = 3.51151 6.43239 5.18200
#
# Compressibility (1/GPa) = 0.09086311
#
# Stress axis : x y z
#
# Youngs Moduli (GPa) = 154.38595 9.11408 59.09517
#
# Poissons Ratio (x) = 0.00186 0.21632
# Poissons Ratio (y) = 0.03148 1.02020
# Poissons Ratio (z) = 0.56515 0.15734
#
# Static dielectric constant tensor:
#      x y z
#    x 1.869520 0.000000 0.000000 
#    y 0.000000 1.797190 0.000000 
#    z 0.000000 0.000000 1.680640 
# 
# From -- ./inp_files/6295.got.cif
#   From: 2010.05.17/outbox.cif.g08.bks.cpg/sg47_4_cif.got.tgz:6295.got - 2010.06.03 20:15:42.
