data_PCOD9385866
_publ_section_title
;
Structure prediction by ZEFSAII (Michael W. Deem and Ramdas Pophale) SiO2 
 PCOD9385866
Probable space group: P M M M
;
_chemical_formula_sum "Si O2"
_cell_formula_units_Z 56
_cell_length_a 16.018971
_cell_length_b 9.325578
_cell_length_c 19.855512
_cell_angle_alpha 90.000000
_cell_angle_beta 90.000000
_cell_angle_gamma 90.000000
_cell_volume 2966.138763
_symmetry_space_group_name_H-M "P M M M"
_symmetry_group_IT_number 47
_symmetry_cell_setting 'orthorhombic'
loop_
_space_group_symop_operation_xyz
x,y,z
-x,-y,z
x,-y,-z
-x,y,-z
-x,-y,-z
x,y,-z
-x,y,z
x,-y,z
loop_
_atom_site_type_symbol
_atom_site_label
_atom_site_fract_x
_atom_site_fract_y
_atom_site_fract_z
Si Si1 0.094398 0.170495 0.837380
Si Si2 0.399525 0.169095 0.425602
Si Si3 0.899029 0.834175 0.423578
Si Si4 0.762375 0.329608 0.919865
Si Si5 0.591760 0.325327 0.151679
Si Si6 0.344737 0.665695 0.294573
Si Si7 0.851702 0.665379 0.292455
O O1 0.163765 0.244476 0.883659
O O2 0.102895 0.239365 0.763323
O O3 0.000000 0.196100 0.862380
O O4 0.107875 0.000000 0.833596
O O5 0.372358 0.220669 0.500000
O O6 0.500000 0.184585 0.422332
O O7 0.360775 0.248788 0.362517
O O8 0.380783 0.000000 0.421689
O O9 0.873331 0.796745 0.500000
O O10 0.865169 0.731080 0.366203
O O11 0.000000 0.829359 0.421439
O O12 0.874237 0.000000 0.410937
O O13 0.771561 0.500000 0.904538
O O14 0.671870 0.282063 0.891833
O O15 0.765503 0.311814 0.000000
O O16 0.500000 0.279130 0.127825
O O17 0.592301 0.500000 0.151703
O O18 0.606058 0.279726 0.229113
O O19 0.368820 0.500000 0.305784
O O20 0.246923 0.669414 0.276854
O O21 0.879413 0.500000 0.289737
#
# Coordination Sequence:
#
# PCOD9385866 Si02
#       7
#     8   8   8   8   8   8   8
#     4  11  24  41  62  87 117 156 199 241 289 348
#     4   9  19  35  52  73 105 144 188 239 290 340
#     4   9  19  36  55  76 107 148 193 239 289 349
#     4  10  21  39  63  92 125 156 190 235 286 341
#     4   9  17  33  58  87 120 155 191 233 282 337
#     4  10  20  34  53  78 111 148 187 235 287 339
#     4  11  22  36  56  83 115 148 190 245 295 344
#
# _framework density 18.879764000000002
#
# number of rings (size 3 to 8) (size 9 to 14) (size 15 to 20)
#    0.000    2.143    1.429    2.571    0.000    7.143 
#    0.000    7.143    0.000    0.429    0.000    1.000 
#    0.000    0.000    0.000    0.000    0.000    0.000 
#
# Total GULP energy -312626.998702 kJ/mol
# GULP energy per Si atom -5582.624977 kJ/mol
# Density = 1.883679 g / cm^3
# Si number density = 18.879764 Si / 1000 Ang^3
#
#
#
# Elastic Constant Matrix: (Units=GPa)
#
#
# Indices 1 2 3 4 5 6 
#
# 1 106.2867 52.9974 59.3929 0.0000 0.0000 0.0000
# 2 52.9974 62.7422 54.2804 0.0000 0.0000 0.0000
# 3 59.3929 54.2804 98.1873 0.0000 0.0000 0.0000
# 4 0.0000 0.0000 0.0000 17.1546 0.0000 0.0000
# 5 0.0000 0.0000 0.0000 0.0000 4.4715 0.0000
# 6 0.0000 0.0000 0.0000 0.0000 0.0000 52.8189
#
#
#
# Elastic Compliance Matrix: (Units=1/GPa)
#
#
# Indices 1 2 3 4 5 6 
#
# 1 0.017259 -0.010631 -0.004563 0.000000 0.000000 0.000000
# 2 -0.010631 0.037097 -0.014078 0.000000 0.000000 0.000000
# 3 -0.004563 -0.014078 0.020727 0.000000 0.000000 0.000000
# 4 0.000000 0.000000 0.000000 0.058293 0.000000 0.000000
# 5 0.000000 0.000000 0.000000 0.000000 0.223640 0.000000
# 6 0.000000 0.000000 0.000000 0.000000 0.000000 0.018933
#
#
# Mechanical properties :
#
#
# Convention : Reuss Voigt Hill
#
# Bulk Modulus (GPa) = 60.45797 66.72863 63.59330
# Shear Modulus (GPa) = 11.36348 21.59202 16.47775
#
# Velocity S-wave (km/s) = 2.45600 3.38547 2.95748
# Velocity P-wave (km/s) = 6.33520 7.12058 6.73934
#
# Compressibility (1/GPa) = 0.01654042
#
# Stress axis : x y z
#
# Youngs Moduli (GPa) = 57.94022 26.95629 48.24608
#
# Poissons Ratio (x) = 0.28657 0.22014
# Poissons Ratio (y) = 0.61597 0.67919
# Poissons Ratio (z) = 0.26437 0.37948
#
# Static dielectric constant tensor:
#      x y z
#    x 1.675360 0.000000 0.000000 
#    y 0.000000 1.629920 0.000000 
#    z 0.000000 0.000000 1.643710 
# 
# From -- ./inp_files/7300.got.cif
#   From: 2010.05.17/outbox.cif.g08.bks.cpg/sg47_4_cif.got.tgz:7300.got - 2010.06.03 20:15:42.
