data_PCOD9385720
_publ_section_title
;
Structure prediction by ZEFSAII (Michael W. Deem and Ramdas Pophale) SiO2 
 PCOD9385720
Probable space group: P M M M
;
_chemical_formula_sum "Si O2"
_cell_formula_units_Z 40
_cell_length_a 8.846426
_cell_length_b 18.742005
_cell_length_c 14.408906
_cell_angle_alpha 90.000000
_cell_angle_beta 90.000000
_cell_angle_gamma 90.000000
_cell_volume 2388.993161
_symmetry_space_group_name_H-M "P M M M"
_symmetry_group_IT_number 47
_symmetry_cell_setting 'orthorhombic'
loop_
_space_group_symop_operation_xyz
x,y,z
-x,-y,z
x,-y,-z
-x,y,-z
-x,-y,-z
x,y,-z
-x,y,z
x,-y,z
loop_
_atom_site_type_symbol
_atom_site_label
_atom_site_fract_x
_atom_site_fract_y
_atom_site_fract_z
Si Si1 0.680275 0.650656 0.108899
Si Si2 0.171455 0.500000 0.887418
Si Si3 0.183562 0.578763 0.391711
Si Si4 0.680773 0.849863 0.390493
Si Si5 0.173941 0.000000 0.612555
Si Si6 0.181660 0.281535 0.721025
O O1 0.500000 0.651043 0.119085
O O2 0.744832 0.572925 0.137213
O O3 0.756094 0.708413 0.175417
O O4 0.716251 0.661256 0.000000
O O5 0.000000 0.500000 0.850492
O O6 0.164507 0.500000 0.000000
O O7 0.226421 0.585930 0.500000
O O8 0.233712 0.500000 0.358733
O O9 0.233821 0.647197 0.334263
O O10 0.000000 0.578659 0.388760
O O11 0.719234 0.840074 0.500000
O O12 0.500000 0.848247 0.382348
O O13 0.754497 0.787233 0.330938
O O14 0.742735 0.927194 0.360165
O O15 0.174534 0.000000 0.500000
O O16 0.000000 0.000000 0.643500
O O17 0.000000 0.279719 0.721142
#
# Coordination Sequence:
#
# PCOD9385720 Si02
#       6
#     8   4   8   8   4   8
#     4  10  21  36  51  69  97 132 169 213 269 323
#     4   9  17  31  51  71  90 117 160 213 263 311
#     4   8  15  28  44  64  93 128 166 208 251 294
#     4  10  20  34  52  76 109 144 174 206 251 307
#     4   9  17  31  53  79 106 135 170 211 253 299
#     4  11  21  31  50  76 101 132 174 219 262 305
#
# _framework density 16.743455999999998
#
# number of rings (size 3 to 8) (size 9 to 14) (size 15 to 20)
#    0.000    2.400    0.000    3.600    1.400    5.600 
#    0.000    0.000    0.000    0.000    0.000    4.900 
#    0.000    5.600    0.000    0.000    0.000    0.000 
#
# Total GULP energy -223216.063663 kJ/mol
# GULP energy per Si atom -5580.401592 kJ/mol
# Density = 1.670535 g / cm^3
# Si number density = 16.743456 Si / 1000 Ang^3
#
#
#
# Elastic Constant Matrix: (Units=GPa)
#
#
# Indices 1 2 3 4 5 6 
#
# 1 69.7356 58.2120 46.7121 0.0000 0.0000 0.0000
# 2 58.2120 148.5397 72.7242 0.0000 0.0000 0.0000
# 3 46.7121 72.7242 78.1801 0.0000 0.0000 0.0000
# 4 0.0000 0.0000 0.0000 18.0948 0.0000 0.0000
# 5 0.0000 0.0000 0.0000 0.0000 20.0182 0.0000
# 6 0.0000 0.0000 0.0000 0.0000 0.0000 28.5113
#
#
#
# Elastic Compliance Matrix: (Units=1/GPa)
#
#
# Indices 1 2 3 4 5 6 
#
# 1 0.025554 -0.004663 -0.010931 0.000000 0.000000 0.000000
# 2 -0.004663 0.013213 -0.009505 0.000000 0.000000 0.000000
# 3 -0.010931 -0.009505 0.028164 0.000000 0.000000 0.000000
# 4 0.000000 0.000000 0.000000 0.055264 0.000000 0.000000
# 5 0.000000 0.000000 0.000000 0.000000 0.049955 0.000000
# 6 0.000000 0.000000 0.000000 0.000000 0.000000 0.035074
#
#
# Mechanical properties :
#
#
# Convention : Reuss Voigt Hill
#
# Bulk Modulus (GPa) = 59.76046 72.41691 66.08868
# Shear Modulus (GPa) = 19.01137 21.24533 20.12835
#
# Velocity S-wave (km/s) = 3.37330 3.56599 3.47098
# Velocity P-wave (km/s) = 7.13733 7.76529 7.45793
#
# Compressibility (1/GPa) = 0.01673347
#
# Stress axis : x y z
#
# Youngs Moduli (GPa) = 39.13226 75.68207 35.50618
#
# Poissons Ratio (x) = 0.35289 0.38813
# Poissons Ratio (y) = 0.18246 0.33749
# Poissons Ratio (z) = 0.42776 0.71937
#
# Static dielectric constant tensor:
#      x y z
#    x 1.558320 0.000000 0.000000 
#    y 0.000000 1.546140 0.000000 
#    z 0.000000 0.000000 1.582580 
# 
# From -- ./inp_files/20702.got.cif
#   From: 2010.05.17/outbox.cif.g08.bks.cpg/sg47_11_cif.got.tgz:20702.got - 2010.06.03 20:15:42.
