data_PCOD9385920
_publ_section_title
;
Structure prediction by ZEFSAII (Michael W. Deem and Ramdas Pophale) SiO2 
 PCOD9385920
Probable space group: P M M M
;
_chemical_formula_sum "Si O2"
_cell_formula_units_Z 40
_cell_length_a 7.663249
_cell_length_b 27.184081
_cell_length_c 9.406152
_cell_angle_alpha 90.000000
_cell_angle_beta 90.000000
_cell_angle_gamma 90.000000
_cell_volume 1959.474361
_symmetry_space_group_name_H-M "P M M M"
_symmetry_group_IT_number 47
_symmetry_cell_setting 'orthorhombic'
loop_
_space_group_symop_operation_xyz
x,y,z
-x,-y,z
x,-y,-z
-x,y,-z
-x,-y,-z
x,y,-z
-x,y,z
x,-y,z
loop_
_atom_site_type_symbol
_atom_site_label
_atom_site_fract_x
_atom_site_fract_y
_atom_site_fract_z
Si Si1 0.209645 0.298838 0.664836
Si Si2 0.292179 0.000000 0.338999
Si Si3 0.292092 0.594336 0.337835
Si Si4 0.285732 0.500000 0.836836
Si Si5 0.786676 0.191316 0.665996
Si Si6 0.791013 0.902879 0.160790
O O1 0.269762 0.300005 0.500000
O O2 0.262005 0.351415 0.726842
O O3 0.267933 0.245531 0.720696
O O4 0.000000 0.298021 0.664589
O O5 0.240816 0.951374 0.253092
O O6 0.500000 0.000000 0.348356
O O7 0.220433 0.000000 0.500000
O O8 0.221162 0.593098 0.500000
O O9 0.500000 0.588241 0.348280
O O10 0.226413 0.548990 0.245091
O O11 0.500000 0.500000 0.836118
O O12 0.230468 0.500000 0.000000
O O13 0.735882 0.186155 0.500000
O O14 0.723709 0.145683 0.758927
O O15 0.000000 0.190613 0.667136
O O16 0.000000 0.897300 0.151408
O O17 0.723107 0.907844 0.000000
#
# Coordination Sequence:
#
# PCOD9385920 Si02
#       6
#     8   4   8   4   8   8
#     4   8  14  26  45  68  93 121 152 186 227 273
#     4  11  24  39  54  74 100 131 166 203 246 292
#     4   9  16  27  45  67  87 110 147 193 232 266
#     4   9  17  29  44  61  84 116 150 183 224 276
#     4   8  14  27  48  71  95 125 159 193 229 272
#     4  10  20  34  54  79 103 129 164 202 239 284
#
# _framework density 20.413637999999999
#
# number of rings (size 3 to 8) (size 9 to 14) (size 15 to 20)
#    0.000    3.000    0.000    2.700    0.000    4.400 
#    0.000    2.500    0.000    8.400    0.000    0.000 
#    0.000    0.000    0.000    0.000    0.000    0.000 
#
# Total GULP energy -222982.440300 kJ/mol
# GULP energy per Si atom -5574.561007 kJ/mol
# Density = 2.036718 g / cm^3
# Si number density = 20.413638 Si / 1000 Ang^3
#
#
#
# Elastic Constant Matrix: (Units=GPa)
#
#
# Indices 1 2 3 4 5 6 
#
# 1 34.1861 3.0386 6.0778 0.0000 0.0000 0.0000
# 2 3.0386 252.5827 112.0635 0.0000 0.0000 0.0000
# 3 6.0778 112.0635 122.9086 0.0000 0.0000 0.0000
# 4 0.0000 0.0000 0.0000 -6.9494 0.0000 0.0000
# 5 0.0000 0.0000 0.0000 0.0000 4.3272 0.0000
# 6 0.0000 0.0000 0.0000 0.0000 0.0000 25.9706
#
#
#
# Elastic Compliance Matrix: (Units=1/GPa)
#
#
# Indices 1 2 3 4 5 6 
#
# 1 0.029547 0.000492 -0.001909 0.000000 0.000000 0.000000
# 2 0.000492 0.006657 -0.006094 0.000000 0.000000 0.000000
# 3 -0.001909 -0.006094 0.013787 0.000000 0.000000 0.000000
# 4 0.000000 0.000000 0.000000 -0.143897 0.000000 0.000000
# 5 0.000000 0.000000 0.000000 0.000000 0.231094 0.000000
# 6 0.000000 0.000000 0.000000 0.000000 0.000000 0.038505
#
#
# Mechanical properties :
#
#
# Convention : Reuss Voigt Hill
#
# Bulk Modulus (GPa) = 28.59767 72.44856 50.52312
# Shear Modulus (GPa) = 24.70699 23.90286 24.30493
#
# Velocity S-wave (km/s) = 3.48274 3.42559 3.45428
# Velocity P-wave (km/s) = 5.49656 7.15637 6.38066
#
# Compressibility (1/GPa) = 0.03496788
#
# Stress axis : x y z
#
# Youngs Moduli (GPa) = 33.84393 150.22257 72.53433
#
# Poissons Ratio (x) = -0.07386 0.13850
# Poissons Ratio (y) = -0.01664 0.44200
# Poissons Ratio (z) = 0.06462 0.91542
#
# Static dielectric constant tensor:
#      x y z
#    x 1.765150 0.000000 0.000000 
#    y 0.000000 1.743570 0.000000 
#    z 0.000000 0.000000 1.702720 
# 
# From -- ./inp_files/1753.got.cif
#   From: 2010.05.17/outbox.cif.g08.bks.cpg/sg47_1_cif.got.tgz:1753.got - 2010.06.03 20:15:42.
