data_PCOD9385941
_publ_section_title
;
Structure prediction by ZEFSAII (Michael W. Deem and Ramdas Pophale) SiO2 
 PCOD9385941
Probable space group: P M M M
;
_chemical_formula_sum "Si O2"
_cell_formula_units_Z 40
_cell_length_a 9.063190
_cell_length_b 9.341708
_cell_length_c 26.647389
_cell_angle_alpha 90.000000
_cell_angle_beta 90.000000
_cell_angle_gamma 90.000000
_cell_volume 2256.119164
_symmetry_space_group_name_H-M "P M M M"
_symmetry_group_IT_number 47
_symmetry_cell_setting 'orthorhombic'
loop_
_space_group_symop_operation_xyz
x,y,z
-x,-y,z
x,-y,-z
-x,y,-z
-x,-y,-z
x,y,-z
-x,y,z
x,-y,z
loop_
_atom_site_type_symbol
_atom_site_label
_atom_site_fract_x
_atom_site_fract_y
_atom_site_fract_z
Si Si1 0.330093 0.825790 0.000000
Si Si2 0.176568 0.669169 0.300659
Si Si3 0.819753 0.334877 0.500000
Si Si4 0.674448 0.329081 0.804214
Si Si5 0.825941 0.828206 0.896885
Si Si6 0.820017 0.164855 0.599262
O O1 0.248503 0.780840 0.949140
O O2 0.500000 0.779388 0.000000
O O3 0.328129 0.000000 0.000000
O O4 0.203804 0.500000 0.309389
O O5 0.256624 0.712628 0.249434
O O6 0.224837 0.758429 0.349185
O O7 0.000000 0.687127 0.294338
O O8 0.772906 0.500000 0.500000
O O9 0.772189 0.252466 0.550199
O O10 0.000000 0.334456 0.500000
O O11 0.500000 0.301515 0.804624
O O12 0.697933 0.500000 0.809761
O O13 0.751771 0.247793 0.849700
O O14 0.000000 0.798782 0.898217
O O15 0.806237 0.000000 0.892597
O O16 0.000000 0.166037 0.598881
O O17 0.772790 0.000000 0.597134
#
# Coordination Sequence:
#
# PCOD9385941 Si02
#       6
#     4   8   4   8   8   8
#     4   9  17  31  52  77 106 139 172 208 252 301
#     4   9  17  30  47  66  91 125 162 199 243 297
#     4   9  15  23  37  59  90 127 162 195 238 294
#     4  10  21  36  53  74 101 133 169 210 256 305
#     4  10  20  34  54  79 105 134 170 211 254 302
#     4   9  16  25  39  62  92 123 157 200 246 290
#
# _framework density 17.729558000000001
#
# number of rings (size 3 to 8) (size 9 to 14) (size 15 to 20)
#    0.000    2.600    0.000    2.400    0.000    8.000 
#    0.000    2.500    0.000    3.000    0.000    0.700 
#    0.000    5.600    0.000    0.000    0.000    0.000 
#
# Total GULP energy -223150.350783 kJ/mol
# GULP energy per Si atom -5578.758770 kJ/mol
# Density = 1.768921 g / cm^3
# Si number density = 17.729558 Si / 1000 Ang^3
#
#
#
# Elastic Constant Matrix: (Units=GPa)
#
#
# Indices 1 2 3 4 5 6 
#
# 1 60.7739 49.8706 82.4245 0.0000 0.0000 0.0000
# 2 49.8706 80.7406 100.1405 0.0000 0.0000 0.0000
# 3 82.4245 100.1405 233.0622 0.0000 0.0000 0.0000
# 4 0.0000 0.0000 0.0000 39.2297 0.0000 0.0000
# 5 0.0000 0.0000 0.0000 0.0000 -10.8868 0.0000
# 6 0.0000 0.0000 0.0000 0.0000 0.0000 15.8268
#
#
#
# Elastic Compliance Matrix: (Units=1/GPa)
#
#
# Indices 1 2 3 4 5 6 
#
# 1 0.038339 -0.014695 -0.007245 0.000000 0.000000 0.000000
# 2 -0.014695 0.032148 -0.008616 0.000000 0.000000 0.000000
# 3 -0.007245 -0.008616 0.010555 0.000000 0.000000 0.000000
# 4 0.000000 0.000000 0.000000 0.025491 0.000000 0.000000
# 5 0.000000 0.000000 0.000000 0.000000 -0.091855 0.000000
# 6 0.000000 0.000000 0.000000 0.000000 0.000000 0.063184
#
#
# Mechanical properties :
#
#
# Convention : Reuss Voigt Hill
#
# Bulk Modulus (GPa) = 50.17515 93.27200 71.72358
# Shear Modulus (GPa) = 34.33627 18.31001 26.32314
#
# Velocity S-wave (km/s) = 4.40553 3.21711 3.85737
# Velocity P-wave (km/s) = 7.36478 8.15611 7.77053
#
# Compressibility (1/GPa) = 0.01993018
#
# Stress axis : x y z
#
# Youngs Moduli (GPa) = 26.08317 31.10567 94.74086
#
# Poissons Ratio (x) = 0.45710 0.68639
# Poissons Ratio (y) = 0.38329 0.81632
# Poissons Ratio (z) = 0.18897 0.26802
#
# Static dielectric constant tensor:
#      x y z
#    x 1.585400 0.000000 0.000000 
#    y 0.000000 1.595670 0.000000 
#    z 0.000000 0.000000 1.577600 
# 
# From -- ./inp_files/1788.got.cif
#   From: 2010.05.17/outbox.cif.g08.bks.cpg/sg47_1_cif.got.tgz:1788.got - 2010.06.03 20:15:42.
