data_PCOD9385910
_publ_section_title
;
Structure prediction by ZEFSAII (Michael W. Deem and Ramdas Pophale) SiO2 
 PCOD9385910
Probable space group: P M M M
;
_chemical_formula_sum "Si O2"
_cell_formula_units_Z 40
_cell_length_a 21.102984
_cell_length_b 8.618855
_cell_length_c 12.225963
_cell_angle_alpha 90.000000
_cell_angle_beta 90.000000
_cell_angle_gamma 90.000000
_cell_volume 2223.701665
_symmetry_space_group_name_H-M "P M M M"
_symmetry_group_IT_number 47
_symmetry_cell_setting 'orthorhombic'
loop_
_space_group_symop_operation_xyz
x,y,z
-x,-y,z
x,-y,-z
-x,y,-z
-x,-y,-z
x,y,-z
-x,y,z
x,-y,z
loop_
_atom_site_type_symbol
_atom_site_label
_atom_site_fract_x
_atom_site_fract_y
_atom_site_fract_z
Si Si1 0.195291 0.684911 0.720109
Si Si2 0.252931 0.820788 0.500000
Si Si3 0.404595 0.821477 0.500000
Si Si4 0.072279 0.813202 0.626242
Si Si5 0.308097 0.689673 0.125888
Si Si6 0.569339 0.313040 0.736834
O O1 0.191437 0.500000 0.725648
O O2 0.228562 0.736511 0.607727
O O3 0.124654 0.751404 0.709413
O O4 0.242677 0.739211 0.815913
O O5 0.328481 0.818946 0.500000
O O6 0.230560 0.000000 0.500000
O O7 0.425880 0.740533 0.611481
O O8 0.425390 0.000000 0.500000
O O9 0.086923 0.764613 0.500000
O O10 0.000000 0.764318 0.649831
O O11 0.073862 0.000000 0.627253
O O12 0.308705 0.500000 0.127921
O O13 0.369653 0.742622 0.194766
O O14 0.311652 0.738409 0.000000
O O15 0.500000 0.264226 0.780418
O O16 0.571318 0.500000 0.738971
#
# Coordination Sequence:
#
# PCOD9385910 Si02
#       6
#     8   4   4   8   8   8
#     4  11  20  31  53  80 105 134 171 216 258 301
#     4  11  21  32  49  74 104 139 172 206 257 314
#     4  11  22  34  51  75 107 141 170 207 258 318
#     4   9  18  32  50  75 110 146 171 199 247 306
#     4   9  19  35  53  75 103 134 172 219 266 306
#     4  10  20  34  54  78 104 135 172 215 260 310
#
# _framework density 17.988025
#
# number of rings (size 3 to 8) (size 9 to 14) (size 15 to 20)
#    0.000    2.000    3.000    2.100    0.000    3.200 
#    0.000    3.000    0.000    6.000    0.000    5.600 
#    0.000    0.000    0.000    0.000    0.000    0.000 
#
# Total GULP energy -223142.492649 kJ/mol
# GULP energy per Si atom -5578.562316 kJ/mol
# Density = 1.794708 g / cm^3
# Si number density = 17.988025 Si / 1000 Ang^3
#
#
#
# Elastic Constant Matrix: (Units=GPa)
#
#
# Indices 1 2 3 4 5 6 
#
# 1 172.8022 26.4330 72.7195 0.0000 0.0000 0.0000
# 2 26.4330 11.7712 8.3933 0.0000 0.0000 0.0000
# 3 72.7195 8.3933 115.7983 0.0000 0.0000 0.0000
# 4 0.0000 0.0000 0.0000 -1.4503 0.0000 0.0000
# 5 0.0000 0.0000 0.0000 0.0000 8.4111 0.0000
# 6 0.0000 0.0000 0.0000 0.0000 0.0000 21.1474
#
#
#
# Elastic Compliance Matrix: (Units=1/GPa)
#
#
# Indices 1 2 3 4 5 6 
#
# 1 0.011492 -0.021786 -0.005638 0.000000 0.000000 0.000000
# 2 -0.021786 0.130885 0.004195 0.000000 0.000000 0.000000
# 3 -0.005638 0.004195 0.011872 0.000000 0.000000 0.000000
# 4 0.000000 0.000000 0.000000 -0.689523 0.000000 0.000000
# 5 0.000000 0.000000 0.000000 0.000000 0.118890 0.000000
# 6 0.000000 0.000000 0.000000 0.000000 0.000000 0.047287
#
#
# Mechanical properties :
#
#
# Convention : Reuss Voigt Hill
#
# Bulk Modulus (GPa) = 9.27727 57.27370 33.27549
# Shear Modulus (GPa) = -17.43936 18.47671 0.51868
#
# Velocity S-wave (km/s) = -3.11705 3.20842 0.53756
# Velocity P-wave (km/s) = 2.79035 6.75532 4.35019
#
# Compressibility (1/GPa) = 0.10779030
#
# Stress axis : x y z
#
# Youngs Moduli (GPa) = 87.01685 7.64030 84.23143
#
# Poissons Ratio (x) = 0.16645 0.47487
# Poissons Ratio (y) = 1.89577 -0.35332
# Poissons Ratio (z) = 0.49058 -0.03205
#
# Static dielectric constant tensor:
#      x y z
#    x 1.660060 0.000000 0.000000 
#    y 0.000000 1.615530 0.000000 
#    z 0.000000 0.000000 1.578560 
# 
# From -- ./inp_files/18934.got.cif
#   From: 2010.05.17/outbox.cif.g08.bks.cpg/sg47_10_cif.got.tgz:18934.got - 2010.06.03 20:15:42.
