data_PCOD9385074
_publ_section_title
;
Structure prediction by ZEFSAII (Michael W. Deem and Ramdas Pophale) SiO2 
 PCOD9385074
Probable space group: P M M M
;
_chemical_formula_sum "Si O2"
_cell_formula_units_Z 48
_cell_length_a 7.860555
_cell_length_b 17.768778
_cell_length_c 16.054699
_cell_angle_alpha 90.000000
_cell_angle_beta 90.000000
_cell_angle_gamma 90.000000
_cell_volume 2242.399252
_symmetry_space_group_name_H-M "P M M M"
_symmetry_group_IT_number 47
_symmetry_cell_setting 'orthorhombic'
loop_
_space_group_symop_operation_xyz
x,y,z
-x,-y,z
x,-y,-z
-x,y,-z
-x,-y,-z
x,y,-z
-x,y,z
x,-y,z
loop_
_atom_site_type_symbol
_atom_site_label
_atom_site_fract_x
_atom_site_fract_y
_atom_site_fract_z
Si Si1 0.205734 0.412857 0.905212
Si Si2 0.684830 0.000000 0.712280
Si Si3 0.699460 0.287805 0.224820
Si Si4 0.189125 0.000000 0.116442
Si Si5 0.301970 0.701883 0.591711
Si Si6 0.200243 0.873167 0.407022
Si Si7 0.702159 0.170063 0.091044
O O1 0.250816 0.500000 0.889468
O O2 0.283115 0.356396 0.839006
O O3 0.000000 0.407259 0.901270
O O4 0.257714 0.394352 0.000000
O O5 0.708934 0.927364 0.656394
O O6 0.500000 0.000000 0.752965
O O7 0.818273 0.000000 0.784467
O O8 0.500000 0.271361 0.241240
O O9 0.772375 0.312813 0.315413
O O10 0.770249 0.215700 0.172091
O O11 0.272531 0.080110 0.094946
O O12 0.000000 0.000000 0.083414
O O13 0.229581 0.677505 0.500000
O O14 0.500000 0.678132 0.591150
O O15 0.286196 0.792193 0.591061
O O16 0.210394 0.905611 0.500000
O O17 0.000000 0.864874 0.386770
O O18 0.500000 0.184527 0.090717
O O19 0.770788 0.195588 0.000000
#
# Coordination Sequence:
#
# PCOD9385074 Si02
#       7
#     8   4   8   4   8   8   8
#     4   9  19  36  57  83 116 149 177 212 267 331
#     4  12  23  34  49  67  91 127 171 215 268 333
#     4  10  20  34  56  85 111 140 183 228 267 314
#     4  12  25  38  53  73  99 135 182 231 274 318
#     4   9  18  33  52  75 106 143 180 217 260 313
#     4  10  20  33  49  71  98 126 164 219 275 322
#     4  10  21  37  55  76 106 142 179 223 276 331
#
# _framework density 21.405643000000001
#
# number of rings (size 3 to 8) (size 9 to 14) (size 15 to 20)
#    0.000    2.000    0.000    4.500    0.000    7.333 
#    0.000    0.833    0.000    0.500    0.000    3.500 
#    0.000    0.000    0.000    0.000    0.000    0.000 
#
# Total GULP energy -267649.802057 kJ/mol
# GULP energy per Si atom -5576.037543 kJ/mol
# Density = 2.135692 g / cm^3
# Si number density = 21.405643 Si / 1000 Ang^3
#
#
#
# Elastic Constant Matrix: (Units=GPa)
#
#
# Indices 1 2 3 4 5 6 
#
# 1 42.2127 -7.5837 11.6390 0.0000 0.0000 0.0000
# 2 -7.5837 59.4211 47.4438 0.0000 0.0000 0.0000
# 3 11.6390 47.4438 173.2116 0.0000 0.0000 0.0000
# 4 0.0000 0.0000 0.0000 13.6935 0.0000 0.0000
# 5 0.0000 0.0000 0.0000 0.0000 2.9061 0.0000
# 6 0.0000 0.0000 0.0000 0.0000 0.0000 27.3919
#
#
#
# Elastic Compliance Matrix: (Units=1/GPa)
#
#
# Indices 1 2 3 4 5 6 
#
# 1 0.025686 0.005960 -0.003358 0.000000 0.000000 0.000000
# 2 0.005960 0.022922 -0.006679 0.000000 0.000000 0.000000
# 3 -0.003358 -0.006679 0.007828 0.000000 0.000000 0.000000
# 4 0.000000 0.000000 0.000000 0.073027 0.000000 0.000000
# 5 0.000000 0.000000 0.000000 0.000000 0.344107 0.000000
# 6 0.000000 0.000000 0.000000 0.000000 0.000000 0.036507
#
#
# Mechanical properties :
#
#
# Convention : Reuss Voigt Hill
#
# Bulk Modulus (GPa) = 20.71186 41.98261 31.34723
# Shear Modulus (GPa) = 9.35755 23.68805 16.52280
#
# Velocity S-wave (km/s) = 2.09309 3.33021 2.78130
# Velocity P-wave (km/s) = 3.94186 5.86877 4.99904
#
# Compressibility (1/GPa) = 0.04828152
#
# Stress axis : x y z
#
# Youngs Moduli (GPa) = 38.93136 43.62540 127.74020
#
# Poissons Ratio (x) = -0.25999 0.42900
# Poissons Ratio (y) = -0.23202 0.85318
# Poissons Ratio (z) = 0.13075 0.29138
#
# Static dielectric constant tensor:
#      x y z
#    x 1.783160 0.000000 0.000000 
#    y 0.000000 1.728100 0.000000 
#    z 0.000000 0.000000 1.858280 
# 
# From -- ./inp_files/9203.got.cif
#   From: 2010.05.17/outbox.cif.g08.bks.cpg/sg47_5_cif.got.tgz:9203.got - 2010.06.03 20:15:42.
