data_PCOD9385246
_publ_section_title
;
Structure prediction by ZEFSAII (Michael W. Deem and Ramdas Pophale) SiO2 
 PCOD9385246
Probable space group: P M M M
;
_chemical_formula_sum "Si O2"
_cell_formula_units_Z 56
_cell_length_a 24.055937
_cell_length_b 14.807899
_cell_length_c 8.931753
_cell_angle_alpha 90.000000
_cell_angle_beta 90.000000
_cell_angle_gamma 90.000000
_cell_volume 3181.650167
_symmetry_space_group_name_H-M "P M M M"
_symmetry_group_IT_number 47
_symmetry_cell_setting 'orthorhombic'
loop_
_space_group_symop_operation_xyz
x,y,z
-x,-y,z
x,-y,-z
-x,y,-z
-x,-y,-z
x,y,-z
-x,y,z
x,-y,z
loop_
_atom_site_type_symbol
_atom_site_label
_atom_site_fract_x
_atom_site_fract_y
_atom_site_fract_z
Si Si1 0.763359 0.892074 0.175733
Si Si2 0.117228 0.104784 0.321057
Si Si3 0.843069 0.608017 0.676283
Si Si4 0.337887 0.216590 0.320324
Si Si5 0.435059 0.103860 0.179936
Si Si6 0.283023 0.397757 0.682219
Si Si7 0.937665 0.728356 0.178440
O O1 0.822158 0.872240 0.253940
O O2 0.713433 0.840916 0.255912
O O3 0.754301 0.000000 0.187261
O O4 0.765712 0.868687 0.000000
O O5 0.118803 0.113577 0.500000
O O6 0.074178 0.174500 0.251429
O O7 0.105394 0.000000 0.283947
O O8 0.846724 0.631540 0.500000
O O9 0.850135 0.500000 0.689549
O O10 0.779969 0.628076 0.728367
O O11 0.890313 0.661328 0.762740
O O12 0.337732 0.211931 0.500000
O O13 0.394033 0.173582 0.257311
O O14 0.325931 0.320184 0.273937
O O15 0.500000 0.118779 0.215768
O O16 0.421060 0.000000 0.222293
O O17 0.429065 0.109909 0.000000
O O18 0.281636 0.400224 0.500000
O O19 0.295076 0.500000 0.733117
O O20 0.000000 0.697294 0.217886
O O21 0.933827 0.735938 0.000000
#
# Coordination Sequence:
#
# PCOD9385246 Si02
#       7
#     8   8   8   8   8   8   8
#     4  10  20  33  50  74 106 140 168 198 247 313
#     4  10  21  37  56  76  99 129 168 216 264 306
#     4   9  18  35  59  81 101 131 171 213 258 308
#     4  11  20  29  50  81 107 134 171 216 259 296
#     4   9  19  36  54  71  99 143 185 215 252 305
#     4   8  16  32  52  75 103 132 162 200 250 306
#     4  11  24  38  52  73 102 136 171 208 255 315
#
# _framework density 17.600930000000002
#
# number of rings (size 3 to 8) (size 9 to 14) (size 15 to 20)
#    0.000    2.286    0.000    4.286    0.000    7.143 
#    0.000    4.286    0.000    3.857    0.000    3.000 
#    0.000    0.000    0.000    0.000    0.000    0.000 
#
# Total GULP energy -312615.471360 kJ/mol
# GULP energy per Si atom -5582.419131 kJ/mol
# Density = 1.756087 g / cm^3
# Si number density = 17.600930 Si / 1000 Ang^3
#
#
#
# Elastic Constant Matrix: (Units=GPa)
#
#
# Indices 1 2 3 4 5 6 
#
# 1 99.0962 77.3157 41.0613 0.0000 0.0000 0.0000
# 2 77.3157 87.7661 38.8496 0.0000 0.0000 0.0000
# 3 41.0613 38.8496 47.7043 0.0000 0.0000 0.0000
# 4 0.0000 0.0000 0.0000 14.8917 0.0000 0.0000
# 5 0.0000 0.0000 0.0000 0.0000 32.2027 0.0000
# 6 0.0000 0.0000 0.0000 0.0000 0.0000 20.3870
#
#
#
# Elastic Compliance Matrix: (Units=1/GPa)
#
#
# Indices 1 2 3 4 5 6 
#
# 1 0.033951 -0.026540 -0.007609 0.000000 0.000000 0.000000
# 2 -0.026540 0.038563 -0.008561 0.000000 0.000000 0.000000
# 3 -0.007609 -0.008561 0.034484 0.000000 0.000000 0.000000
# 4 0.000000 0.000000 0.000000 0.067151 0.000000 0.000000
# 5 0.000000 0.000000 0.000000 0.000000 0.031053 0.000000
# 6 0.000000 0.000000 0.000000 0.000000 0.000000 0.049051
#
#
# Mechanical properties :
#
#
# Convention : Reuss Voigt Hill
#
# Bulk Modulus (GPa) = 46.34466 61.00221 53.67343
# Shear Modulus (GPa) = 14.41471 18.65231 16.53351
#
# Velocity S-wave (km/s) = 2.86488 3.25889 3.06821
# Velocity P-wave (km/s) = 6.10994 6.99244 6.56603
#
# Compressibility (1/GPa) = 0.02157746
#
# Stress axis : x y z
#
# Youngs Moduli (GPa) = 29.45415 25.93126 28.99876
#
# Poissons Ratio (x) = 0.68822 0.22066
# Poissons Ratio (y) = 0.78172 0.24826
# Poissons Ratio (z) = 0.22413 0.22200
#
# Static dielectric constant tensor:
#      x y z
#    x 1.579850 0.000000 0.000000 
#    y 0.000000 1.610910 0.000000 
#    z 0.000000 0.000000 1.586540 
# 
# From -- ./inp_files/7269.got.cif
#   From: 2010.05.17/outbox.cif.g08.bks.cpg/sg47_4_cif.got.tgz:7269.got - 2010.06.03 20:15:42.
