data_PCOD9385945
_publ_section_title
;
Structure prediction by ZEFSAII (Michael W. Deem and Ramdas Pophale) SiO2 
 PCOD9385945
Probable space group: P M M M
;
_chemical_formula_sum "Si O2"
_cell_formula_units_Z 44
_cell_length_a 8.300210
_cell_length_b 18.162792
_cell_length_c 15.747446
_cell_angle_alpha 90.000000
_cell_angle_beta 90.000000
_cell_angle_gamma 90.000000
_cell_volume 2374.006029
_symmetry_space_group_name_H-M "P M M M"
_symmetry_group_IT_number 47
_symmetry_cell_setting 'orthorhombic'
loop_
_space_group_symop_operation_xyz
x,y,z
-x,-y,z
x,-y,-z
-x,y,-z
-x,-y,-z
x,y,-z
-x,y,z
x,-y,z
loop_
_atom_site_type_symbol
_atom_site_label
_atom_site_fract_x
_atom_site_fract_y
_atom_site_fract_z
Si Si1 0.317920 0.412391 0.500000
Si Si2 0.692655 0.206739 0.273646
Si Si3 0.813737 0.365535 0.320450
Si Si4 0.696465 0.258416 0.906960
Si Si5 0.194547 0.914395 0.404038
Si Si6 0.690106 0.580355 0.852347
O O1 0.326452 0.500000 0.500000
O O2 0.500000 0.381933 0.500000
O O3 0.229506 0.388810 0.585191
O O4 0.774528 0.279419 0.311705
O O5 0.742180 0.208987 0.174078
O O6 0.738959 0.137023 0.330012
O O7 0.000000 0.379736 0.302027
O O8 0.500000 0.216524 0.276825
O O9 0.712476 0.408024 0.248635
O O10 0.500000 0.260618 0.906894
O O11 0.753225 0.343084 0.891843
O O12 0.749328 0.233184 0.000000
O O13 0.245148 0.891488 0.500000
O O14 0.000000 0.910849 0.402008
O O15 0.240801 0.000000 0.392983
O O16 0.500000 0.578717 0.872107
O O17 0.757576 0.500000 0.877139
#
# Coordination Sequence:
#
# PCOD9385945 Si02
#       6
#     4   8   8   8   8   8
#     4  11  23  37  51  67  92 127 170 221 267 303
#     4  10  20  34  54  79 106 136 171 214 257 299
#     4  11  22  34  49  69  96 133 173 211 255 311
#     4   8  15  29  49  74 102 133 173 218 264 310
#     4   9  19  36  57  81 110 141 170 203 248 304
#     4   9  17  30  48  70  97 128 166 217 271 314
#
# _framework density 18.534071999999998
#
# number of rings (size 3 to 8) (size 9 to 14) (size 15 to 20)
#    0.000    2.455    0.000    4.636    1.273    4.364 
#    0.000    2.727    0.000   14.182    0.000    8.909 
#    0.000    0.000    0.000    0.000    0.000    0.000 
#
# Total GULP energy -245347.288910 kJ/mol
# GULP energy per Si atom -5576.074748 kJ/mol
# Density = 1.849189 g / cm^3
# Si number density = 18.534072 Si / 1000 Ang^3
#
#
#
# Elastic Constant Matrix: (Units=GPa)
#
#
# Indices 1 2 3 4 5 6 
#
# 1 19.6910 4.8936 3.0575 0.0000 0.0000 0.0000
# 2 4.8936 65.7322 53.4543 0.0000 0.0000 0.0000
# 3 3.0575 53.4543 140.9838 0.0000 0.0000 0.0000
# 4 0.0000 0.0000 0.0000 11.6174 0.0000 0.0000
# 5 0.0000 0.0000 0.0000 0.0000 -12.1448 0.0000
# 6 0.0000 0.0000 0.0000 0.0000 0.0000 39.7081
#
#
#
# Elastic Compliance Matrix: (Units=1/GPa)
#
#
# Indices 1 2 3 4 5 6 
#
# 1 0.051765 -0.004252 0.000489 0.000000 0.000000 0.000000
# 2 -0.004252 0.022344 -0.008380 0.000000 0.000000 0.000000
# 3 0.000489 -0.008380 0.010260 0.000000 0.000000 0.000000
# 4 0.000000 0.000000 0.000000 0.086078 0.000000 0.000000
# 5 0.000000 0.000000 0.000000 0.000000 -0.082340 0.000000
# 6 0.000000 0.000000 0.000000 0.000000 0.000000 0.025184
#
#
# Mechanical properties :
#
#
# Convention : Reuss Voigt Hill
#
# Bulk Modulus (GPa) = 16.64307 38.80198 27.72253
# Shear Modulus (GPa) = 31.72520 18.83625 25.28072
#
# Velocity S-wave (km/s) = 4.14179 3.19141 3.69726
# Velocity P-wave (km/s) = 5.64551 5.87887 5.76337
#
# Compressibility (1/GPa) = 0.06008507
#
# Stress axis : x y z
#
# Youngs Moduli (GPa) = 19.31796 44.75435 97.47014
#
# Poissons Ratio (x) = 0.19029 -0.04771
# Poissons Ratio (y) = 0.08214 0.81676
# Poissons Ratio (z) = -0.00945 0.37503
#
# Static dielectric constant tensor:
#      x y z
#    x 1.664970 0.000000 0.000000 
#    y 0.000000 1.627170 0.000000 
#    z 0.000000 0.000000 1.654030 
# 
# From -- ./inp_files/20927.got.cif
#   From: 2010.05.17/outbox.cif.g08.bks.cpg/sg47_11_cif.got.tgz:20927.got - 2010.06.03 20:15:42.
