data_PCOD9385745
_publ_section_title
;
Structure prediction by ZEFSAII (Michael W. Deem and Ramdas Pophale) SiO2 
 PCOD9385745
Probable space group: P M M M
;
_chemical_formula_sum "Si O2"
_cell_formula_units_Z 40
_cell_length_a 8.311092
_cell_length_b 16.387497
_cell_length_c 13.874727
_cell_angle_alpha 90.000000
_cell_angle_beta 90.000000
_cell_angle_gamma 90.000000
_cell_volume 1889.710002
_symmetry_space_group_name_H-M "P M M M"
_symmetry_group_IT_number 47
_symmetry_cell_setting 'orthorhombic'
loop_
_space_group_symop_operation_xyz
x,y,z
-x,-y,z
x,-y,-z
-x,y,-z
-x,-y,-z
x,y,-z
-x,y,z
x,-y,z
loop_
_atom_site_type_symbol
_atom_site_label
_atom_site_fract_x
_atom_site_fract_y
_atom_site_fract_z
Si Si1 0.193750 0.406140 0.795422
Si Si2 0.172844 0.093338 0.807087
Si Si3 0.312112 0.122749 0.608171
Si Si4 0.308200 0.595223 0.000000
Si Si5 0.806230 0.305994 0.607125
Si Si6 0.500000 0.095908 0.885769
O O1 0.252103 0.500000 0.790199
O O2 0.248968 0.369793 0.898019
O O3 0.243715 0.358912 0.699013
O O4 0.000000 0.407397 0.795823
O O5 0.201850 0.089664 0.692931
O O6 0.333871 0.133541 0.848372
O O7 0.000000 0.132282 0.828312
O O8 0.167645 0.000000 0.844770
O O9 0.272408 0.095279 0.500000
O O10 0.500000 0.103606 0.626829
O O11 0.284135 0.219909 0.610180
O O12 0.250706 0.500000 0.000000
O O13 0.500000 0.596008 0.000000
O O14 0.778336 0.342588 0.500000
O O15 0.000000 0.291270 0.614165
O O16 0.500000 0.000000 0.852875
O O17 0.500000 0.096478 0.000000
#
# Coordination Sequence:
#
# PCOD9385745 Si02
#       6
#     8   8   8   4   8   4
#     4   9  17  30  50  74 100 131 166 208 256 307
#     4  10  20  34  55  82 109 139 177 220 266 316
#     4  10  20  34  53  75 103 140 176 213 261 317
#     4   9  17  29  47  71  97 127 164 205 254 307
#     4   9  18  32  50  73 101 134 171 210 257 315
#     4   9  18  34  55  79 109 141 175 218 266 316
#
# _framework density 21.167269999999998
#
# number of rings (size 3 to 8) (size 9 to 14) (size 15 to 20)
#    0.000    2.600    1.000    0.900    0.000    4.400 
#    0.000    6.000    2.200    0.000    0.000    5.600 
#    0.000    0.000    0.000    0.000    0.000    0.000 
#
# Total GULP energy -223065.420218 kJ/mol
# GULP energy per Si atom -5576.635505 kJ/mol
# Density = 2.111909 g / cm^3
# Si number density = 21.167270 Si / 1000 Ang^3
#
#
#
# Elastic Constant Matrix: (Units=GPa)
#
#
# Indices 1 2 3 4 5 6 
#
# 1 109.0129 4.1644 38.8125 0.0000 0.0000 0.0000
# 2 4.1644 40.3421 38.8590 0.0000 0.0000 0.0000
# 3 38.8125 38.8590 134.7960 0.0000 0.0000 0.0000
# 4 0.0000 0.0000 0.0000 40.8303 0.0000 0.0000
# 5 0.0000 0.0000 0.0000 0.0000 12.6762 0.0000
# 6 0.0000 0.0000 0.0000 0.0000 0.0000 7.8865
#
#
#
# Elastic Compliance Matrix: (Units=1/GPa)
#
#
# Indices 1 2 3 4 5 6 
#
# 1 0.010401 0.002507 -0.003718 0.000000 0.000000 0.000000
# 2 0.002507 0.034922 -0.010789 0.000000 0.000000 0.000000
# 3 -0.003718 -0.010789 0.011599 0.000000 0.000000 0.000000
# 4 0.000000 0.000000 0.000000 0.024492 0.000000 0.000000
# 5 0.000000 0.000000 0.000000 0.000000 0.078888 0.000000
# 6 0.000000 0.000000 0.000000 0.000000 0.000000 0.126799
#
#
# Mechanical properties :
#
#
# Convention : Reuss Voigt Hill
#
# Bulk Modulus (GPa) = 30.37380 49.75810 40.06595
# Shear Modulus (GPa) = 15.52437 25.76627 20.64532
#
# Velocity S-wave (km/s) = 2.71110 3.49272 3.12643
# Velocity P-wave (km/s) = 4.91738 6.31060 5.65704
#
# Compressibility (1/GPa) = 0.03292311
#
# Stress axis : x y z
#
# Youngs Moduli (GPa) = 96.14414 28.63545 86.21165
#
# Poissons Ratio (x) = -0.07180 0.32050
# Poissons Ratio (y) = -0.24106 0.93015
# Poissons Ratio (z) = 0.35743 0.30895
#
# Static dielectric constant tensor:
#      x y z
#    x 1.783260 0.000000 0.000000 
#    y 0.000000 1.767790 0.000000 
#    z 0.000000 0.000000 1.774870 
# 
# From -- ./inp_files/15123.got.cif
#   From: 2010.05.17/outbox.cif.g08.bks.cpg/sg47_8_cif.got.tgz:15123.got - 2010.06.03 20:15:42.
