data_PCOD9385891
_publ_section_title
;
Structure prediction by ZEFSAII (Michael W. Deem and Ramdas Pophale) SiO2 
 PCOD9385891
Probable space group: P M M M
;
_chemical_formula_sum "Si O2"
_cell_formula_units_Z 64
_cell_length_a 14.402861
_cell_length_b 9.084880
_cell_length_c 32.251362
_cell_angle_alpha 90.000000
_cell_angle_beta 90.000000
_cell_angle_gamma 90.000000
_cell_volume 4220.034724
_symmetry_space_group_name_H-M "P M M M"
_symmetry_group_IT_number 47
_symmetry_cell_setting 'orthorhombic'
loop_
_space_group_symop_operation_xyz
x,y,z
-x,-y,z
x,-y,-z
-x,y,-z
-x,-y,-z
x,y,-z
-x,y,z
x,-y,z
loop_
_atom_site_type_symbol
_atom_site_label
_atom_site_fract_x
_atom_site_fract_y
_atom_site_fract_z
Si Si1 0.612329 0.326303 0.045164
Si Si2 0.896022 0.674249 0.583364
Si Si3 0.714919 0.324223 0.703055
Si Si4 0.699286 0.323896 0.546719
Si Si5 0.892842 0.825820 0.327562
Si Si6 0.612715 0.171359 0.128251
Si Si7 0.610688 0.177125 0.220698
Si Si8 0.389299 0.826463 0.626065
O O1 0.500000 0.309225 0.045263
O O2 0.631033 0.500000 0.046669
O O3 0.647516 0.252759 0.087251
O O4 0.644691 0.269071 0.000000
O O5 0.891954 0.500000 0.594170
O O6 0.809404 0.703167 0.553609
O O7 0.883795 0.767197 0.625276
O O8 0.000000 0.702848 0.566608
O O9 0.713468 0.500000 0.702223
O O10 0.819153 0.262391 0.699513
O O11 0.665037 0.260908 0.743665
O O12 0.661489 0.260131 0.662896
O O13 0.672328 0.282678 0.500000
O O14 0.684494 0.500000 0.551659
O O15 0.645112 0.238004 0.582351
O O16 0.000000 0.801697 0.315302
O O17 0.873544 0.000000 0.326231
O O18 0.500000 0.180708 0.128239
O O19 0.640520 0.223767 0.174159
O O20 0.636745 0.000000 0.125035
O O21 0.500000 0.203239 0.224986
O O22 0.623980 0.000000 0.224194
O O23 0.500000 0.809575 0.629945
O O24 0.366951 0.000000 0.629052
#
# Coordination Sequence:
#
# PCOD9385891 Si02
#       8
#     8   8   8   8   8   8   8   8
#     4   8  13  20  30  46  70 102 141 186 234 278
#     4   9  17  31  52  77 103 127 149 175 211 258
#     4  12  23  34  52  76  98 120 149 186 229 274
#     4  10  21  36  54  77 102 127 153 182 221 267
#     4  10  20  34  54  77  99 123 149 178 215 261
#     4   8  14  24  37  53  75 106 145 189 233 273
#     4   9  18  32  47  64  90 123 157 194 236 278
#     4  11  24  40  56  72  92 122 158 193 229 267
#
# _framework density 15.165751999999999
#
# number of rings (size 3 to 8) (size 9 to 14) (size 15 to 20)
#    0.000    2.375    1.250    3.375    0.000    5.000 
#    0.000    5.000    0.000    0.000    0.000    2.625 
#    0.000    0.000    0.000    0.000    0.000    0.625 
#
# Total GULP energy -356737.809686 kJ/mol
# GULP energy per Si atom -5574.028276 kJ/mol
# Density = 1.513123 g / cm^3
# Si number density = 15.165752 Si / 1000 Ang^3
#
#
#
# Elastic Constant Matrix: (Units=GPa)
#
#
# Indices 1 2 3 4 5 6 
#
# 1 50.6071 39.0438 41.5207 0.0000 0.0000 0.0000
# 2 39.0438 68.5725 65.1036 0.0000 0.0000 0.0000
# 3 41.5207 65.1036 137.5623 0.0000 0.0000 0.0000
# 4 0.0000 0.0000 0.0000 27.4713 0.0000 0.0000
# 5 0.0000 0.0000 0.0000 0.0000 1.2229 0.0000
# 6 0.0000 0.0000 0.0000 0.0000 0.0000 19.1993
#
#
#
# Elastic Compliance Matrix: (Units=1/GPa)
#
#
# Indices 1 2 3 4 5 6 
#
# 1 0.035569 -0.018267 -0.002090 0.000000 0.000000 0.000000
# 2 -0.018267 0.035864 -0.011460 0.000000 0.000000 0.000000
# 3 -0.002090 -0.011460 0.013324 0.000000 0.000000 0.000000
# 4 0.000000 0.000000 0.000000 0.036402 0.000000 0.000000
# 5 0.000000 0.000000 0.000000 0.000000 0.817709 0.000000
# 6 0.000000 0.000000 0.000000 0.000000 0.000000 0.052085
#
#
# Mechanical properties :
#
#
# Convention : Reuss Voigt Hill
#
# Bulk Modulus (GPa) = 47.34455 60.89757 54.12106
# Shear Modulus (GPa) = 4.70975 16.98363 10.84669
#
# Velocity S-wave (km/s) = 1.76416 3.35007 2.67724
# Velocity P-wave (km/s) = 5.95277 7.43006 6.73206
#
# Compressibility (1/GPa) = 0.02112175
#
# Stress axis : x y z
#
# Youngs Moduli (GPa) = 28.11474 27.88314 75.05356
#
# Poissons Ratio (x) = 0.50935 0.15689
# Poissons Ratio (y) = 0.51358 0.86008
# Poissons Ratio (z) = 0.05877 0.31953
#
# Static dielectric constant tensor:
#      x y z
#    x 1.500310 0.000000 0.000000 
#    y 0.000000 1.505360 0.000000 
#    z 0.000000 0.000000 1.510170 
# 
# From -- ./inp_files/14356.got.cif
#   From: 2010.05.17/outbox.cif.g08.bks.cpg/sg47_8_cif.got.tgz:14356.got - 2010.06.03 20:15:42.
