data_PCOD9385789
_publ_section_title
;
Structure prediction by ZEFSAII (Michael W. Deem and Ramdas Pophale) SiO2 
 PCOD9385789
Probable space group: P M M M
;
_chemical_formula_sum "Si O2"
_cell_formula_units_Z 44
_cell_length_a 29.835666
_cell_length_b 7.367516
_cell_length_c 9.313650
_cell_angle_alpha 90.000000
_cell_angle_beta 90.000000
_cell_angle_gamma 90.000000
_cell_volume 2047.277615
_symmetry_space_group_name_H-M "P M M M"
_symmetry_group_IT_number 47
_symmetry_cell_setting 'orthorhombic'
loop_
_space_group_symop_operation_xyz
x,y,z
-x,-y,z
x,-y,-z
-x,y,-z
-x,-y,-z
x,y,-z
-x,y,z
x,-y,z
loop_
_atom_site_type_symbol
_atom_site_label
_atom_site_fract_x
_atom_site_fract_y
_atom_site_fract_z
Si Si1 0.951807 0.781488 0.672000
Si Si2 0.500000 0.284613 0.337620
Si Si3 0.590163 0.785096 0.838012
Si Si4 0.234278 0.221528 0.165034
Si Si5 0.676864 0.778050 0.334722
Si Si6 0.145953 0.221588 0.332686
O O1 0.951553 0.748454 0.500000
O O2 0.903058 0.717935 0.723197
O O3 0.000000 0.713752 0.728080
O O4 0.952253 0.000000 0.690266
O O5 0.500000 0.500000 0.348764
O O6 0.500000 0.209676 0.500000
O O7 0.544478 0.235688 0.250168
O O8 0.632880 0.714607 0.750360
O O9 0.597729 0.000000 0.850930
O O10 0.586496 0.711916 0.000000
O O11 0.277821 0.278083 0.254507
O O12 0.188269 0.280626 0.240196
O O13 0.234062 0.000000 0.165998
O O14 0.237061 0.278762 0.000000
O O15 0.676084 0.720406 0.500000
O O16 0.676558 0.000000 0.335329
O O17 0.150958 0.274262 0.500000
O O18 0.145543 0.000000 0.331397
#
# Coordination Sequence:
#
# PCOD9385789 Si02
#       6
#     8   4   8   8   8   8
#     4   7   9  13  21  32  44  60  89 132 178 223
#     4  11  24  39  54  74 100 129 160 191 222 258
#     4  10  20  34  53  76  99 123 153 188 227 271
#     4   9  15  21  29  43  65  90 115 147 190 240
#     4   9  16  26  41  60  81 105 133 166 205 250
#     4   8  12  17  25  36  50  71 101 137 180 232
#
# _framework density 21.491955000000001
#
# number of rings (size 3 to 8) (size 9 to 14) (size 15 to 20)
#    0.000    3.182    0.000    3.818    0.000    7.273 
#    0.000    0.000    0.000    0.545    0.000    3.818 
#    0.000    0.000    0.000    0.000    0.000    0.000 
#
# Total GULP energy -245510.064988 kJ/mol
# GULP energy per Si atom -5579.774204 kJ/mol
# Density = 2.144304 g / cm^3
# Si number density = 21.491955 Si / 1000 Ang^3
#
#
#
# Elastic Constant Matrix: (Units=GPa)
#
#
# Indices 1 2 3 4 5 6 
#
# 1 275.9746 2.9706 137.7318 0.0000 0.0000 0.0000
# 2 2.9706 75.2545 6.6909 0.0000 0.0000 0.0000
# 3 137.7318 6.6909 178.0777 0.0000 0.0000 0.0000
# 4 0.0000 0.0000 0.0000 -27.9927 0.0000 0.0000
# 5 0.0000 0.0000 0.0000 0.0000 -14.3141 0.0000
# 6 0.0000 0.0000 0.0000 0.0000 0.0000 -41.3279
#
#
#
# Elastic Compliance Matrix: (Units=1/GPa)
#
#
# Indices 1 2 3 4 5 6 
#
# 1 0.005904 0.000174 -0.004573 0.000000 0.000000 0.000000
# 2 0.000174 0.013338 -0.000635 0.000000 0.000000 0.000000
# 3 -0.004573 -0.000635 0.009176 0.000000 0.000000 0.000000
# 4 0.000000 0.000000 0.000000 -0.035724 0.000000 0.000000
# 5 0.000000 0.000000 0.000000 0.000000 -0.069861 0.000000
# 6 0.000000 0.000000 0.000000 0.000000 0.000000 -0.024197
#
#
# Mechanical properties :
#
#
# Convention : Reuss Voigt Hill
#
# Bulk Modulus (GPa) = 54.49986 91.56594 73.03290
# Shear Modulus (GPa) = -58.70041 8.73394 -24.98324
#
# Velocity S-wave (km/s) = -5.23183 2.01808 -3.41316
# Velocity P-wave (km/s) = 3.32907 6.93739 4.30376
#
# Compressibility (1/GPa) = 0.01834867
#
# Stress axis : x y z
#
# Youngs Moduli (GPa) = 169.38297 74.97441 108.97864
#
# Poissons Ratio (x) = -0.01301 0.49833
# Poissons Ratio (y) = -0.02939 0.06924
# Poissons Ratio (z) = 0.77454 0.04763
#
# Static dielectric constant tensor:
#      x y z
#    x 1.784480 0.000000 0.000000 
#    y 0.000000 1.832380 0.000000 
#    z 0.000000 0.000000 1.729240 
# 
# From -- ./inp_files/13572.got.cif
#   From: 2010.05.17/outbox.cif.g08.bks.cpg/sg47_7_cif.got.tgz:13572.got - 2010.06.03 20:15:42.
