data_PCOD9385703
_publ_section_title
;
Structure prediction by ZEFSAII (Michael W. Deem and Ramdas Pophale) SiO2 
 PCOD9385703
Probable space group: P M M M
;
_chemical_formula_sum "Si O2"
_cell_formula_units_Z 64
_cell_length_a 20.603537
_cell_length_b 20.603538
_cell_length_c 8.650074
_cell_angle_alpha 90.000000
_cell_angle_beta 90.000000
_cell_angle_gamma 90.000000
_cell_volume 3672.006216
_symmetry_space_group_name_H-M "P M M M"
_symmetry_group_IT_number 47
_symmetry_cell_setting 'orthorhombic'
loop_
_space_group_symop_operation_xyz
x,y,z
-x,-y,z
x,-y,-z
-x,y,-z
-x,-y,-z
x,y,-z
-x,y,z
x,-y,z
loop_
_atom_site_type_symbol
_atom_site_label
_atom_site_fract_x
_atom_site_fract_y
_atom_site_fract_z
Si Si1 0.676964 0.823036 0.183788
Si Si2 0.575046 0.924954 0.686303
Si Si3 0.178340 0.321659 0.687907
Si Si4 0.074065 0.574065 0.311367
Si Si5 0.424849 0.574315 0.813515
Si Si6 0.074315 0.075151 0.813515
Si Si7 0.326557 0.680258 0.685370
Si Si8 0.819742 0.173443 0.314630
O O1 0.624537 0.875463 0.237639
O O2 0.659429 0.751817 0.248940
O O3 0.748183 0.840571 0.248939
O O4 0.679888 0.820111 0.000000
O O5 0.579977 0.920023 0.500000
O O6 0.500000 0.911195 0.728068
O O7 0.588805 0.000000 0.728068
O O8 0.176770 0.323230 0.500000
O O9 0.126227 0.373773 0.744362
O O10 0.252492 0.336416 0.733805
O O11 0.163584 0.247508 0.733805
O O12 0.074938 0.574938 0.500000
O O13 0.089138 0.500000 0.264757
O O14 0.000000 0.589138 0.264756
O O15 0.500000 0.586643 0.769753
O O16 0.408909 0.500000 0.767812
O O17 0.376703 0.626702 0.743032
O O18 0.421371 0.577514 0.000000
O O19 0.126702 0.123297 0.743032
O O20 0.000000 0.091091 0.767813
O O21 0.086643 0.000000 0.769753
O O22 0.077514 0.078630 0.000000
O O23 0.327999 0.683793 0.500000
O O24 0.816206 0.172001 0.500000
#
# Coordination Sequence:
#
# PCOD9385703 Si02
#       8
#     8   8   8   8   8   8   8   8
#     4  11  22  36  55  77 105 141 176 212 257 311
#     4   9  19  37  59  81 106 135 167 208 257 304
#     4   8  16  29  43  65  98 129 160 203 249 291
#     4   8  13  22  38  61  91 127 161 191 230 284
#     4   9  19  36  55  75 102 135 171 213 260 312
#     4   9  19  36  55  75 102 135 171 213 260 312
#     4  10  20  34  52  75 103 134 171 216 261 305
#     4  10  20  34  52  75 103 134 171 216 261 305
#
# _framework density 17.429164
#
# number of rings (size 3 to 8) (size 9 to 14) (size 15 to 20)
#    0.000    2.750    0.000    4.125    0.000    3.500 
#    0.000    4.375    0.000    0.000    0.000    0.000 
#    0.000    0.000    0.000   49.500    0.000   44.500 
#
# Total GULP energy -356914.200034 kJ/mol
# GULP energy per Si atom -5576.784376 kJ/mol
# Density = 1.738949 g / cm^3
# Si number density = 17.429164 Si / 1000 Ang^3
#
#
#
# Elastic Constant Matrix: (Units=GPa)
#
#
# Indices 1 2 3 4 5 6 
#
# 1 156.5538 144.8355 51.3174 0.0000 0.0000 0.0000
# 2 144.8355 156.5545 51.3174 0.0000 0.0000 0.0000
# 3 51.3174 51.3174 42.7450 0.0000 0.0000 0.0000
# 4 0.0000 0.0000 0.0000 22.5365 0.0000 0.0000
# 5 0.0000 0.0000 0.0000 0.0000 22.5365 0.0000
# 6 0.0000 0.0000 0.0000 0.0000 0.0000 43.5681
#
#
#
# Elastic Compliance Matrix: (Units=1/GPa)
#
#
# Indices 1 2 3 4 5 6 
#
# 1 0.045474 -0.039861 -0.006738 0.000000 0.000000 0.000000
# 2 -0.039861 0.045473 -0.006738 0.000000 0.000000 0.000000
# 3 -0.006738 -0.006738 0.039573 0.000000 0.000000 0.000000
# 4 0.000000 0.000000 0.000000 0.044373 0.000000 0.000000
# 5 0.000000 0.000000 0.000000 0.000000 0.044372 0.000000
# 6 0.000000 0.000000 0.000000 0.000000 0.000000 0.022953
#
#
# Mechanical properties :
#
#
# Convention : Reuss Voigt Hill
#
# Bulk Modulus (GPa) = 41.93573 94.53265 68.23419
# Shear Modulus (GPa) = 14.01186 24.95374 19.48280
#
# Velocity S-wave (km/s) = 2.83844 3.78792 3.34702
# Velocity P-wave (km/s) = 5.90383 8.57246 7.36011
#
# Compressibility (1/GPa) = 0.02384601
#
# Stress axis : x y z
#
# Youngs Moduli (GPa) = 21.99081 21.99098 25.26945
#
# Poissons Ratio (x) = 0.87658 0.17028
# Poissons Ratio (y) = 0.87657 0.17026
# Poissons Ratio (z) = 0.14818 0.14817
#
# Static dielectric constant tensor:
#      x y z
#    x 1.575120 0.000000 0.000000 
#    y 0.000000 1.575120 0.000000 
#    z 0.000000 0.000000 1.584830 
# 
# From -- ./inp_files/11604.got.cif
#   From: 2010.05.17/outbox.cif.g08.bks.cpg/sg47_6_cif.got.tgz:11604.got - 2010.06.03 20:15:42.
