data_PCOD9385495
_publ_section_title
;
Structure prediction by ZEFSAII (Michael W. Deem and Ramdas Pophale) SiO2 
 PCOD9385495
Probable space group: P M M M
;
_chemical_formula_sum "Si O2"
_cell_formula_units_Z 64
_cell_length_a 25.376106
_cell_length_b 14.989010
_cell_length_c 9.052274
_cell_angle_alpha 90.000000
_cell_angle_beta 90.000000
_cell_angle_gamma 90.000000
_cell_volume 3443.147439
_symmetry_space_group_name_H-M "P M M M"
_symmetry_group_IT_number 47
_symmetry_cell_setting 'orthorhombic'
loop_
_space_group_symop_operation_xyz
x,y,z
-x,-y,z
x,-y,-z
-x,y,-z
-x,-y,-z
x,y,-z
-x,y,z
x,-y,z
loop_
_atom_site_type_symbol
_atom_site_label
_atom_site_fract_x
_atom_site_fract_y
_atom_site_fract_z
Si Si1 0.415802 0.900296 0.324403
Si Si2 0.659666 0.603080 0.180121
Si Si3 0.442402 0.716341 0.822439
Si Si4 0.060456 0.104807 0.177427
Si Si5 0.758974 0.722493 0.824612
Si Si6 0.695088 0.098847 0.829567
Si Si7 0.937010 0.604221 0.832693
Si Si8 0.129833 0.254171 0.326668
O O1 0.422699 0.892979 0.500000
O O2 0.440242 0.815249 0.244783
O O3 0.354294 0.896120 0.279078
O O4 0.434280 0.000000 0.279181
O O5 0.658170 0.500000 0.227230
O O6 0.607849 0.658353 0.228235
O O7 0.713460 0.653321 0.224431
O O8 0.659064 0.604120 0.000000
O O9 0.500000 0.676341 0.787128
O O10 0.438593 0.723425 0.000000
O O11 0.103489 0.167286 0.252243
O O12 0.000000 0.129825 0.219506
O O13 0.067526 0.000000 0.212265
O O14 0.063978 0.114238 0.000000
O O15 0.734699 0.821051 0.804325
O O16 0.813749 0.720116 0.740646
O O17 0.767787 0.708599 0.000000
O O18 0.719070 0.000000 0.816825
O O19 0.675370 0.108256 0.000000
O O20 0.923725 0.500000 0.816669
O O21 0.908962 0.665133 0.714637
O O22 0.000000 0.612376 0.822907
O O23 0.921691 0.632515 0.000000
O O24 0.134118 0.240511 0.500000
#
# Coordination Sequence:
#
# PCOD9385495 Si02
#       8
#     8   8   8   8   8   8   8   8
#     4  10  20  33  52  79 112 148 181 216 265 326
#     4   9  18  35  59  85 110 138 180 233 285 335
#     4  10  20  35  57  85 114 143 181 230 280 333
#     4   9  19  38  63  87 113 152 202 247 284 331
#     4  10  20  36  56  78 107 147 193 233 273 328
#     4   9  17  32  56  81 104 134 178 229 273 317
#     4   9  19  38  63  86 108 141 188 237 282 333
#     4  12  25  36  52  84 123 155 186 231 287 346
#
# _framework density 18.587644000000001
#
# number of rings (size 3 to 8) (size 9 to 14) (size 15 to 20)
#    0.000    2.250    1.250    2.625    0.000    5.500 
#    0.000    6.250    0.000    1.125    0.000    0.875 
#    0.000    0.000    0.000    0.000    0.000    0.000 
#
# Total GULP energy -357085.384928 kJ/mol
# GULP energy per Si atom -5579.459140 kJ/mol
# Density = 1.854534 g / cm^3
# Si number density = 18.587644 Si / 1000 Ang^3
#
#
#
# Elastic Constant Matrix: (Units=GPa)
#
#
# Indices 1 2 3 4 5 6 
#
# 1 102.2860 63.3492 38.5599 0.0000 0.0000 0.0000
# 2 63.3492 109.2152 31.3306 0.0000 0.0000 0.0000
# 3 38.5599 31.3306 33.2674 0.0000 0.0000 0.0000
# 4 0.0000 0.0000 0.0000 -9.3512 0.0000 0.0000
# 5 0.0000 0.0000 0.0000 0.0000 -22.6085 0.0000
# 6 0.0000 0.0000 0.0000 0.0000 0.0000 37.4925
#
#
#
# Elastic Compliance Matrix: (Units=1/GPa)
#
#
# Indices 1 2 3 4 5 6 
#
# 1 0.020652 -0.007004 -0.017341 0.000000 0.000000 0.000000
# 2 -0.007004 0.014921 -0.005934 0.000000 0.000000 0.000000
# 3 -0.017341 -0.005934 0.055747 0.000000 0.000000 0.000000
# 4 0.000000 0.000000 0.000000 -0.106938 0.000000 0.000000
# 5 0.000000 0.000000 0.000000 0.000000 -0.044231 0.000000
# 6 0.000000 0.000000 0.000000 0.000000 0.000000 0.026672
#
#
# Mechanical properties :
#
#
# Convention : Reuss Voigt Hill
#
# Bulk Modulus (GPa) = 32.50711 56.80535 44.65623
# Shear Modulus (GPa) = 132.85490 8.54181 70.69836
#
# Velocity S-wave (km/s) = 8.46345 2.14602 6.17395
# Velocity P-wave (km/s) = 10.63171 6.06364 8.65450
#
# Compressibility (1/GPa) = 0.03076250
#
# Stress axis : x y z
#
# Youngs Moduli (GPa) = 48.42250 67.01843 17.93805
#
# Poissons Ratio (x) = 0.46941 0.31106
# Poissons Ratio (y) = 0.33916 0.10645
# Poissons Ratio (z) = 0.83967 0.39769
#
# Static dielectric constant tensor:
#      x y z
#    x 1.643450 0.000000 0.000000 
#    y 0.000000 1.644840 0.000000 
#    z 0.000000 0.000000 1.622200 
# 
# From -- ./inp_files/12726.got.cif
#   From: 2010.05.17/outbox.cif.g08.bks.cpg/sg47_7_cif.got.tgz:12726.got - 2010.06.03 20:15:42.
