data_PCOD9385202
_publ_section_title
;
Structure prediction by ZEFSAII (Michael W. Deem and Ramdas Pophale) SiO2 
 PCOD9385202
Probable space group: P M M M
;
_chemical_formula_sum "Si O2"
_cell_formula_units_Z 44
_cell_length_a 9.679414
_cell_length_b 29.007300
_cell_length_c 7.349978
_cell_angle_alpha 90.000000
_cell_angle_beta 90.000000
_cell_angle_gamma 90.000000
_cell_volume 2063.680266
_symmetry_space_group_name_H-M "P M M M"
_symmetry_group_IT_number 47
_symmetry_cell_setting 'orthorhombic'
loop_
_space_group_symop_operation_xyz
x,y,z
-x,-y,z
x,-y,-z
-x,y,-z
-x,-y,-z
x,y,-z
-x,y,z
x,-y,z
loop_
_atom_site_type_symbol
_atom_site_label
_atom_site_fract_x
_atom_site_fract_y
_atom_site_fract_z
Si Si1 0.343964 0.585073 0.785831
Si Si2 0.159213 0.500000 0.222836
Si Si3 0.156599 0.672137 0.718763
Si Si4 0.158148 0.776415 0.278529
Si Si5 0.158947 0.051885 0.278502
Si Si6 0.658475 0.137968 0.277563
O O1 0.500000 0.584982 0.710918
O O2 0.243467 0.545012 0.715025
O O3 0.267680 0.633895 0.768213
O O4 0.356417 0.575606 0.000000
O O5 0.000000 0.500000 0.281988
O O6 0.155732 0.500000 0.000000
O O7 0.151800 0.673338 0.500000
O O8 0.190791 0.724160 0.779891
O O9 0.000000 0.660629 0.781415
O O10 0.160624 0.776409 0.500000
O O11 0.261660 0.816038 0.218278
O O12 0.000000 0.786718 0.225504
O O13 0.160177 0.052096 0.500000
O O14 0.259179 0.092469 0.218440
O O15 0.000000 0.060356 0.224160
O O16 0.198027 0.000000 0.221861
O O17 0.659892 0.137962 0.500000
O O18 0.500000 0.137536 0.220167
#
# Coordination Sequence:
#
# PCOD9385202 Si02
#       6
#     8   4   8   8   8   8
#     4  10  20  33  50  73  99 124 150 182 222 268
#     4   9  17  31  52  73  92 119 154 188 220 257
#     4   9  18  32  49  69  92 119 153 191 228 265
#     4   8  14  25  39  53  72 100 133 169 208 251
#     4   8  13  20  28  37  52  79 116 157 201 247
#     4   9  15  20  28  44  64  87 119 160 204 249
#
# _framework density 21.321131000000001
#
# number of rings (size 3 to 8) (size 9 to 14) (size 15 to 20)
#    0.000    3.182    0.000    3.000    0.000    5.818 
#    0.000    4.091    0.000    2.727    0.000    0.000 
#    0.000    0.000    0.000    0.000    0.000    0.909 
#
# Total GULP energy -245645.808982 kJ/mol
# GULP energy per Si atom -5582.859295 kJ/mol
# Density = 2.127260 g / cm^3
# Si number density = 21.321131 Si / 1000 Ang^3
#
#
#
# Elastic Constant Matrix: (Units=GPa)
#
#
# Indices 1 2 3 4 5 6 
#
# 1 216.2545 166.0103 6.6444 0.0000 0.0000 0.0000
# 2 166.0103 196.2043 0.8213 0.0000 0.0000 0.0000
# 3 6.6444 0.8213 78.3767 0.0000 0.0000 0.0000
# 4 0.0000 0.0000 0.0000 8.5966 0.0000 0.0000
# 5 0.0000 0.0000 0.0000 0.0000 -1.2569 0.0000
# 6 0.0000 0.0000 0.0000 0.0000 0.0000 -10.7651
#
#
#
# Elastic Compliance Matrix: (Units=1/GPa)
#
#
# Indices 1 2 3 4 5 6 
#
# 1 0.013273 -0.011226 -0.001008 0.000000 0.000000 0.000000
# 2 -0.011226 0.014592 0.000799 0.000000 0.000000 0.000000
# 3 -0.001008 0.000799 0.012836 0.000000 0.000000 0.000000
# 4 0.000000 0.000000 0.000000 0.116325 0.000000 0.000000
# 5 0.000000 0.000000 0.000000 0.000000 -0.795621 0.000000
# 6 0.000000 0.000000 0.000000 0.000000 0.000000 -0.092893
#
#
# Mechanical properties :
#
#
# Convention : Reuss Voigt Hill
#
# Bulk Modulus (GPa) = 56.08225 93.08751 74.58488
# Shear Modulus (GPa) = -7.11568 20.47222 6.67827
#
# Velocity S-wave (km/s) = -1.82883 3.10205 1.77173
# Velocity P-wave (km/s) = 4.67987 7.52229 6.26442
#
# Compressibility (1/GPa) = 0.01783095
#
# Stress axis : x y z
#
# Youngs Moduli (GPa) = 75.33990 68.53023 77.90625
#
# Poissons Ratio (x) = 0.76934 0.07850
# Poissons Ratio (y) = 0.84579 -0.06223
# Poissons Ratio (z) = 0.07591 -0.05474
#
# Static dielectric constant tensor:
#      x y z
#    x 1.722230 0.000000 0.000000 
#    y 0.000000 1.734730 0.000000 
#    z 0.000000 0.000000 1.867740 
# 
# From -- ./inp_files/2067.got.cif
#   From: 2010.05.17/outbox.cif.g08.bks.cpg/sg47_2_cif.got.tgz:2067.got - 2010.06.03 20:15:42.
