data_PCOD9385884
_publ_section_title
;
Structure prediction by ZEFSAII (Michael W. Deem and Ramdas Pophale) SiO2 
 PCOD9385884
Probable space group: P M M M
;
_chemical_formula_sum "Si O2"
_cell_formula_units_Z 37
_cell_length_a 7.570335
_cell_length_b 9.780147
_cell_length_c 23.257581
_cell_angle_alpha 90.000000
_cell_angle_beta 90.000000
_cell_angle_gamma 90.000000
_cell_volume 1721.967787
_symmetry_space_group_name_H-M "P M M M"
_symmetry_group_IT_number 47
_symmetry_cell_setting 'orthorhombic'
loop_
_space_group_symop_operation_xyz
x,y,z
-x,-y,z
x,-y,-z
-x,y,-z
-x,-y,-z
x,y,-z
-x,y,z
x,-y,z
loop_
_atom_site_type_symbol
_atom_site_label
_atom_site_fract_x
_atom_site_fract_y
_atom_site_fract_z
Si Si1 0.283602 0.843135 0.224728
Si Si2 0.195356 0.231327 0.000000
Si Si3 0.290546 0.654432 0.670970
Si Si4 0.213004 0.153935 0.434402
Si Si5 0.286246 0.348110 0.878814
Si Si6 0.500000 0.000000 0.000000
O O1 0.500000 0.845152 0.225433
O O2 0.221412 0.752136 0.278413
O O3 0.229725 0.767771 0.166101
O O4 0.225211 0.000000 0.228020
O O5 0.217578 0.319738 0.942348
O O6 0.000000 0.170636 0.000000
O O7 0.346567 0.118531 0.000000
O O8 0.500000 0.643323 0.681365
O O9 0.218378 0.500000 0.670834
O O10 0.267561 0.732176 0.610791
O O11 0.272102 0.179748 0.500000
O O12 0.000000 0.151674 0.435080
O O13 0.272565 0.000000 0.417676
O O14 0.500000 0.343449 0.881149
O O15 0.235763 0.500000 0.858646
#
# Coordination Sequence:
#
# PCOD9385884 Si02
#       6
#     8   4   8   8   8   1
#     4   9  18  32  56  84 115 158 204 244 290 352
#     4  12  26  42  68  97 128 169 213 262 313 373
#     4  10  20  34  53  82 117 151 192 240 290 348
#     4   9  19  36  56  77 104 142 188 237 293 357
#     4  10  20  37  62  90 124 166 206 249 309 372
#     4  12  26  48  66  94 136 168 208 264 318 378
#
# _framework density 21.487044000000001
#
# number of rings (size 3 to 8) (size 9 to 14) (size 15 to 20)
#    0.000    2.162    1.081    2.432    1.514    6.919 
#    0.000    4.324    0.000    3.892    0.000    0.000 
#    0.000    0.000    0.000    0.000    0.000    0.000 
#
# Total GULP energy -206483.380059 kJ/mol
# GULP energy per Si atom -5580.631893 kJ/mol
# Density = 2.143814 g / cm^3
# Si number density = 21.487044 Si / 1000 Ang^3
#
#
#
# Elastic Constant Matrix: (Units=GPa)
#
#
# Indices 1 2 3 4 5 6 
#
# 1 75.4396 20.9748 -2.0789 0.0000 0.0000 0.0000
# 2 20.9748 219.9964 114.2892 0.0000 0.0000 0.0000
# 3 -2.0789 114.2892 145.0684 0.0000 0.0000 0.0000
# 4 0.0000 0.0000 0.0000 -9.3049 0.0000 0.0000
# 5 0.0000 0.0000 0.0000 0.0000 27.9857 0.0000
# 6 0.0000 0.0000 0.0000 0.0000 0.0000 -59.1703
#
#
#
# Elastic Compliance Matrix: (Units=1/GPa)
#
#
# Indices 1 2 3 4 5 6 
#
# 1 0.013991 -0.002434 0.002118 0.000000 0.000000 0.000000
# 2 -0.002434 0.008119 -0.006431 0.000000 0.000000 0.000000
# 3 0.002118 -0.006431 0.011990 0.000000 0.000000 0.000000
# 4 0.000000 0.000000 0.000000 -0.107470 0.000000 0.000000
# 5 0.000000 0.000000 0.000000 0.000000 0.035733 0.000000
# 6 0.000000 0.000000 0.000000 0.000000 0.000000 -0.016900
#
#
# Mechanical properties :
#
#
# Convention : Reuss Voigt Hill
#
# Bulk Modulus (GPa) = 48.53034 78.54161 63.53598
# Shear Modulus (GPa) = -146.30132 12.39005 -66.95564
#
# Velocity S-wave (km/s) = -8.26051 2.40391 -5.58825
# Velocity P-wave (km/s) = 8.26719 6.65864 3.46475
#
# Compressibility (1/GPa) = 0.02060566
#
# Stress axis : x y z
#
# Youngs Moduli (GPa) = 71.47515 123.17535 83.40218
#
# Poissons Ratio (x) = 0.29986 -0.17668
# Poissons Ratio (y) = 0.17400 0.53635
# Poissons Ratio (z) = -0.15141 0.79213
#
# Static dielectric constant tensor:
#      x y z
#    x 1.806430 0.000000 0.000000 
#    y 0.000000 1.748460 0.000000 
#    z 0.000000 0.000000 1.745510 
# 
# From -- ./inp_files/31681.got.cif
#   From: 2010.05.17/outbox.cif.g08.bks.cpg/sg47_16_cif.got.tgz:31681.got - 2010.06.03 20:15:42.
