data_PCOD9385453
_publ_section_title
;
Structure prediction by ZEFSAII (Michael W. Deem and Ramdas Pophale) SiO2 
 PCOD9385453
Probable space group: P M M M
;
_chemical_formula_sum "Si O2"
_cell_formula_units_Z 52
_cell_length_a 21.562391
_cell_length_b 9.434779
_cell_length_c 14.072192
_cell_angle_alpha 90.000000
_cell_angle_beta 90.000000
_cell_angle_gamma 90.000000
_cell_volume 2862.795993
_symmetry_space_group_name_H-M "P M M M"
_symmetry_group_IT_number 47
_symmetry_cell_setting 'orthorhombic'
loop_
_space_group_symop_operation_xyz
x,y,z
-x,-y,z
x,-y,-z
-x,y,-z
-x,-y,-z
x,y,-z
-x,y,z
x,-y,z
loop_
_atom_site_type_symbol
_atom_site_label
_atom_site_fract_x
_atom_site_fract_y
_atom_site_fract_z
Si Si1 0.681842 0.668718 0.790475
Si Si2 0.755150 0.332797 0.610122
Si Si3 0.000000 0.663701 0.616565
Si Si4 0.811316 0.664856 0.885439
Si Si5 0.878444 0.837006 0.384284
Si Si6 0.429123 0.830381 0.112068
Si Si7 0.067976 0.834063 0.115599
O O1 0.673727 0.500000 0.805801
O O2 0.698223 0.693736 0.680306
O O3 0.745001 0.712361 0.845269
O O4 0.622688 0.750930 0.828154
O O5 0.741231 0.303207 0.500000
O O6 0.771277 0.500000 0.618108
O O7 0.814594 0.241378 0.640109
O O8 0.061451 0.748565 0.646339
O O9 0.000000 0.500000 0.647572
O O10 0.000000 0.661845 0.500000
O O11 0.819320 0.500000 0.858724
O O12 0.871038 0.752147 0.851705
O O13 0.808810 0.673282 0.000000
O O14 0.880285 0.838665 0.500000
O O15 0.880342 0.000000 0.352545
O O16 0.500000 0.791028 0.137193
O O17 0.423383 0.000000 0.123127
O O18 0.420402 0.798687 0.000000
O O19 0.000000 0.779046 0.145732
O O20 0.071649 0.000000 0.139700
O O21 0.068509 0.825820 0.000000
#
# Coordination Sequence:
#
# PCOD9385453 Si02
#       7
#     8   8   4   8   8   8   8
#     4  10  20  33  52  78 106 135 172 214 255 303
#     4   9  18  33  51  70  96 132 174 219 265 312
#     4   9  15  23  39  63  89 119 156 201 262 331
#     4   9  17  28  43  67  98 126 154 194 245 299
#     4   9  16  26  42  65  91 119 158 211 266 318
#     4   9  19  36  57  83 115 146 172 199 239 297
#     4   8  14  25  41  61  86 119 160 201 239 286
#
# _framework density 18.164061
#
# number of rings (size 3 to 8) (size 9 to 14) (size 15 to 20)
#    0.000    3.000    0.000    2.077    0.000    5.538 
#    0.000    3.846    1.692    0.462    0.000    3.231 
#    0.000    0.000    0.000    0.000    0.000    0.000 
#
# Total GULP energy -290232.191255 kJ/mol
# GULP energy per Si atom -5581.388293 kJ/mol
# Density = 1.812272 g / cm^3
# Si number density = 18.164061 Si / 1000 Ang^3
#
#
#
# Elastic Constant Matrix: (Units=GPa)
#
#
# Indices 1 2 3 4 5 6 
#
# 1 180.2290 88.9889 69.1670 0.0000 0.0000 0.0000
# 2 88.9889 80.6884 35.1506 0.0000 0.0000 0.0000
# 3 69.1670 35.1506 72.5105 0.0000 0.0000 0.0000
# 4 0.0000 0.0000 0.0000 9.3616 0.0000 0.0000
# 5 0.0000 0.0000 0.0000 0.0000 28.3552 0.0000
# 6 0.0000 0.0000 0.0000 0.0000 0.0000 40.1038
#
#
#
# Elastic Compliance Matrix: (Units=1/GPa)
#
#
# Indices 1 2 3 4 5 6 
#
# 1 0.015168 -0.013216 -0.008062 0.000000 0.000000 0.000000
# 2 -0.013216 0.027227 -0.000592 0.000000 0.000000 0.000000
# 3 -0.008062 -0.000592 0.021768 0.000000 0.000000 0.000000
# 4 0.000000 0.000000 0.000000 0.106819 0.000000 0.000000
# 5 0.000000 0.000000 0.000000 0.000000 0.035267 0.000000
# 6 0.000000 0.000000 0.000000 0.000000 0.000000 0.024935
#
#
# Mechanical properties :
#
#
# Convention : Reuss Voigt Hill
#
# Bulk Modulus (GPa) = 48.96375 80.00452 64.48414
# Shear Modulus (GPa) = 17.74735 24.90556 21.32646
#
# Velocity S-wave (km/s) = 3.12918 3.70691 3.43023
# Velocity P-wave (km/s) = 6.33014 7.90334 7.16008
#
# Compressibility (1/GPa) = 0.02042327
#
# Stress axis : x y z
#
# Youngs Moduli (GPa) = 65.92800 36.72802 45.93897
#
# Poissons Ratio (x) = 0.48541 0.37035
# Poissons Ratio (y) = 0.87133 0.02719
# Poissons Ratio (z) = 0.53150 0.02173
#
# Static dielectric constant tensor:
#      x y z
#    x 1.583100 0.000000 0.000000 
#    y 0.000000 1.609840 0.000000 
#    z 0.000000 0.000000 1.676400 
# 
# From -- ./inp_files/25043.got.cif
#   From: 2010.05.17/outbox.cif.g08.bks.cpg/sg47_13_cif.got.tgz:25043.got - 2010.06.03 20:15:42.
