data_PCOD9385583
_publ_section_title
;
Structure prediction by ZEFSAII (Michael W. Deem and Ramdas Pophale) SiO2 
 PCOD9385583
Probable space group: P M M M
;
_chemical_formula_sum "Si O2"
_cell_formula_units_Z 48
_cell_length_a 17.417633
_cell_length_b 15.983894
_cell_length_c 8.497597
_cell_angle_alpha 90.000000
_cell_angle_beta 90.000000
_cell_angle_gamma 90.000000
_cell_volume 2365.744598
_symmetry_space_group_name_H-M "P M M M"
_symmetry_group_IT_number 47
_symmetry_cell_setting 'orthorhombic'
loop_
_space_group_symop_operation_xyz
x,y,z
-x,-y,z
x,-y,-z
-x,y,-z
-x,-y,-z
x,y,-z
-x,y,z
x,-y,z
loop_
_atom_site_type_symbol
_atom_site_label
_atom_site_fract_x
_atom_site_fract_y
_atom_site_fract_z
Si Si1 0.088470 0.400942 0.500000
Si Si2 0.411799 0.596200 0.310208
Si Si3 0.155957 0.168621 0.818431
Si Si4 0.685149 0.749910 0.809456
Si Si5 0.911830 0.339513 0.827534
Si Si6 0.410905 0.909320 0.808712
Si Si7 0.087403 0.000000 0.313567
O O1 0.084841 0.500000 0.500000
O O2 0.124007 0.373853 0.333443
O O3 0.000000 0.366888 0.500000
O O4 0.411074 0.597519 0.500000
O O5 0.500000 0.617215 0.260083
O O6 0.396245 0.500000 0.260771
O O7 0.350574 0.663544 0.250486
O O8 0.230188 0.220002 0.759270
O O9 0.090382 0.239176 0.814994
O O10 0.131620 0.083985 0.735649
O O11 0.172037 0.146329 0.000000
O O12 0.631838 0.826899 0.754908
O O13 0.685035 0.745704 0.000000
O O14 0.000000 0.369745 0.831654
O O15 0.876715 0.360348 0.000000
O O16 0.500000 0.905870 0.763896
O O17 0.378911 0.000000 0.757623
O O18 0.407813 0.908772 0.000000
O O19 0.081624 0.000000 0.500000
O O20 0.000000 0.000000 0.246767
#
# Coordination Sequence:
#
# PCOD9385583 Si02
#       7
#     4   8   8   8   8   8   4
#     4   9  18  32  54  83 109 137 178 230 285 345
#     4   9  19  37  59  82 113 157 204 247 296 353
#     4  10  22  38  57  83 116 152 188 233 295 359
#     4  10  20  33  55  84 114 148 190 240 293 347
#     4   9  18  34  56  79 108 148 191 237 290 349
#     4   8  14  25  44  72 105 140 178 220 267 323
#     4  11  25  41  61  89 116 151 202 251 289 340
#
# _framework density 20.289597000000001
#
# number of rings (size 3 to 8) (size 9 to 14) (size 15 to 20)
#    0.000    2.667    0.000    2.250    2.333    3.667 
#    0.000    3.333    0.000    3.000    0.000    2.333 
#    0.000    0.000    0.000    0.000    0.000    0.000 
#
# Total GULP energy -267401.104308 kJ/mol
# GULP energy per Si atom -5570.856340 kJ/mol
# Density = 2.024342 g / cm^3
# Si number density = 20.289597 Si / 1000 Ang^3
#
#
#
# Elastic Constant Matrix: (Units=GPa)
#
#
# Indices 1 2 3 4 5 6 
#
# 1 88.4112 62.2134 17.8244 0.0000 0.0000 0.0000
# 2 62.2134 126.8860 46.4962 0.0000 0.0000 0.0000
# 3 17.8244 46.4962 87.4061 0.0000 0.0000 0.0000
# 4 0.0000 0.0000 0.0000 28.1084 0.0000 0.0000
# 5 0.0000 0.0000 0.0000 0.0000 11.7880 0.0000
# 6 0.0000 0.0000 0.0000 0.0000 0.0000 4.6677
#
#
#
# Elastic Compliance Matrix: (Units=1/GPa)
#
#
# Indices 1 2 3 4 5 6 
#
# 1 0.017374 -0.008969 0.001228 0.000000 0.000000 0.000000
# 2 -0.008969 0.014419 -0.005841 0.000000 0.000000 0.000000
# 3 0.001228 -0.005841 0.014298 0.000000 0.000000 0.000000
# 4 0.000000 0.000000 0.000000 0.035577 0.000000 0.000000
# 5 0.000000 0.000000 0.000000 0.000000 0.084832 0.000000
# 6 0.000000 0.000000 0.000000 0.000000 0.000000 0.214237
#
#
# Mechanical properties :
#
#
# Convention : Reuss Voigt Hill
#
# Bulk Modulus (GPa) = 52.83509 61.75237 57.29373
# Shear Modulus (GPa) = 12.07116 20.65743 16.36430
#
# Velocity S-wave (km/s) = 2.44179 3.19428 2.84304
# Velocity P-wave (km/s) = 5.83496 6.64124 6.25112
#
# Compressibility (1/GPa) = 0.01892682
#
# Stress axis : x y z
#
# Youngs Moduli (GPa) = 57.55586 69.35255 69.94090
#
# Poissons Ratio (x) = 0.62201 -0.08588
# Poissons Ratio (y) = 0.51621 0.40855
# Poissons Ratio (z) = -0.07067 0.40511
#
# Static dielectric constant tensor:
#      x y z
#    x 1.767140 0.000000 0.000000 
#    y 0.000000 1.695040 0.000000 
#    z 0.000000 0.000000 1.753600 
# 
# From -- ./inp_files/9238.got.cif
#   From: 2010.05.17/outbox.cif.g08.bks.cpg/sg47_5_cif.got.tgz:9238.got - 2010.06.03 20:15:42.
