data_PCOD9385950
_publ_section_title
;
Structure prediction by ZEFSAII (Michael W. Deem and Ramdas Pophale) SiO2 
 PCOD9385950
Probable space group: P M M M
;
_chemical_formula_sum "Si O2"
_cell_formula_units_Z 52
_cell_length_a 8.678522
_cell_length_b 15.127907
_cell_length_c 21.329963
_cell_angle_alpha 90.000000
_cell_angle_beta 90.000000
_cell_angle_gamma 90.000000
_cell_volume 2800.365489
_symmetry_space_group_name_H-M "P M M M"
_symmetry_group_IT_number 47
_symmetry_cell_setting 'orthorhombic'
loop_
_space_group_symop_operation_xyz
x,y,z
-x,-y,z
x,-y,-z
-x,y,-z
-x,-y,-z
x,y,-z
-x,y,z
x,-y,z
loop_
_atom_site_type_symbol
_atom_site_label
_atom_site_fract_x
_atom_site_fract_y
_atom_site_fract_z
Si Si1 0.828202 0.500000 0.575459
Si Si2 0.188256 0.603161 0.804837
Si Si3 0.320279 0.900684 0.239657
Si Si4 0.180120 0.736422 0.304011
Si Si5 0.317113 0.686266 0.570963
Si Si6 0.814809 0.097167 0.101846
Si Si7 0.812990 0.295704 0.068140
O O1 0.841054 0.500000 0.500000
O O2 0.738347 0.411546 0.590340
O O3 0.000000 0.500000 0.602968
O O4 0.234392 0.500000 0.802932
O O5 0.238329 0.659588 0.743722
O O6 0.239198 0.652440 0.869275
O O7 0.000000 0.605279 0.804850
O O8 0.500000 0.877146 0.247967
O O9 0.211722 0.828247 0.269868
O O10 0.276906 0.902731 0.166715
O O11 0.296519 0.000000 0.264521
O O12 0.257593 0.743484 0.371820
O O13 0.000000 0.720096 0.313661
O O14 0.258435 0.704986 0.500000
O O15 0.500000 0.688879 0.568368
O O16 0.775384 0.190946 0.070744
O O17 0.000000 0.100557 0.113264
O O18 0.785892 0.000000 0.071979
O O19 0.000000 0.301462 0.069013
O O20 0.760919 0.330927 0.000000
#
# Coordination Sequence:
#
# PCOD9385950 Si02
#       7
#     4   8   8   8   8   8   8
#     4   9  17  31  51  75 105 143 186 225 264 315
#     4   9  18  31  46  71 106 139 176 223 270 311
#     4  10  20  34  54  79 106 137 174 218 271 330
#     4  11  21  34  56  81 108 142 180 225 271 321
#     4  10  21  36  53  77 112 149 183 223 273 328
#     4   9  16  28  47  72 103 134 168 216 273 329
#     4   9  16  27  45  71 103 138 177 220 269 322
#
# _framework density 18.569005000000001
#
# number of rings (size 3 to 8) (size 9 to 14) (size 15 to 20)
#    0.000    2.385    1.538    1.615    1.077    3.385 
#    0.000    3.077    0.000    0.923    0.000    5.385 
#    0.000    1.231    0.000    0.000    0.000    0.000 
#
# Total GULP energy -289640.164229 kJ/mol
# GULP energy per Si atom -5570.003158 kJ/mol
# Density = 1.852674 g / cm^3
# Si number density = 18.569005 Si / 1000 Ang^3
#
#
#
# Elastic Constant Matrix: (Units=GPa)
#
#
# Indices 1 2 3 4 5 6 
#
# 1 16.1205 9.6985 20.1982 0.0000 0.0000 0.0000
# 2 9.6985 64.3934 29.4553 0.0000 0.0000 0.0000
# 3 20.1982 29.4553 107.2969 0.0000 0.0000 0.0000
# 4 0.0000 0.0000 0.0000 5.0335 0.0000 0.0000
# 5 0.0000 0.0000 0.0000 0.0000 2.7016 0.0000
# 6 0.0000 0.0000 0.0000 0.0000 0.0000 18.8314
#
#
#
# Elastic Compliance Matrix: (Units=1/GPa)
#
#
# Indices 1 2 3 4 5 6 
#
# 1 0.083251 -0.006141 -0.013986 0.000000 0.000000 0.000000
# 2 -0.006141 0.018213 -0.003844 0.000000 0.000000 0.000000
# 3 -0.013986 -0.003844 0.013008 0.000000 0.000000 0.000000
# 4 0.000000 0.000000 0.000000 0.198670 0.000000 0.000000
# 5 0.000000 0.000000 0.000000 0.000000 0.370146 0.000000
# 6 0.000000 0.000000 0.000000 0.000000 0.000000 0.053103
#
#
# Mechanical properties :
#
#
# Convention : Reuss Voigt Hill
#
# Bulk Modulus (GPa) = 15.03080 34.05719 24.54400
# Shear Modulus (GPa) = 6.19957 13.87723 10.03840
#
# Velocity S-wave (km/s) = 1.82918 2.73671 2.32760
# Velocity P-wave (km/s) = 3.54589 5.32605 4.52439
#
# Compressibility (1/GPa) = 0.06653004
#
# Stress axis : x y z
#
# Youngs Moduli (GPa) = 12.01190 54.90669 76.87650
#
# Poissons Ratio (x) = 0.33719 1.07517
# Poissons Ratio (y) = 0.07377 0.29549
# Poissons Ratio (z) = 0.16800 0.21105
#
# Static dielectric constant tensor:
#      x y z
#    x 1.627050 0.000000 0.000000 
#    y 0.000000 6.430810 0.000000 
#    z 0.000000 0.000000 1.658930 
# 
# From -- ./inp_files/7068.got.cif
#   From: 2010.05.17/outbox.cif.g08.bks.cpg/sg47_4_cif.got.tgz:7068.got - 2010.06.03 20:15:42.
