data_PCOD9385179
_publ_section_title
;
Structure prediction by ZEFSAII (Michael W. Deem and Ramdas Pophale) SiO2 
 PCOD9385179
Probable space group: P M M M
;
_chemical_formula_sum "Si O2"
_cell_formula_units_Z 48
_cell_length_a 9.281106
_cell_length_b 7.501785
_cell_length_c 31.848035
_cell_angle_alpha 90.000000
_cell_angle_beta 90.000000
_cell_angle_gamma 90.000000
_cell_volume 2217.415035
_symmetry_space_group_name_H-M "P M M M"
_symmetry_group_IT_number 47
_symmetry_cell_setting 'orthorhombic'
loop_
_space_group_symop_operation_xyz
x,y,z
-x,-y,z
x,-y,-z
-x,y,-z
-x,-y,-z
x,y,-z
-x,y,z
x,-y,z
loop_
_atom_site_type_symbol
_atom_site_label
_atom_site_fract_x
_atom_site_fract_y
_atom_site_fract_z
Si Si1 0.336537 0.286331 0.665013
Si Si2 0.162880 0.712201 0.584527
Si Si3 0.163885 0.786112 0.249969
Si Si4 0.663180 0.212082 0.500000
Si Si5 0.833775 0.217766 0.916302
Si Si6 0.333717 0.782162 0.000000
Si Si7 0.666245 0.781962 0.167490
O O1 0.500000 0.217250 0.667347
O O2 0.346017 0.500000 0.660442
O O3 0.250939 0.216188 0.624437
O O4 0.249146 0.251817 0.707424
O O5 0.150949 0.500000 0.590777
O O6 0.249973 0.737280 0.541654
O O7 0.000000 0.783702 0.581812
O O8 0.250995 0.721509 0.209274
O O9 0.000000 0.718051 0.251494
O O10 0.155944 0.000000 0.245991
O O11 0.500000 0.285116 0.500000
O O12 0.653261 0.000000 0.500000
O O13 0.750349 0.273807 0.874364
O O14 0.000000 0.274791 0.916332
O O15 0.834178 0.000000 0.916367
O O16 0.749908 0.274448 0.958127
O O17 0.500000 0.725402 0.000000
O O18 0.333958 0.000000 0.000000
O O19 0.500000 0.725332 0.167242
O O20 0.665997 0.000000 0.167677
#
# Coordination Sequence:
#
# PCOD9385179 Si02
#       7
#     8   8   8   4   8   4   8
#     4  10  21  37  57  80 105 135 171 210 253 300
#     4  10  21  38  60  83 106 136 174 212 252 300
#     4  10  20  33  50  73 100 131 167 206 250 300
#     4  11  24  39  56  82 114 145 176 211 252 296
#     4   9  15  22  32  47  70 102 142 188 236 287
#     4   9  15  21  29  43  65  97 140 187 234 285
#     4   9  16  26  40  58  82 114 152 194 240 291
#
# _framework density 21.646827999999999
#
# number of rings (size 3 to 8) (size 9 to 14) (size 15 to 20)
#    0.000    2.333    0.000    3.250    0.000   10.333 
#    0.000    0.000    0.000    0.000    0.000    0.000 
#    0.000    0.000    0.000    0.750    0.000   14.667 
#
# Total GULP energy -268324.137882 kJ/mol
# GULP energy per Si atom -5590.086206 kJ/mol
# Density = 2.159756 g / cm^3
# Si number density = 21.646828 Si / 1000 Ang^3
#
#
#
# Elastic Constant Matrix: (Units=GPa)
#
#
# Indices 1 2 3 4 5 6 
#
# 1 284.5910 7.7631 171.1967 0.0000 0.0000 0.0000
# 2 7.7631 58.7739 -2.4881 0.0000 0.0000 0.0000
# 3 171.1967 -2.4881 260.9895 0.0000 0.0000 0.0000
# 4 0.0000 0.0000 0.0000 18.5049 0.0000 0.0000
# 5 0.0000 0.0000 0.0000 0.0000 48.6769 0.0000
# 6 0.0000 0.0000 0.0000 0.0000 0.0000 6.4717
#
#
#
# Elastic Compliance Matrix: (Units=1/GPa)
#
#
# Indices 1 2 3 4 5 6 
#
# 1 0.005855 -0.000936 -0.003850 0.000000 0.000000 0.000000
# 2 -0.000936 0.017171 0.000778 0.000000 0.000000 0.000000
# 3 -0.003850 0.000778 0.006364 0.000000 0.000000 0.000000
# 4 0.000000 0.000000 0.000000 0.054040 0.000000 0.000000
# 5 0.000000 0.000000 0.000000 0.000000 0.020544 0.000000
# 6 0.000000 0.000000 0.000000 0.000000 0.000000 0.154519
#
#
# Mechanical properties :
#
#
# Convention : Reuss Voigt Hill
#
# Bulk Modulus (GPa) = 46.78556 106.36644 76.57600
# Shear Modulus (GPa) = 18.27264 43.25621 30.76442
#
# Velocity S-wave (km/s) = 2.90854 4.47505 3.77397
# Velocity P-wave (km/s) = 5.73929 8.71466 7.37851
#
# Compressibility (1/GPa) = 0.02137412
#
# Stress axis : x y z
#
# Youngs Moduli (GPa) = 170.79166 58.23786 157.13063
#
# Poissons Ratio (x) = 0.05453 0.60489
# Poissons Ratio (y) = 0.15992 -0.12223
# Poissons Ratio (z) = 0.65748 -0.04530
#
# Static dielectric constant tensor:
#      x y z
#    x 1.757800 0.000000 0.000000 
#    y 0.000000 1.857120 0.000000 
#    z 0.000000 0.000000 1.725570 
# 
# From -- ./inp_files/34075.got.cif
#   From: 2010.05.17/outbox.cif.g08.bks.cpg/sg47_18_cif.got.tgz:34075.got - 2010.06.03 20:15:42.
