data_PCOD9385257
_publ_section_title
;
Structure prediction by ZEFSAII (Michael W. Deem and Ramdas Pophale) SiO2 
 PCOD9385257
Probable space group: P M M M
;
_chemical_formula_sum "Si O2"
_cell_formula_units_Z 40
_cell_length_a 8.807257
_cell_length_b 27.973256
_cell_length_c 8.204931
_cell_angle_alpha 90.000000
_cell_angle_beta 90.000000
_cell_angle_gamma 90.000000
_cell_volume 2021.429608
_symmetry_space_group_name_H-M "P M M M"
_symmetry_group_IT_number 47
_symmetry_cell_setting 'orthorhombic'
loop_
_space_group_symop_operation_xyz
x,y,z
-x,-y,z
x,-y,-z
-x,y,-z
-x,-y,-z
x,y,-z
-x,y,z
x,-y,z
loop_
_atom_site_type_symbol
_atom_site_label
_atom_site_fract_x
_atom_site_fract_y
_atom_site_fract_z
Si Si1 0.677764 0.700004 0.308506
Si Si2 0.322541 0.557098 0.500000
Si Si3 0.177372 0.796961 0.194092
Si Si4 0.818868 0.606122 0.181688
Si Si5 0.824163 0.000000 0.805734
Si Si6 0.176406 0.100872 0.694419
O O1 0.698620 0.689315 0.500000
O O2 0.500000 0.695521 0.269449
O O3 0.733717 0.753428 0.273919
O O4 0.771256 0.661251 0.206964
O O5 0.306815 0.500000 0.500000
O O6 0.500000 0.570137 0.500000
O O7 0.250685 0.577928 0.665503
O O8 0.240453 0.849388 0.239092
O O9 0.000000 0.794950 0.247691
O O10 0.181388 0.791434 0.000000
O O11 0.000000 0.601955 0.189070
O O12 0.768607 0.590309 0.000000
O O13 0.754582 0.050191 0.748045
O O14 0.000000 0.000000 0.741858
O O15 0.828366 0.000000 0.000000
O O16 0.175972 0.102884 0.500000
O O17 0.000000 0.100112 0.754368
#
# Coordination Sequence:
#
# PCOD9385257 Si02
#       6
#     8   4   8   8   4   8
#     4  11  23  38  58  85 117 155 198 245 301 363
#     4  11  25  45  69  99 135 175 217 260 309 364
#     4  10  20  33  50  75 107 143 185 233 288 351
#     4  11  24  42  67  98 130 168 214 263 315 369
#     4   9  15  23  37  59  90 127 168 219 278 339
#     4   9  16  26  41  63  93 131 174 222 279 342
#
# _framework density 19.787977000000001
#
# number of rings (size 3 to 8) (size 9 to 14) (size 15 to 20)
#    0.000    1.800    1.000    3.600    0.000   11.200 
#    0.000    2.000    0.000    0.000    0.000    0.700 
#    0.000    5.600    0.000    0.000    0.000    0.000 
#
# Total GULP energy -223352.253451 kJ/mol
# GULP energy per Si atom -5583.806336 kJ/mol
# Density = 1.974294 g / cm^3
# Si number density = 19.787977 Si / 1000 Ang^3
#
#
#
# Elastic Constant Matrix: (Units=GPa)
#
#
# Indices 1 2 3 4 5 6 
#
# 1 43.3492 33.1488 45.2282 0.0000 0.0000 0.0000
# 2 33.1488 89.6857 50.5931 0.0000 0.0000 0.0000
# 3 45.2282 50.5931 105.7485 0.0000 0.0000 0.0000
# 4 0.0000 0.0000 0.0000 15.3519 0.0000 0.0000
# 5 0.0000 0.0000 0.0000 0.0000 4.7355 0.0000
# 6 0.0000 0.0000 0.0000 0.0000 0.0000 42.7413
#
#
#
# Elastic Compliance Matrix: (Units=1/GPa)
#
#
# Indices 1 2 3 4 5 6 
#
# 1 0.045492 -0.007997 -0.015631 0.000000 0.000000 0.000000
# 2 -0.007997 0.016677 -0.004559 0.000000 0.000000 0.000000
# 3 -0.015631 -0.004559 0.018323 0.000000 0.000000 0.000000
# 4 0.000000 0.000000 0.000000 0.065139 0.000000 0.000000
# 5 0.000000 0.000000 0.000000 0.000000 0.211170 0.000000
# 6 0.000000 0.000000 0.000000 0.000000 0.000000 0.023397
#
#
# Mechanical properties :
#
#
# Convention : Reuss Voigt Hill
#
# Bulk Modulus (GPa) = 41.46056 55.19149 48.32602
# Shear Modulus (GPa) = 11.24583 19.88662 15.56623
#
# Velocity S-wave (km/s) = 2.38652 3.17359 2.80777
# Velocity P-wave (km/s) = 5.34714 6.43280 5.91493
#
# Compressibility (1/GPa) = 0.02411931
#
# Stress axis : x y z
#
# Youngs Moduli (GPa) = 21.98202 59.96142 54.57723
#
# Poissons Ratio (x) = 0.47949 0.85308
# Poissons Ratio (y) = 0.17578 0.24881
# Poissons Ratio (z) = 0.34360 0.27335
#
# Static dielectric constant tensor:
#      x y z
#    x 1.680670 0.000000 0.000000 
#    y 0.000000 1.711720 0.000000 
#    z 0.000000 0.000000 1.683430 
# 
# From -- ./inp_files/1860.got.cif
#   From: 2010.05.17/outbox.cif.g08.bks.cpg/sg47_1_cif.got.tgz:1860.got - 2010.06.03 20:15:42.
