data_PCOD9385569
_publ_section_title
;
Structure prediction by ZEFSAII (Michael W. Deem and Ramdas Pophale) SiO2 
 PCOD9385569
Probable space group: P M M M
;
_chemical_formula_sum "Si O2"
_cell_formula_units_Z 48
_cell_length_a 20.395040
_cell_length_b 15.529725
_cell_length_c 8.553663
_cell_angle_alpha 90.000000
_cell_angle_beta 90.000000
_cell_angle_gamma 90.000000
_cell_volume 2709.196230
_symmetry_space_group_name_H-M "P M M M"
_symmetry_group_IT_number 47
_symmetry_cell_setting 'orthorhombic'
loop_
_space_group_symop_operation_xyz
x,y,z
-x,-y,z
x,-y,-z
-x,y,-z
-x,-y,-z
x,y,-z
-x,y,z
x,-y,z
loop_
_atom_site_type_symbol
_atom_site_label
_atom_site_fract_x
_atom_site_fract_y
_atom_site_fract_z
Si Si1 0.000000 0.898217 0.676597
Si Si2 0.691211 0.714363 0.813165
Si Si3 0.172723 0.652955 0.316214
Si Si4 0.076505 0.500000 0.691013
Si Si5 0.132874 0.832122 0.184307
Si Si6 0.727582 0.094590 0.811417
Si Si7 0.575387 0.598600 0.311346
O O1 0.935631 0.871809 0.769558
O O2 0.000000 0.861001 0.500000
O O3 0.000000 0.000000 0.663176
O O4 0.755473 0.660499 0.760740
O O5 0.696936 0.814266 0.755352
O O6 0.626819 0.666139 0.754751
O O7 0.691695 0.717717 0.000000
O O8 0.182641 0.638142 0.500000
O O9 0.120487 0.581949 0.259628
O O10 0.142103 0.745799 0.282682
O O11 0.073964 0.500000 0.500000
O O12 0.000000 0.500000 0.743323
O O13 0.194714 0.893630 0.217911
O O14 0.136138 0.811199 0.000000
O O15 0.705842 0.000000 0.752176
O O16 0.718632 0.093351 0.000000
O O17 0.578041 0.601041 0.500000
O O18 0.500000 0.616229 0.264840
O O19 0.591194 0.500000 0.263451
#
# Coordination Sequence:
#
# PCOD9385569 Si02
#       7
#     4   8   8   4   8   8   8
#     4  11  23  35  49  72  99 130 169 213 266 329
#     4  10  20  33  53  83 113 139 175 223 267 313
#     4  10  20  35  55  76 102 139 179 220 265 318
#     4   9  20  36  53  73  96 133 183 224 262 315
#     4  10  20  34  52  74 100 129 168 219 274 323
#     4   8  15  30  51  73 100 135 172 209 254 309
#     4   9  19  36  57  80 108 144 182 216 259 322
#
# _framework density 17.717433
#
# number of rings (size 3 to 8) (size 9 to 14) (size 15 to 20)
#    0.000    2.500    0.000    3.750    2.333    2.000 
#    0.000    2.083    0.000   12.500    0.000    3.500 
#    0.000    0.000    0.000    0.000    0.000    0.000 
#
# Total GULP energy -267477.818995 kJ/mol
# GULP energy per Si atom -5572.454562 kJ/mol
# Density = 1.767711 g / cm^3
# Si number density = 17.717433 Si / 1000 Ang^3
#
#
#
# Elastic Constant Matrix: (Units=GPa)
#
#
# Indices 1 2 3 4 5 6 
#
# 1 124.9640 83.0905 21.4758 0.0000 0.0000 0.0000
# 2 83.0905 120.7469 17.1346 0.0000 0.0000 0.0000
# 3 21.4758 17.1346 18.9665 0.0000 0.0000 0.0000
# 4 0.0000 0.0000 0.0000 20.6578 0.0000 0.0000
# 5 0.0000 0.0000 0.0000 0.0000 22.9476 0.0000
# 6 0.0000 0.0000 0.0000 0.0000 0.0000 14.6072
#
#
#
# Elastic Compliance Matrix: (Units=1/GPa)
#
#
# Indices 1 2 3 4 5 6 
#
# 1 0.016099 -0.009741 -0.009430 0.000000 0.000000 0.000000
# 2 -0.009741 0.015393 -0.002877 0.000000 0.000000 0.000000
# 3 -0.009430 -0.002877 0.066001 0.000000 0.000000 0.000000
# 4 0.000000 0.000000 0.000000 0.048408 0.000000 0.000000
# 5 0.000000 0.000000 0.000000 0.000000 0.043577 0.000000
# 6 0.000000 0.000000 0.000000 0.000000 0.000000 0.068459
#
#
# Mechanical properties :
#
#
# Convention : Reuss Voigt Hill
#
# Bulk Modulus (GPa) = 18.72701 56.45323 37.59012
# Shear Modulus (GPa) = 15.63321 21.17429 18.40375
#
# Velocity S-wave (km/s) = 2.97368 3.46079 3.22644
# Velocity P-wave (km/s) = 4.73108 6.92110 5.92810
#
# Compressibility (1/GPa) = 0.05339882
#
# Stress axis : x y z
#
# Youngs Moduli (GPa) = 62.11379 64.96522 15.15134
#
# Poissons Ratio (x) = 0.63280 0.14287
# Poissons Ratio (y) = 0.60502 0.04359
# Poissons Ratio (z) = 0.58571 0.18690
#
# Static dielectric constant tensor:
#      x y z
#    x 1.585500 0.000000 0.000000 
#    y 0.000000 1.624080 0.000000 
#    z 0.000000 0.000000 1.618910 
# 
# From -- ./inp_files/9209.got.cif
#   From: 2010.05.17/outbox.cif.g08.bks.cpg/sg47_5_cif.got.tgz:9209.got - 2010.06.03 20:15:42.
