data_PCOD9385090
_publ_section_title
;
Structure prediction by ZEFSAII (Michael W. Deem and Ramdas Pophale) SiO2 
 PCOD9385090
Probable space group: P M M M
;
_chemical_formula_sum "Si O2"
_cell_formula_units_Z 48
_cell_length_a 8.754793
_cell_length_b 19.007288
_cell_length_c 16.306054
_cell_angle_alpha 90.000000
_cell_angle_beta 90.000000
_cell_angle_gamma 90.000000
_cell_volume 2713.406828
_symmetry_space_group_name_H-M "P M M M"
_symmetry_group_IT_number 47
_symmetry_cell_setting 'orthorhombic'
loop_
_space_group_symop_operation_xyz
x,y,z
-x,-y,z
x,-y,-z
-x,y,-z
-x,-y,-z
x,y,-z
-x,y,z
x,-y,z
loop_
_atom_site_type_symbol
_atom_site_label
_atom_site_fract_x
_atom_site_fract_y
_atom_site_fract_z
Si Si1 0.683362 0.789066 0.745711
Si Si2 0.817122 0.659774 0.341380
Si Si3 0.673152 0.085266 0.000000
Si Si4 0.683416 0.289763 0.911033
Si Si5 0.183453 0.580821 0.828504
Si Si6 0.316515 0.417504 0.500000
Si Si7 0.182165 0.917454 0.175725
O O1 0.500000 0.788469 0.741173
O O2 0.751160 0.737582 0.676794
O O3 0.735392 0.754039 0.832267
O O4 0.744672 0.867961 0.755037
O O5 0.779075 0.612614 0.261146
O O6 0.746984 0.622260 0.420240
O O7 0.000000 0.663270 0.348597
O O8 0.754090 0.103236 0.914506
O O9 0.500000 0.113538 0.000000
O O10 0.666536 0.000000 0.000000
O O11 0.500000 0.287928 0.910457
O O12 0.739222 0.368779 0.894602
O O13 0.737345 0.264348 0.000000
O O14 0.230995 0.500000 0.834307
O O15 0.000000 0.584526 0.837655
O O16 0.269921 0.500000 0.500000
O O17 0.500000 0.414917 0.500000
O O18 0.000000 0.909677 0.175606
O O19 0.219117 0.000000 0.187815
#
# Coordination Sequence:
#
# PCOD9385090 Si02
#       7
#     8   8   4   8   8   4   8
#     4  10  20  34  53  74 102 138 176 219 266 316
#     4  10  20  36  56  78 106 138 173 210 258 318
#     4   9  17  29  45  67  97 133 174 221 272 321
#     4   9  19  33  46  64  91 126 169 213 256 303
#     4   9  18  32  49  69  94 125 163 208 253 299
#     4  11  23  37  57  87 118 143 172 213 261 317
#     4  10  20  33  49  73 104 137 177 224 272 322
#
# _framework density 17.689938000000001
#
# number of rings (size 3 to 8) (size 9 to 14) (size 15 to 20)
#    0.000    2.333    0.000    2.500    1.167    5.667 
#    0.000    1.667    0.000    0.000    0.000    0.583 
#    0.000    4.667    0.000    0.000    0.000    0.000 
#
# Total GULP energy -267845.931219 kJ/mol
# GULP energy per Si atom -5580.123567 kJ/mol
# Density = 1.764968 g / cm^3
# Si number density = 17.689938 Si / 1000 Ang^3
#
#
#
# Elastic Constant Matrix: (Units=GPa)
#
#
# Indices 1 2 3 4 5 6 
#
# 1 43.6613 39.2346 29.5207 0.0000 0.0000 0.0000
# 2 39.2346 113.7500 40.0830 0.0000 0.0000 0.0000
# 3 29.5207 40.0830 80.9763 0.0000 0.0000 0.0000
# 4 0.0000 0.0000 0.0000 28.6146 0.0000 0.0000
# 5 0.0000 0.0000 0.0000 0.0000 26.0919 0.0000
# 6 0.0000 0.0000 0.0000 0.0000 0.0000 27.9282
#
#
#
# Elastic Compliance Matrix: (Units=1/GPa)
#
#
# Indices 1 2 3 4 5 6 
#
# 1 0.037816 -0.009915 -0.008878 0.000000 0.000000 0.000000
# 2 -0.009915 0.013248 -0.002943 0.000000 0.000000 0.000000
# 3 -0.008878 -0.002943 0.017043 0.000000 0.000000 0.000000
# 4 0.000000 0.000000 0.000000 0.034947 0.000000 0.000000
# 5 0.000000 0.000000 0.000000 0.000000 0.038326 0.000000
# 6 0.000000 0.000000 0.000000 0.000000 0.000000 0.035806
#
#
# Mechanical properties :
#
#
# Convention : Reuss Voigt Hill
#
# Bulk Modulus (GPa) = 40.59407 50.67380 45.63394
# Shear Modulus (GPa) = 21.84631 25.16355 23.50493
#
# Velocity S-wave (km/s) = 3.51801 3.77567 3.64911
# Velocity P-wave (km/s) = 6.28484 6.90763 6.60358
#
# Compressibility (1/GPa) = 0.02463414
#
# Stress axis : x y z
#
# Youngs Moduli (GPa) = 26.44358 75.48182 58.67553
#
# Poissons Ratio (x) = 0.74841 0.52095
# Poissons Ratio (y) = 0.26219 0.17269
# Poissons Ratio (z) = 0.23478 0.22216
#
# Static dielectric constant tensor:
#      x y z
#    x 1.593000 0.000000 0.000000 
#    y 0.000000 1.637120 0.000000 
#    z 0.000000 0.000000 1.588250 
# 
# From -- ./inp_files/6455.got.cif
#   From: 2010.05.17/outbox.cif.g08.bks.cpg/sg47_4_cif.got.tgz:6455.got - 2010.06.03 20:15:42.
