data_PCOD9385792
_publ_section_title
;
Structure prediction by ZEFSAII (Michael W. Deem and Ramdas Pophale) SiO2 
 PCOD9385792
Probable space group: P M M M
;
_chemical_formula_sum "Si O2"
_cell_formula_units_Z 40
_cell_length_a 7.377663
_cell_length_b 9.275160
_cell_length_c 26.609550
_cell_angle_alpha 90.000000
_cell_angle_beta 90.000000
_cell_angle_gamma 90.000000
_cell_volume 1820.865023
_symmetry_space_group_name_H-M "P M M M"
_symmetry_group_IT_number 47
_symmetry_cell_setting 'orthorhombic'
loop_
_space_group_symop_operation_xyz
x,y,z
-x,-y,z
x,-y,-z
-x,y,-z
-x,-y,-z
x,y,-z
-x,y,z
x,-y,z
loop_
_atom_site_type_symbol
_atom_site_label
_atom_site_fract_x
_atom_site_fract_y
_atom_site_fract_z
Si Si1 0.278754 0.166354 0.500000
Si Si2 0.721260 0.333651 0.600244
Si Si3 0.784849 0.663069 0.000000
Si Si4 0.278352 0.333831 0.199252
Si Si5 0.721144 0.833764 0.299574
Si Si6 0.285328 0.837216 0.898485
O O1 0.500000 0.166173 0.500000
O O2 0.221476 0.249859 0.449850
O O3 0.221281 0.000000 0.500000
O O4 0.500000 0.333800 0.600254
O O5 0.778699 0.500000 0.600122
O O6 0.778668 0.250477 0.650450
O O7 0.735750 0.750541 0.950079
O O8 0.710076 0.500000 0.000000
O O9 0.000000 0.652049 0.000000
O O10 0.500000 0.334703 0.198965
O O11 0.220833 0.500000 0.199922
O O12 0.222353 0.248917 0.249214
O O13 0.215101 0.252197 0.149130
O O14 0.500000 0.834123 0.299697
O O15 0.778999 0.000000 0.299790
O O16 0.500000 0.849982 0.890000
O O17 0.212166 0.000000 0.901981
#
# Coordination Sequence:
#
# PCOD9385792 Si02
#       6
#     4   8   4   8   8   8
#     4   9  15  21  27  35  49  73 109 153 200 249
#     4   9  15  21  28  38  54  79 113 154 201 252
#     4  11  24  39  54  74 100 129 160 193 230 274
#     4   9  16  26  41  61  84 109 137 172 216 264
#     4   9  15  22  32  47  68  93 122 160 207 256
#     4  10  20  34  53  76  99 124 156 193 233 278
#
# _framework density 21.967582
#
# number of rings (size 3 to 8) (size 9 to 14) (size 15 to 20)
#    0.000    2.600    0.000    3.300    0.000   11.600 
#    0.000    0.000    0.000    0.000    0.000    0.000 
#    0.000    0.000    0.000    0.000    0.000    0.000 
#
# Total GULP energy -223621.192979 kJ/mol
# GULP energy per Si atom -5590.529824 kJ/mol
# Density = 2.191758 g / cm^3
# Si number density = 21.967582 Si / 1000 Ang^3
#
#
#
# Elastic Constant Matrix: (Units=GPa)
#
#
# Indices 1 2 3 4 5 6 
#
# 1 77.3371 7.1126 0.1291 0.0000 0.0000 0.0000
# 2 7.1126 289.7887 179.3311 0.0000 0.0000 0.0000
# 3 0.1291 179.3311 272.9848 0.0000 0.0000 0.0000
# 4 0.0000 0.0000 0.0000 48.4994 0.0000 0.0000
# 5 0.0000 0.0000 0.0000 0.0000 -40.5885 0.0000
# 6 0.0000 0.0000 0.0000 0.0000 0.0000 -19.2404
#
#
#
# Elastic Compliance Matrix: (Units=1/GPa)
#
#
# Indices 1 2 3 4 5 6 
#
# 1 0.012979 -0.000530 0.000342 0.000000 0.000000 0.000000
# 2 -0.000530 0.005836 -0.003834 0.000000 0.000000 0.000000
# 3 0.000342 -0.003834 0.006182 0.000000 0.000000 0.000000
# 4 0.000000 0.000000 0.000000 0.020619 0.000000 0.000000
# 5 0.000000 0.000000 0.000000 0.000000 -0.024638 0.000000
# 6 0.000000 0.000000 0.000000 0.000000 0.000000 -0.051974
#
#
# Mechanical properties :
#
#
# Convention : Reuss Voigt Hill
#
# Bulk Modulus (GPa) = 58.98752 112.58401 85.78576
# Shear Modulus (GPa) = -288.98803 27.96996 -130.50904
#
# Velocity S-wave (km/s) = -11.48206 3.57212 -7.71614
# Velocity P-wave (km/s) = 12.20136 8.26890 6.34423
#
# Compressibility (1/GPa) = 0.01695274
#
# Stress axis : x y z
#
# Youngs Moduli (GPa) = 77.04986 171.34254 161.77200
#
# Poissons Ratio (x) = 0.09087 -0.05537
# Poissons Ratio (y) = 0.04086 0.62019
# Poissons Ratio (z) = -0.02637 0.65688
#
# Static dielectric constant tensor:
#      x y z
#    x 1.836950 0.000000 0.000000 
#    y 0.000000 1.756010 0.000000 
#    z 0.000000 0.000000 1.750270 
# 
# From -- ./inp_files/13061.got.cif
#   From: 2010.05.17/outbox.cif.g08.bks.cpg/sg47_7_cif.got.tgz:13061.got - 2010.06.03 20:15:42.
