data_PCOD9385280
_publ_section_title
;
Structure prediction by ZEFSAII (Michael W. Deem and Ramdas Pophale) SiO2 
 PCOD9385280
Probable space group: P M M M
;
_chemical_formula_sum "Si O2"
_cell_formula_units_Z 52
_cell_length_a 24.260037
_cell_length_b 7.976170
_cell_length_c 14.926388
_cell_angle_alpha 90.000000
_cell_angle_beta 90.000000
_cell_angle_gamma 90.000000
_cell_volume 2888.288607
_symmetry_space_group_name_H-M "P M M M"
_symmetry_group_IT_number 47
_symmetry_cell_setting 'orthorhombic'
loop_
_space_group_symop_operation_xyz
x,y,z
-x,-y,z
x,-y,-z
-x,y,-z
-x,-y,-z
x,y,-z
-x,y,z
x,-y,z
loop_
_atom_site_type_symbol
_atom_site_label
_atom_site_fract_x
_atom_site_fract_y
_atom_site_fract_z
Si Si1 0.560563 0.297304 0.711396
Si Si2 0.331437 0.201881 0.602138
Si Si3 0.000000 0.693365 0.391046
Si Si4 0.119558 0.701612 0.601958
Si Si5 0.267022 0.701977 0.900908
Si Si6 0.225690 0.198798 0.287676
Si Si7 0.604751 0.704433 0.900742
O O1 0.500000 0.240216 0.681301
O O2 0.560442 0.500000 0.712654
O O3 0.611157 0.244259 0.649645
O O4 0.571759 0.239466 0.813578
O O5 0.329305 0.264246 0.500000
O O6 0.279697 0.267253 0.660089
O O7 0.327381 0.000000 0.599527
O O8 0.059525 0.768440 0.366942
O O9 0.000000 0.500000 0.359071
O O10 0.000000 0.689704 0.500000
O O11 0.130765 0.761941 0.500000
O O12 0.114086 0.500000 0.596884
O O13 0.169916 0.739794 0.666557
O O14 0.266997 0.500000 0.901052
O O15 0.232045 0.759744 0.816685
O O16 0.331092 0.754111 0.889308
O O17 0.248976 0.758959 0.000000
O O18 0.226563 0.000000 0.297452
O O19 0.603166 0.500000 0.901293
O O20 0.586148 0.759194 0.000000
#
# Coordination Sequence:
#
# PCOD9385280 Si02
#       7
#     8   8   4   8   8   8   8
#     4  10  20  33  51  74  95 116 151 200 247 292
#     4  10  22  38  51  64  89 128 166 198 237 286
#     4   7  12  26  47  71 100 133 170 207 239 278
#     4   9  17  30  50  75 103 137 173 206 241 283
#     4   9  17  31  52  74  96 125 161 199 240 293
#     4  11  21  32  49  74 103 131 162 204 247 291
#     4   8  14  27  48  72  96 119 144 182 235 292
#
# _framework density 18.003741000000002
#
# number of rings (size 3 to 8) (size 9 to 14) (size 15 to 20)
#    0.000    2.692    1.538    2.769    0.000    3.077 
#    0.000    3.462    0.000    1.846    0.000    1.615 
#    0.000    4.308    0.000    0.000    0.000    0.000 
#
# Total GULP energy -289881.794380 kJ/mol
# GULP energy per Si atom -5574.649892 kJ/mol
# Density = 1.796276 g / cm^3
# Si number density = 18.003741 Si / 1000 Ang^3
#
#
#
# Elastic Constant Matrix: (Units=GPa)
#
#
# Indices 1 2 3 4 5 6 
#
# 1 150.6041 11.2032 79.2317 0.0000 0.0000 0.0000
# 2 11.2032 15.5658 8.9122 0.0000 0.0000 0.0000
# 3 79.2317 8.9122 117.9778 0.0000 0.0000 0.0000
# 4 0.0000 0.0000 0.0000 2.3103 0.0000 0.0000
# 5 0.0000 0.0000 0.0000 0.0000 23.4955 0.0000
# 6 0.0000 0.0000 0.0000 0.0000 0.0000 0.3835
#
#
#
# Elastic Compliance Matrix: (Units=1/GPa)
#
#
# Indices 1 2 3 4 5 6 
#
# 1 0.010464 -0.003666 -0.006751 0.000000 0.000000 0.000000
# 2 -0.003666 0.068432 -0.002707 0.000000 0.000000 0.000000
# 3 -0.006751 -0.002707 0.013214 0.000000 0.000000 0.000000
# 4 0.000000 0.000000 0.000000 0.432837 0.000000 0.000000
# 5 0.000000 0.000000 0.000000 0.000000 0.042561 0.000000
# 6 0.000000 0.000000 0.000000 0.000000 0.000000 2.607294
#
#
# Mechanical properties :
#
#
# Convention : Reuss Voigt Hill
#
# Bulk Modulus (GPa) = 15.18317 53.64910 34.41614
# Shear Modulus (GPa) = 1.55135 17.55791 9.55463
#
# Velocity S-wave (km/s) = 0.92927 3.12627 2.30620
# Velocity P-wave (km/s) = 3.09888 6.54942 5.12338
#
# Compressibility (1/GPa) = 0.06586238
#
# Stress axis : x y z
#
# Youngs Moduli (GPa) = 95.56531 14.61299 75.67621
#
# Poissons Ratio (x) = 0.05358 0.51085
# Poissons Ratio (y) = 0.35037 0.20487
# Poissons Ratio (z) = 0.64511 0.03956
#
# Static dielectric constant tensor:
#      x y z
#    x 1.629050 0.000000 0.000000 
#    y 0.000000 1.652290 0.000000 
#    z 0.000000 0.000000 1.618930 
# 
# From -- ./inp_files/25033.got.cif
#   From: 2010.05.17/outbox.cif.g08.bks.cpg/sg47_13_cif.got.tgz:25033.got - 2010.06.03 20:15:42.
