data_PCOD9385281
_publ_section_title
;
Structure prediction by ZEFSAII (Michael W. Deem and Ramdas Pophale) SiO2 
 PCOD9385281
Probable space group: P M M M
;
_chemical_formula_sum "Si O2"
_cell_formula_units_Z 64
_cell_length_a 29.259087
_cell_length_b 14.662495
_cell_length_c 9.007817
_cell_angle_alpha 90.000000
_cell_angle_beta 90.000000
_cell_angle_gamma 90.000000
_cell_volume 3864.454532
_symmetry_space_group_name_H-M "P M M M"
_symmetry_group_IT_number 47
_symmetry_cell_setting 'orthorhombic'
loop_
_space_group_symop_operation_xyz
x,y,z
-x,-y,z
x,-y,-z
-x,y,-z
-x,-y,-z
x,y,-z
-x,y,z
x,-y,z
loop_
_atom_site_type_symbol
_atom_site_label
_atom_site_fract_x
_atom_site_fract_y
_atom_site_fract_z
Si Si1 0.550102 0.389628 0.674771
Si Si2 0.859330 0.857703 0.168644
Si Si3 0.734384 0.286574 0.820168
Si Si4 0.830309 0.645208 0.168505
Si Si5 0.051397 0.199360 0.321139
Si Si6 0.766487 0.899771 0.322944
Si Si7 0.921088 0.597692 0.677873
Si Si8 0.356187 0.606153 0.178617
O O1 0.553655 0.368652 0.500000
O O2 0.500000 0.357439 0.728360
O O3 0.549606 0.500000 0.688218
O O4 0.595534 0.359019 0.758455
O O5 0.845269 0.751073 0.161788
O O6 0.908853 0.858490 0.244093
O O7 0.818691 0.899545 0.264769
O O8 0.859941 0.892153 0.000000
O O9 0.777934 0.350192 0.778907
O O10 0.741904 0.186479 0.752225
O O11 0.687107 0.333527 0.775274
O O12 0.736057 0.279125 0.000000
O O13 0.868209 0.600972 0.272160
O O14 0.832388 0.608806 0.000000
O O15 0.057515 0.196427 0.500000
O O16 0.056936 0.306258 0.273468
O O17 0.000000 0.169446 0.286238
O O18 0.766253 0.887971 0.500000
O O19 0.746714 0.000000 0.287041
O O20 0.924349 0.598070 0.500000
O O21 0.940471 0.500000 0.730880
O O22 0.349959 0.500000 0.224478
O O23 0.358095 0.607237 0.000000
#
# Coordination Sequence:
#
# PCOD9385281 Si02
#       8
#     8   8   8   8   8   8   8   8
#     4   8  14  25  40  58  83 118 161 206 246 280
#     4   9  17  30  48  67  86 109 137 170 208 254
#     4   9  18  31  46  66  93 124 155 188 227 270
#     4   8  15  27  41  56  75 104 140 173 209 253
#     4   9  17  29  45  63  84 112 142 174 217 264
#     4  10  20  33  51  74  96 118 146 182 224 270
#     4   9  17  27  38  55  79 106 140 180 216 253
#     4   9  17  28  42  63  93 128 164 199 234 272
#
# _framework density 16.561197
#
# number of rings (size 3 to 8) (size 9 to 14) (size 15 to 20)
#    0.000    3.125    0.000    1.875    0.000    6.000 
#    0.000    3.750    0.000    1.875    0.000    6.125 
#    0.000    0.500    0.000    5.500    0.000    4.250 
#
# Total GULP energy -356273.585503 kJ/mol
# GULP energy per Si atom -5566.774773 kJ/mol
# Density = 1.652350 g / cm^3
# Si number density = 16.561197 Si / 1000 Ang^3
#
#
#
# Elastic Constant Matrix: (Units=GPa)
#
#
# Indices 1 2 3 4 5 6 
#
# 1 133.3803 22.8766 24.7935 0.0000 0.0000 0.0000
# 2 22.8766 48.9627 10.8659 0.0000 0.0000 0.0000
# 3 24.7935 10.8659 16.8913 0.0000 0.0000 0.0000
# 4 0.0000 0.0000 0.0000 6.4227 0.0000 0.0000
# 5 0.0000 0.0000 0.0000 0.0000 25.5415 0.0000
# 6 0.0000 0.0000 0.0000 0.0000 0.0000 -9.2727
#
#
#
# Elastic Compliance Matrix: (Units=1/GPa)
#
#
# Indices 1 2 3 4 5 6 
#
# 1 0.010434 -0.001722 -0.014207 0.000000 0.000000 0.000000
# 2 -0.001722 0.024109 -0.012982 0.000000 0.000000 0.000000
# 3 -0.014207 -0.012982 0.088407 0.000000 0.000000 0.000000
# 4 0.000000 0.000000 0.000000 0.155699 0.000000 0.000000
# 5 0.000000 0.000000 0.000000 0.000000 0.039152 0.000000
# 6 0.000000 0.000000 0.000000 0.000000 0.000000 -0.107843
#
#
# Mechanical properties :
#
#
# Convention : Reuss Voigt Hill
#
# Bulk Modulus (GPa) = 15.35432 35.14516 25.24974
# Shear Modulus (GPa) = 17.27191 13.91815 15.59503
#
# Velocity S-wave (km/s) = 3.23292 2.90212 3.07198
# Velocity P-wave (km/s) = 4.81945 5.70063 5.27846
#
# Compressibility (1/GPa) = 0.06512824
#
# Stress axis : x y z
#
# Youngs Moduli (GPa) = 95.84433 41.47795 11.31138
#
# Poissons Ratio (x) = 0.07142 0.16070
# Poissons Ratio (y) = 0.16504 0.14684
# Poissons Ratio (z) = 1.36166 0.53845
#
# Static dielectric constant tensor:
#      x y z
#    x 1.565790 0.000000 0.000000 
#    y 0.000000 1.588380 0.000000 
#    z 0.000000 0.000000 1.560790 
# 
# From -- ./inp_files/14300.got.cif
#   From: 2010.05.17/outbox.cif.g08.bks.cpg/sg47_8_cif.got.tgz:14300.got - 2010.06.03 20:15:42.
