data_PCOD9385989
_publ_section_title
;
Structure prediction by ZEFSAII (Michael W. Deem and Ramdas Pophale) SiO2 
 PCOD9385989
Probable space group: P M M M
;
_chemical_formula_sum "Si O2"
_cell_formula_units_Z 48
_cell_length_a 9.056238
_cell_length_b 9.324263
_cell_length_c 31.766910
_cell_angle_alpha 90.000000
_cell_angle_beta 90.000000
_cell_angle_gamma 90.000000
_cell_volume 2682.485077
_symmetry_space_group_name_H-M "P M M M"
_symmetry_group_IT_number 47
_symmetry_cell_setting 'orthorhombic'
loop_
_space_group_symop_operation_xyz
x,y,z
-x,-y,z
x,-y,-z
-x,y,-z
-x,-y,-z
x,y,-z
-x,y,z
x,-y,z
loop_
_atom_site_type_symbol
_atom_site_label
_atom_site_fract_x
_atom_site_fract_y
_atom_site_fract_z
Si Si1 0.675520 0.170606 0.077939
Si Si2 0.178088 0.168156 0.584382
Si Si3 0.174428 0.828968 0.834486
Si Si4 0.174724 0.670823 0.250389
Si Si5 0.179779 0.665177 0.500000
Si Si6 0.323905 0.669359 0.662008
Si Si7 0.175996 0.330341 0.000000
O O1 0.500000 0.191626 0.075983
O O2 0.737563 0.213105 0.123695
O O3 0.705198 0.000000 0.072593
O O4 0.754397 0.257084 0.041073
O O5 0.225423 0.251630 0.542139
O O6 0.250870 0.240215 0.624910
O O7 0.000000 0.180459 0.587701
O O8 0.214286 0.000000 0.581315
O O9 0.223410 0.750326 0.791991
O O10 0.000000 0.798002 0.840749
O O11 0.190290 0.000000 0.828967
O O12 0.192584 0.500000 0.244797
O O13 0.260963 0.713485 0.292450
O O14 0.000000 0.700143 0.256420
O O15 0.229213 0.500000 0.500000
O O16 0.000000 0.664603 0.500000
O O17 0.500000 0.684290 0.661275
O O18 0.287503 0.500000 0.656296
O O19 0.206324 0.500000 0.000000
O O20 0.000000 0.309028 0.000000
#
# Coordination Sequence:
#
# PCOD9385989 Si02
#       7
#     8   8   8   8   4   8   4
#     4  10  21  37  57  81 109 142 179 217 261 316
#     4  10  20  34  54  80 108 137 172 216 264 313
#     4   9  18  33  53  77 105 137 174 215 258 307
#     4   9  18  33  53  76 103 137 177 220 263 308
#     4   9  17  31  54  81 106 135 172 214 260 311
#     4  10  21  36  53  75 105 141 180 219 261 313
#     4  11  24  39  56  80 108 139 178 223 268 314
#
# _framework density 17.893856
#
# number of rings (size 3 to 8) (size 9 to 14) (size 15 to 20)
#    0.000    2.333    0.000    2.250    0.000    7.667 
#    0.000    3.750    0.000    2.500    0.000    0.000 
#    0.000    0.000    0.000    0.000    0.000    0.000 
#
# Total GULP energy -267970.456165 kJ/mol
# GULP energy per Si atom -5582.717837 kJ/mol
# Density = 1.785313 g / cm^3
# Si number density = 17.893856 Si / 1000 Ang^3
#
#
#
# Elastic Constant Matrix: (Units=GPa)
#
#
# Indices 1 2 3 4 5 6 
#
# 1 47.9233 60.1084 75.2855 0.0000 0.0000 0.0000
# 2 60.1084 95.0840 109.0201 0.0000 0.0000 0.0000
# 3 75.2855 109.0201 214.4183 0.0000 0.0000 0.0000
# 4 0.0000 0.0000 0.0000 40.2841 0.0000 0.0000
# 5 0.0000 0.0000 0.0000 0.0000 -21.8402 0.0000
# 6 0.0000 0.0000 0.0000 0.0000 0.0000 20.8744
#
#
#
# Elastic Compliance Matrix: (Units=1/GPa)
#
#
# Indices 1 2 3 4 5 6 
#
# 1 0.105577 -0.058122 -0.007518 0.000000 0.000000 0.000000
# 2 -0.058122 0.057216 -0.008684 0.000000 0.000000 0.000000
# 3 -0.007518 -0.008684 0.011719 0.000000 0.000000 0.000000
# 4 0.000000 0.000000 0.000000 0.024824 0.000000 0.000000
# 5 0.000000 0.000000 0.000000 0.000000 -0.045787 0.000000
# 6 0.000000 0.000000 0.000000 0.000000 0.000000 0.047906
#
#
# Mechanical properties :
#
#
# Convention : Reuss Voigt Hill
#
# Bulk Modulus (GPa) = 38.66301 94.02819 66.34560
# Shear Modulus (GPa) = 13.93835 15.39776 14.66806
#
# Velocity S-wave (km/s) = 2.79399 2.93662 2.86619
# Velocity P-wave (km/s) = 5.66236 8.01000 6.93622
#
# Compressibility (1/GPa) = 0.02586451
#
# Stress axis : x y z
#
# Youngs Moduli (GPa) = 9.47175 17.47765 85.33479
#
# Poissons Ratio (x) = 1.01584 0.64153
# Poissons Ratio (y) = 0.55052 0.74102
# Poissons Ratio (z) = 0.07121 0.15177
#
# Static dielectric constant tensor:
#      x y z
#    x 1.594580 0.000000 0.000000 
#    y 0.000000 1.599170 0.000000 
#    z 0.000000 0.000000 1.579750 
# 
# From -- ./inp_files/2686.got.cif
#   From: 2010.05.17/outbox.cif.g08.bks.cpg/sg47_2_cif.got.tgz:2686.got - 2010.06.03 20:15:42.
