data_PCOD9385534
_publ_section_title
;
Structure prediction by ZEFSAII (Michael W. Deem and Ramdas Pophale) SiO2 
 PCOD9385534
Probable space group: P M M M
;
_chemical_formula_sum "Si O2"
_cell_formula_units_Z 54
_cell_length_a 7.342005
_cell_length_b 20.290870
_cell_length_c 17.526865
_cell_angle_alpha 90.000000
_cell_angle_beta 90.000000
_cell_angle_gamma 90.000000
_cell_volume 2611.076439
_symmetry_space_group_name_H-M "P M M M"
_symmetry_group_IT_number 47
_symmetry_cell_setting 'orthorhombic'
loop_
_space_group_symop_operation_xyz
x,y,z
-x,-y,z
x,-y,-z
-x,y,-z
-x,-y,-z
x,y,-z
-x,y,z
x,-y,z
loop_
_atom_site_type_symbol
_atom_site_label
_atom_site_fract_x
_atom_site_fract_y
_atom_site_fract_z
Si Si1 0.721585 0.077048 0.500000
Si Si2 0.777905 0.714492 0.871373
Si Si3 0.222259 0.424525 0.413197
Si Si4 0.218436 0.865289 0.915006
Si Si5 0.500000 0.330057 0.000000
Si Si6 0.288815 0.070633 0.237860
Si Si7 0.719600 0.169897 0.359023
Si Si8 0.211359 0.688088 0.302540
O O1 0.500000 0.074283 0.500000
O O2 0.776516 0.121246 0.427260
O O3 0.781422 0.000000 0.500000
O O4 0.733851 0.790986 0.890636
O O5 0.721141 0.700598 0.783606
O O6 0.000000 0.706800 0.879351
O O7 0.660762 0.674092 0.932581
O O8 0.277946 0.408081 0.500000
O O9 0.275231 0.500000 0.397032
O O10 0.289281 0.372150 0.351360
O O11 0.000000 0.422912 0.413086
O O12 0.281650 0.915693 0.851351
O O13 0.000000 0.868775 0.916073
O O14 0.286224 0.877993 0.000000
O O15 0.500000 0.067611 0.261091
O O16 0.213827 0.132987 0.282656
O O17 0.206620 0.000000 0.257332
O O18 0.500000 0.173539 0.361943
O O19 0.778939 0.245238 0.352704
O O20 0.000000 0.672530 0.291009
#
# Coordination Sequence:
#
# PCOD9385534 Si02
#       8
#     4   8   8   8   2   8   8   8
#     4   9  18  34  53  73 100 139 188 242 291 331
#     4  10  21  35  52  84 117 146 192 242 289 352
#     4   8  15  30  54  85 119 156 195 228 270 337
#     4  10  20  34  49  67  98 132 170 222 278 340
#     4  12  22  32  64  82 112 158 188 230 304 346
#     4  10  21  34  49  69  93 127 177 231 280 339
#     4  10  20  33  53  75 102 137 184 231 282 341
#     4  10  20  33  53  83 118 146 179 237 290 331
#
# _framework density 20.681125000000002
#
# number of rings (size 3 to 8) (size 9 to 14) (size 15 to 20)
#    0.000    2.296    2.222    1.111    3.111    2.667 
#    0.000    1.481    0.000    2.222    0.000    2.074 
#    0.000    3.556    0.000    0.000    0.000    0.000 
#
# Total GULP energy -300734.005529 kJ/mol
# GULP energy per Si atom -5569.148251 kJ/mol
# Density = 2.063405 g / cm^3
# Si number density = 20.681125 Si / 1000 Ang^3
#
#
#
# Elastic Constant Matrix: (Units=GPa)
#
#
# Indices 1 2 3 4 5 6 
#
# 1 86.5138 -0.2220 0.3138 0.0000 0.0000 0.0000
# 2 -0.2220 84.9996 49.1304 0.0000 0.0000 0.0000
# 3 0.3138 49.1304 108.4940 0.0000 0.0000 0.0000
# 4 0.0000 0.0000 0.0000 75.4336 0.0000 0.0000
# 5 0.0000 0.0000 0.0000 0.0000 1.7075 0.0000
# 6 0.0000 0.0000 0.0000 0.0000 0.0000 7.8376
#
#
#
# Elastic Compliance Matrix: (Units=1/GPa)
#
#
# Indices 1 2 3 4 5 6 
#
# 1 0.011559 0.000067 -0.000064 0.000000 0.000000 0.000000
# 2 0.000067 0.015936 -0.007217 0.000000 0.000000 0.000000
# 3 -0.000064 -0.007217 0.012485 0.000000 0.000000 0.000000
# 4 0.000000 0.000000 0.000000 0.013257 0.000000 0.000000
# 5 0.000000 0.000000 0.000000 0.000000 0.585648 0.000000
# 6 0.000000 0.000000 0.000000 0.000000 0.000000 0.127591
#
#
# Mechanical properties :
#
#
# Convention : Reuss Voigt Hill
#
# Bulk Modulus (GPa) = 39.13304 42.05018 40.59161
# Shear Modulus (GPa) = 6.33375 32.38141 19.35758
#
# Velocity S-wave (km/s) = 1.75192 3.96125 3.06273
# Velocity P-wave (km/s) = 4.80161 6.42641 5.67249
#
# Compressibility (1/GPa) = 0.02555385
#
# Stress axis : x y z
#
# Youngs Moduli (GPa) = 86.51078 62.74991 80.09402
#
# Poissons Ratio (x) = -0.00421 0.00511
# Poissons Ratio (y) = -0.00580 0.57802
# Poissons Ratio (z) = 0.00552 0.45285
#
# Static dielectric constant tensor:
#      x y z
#    x 0.409130 0.000000 0.000000 
#    y 0.000000 1.717850 0.000000 
#    z 0.000000 0.000000 1.759230 
# 
# From -- ./inp_files/26979.got.cif
#   From: 2010.05.17/outbox.cif.g08.bks.cpg/sg47_14_cif.got.tgz:26979.got - 2010.06.03 20:15:42.
