data_PCOD9385577
_publ_section_title
;
Structure prediction by ZEFSAII (Michael W. Deem and Ramdas Pophale) SiO2 
 PCOD9385577
Probable space group: P M M M
;
_chemical_formula_sum "Si O2"
_cell_formula_units_Z 64
_cell_length_a 14.176510
_cell_length_b 10.169309
_cell_length_c 24.062452
_cell_angle_alpha 90.000000
_cell_angle_beta 90.000000
_cell_angle_gamma 90.000000
_cell_volume 3468.970870
_symmetry_space_group_name_H-M "P M M M"
_symmetry_group_IT_number 47
_symmetry_cell_setting 'orthorhombic'
loop_
_space_group_symop_operation_xyz
x,y,z
-x,-y,z
x,-y,-z
-x,y,-z
-x,-y,-z
x,y,-z
-x,y,z
x,-y,z
loop_
_atom_site_type_symbol
_atom_site_label
_atom_site_fract_x
_atom_site_fract_y
_atom_site_fract_z
Si Si1 0.891301 0.746713 0.062339
Si Si2 0.613126 0.853185 0.242804
Si Si3 0.306738 0.858053 0.935913
Si Si4 0.275425 0.152778 0.642584
Si Si5 0.386375 0.651411 0.851829
Si Si6 0.113319 0.642168 0.183484
Si Si7 0.609404 0.346069 0.566671
Si Si8 0.888143 0.845539 0.722706
O O1 0.807177 0.851133 0.064578
O O2 0.871722 0.661934 0.117585
O O3 0.000000 0.794645 0.067171
O O4 0.884469 0.684680 0.000000
O O5 0.500000 0.849536 0.246960
O O6 0.657727 0.839254 0.303248
O O7 0.641717 0.735226 0.202308
O O8 0.639587 0.000000 0.221888
O O9 0.346171 0.735417 0.902543
O O10 0.338554 0.000000 0.913766
O O11 0.336249 0.848716 0.000000
O O12 0.318172 0.250751 0.597502
O O13 0.173012 0.187190 0.668220
O O14 0.274414 0.000000 0.623708
O O15 0.500000 0.652294 0.854767
O O16 0.355571 0.500000 0.851212
O O17 0.150573 0.500000 0.201305
O O18 0.143266 0.759141 0.224327
O O19 0.000000 0.639790 0.189106
O O20 0.617426 0.333948 0.500000
O O21 0.500000 0.314095 0.581443
O O22 0.624907 0.500000 0.580873
O O23 0.000000 0.827202 0.713780
O O24 0.871792 0.000000 0.734594
#
# Coordination Sequence:
#
# PCOD9385577 Si02
#       8
#     8   8   8   8   8   8   8   8
#     4   9  19  35  53  76 107 138 170 216 273 332
#     4   9  18  33  52  76 107 138 170 215 268 319
#     4  10  22  38  56  78 101 129 169 215 265 324
#     4  10  20  33  54  84 112 145 189 231 268 311
#     4  10  22  39  57  77 102 134 172 215 266 323
#     4   9  18  32  50  73 100 133 177 224 270 325
#     4   9  19  36  57  84 120 156 185 218 267 326
#     4   9  19  35  52  74 109 150 188 229 277 322
#
# _framework density 18.449275
#
# number of rings (size 3 to 8) (size 9 to 14) (size 15 to 20)
#    0.000    2.625    0.000    1.125    1.750    4.750 
#    0.000    8.125    0.000    0.375    0.000    2.625 
#    0.000    0.000    0.000    0.000    0.000    0.000 
#
# Total GULP energy -356706.941719 kJ/mol
# GULP energy per Si atom -5573.545964 kJ/mol
# Density = 1.840728 g / cm^3
# Si number density = 18.449275 Si / 1000 Ang^3
#
#
#
# Elastic Constant Matrix: (Units=GPa)
#
#
# Indices 1 2 3 4 5 6 
#
# 1 76.9263 47.4618 35.7720 0.0000 0.0000 0.0000
# 2 47.4618 122.8297 53.3639 0.0000 0.0000 0.0000
# 3 35.7720 53.3639 66.0981 0.0000 0.0000 0.0000
# 4 0.0000 0.0000 0.0000 37.0766 0.0000 0.0000
# 5 0.0000 0.0000 0.0000 0.0000-3723.4217 0.0000
# 6 0.0000 0.0000 0.0000 0.0000 0.0000 12.5403
#
#
#
# Elastic Compliance Matrix: (Units=1/GPa)
#
#
# Indices 1 2 3 4 5 6 
#
# 1 0.018784 -0.004377 -0.006632 0.000000 0.000000 0.000000
# 2 -0.004377 0.013560 -0.008579 0.000000 0.000000 0.000000
# 3 -0.006632 -0.008579 0.025644 0.000000 0.000000 0.000000
# 4 0.000000 0.000000 0.000000 0.026971 0.000000 0.000000
# 5 0.000000 0.000000 0.000000 0.000000 -0.000269 0.000000
# 6 0.000000 0.000000 0.000000 0.000000 0.000000 0.079743
#
#
# Mechanical properties :
#
#
# Convention : Reuss Voigt Hill
#
# Bulk Modulus (GPa) = 53.15583 59.89441 56.52512
# Shear Modulus (GPa) = 23.82321 -726.14387 -351.16033
#
# Velocity S-wave (km/s) = 3.59734 -19.86061 -13.81128
# Velocity P-wave (km/s) = 6.79183 22.21239 14.95429
#
# Compressibility (1/GPa) = 0.01881261
#
# Stress axis : x y z
#
# Youngs Moduli (GPa) = 53.23707 73.74884 38.99517
#
# Poissons Ratio (x) = 0.32278 0.25862
# Poissons Ratio (y) = 0.23301 0.33452
# Poissons Ratio (z) = 0.35308 0.63266
#
# Static dielectric constant tensor:
#      x y z
#    x 1.675500 0.000000 0.000000 
#    y 0.000000 1.646480 0.000000 
#    z 0.000000 0.000000 1.610580 
# 
# From -- ./inp_files/32767.got.cif
#   From: 2010.05.17/outbox.cif.g08.bks.cpg/sg47_17_cif.got.tgz:32767.got - 2010.06.03 20:15:42.
