data_PCOD9385064
_publ_section_title
;
Structure prediction by ZEFSAII (Michael W. Deem and Ramdas Pophale) SiO2 
 PCOD9385064
Probable space group: P M M M
;
_chemical_formula_sum "Si O2"
_cell_formula_units_Z 40
_cell_length_a 28.861346
_cell_length_b 9.409468
_cell_length_c 7.509440
_cell_angle_alpha 90.000000
_cell_angle_beta 90.000000
_cell_angle_gamma 90.000000
_cell_volume 2039.337957
_symmetry_space_group_name_H-M "P M M M"
_symmetry_group_IT_number 47
_symmetry_cell_setting 'orthorhombic'
loop_
_space_group_symop_operation_xyz
x,y,z
-x,-y,z
x,-y,-z
-x,y,-z
-x,-y,-z
x,y,-z
-x,y,z
x,-y,z
loop_
_atom_site_type_symbol
_atom_site_label
_atom_site_fract_x
_atom_site_fract_y
_atom_site_fract_z
Si Si1 0.308018 0.839630 0.712599
Si Si2 0.052573 0.172490 0.000000
Si Si3 0.399469 0.337715 0.214636
Si Si4 0.219507 0.336889 0.282559
Si Si5 0.872983 0.169220 0.710377
Si Si6 0.500000 0.673175 0.794005
O O1 0.301712 0.848677 0.500000
O O2 0.356661 0.762034 0.742700
O O3 0.265146 0.746002 0.780531
O O4 0.307831 0.000000 0.783641
O O5 0.082906 0.212091 0.172254
O O6 0.000000 0.226385 0.000000
O O7 0.050129 0.000000 0.000000
O O8 0.391052 0.500000 0.276921
O O9 0.449923 0.286841 0.283079
O O10 0.403307 0.344060 0.000000
O O11 0.220508 0.337739 0.500000
O O12 0.219413 0.500000 0.223653
O O13 0.172766 0.254314 0.233069
O O14 0.880845 0.192753 0.500000
O O15 0.864948 0.000000 0.735550
O O16 0.500000 0.500000 0.794194
O O17 0.500000 0.721238 0.000000
#
# Coordination Sequence:
#
# PCOD9385064 Si02
#       6
#     8   4   8   8   8   4
#     4  10  20  33  49  71 101 134 165 201 250 306
#     4   9  18  32  51  79 111 139 173 216 257 300
#     4   9  17  31  51  73  95 122 162 208 252 300
#     4   9  17  31  52  74  96 127 167 207 248 298
#     4   9  17  31  52  76 103 137 175 214 258 307
#     4   7  12  26  48  69  90 120 158 203 250 295
#
# _framework density 19.614208999999999
#
# number of rings (size 3 to 8) (size 9 to 14) (size 15 to 20)
#    0.000    3.000    0.000    2.400    0.000    4.400 
#    1.800    3.500    0.000    6.000    0.000    2.800 
#    0.000    0.000    0.000    0.000    0.000    0.000 
#
# Total GULP energy -223083.500639 kJ/mol
# GULP energy per Si atom -5577.087516 kJ/mol
# Density = 1.956957 g / cm^3
# Si number density = 19.614209 Si / 1000 Ang^3
#
#
#
# Elastic Constant Matrix: (Units=GPa)
#
#
# Indices 1 2 3 4 5 6 
#
# 1 233.3314 101.7648 40.2293 0.0000 0.0000 0.0000
# 2 101.7648 105.2853 28.0041 0.0000 0.0000 0.0000
# 3 40.2293 28.0041 60.8492 0.0000 0.0000 0.0000
# 4 0.0000 0.0000 0.0000 -20.2450 0.0000 0.0000
# 5 0.0000 0.0000 0.0000 0.0000 26.5286 0.0000
# 6 0.0000 0.0000 0.0000 0.0000 0.0000 29.1267
#
#
#
# Elastic Compliance Matrix: (Units=1/GPa)
#
#
# Indices 1 2 3 4 5 6 
#
# 1 0.007592 -0.006840 -0.001871 0.000000 0.000000 0.000000
# 2 -0.006840 0.016986 -0.003295 0.000000 0.000000 0.000000
# 3 -0.001871 -0.003295 0.019188 0.000000 0.000000 0.000000
# 4 0.000000 0.000000 0.000000 -0.049395 0.000000 0.000000
# 5 0.000000 0.000000 0.000000 0.000000 0.037695 0.000000
# 6 0.000000 0.000000 0.000000 0.000000 0.000000 0.034333
#
#
# Mechanical properties :
#
#
# Convention : Reuss Voigt Hill
#
# Bulk Modulus (GPa) = 50.62639 82.16245 66.39442
# Shear Modulus (GPa) = 51.54940 22.37991 36.96466
#
# Velocity S-wave (km/s) = 5.13213 3.38154 4.34589
# Velocity P-wave (km/s) = 7.80932 7.56483 7.68804
#
# Compressibility (1/GPa) = 0.01975254
#
# Stress axis : x y z
#
# Youngs Moduli (GPa) = 131.72545 58.87290 52.11708
#
# Poissons Ratio (x) = 0.40269 0.09752
# Poissons Ratio (y) = 0.90101 0.17173
# Poissons Ratio (z) = 0.24647 0.19399
#
# Static dielectric constant tensor:
#      x y z
#    x 1.676480 0.000000 0.000000 
#    y 0.000000 1.664590 0.000000 
#    z 0.000000 0.000000 1.747470 
# 
# From -- ./inp_files/13045.got.cif
#   From: 2010.05.17/outbox.cif.g08.bks.cpg/sg47_7_cif.got.tgz:13045.got - 2010.06.03 20:15:42.
