data_PCOD9385965
_publ_section_title
;
Structure prediction by ZEFSAII (Michael W. Deem and Ramdas Pophale) SiO2 
 PCOD9385965
Probable space group: P M M M
;
_chemical_formula_sum "Si O2"
_cell_formula_units_Z 48
_cell_length_a 7.506538
_cell_length_b 9.396158
_cell_length_c 31.991986
_cell_angle_alpha 90.000000
_cell_angle_beta 90.000000
_cell_angle_gamma 90.000000
_cell_volume 2256.478498
_symmetry_space_group_name_H-M "P M M M"
_symmetry_group_IT_number 47
_symmetry_cell_setting 'orthorhombic'
loop_
_space_group_symop_operation_xyz
x,y,z
-x,-y,z
x,-y,-z
-x,y,-z
-x,-y,-z
x,y,-z
-x,y,z
x,-y,z
loop_
_atom_site_type_symbol
_atom_site_label
_atom_site_fract_x
_atom_site_fract_y
_atom_site_fract_z
Si Si1 0.717979 0.335861 0.836108
Si Si2 0.213386 0.662096 0.580217
Si Si3 0.282095 0.163518 0.246232
Si Si4 0.712006 0.838555 0.083372
Si Si5 0.286933 0.337399 0.326400
Si Si6 0.781586 0.837017 0.500000
Si Si7 0.211876 0.661747 0.000000
O O1 0.500000 0.337062 0.836554
O O2 0.775209 0.500000 0.836989
O O3 0.772359 0.255423 0.793902
O O4 0.780186 0.249011 0.876725
O O5 0.282575 0.500000 0.577688
O O6 0.251193 0.716965 0.626822
O O7 0.278349 0.756292 0.541821
O O8 0.000000 0.655050 0.576228
O O9 0.500000 0.162642 0.246430
O O10 0.221453 0.238655 0.288959
O O11 0.224693 0.000000 0.243233
O O12 0.500000 0.850463 0.089495
O O13 0.737780 0.749540 0.041190
O O14 0.782736 0.000000 0.080338
O O15 0.500000 0.345353 0.321818
O O16 0.217611 0.500000 0.323492
O O17 0.000000 0.835589 0.500000
O O18 0.725281 0.000000 0.500000
O O19 0.284587 0.500000 0.000000
O O20 0.000000 0.651346 0.000000
#
# Coordination Sequence:
#
# PCOD9385965 Si02
#       7
#     8   8   8   8   8   4   4
#     4   9  16  27  46  72 100 129 161 199 242 285
#     4   9  17  30  48  67  87 114 149 187 226 270
#     4   9  16  26  42  66  96 127 157 191 232 278
#     4  10  20  34  54  80 106 131 164 208 254 296
#     4   9  17  29  45  66  92 121 152 186 226 273
#     4   9  17  29  46  67  88 112 146 187 228 270
#     4  11  24  39  54  74 102 137 174 207 244 296
#
# _framework density 21.272082999999999
#
# number of rings (size 3 to 8) (size 9 to 14) (size 15 to 20)
#    0.000    2.667    0.000    2.250    0.000    8.333 
#    0.000    0.417    0.000    3.500    0.000    2.333 
#    0.000    0.000    0.000    0.000    0.000    0.000 
#
# Total GULP energy -268087.042637 kJ/mol
# GULP energy per Si atom -5585.146722 kJ/mol
# Density = 2.122367 g / cm^3
# Si number density = 21.272083 Si / 1000 Ang^3
#
#
#
# Elastic Constant Matrix: (Units=GPa)
#
#
# Indices 1 2 3 4 5 6 
#
# 1 56.2082 6.7298 -1.3440 0.0000 0.0000 0.0000
# 2 6.7298 202.8719 153.0879 0.0000 0.0000 0.0000
# 3 -1.3440 153.0879 249.2872 0.0000 0.0000 0.0000
# 4 0.0000 0.0000 0.0000 144.3790 0.0000 0.0000
# 5 0.0000 0.0000 0.0000 0.0000 26.9051 0.0000
# 6 0.0000 0.0000 0.0000 0.0000 0.0000 -0.8768
#
#
#
# Elastic Compliance Matrix: (Units=1/GPa)
#
#
# Indices 1 2 3 4 5 6 
#
# 1 0.017961 -0.001247 0.000862 0.000000 0.000000 0.000000
# 2 -0.001247 0.009273 -0.005701 0.000000 0.000000 0.000000
# 3 0.000862 -0.005701 0.007517 0.000000 0.000000 0.000000
# 4 0.000000 0.000000 0.000000 0.006926 0.000000 0.000000
# 5 0.000000 0.000000 0.000000 0.000000 0.037168 0.000000
# 6 0.000000 0.000000 0.000000 0.000000 0.000000 -1.140499
#
#
# Mechanical properties :
#
#
# Convention : Reuss Voigt Hill
#
# Bulk Modulus (GPa) = 44.28677 91.70162 67.99420
# Shear Modulus (GPa) = -4.79866 57.40772 26.30453
#
# Velocity S-wave (km/s) = -1.50358 5.20057 3.52031
# Velocity P-wave (km/s) = 4.22493 8.90302 6.96828
#
# Compressibility (1/GPa) = 0.02258010
#
# Stress axis : x y z
#
# Youngs Moduli (GPa) = 55.67658 107.84465 133.02982
#
# Poissons Ratio (x) = 0.13443 -0.11472
# Poissons Ratio (y) = 0.06940 0.75841
# Poissons Ratio (z) = -0.04801 0.61483
#
# Static dielectric constant tensor:
#      x y z
#    x 1.816810 0.000000 0.000000 
#    y 0.000000 1.738630 0.000000 
#    z 0.000000 0.000000 1.730340 
# 
# From -- ./inp_files/34046.got.cif
#   From: 2010.05.17/outbox.cif.g08.bks.cpg/sg47_18_cif.got.tgz:34046.got - 2010.06.03 20:15:42.
