data_PCOD9385104
_publ_section_title
;
Structure prediction by ZEFSAII (Michael W. Deem and Ramdas Pophale) SiO2 
 PCOD9385104
Probable space group: P M M M
;
_chemical_formula_sum "Si O2"
_cell_formula_units_Z 44
_cell_length_a 9.439517
_cell_length_b 7.649175
_cell_length_c 30.018139
_cell_angle_alpha 90.000000
_cell_angle_beta 90.000000
_cell_angle_gamma 90.000000
_cell_volume 2167.445241
_symmetry_space_group_name_H-M "P M M M"
_symmetry_group_IT_number 47
_symmetry_cell_setting 'orthorhombic'
loop_
_space_group_symop_operation_xyz
x,y,z
-x,-y,z
x,-y,-z
-x,y,-z
-x,-y,-z
x,y,-z
-x,y,z
x,-y,z
loop_
_atom_site_type_symbol
_atom_site_label
_atom_site_fract_x
_atom_site_fract_y
_atom_site_fract_z
Si Si1 0.329380 0.709668 0.952128
Si Si2 0.335159 0.285632 0.854922
Si Si3 0.172555 0.297886 0.500000
Si Si4 0.340439 0.207503 0.683825
Si Si5 0.838044 0.710902 0.403340
Si Si6 0.840849 0.292015 0.770422
O O1 0.500000 0.734183 0.951713
O O2 0.305606 0.500000 0.952712
O O3 0.280646 0.773378 0.903687
O O4 0.276702 0.779051 0.000000
O O5 0.500000 0.234836 0.849642
O O6 0.334063 0.500000 0.855363
O O7 0.243246 0.223082 0.813385
O O8 0.221273 0.500000 0.500000
O O9 0.211988 0.221332 0.451892
O O10 0.000000 0.299377 0.500000
O O11 0.500000 0.280680 0.685102
O O12 0.262759 0.247234 0.637501
O O13 0.247272 0.268256 0.725409
O O14 0.349695 0.000000 0.687644
O O15 0.844586 0.500000 0.406999
O O16 0.000000 0.771600 0.395053
O O17 0.852017 0.500000 0.777273
O O18 0.000000 0.220913 0.766333
#
# Coordination Sequence:
#
# PCOD9385104 Si02
#       6
#     8   8   4   8   8   8
#     4   7   9  14  27  50  80 113 148 183 219 263
#     4   8  13  22  38  60  86 117 152 190 231 273
#     4   7  12  26  50  79 106 128 154 191 228 265
#     4  11  24  38  50  68  96 128 161 198 241 286
#     4   9  17  32  56  82 104 128 160 195 231 273
#     4  10  20  33  50  71  93 120 157 199 241 286
#
# _framework density 20.300398999999999
#
# number of rings (size 3 to 8) (size 9 to 14) (size 15 to 20)
#    0.000    3.182    0.000    4.364    0.000    5.091 
#    0.000    0.909    0.000    4.909    0.000    3.818 
#    0.000    0.727    0.000    8.364    0.000    9.636 
#
# Total GULP energy -245142.783303 kJ/mol
# GULP energy per Si atom -5571.426893 kJ/mol
# Density = 2.025419 g / cm^3
# Si number density = 20.300399 Si / 1000 Ang^3
#
#
#
# Elastic Constant Matrix: (Units=GPa)
#
#
# Indices 1 2 3 4 5 6 
#
# 1 112.6178 4.1575 103.8164 0.0000 0.0000 0.0000
# 2 4.1575 36.7276 -0.5543 0.0000 0.0000 0.0000
# 3 103.8164 -0.5543 239.2732 0.0000 0.0000 0.0000
# 4 0.0000 0.0000 0.0000 -50.1474 0.0000 0.0000
# 5 0.0000 0.0000 0.0000 0.0000 71.7828 0.0000
# 6 0.0000 0.0000 0.0000 0.0000 0.0000 16.3286
#
#
#
# Elastic Compliance Matrix: (Units=1/GPa)
#
#
# Indices 1 2 3 4 5 6 
#
# 1 0.014915 -0.001786 -0.006475 0.000000 0.000000 0.000000
# 2 -0.001786 0.027442 0.000839 0.000000 0.000000 0.000000
# 3 -0.006475 0.000839 0.006991 0.000000 0.000000 0.000000
# 4 0.000000 0.000000 0.000000 -0.019941 0.000000 0.000000
# 5 0.000000 0.000000 0.000000 0.000000 0.013931 0.000000
# 6 0.000000 0.000000 0.000000 0.000000 0.000000 0.061242
#
#
# Mechanical properties :
#
#
# Convention : Reuss Voigt Hill
#
# Bulk Modulus (GPa) = 28.98377 67.05087 48.01732
# Shear Modulus (GPa) = 38.18935 26.33942 32.26438
#
# Velocity S-wave (km/s) = 4.34200 3.60597 3.99099
# Velocity P-wave (km/s) = 6.28058 7.10200 6.70388
#
# Compressibility (1/GPa) = 0.03450207
#
# Stress axis : x y z
#
# Youngs Moduli (GPa) = 67.04704 36.44007 143.04411
#
# Poissons Ratio (x) = 0.06508 0.92628
# Poissons Ratio (y) = 0.11975 -0.11995
# Poissons Ratio (z) = 0.43416 -0.03056
#
# Static dielectric constant tensor:
#      x y z
#    x 1.702320 0.000000 0.000000 
#    y 0.000000 1.758840 0.000000 
#    z 0.000000 0.000000 1.761500 
# 
# From -- ./inp_files/33903.got.cif
#   From: 2010.05.17/outbox.cif.g08.bks.cpg/sg47_17_cif.got.tgz:33903.got - 2010.06.03 20:15:42.
