data_PCOD9385913
_publ_section_title
;
Structure prediction by ZEFSAII (Michael W. Deem and Ramdas Pophale) SiO2 
 PCOD9385913
Probable space group: P M M M
;
_chemical_formula_sum "Si O2"
_cell_formula_units_Z 64
_cell_length_a 8.506466
_cell_length_b 19.177722
_cell_length_c 20.867605
_cell_angle_alpha 90.000000
_cell_angle_beta 90.000000
_cell_angle_gamma 90.000000
_cell_volume 3404.229232
_symmetry_space_group_name_H-M "P M M M"
_symmetry_group_IT_number 47
_symmetry_cell_setting 'orthorhombic'
loop_
_space_group_symop_operation_xyz
x,y,z
-x,-y,z
x,-y,-z
-x,y,-z
-x,-y,-z
x,y,-z
-x,y,z
x,-y,z
loop_
_atom_site_type_symbol
_atom_site_label
_atom_site_fract_x
_atom_site_fract_y
_atom_site_fract_z
Si Si1 0.188030 0.332799 0.192331
Si Si2 0.188345 0.325832 0.573796
Si Si3 0.311747 0.172078 0.573739
Si Si4 0.688221 0.420005 0.687237
Si Si5 0.807804 0.827414 0.808620
Si Si6 0.310286 0.419050 0.926607
Si Si7 0.810006 0.079976 0.312405
Si Si8 0.191610 0.080034 0.927377
O O1 0.254520 0.377032 0.251312
O O2 0.243794 0.252628 0.194973
O O3 0.237571 0.368926 0.126066
O O4 0.000000 0.332541 0.197191
O O5 0.238025 0.338889 0.500000
O O6 0.247498 0.248550 0.591808
O O7 0.253021 0.381893 0.623298
O O8 0.000000 0.326086 0.576152
O O9 0.263086 0.158745 0.500000
O O10 0.500000 0.173695 0.576158
O O11 0.248276 0.114851 0.622357
O O12 0.500000 0.420323 0.687260
O O13 0.744241 0.500000 0.690320
O O14 0.757718 0.872434 0.747250
O O15 0.755354 0.866369 0.873311
O O16 0.000000 0.827295 0.809026
O O17 0.500000 0.415201 0.922783
O O18 0.266696 0.500000 0.914136
O O19 0.264820 0.402326 0.000000
O O20 0.000000 0.080182 0.312382
O O21 0.757665 0.000000 0.305695
O O22 0.000000 0.080850 0.927168
O O23 0.237686 0.000000 0.912806
O O24 0.241774 0.096867 0.000000
#
# Coordination Sequence:
#
# PCOD9385913 Si02
#       8
#     8   8   8   8   8   8   8   8
#     4  11  22  34  53  81 111 143 180 227 280 329
#     4  10  21  38  61  87 114 143 177 222 274 325
#     4  10  21  37  57  80 108 143 180 219 267 326
#     4  11  24  40  58  80 109 147 187 225 268 324
#     4   9  18  31  46  70 105 138 170 214 267 319
#     4   9  19  37  58  77 102 140 182 223 272 333
#     4  10  20  34  54  78 105 141 184 229 276 326
#     4   8  13  23  42  67  96 133 172 206 246 302
#
# _framework density 18.800144
#
# number of rings (size 3 to 8) (size 9 to 14) (size 15 to 20)
#    0.000    2.250    0.000    3.750    0.000    8.250 
#    0.000    5.000    0.000    0.000    0.000    0.000 
#    0.000    0.000    0.000   10.750    0.000    9.500 
#
# Total GULP energy -357383.236499 kJ/mol
# GULP energy per Si atom -5584.113070 kJ/mol
# Density = 1.875735 g / cm^3
# Si number density = 18.800144 Si / 1000 Ang^3
#
#
#
# Elastic Constant Matrix: (Units=GPa)
#
#
# Indices 1 2 3 4 5 6 
#
# 1 19.8198 30.7894 23.6378 0.0000 0.0000 0.0000
# 2 30.7894 184.8695 117.2218 0.0000 0.0000 0.0000
# 3 23.6378 117.2218 125.6057 0.0000 0.0000 0.0000
# 4 0.0000 0.0000 0.0000 42.6145 0.0000 0.0000
# 5 0.0000 0.0000 0.0000 0.0000 34.7825 0.0000
# 6 0.0000 0.0000 0.0000 0.0000 0.0000 -79.6434
#
#
#
# Elastic Compliance Matrix: (Units=1/GPa)
#
#
# Indices 1 2 3 4 5 6 
#
# 1 0.069629 -0.008054 -0.005588 0.000000 0.000000 0.000000
# 2 -0.008054 0.014181 -0.011719 0.000000 0.000000 0.000000
# 3 -0.005588 -0.011719 0.019950 0.000000 0.000000 0.000000
# 4 0.000000 0.000000 0.000000 0.023466 0.000000 0.000000
# 5 0.000000 0.000000 0.000000 0.000000 0.028750 0.000000
# 6 0.000000 0.000000 0.000000 0.000000 0.000000 -0.012556
#
#
# Mechanical properties :
#
#
# Convention : Reuss Voigt Hill
#
# Bulk Modulus (GPa) = 18.85369 74.84367 46.84868
# Shear Modulus (GPa) = 23.60473 10.12712 16.86593
#
# Velocity S-wave (km/s) = 3.54723 2.32345 2.99844
# Velocity P-wave (km/s) = 5.17952 6.86254 6.07955
#
# Compressibility (1/GPa) = 0.05304002
#
# Stress axis : x y z
#
# Youngs Moduli (GPa) = 14.36174 70.51472 50.12541
#
# Poissons Ratio (x) = 0.56790 0.28008
# Poissons Ratio (y) = 0.11566 0.58743
# Poissons Ratio (z) = 0.08025 0.82638
#
# Static dielectric constant tensor:
#      x y z
#    x 1.645420 0.000000 0.000000 
#    y 0.000000 1.629570 0.000000 
#    z 0.000000 0.000000 1.635360 
# 
# From -- ./inp_files/29970.got.cif
#   From: 2010.05.17/outbox.cif.g08.bks.cpg/sg47_15_cif.got.tgz:29970.got - 2010.06.03 20:15:42.
