data_PCOD9385996
_publ_section_title
;
Structure prediction by ZEFSAII (Michael W. Deem and Ramdas Pophale) SiO2 
 PCOD9385996
Probable space group: P M M M
;
_chemical_formula_sum "Si O2"
_cell_formula_units_Z 48
_cell_length_a 32.096603
_cell_length_b 9.304375
_cell_length_c 7.750457
_cell_angle_alpha 90.000000
_cell_angle_beta 90.000000
_cell_angle_gamma 90.000000
_cell_volume 2314.587415
_symmetry_space_group_name_H-M "P M M M"
_symmetry_group_IT_number 47
_symmetry_cell_setting 'orthorhombic'
loop_
_space_group_symop_operation_xyz
x,y,z
-x,-y,z
x,-y,-z
-x,y,-z
-x,-y,-z
x,y,-z
-x,y,z
x,-y,z
loop_
_atom_site_type_symbol
_atom_site_label
_atom_site_fract_x
_atom_site_fract_y
_atom_site_fract_z
Si Si1 0.000000 0.664260 0.205191
Si Si2 0.253670 0.663679 0.207745
Si Si3 0.500000 0.834053 0.288658
Si Si4 0.665575 0.163687 0.792292
Si Si5 0.090266 0.335516 0.293730
Si Si6 0.170366 0.836861 0.708030
Si Si7 0.582030 0.336013 0.707733
O O1 0.955651 0.727744 0.259167
O O2 0.000000 0.500000 0.277085
O O3 0.000000 0.657325 0.000000
O O4 0.253436 0.500000 0.273110
O O5 0.293575 0.752606 0.272577
O O6 0.211055 0.744919 0.249376
O O7 0.257019 0.657270 0.000000
O O8 0.500000 0.834147 0.500000
O O9 0.541412 0.750601 0.231131
O O10 0.500000 0.000000 0.233650
O O11 0.623993 0.251289 0.750930
O O12 0.663579 0.000000 0.726921
O O13 0.668825 0.156711 0.000000
O O14 0.094749 0.344455 0.500000
O O15 0.091769 0.500000 0.225141
O O16 0.128593 0.241659 0.226962
O O17 0.167452 0.843283 0.500000
O O18 0.174003 0.000000 0.772846
O O19 0.579067 0.342478 0.500000
O O20 0.583028 0.500000 0.772633
#
# Coordination Sequence:
#
# PCOD9385996 Si02
#       7
#     4   8   4   8   8   8   8
#     4   9  17  29  48  75 102 128 166 215 258 299
#     4  10  21  37  57  79 103 135 174 214 259 311
#     4   9  17  31  52  77 106 139 174 216 266 315
#     4  10  21  37  56  78 106 140 176 215 261 312
#     4   9  17  31  51  73  99 133 170 208 254 306
#     4  10  21  36  54  78 107 138 173 214 260 309
#     4  10  20  34  54  80 108 139 176 217 261 311
#
# _framework density 20.738035
#
# number of rings (size 3 to 8) (size 9 to 14) (size 15 to 20)
#    0.000    2.333    0.000    2.500    0.000    7.333 
#    0.000    2.500    0.000    5.000    0.000    0.000 
#    0.000    0.000    0.000    0.000    0.000    0.000 
#
# Total GULP energy -268065.353685 kJ/mol
# GULP energy per Si atom -5584.694868 kJ/mol
# Density = 2.069083 g / cm^3
# Si number density = 20.738035 Si / 1000 Ang^3
#
#
#
# Elastic Constant Matrix: (Units=GPa)
#
#
# Indices 1 2 3 4 5 6 
#
# 1 242.1878 135.7743 -0.4144 0.0000 0.0000 0.0000
# 2 135.7743 204.7097 9.1192 0.0000 0.0000 0.0000
# 3 -0.4144 9.1192 29.3280 0.0000 0.0000 0.0000
# 4 0.0000 0.0000 0.0000 15.7812 0.0000 0.0000
# 5 0.0000 0.0000 0.0000 0.0000 36.3530 0.0000
# 6 0.0000 0.0000 0.0000 0.0000 0.0000 78.9584
#
#
#
# Elastic Compliance Matrix: (Units=1/GPa)
#
#
# Indices 1 2 3 4 5 6 
#
# 1 0.006636 -0.004467 0.001483 0.000000 0.000000 0.000000
# 2 -0.004467 0.007961 -0.002539 0.000000 0.000000 0.000000
# 3 0.001483 -0.002539 0.034907 0.000000 0.000000 0.000000
# 4 0.000000 0.000000 0.000000 0.063367 0.000000 0.000000
# 5 0.000000 0.000000 0.000000 0.000000 0.027508 0.000000
# 6 0.000000 0.000000 0.000000 0.000000 0.000000 0.012665
#
#
# Mechanical properties :
#
#
# Convention : Reuss Voigt Hill
#
# Bulk Modulus (GPa) = 26.00217 85.02039 55.51128
# Shear Modulus (GPa) = 28.26298 48.33493 38.29895
#
# Velocity S-wave (km/s) = 3.69569 4.83301 4.30210
# Velocity P-wave (km/s) = 5.54766 8.49884 7.17659
#
# Compressibility (1/GPa) = 0.03845832
#
# Stress axis : x y z
#
# Youngs Moduli (GPa) = 150.69092 125.61055 28.64724
#
# Poissons Ratio (x) = 0.56116 -0.04248
# Poissons Ratio (y) = 0.67321 0.07272
# Poissons Ratio (z) = -0.22346 0.31887
#
# Static dielectric constant tensor:
#      x y z
#    x 1.707100 0.000000 0.000000 
#    y 0.000000 1.730680 0.000000 
#    z 0.000000 0.000000 1.771320 
# 
# From -- ./inp_files/2616.got.cif
#   From: 2010.05.17/outbox.cif.g08.bks.cpg/sg47_2_cif.got.tgz:2616.got - 2010.06.03 20:15:42.
