data_PCOD9385057
_publ_section_title
;
Structure prediction by ZEFSAII (Michael W. Deem and Ramdas Pophale) SiO2 
 PCOD9385057
Probable space group: P M M M
;
_chemical_formula_sum "Si O2"
_cell_formula_units_Z 40
_cell_length_a 27.099581
_cell_length_b 7.710889
_cell_length_c 9.476641
_cell_angle_alpha 90.000000
_cell_angle_beta 90.000000
_cell_angle_gamma 90.000000
_cell_volume 1980.256540
_symmetry_space_group_name_H-M "P M M M"
_symmetry_group_IT_number 47
_symmetry_cell_setting 'orthorhombic'
loop_
_space_group_symop_operation_xyz
x,y,z
-x,-y,z
x,-y,-z
-x,y,-z
-x,-y,-z
x,y,-z
-x,y,z
x,-y,z
loop_
_atom_site_type_symbol
_atom_site_label
_atom_site_fract_x
_atom_site_fract_y
_atom_site_fract_z
Si Si1 0.905520 0.292135 0.660024
Si Si2 0.297944 0.200557 0.171937
Si Si3 0.404495 0.208495 0.160410
Si Si4 0.500000 0.293868 0.657998
Si Si5 0.000000 0.712617 0.162557
Si Si6 0.809434 0.209571 0.161603
O O1 0.906705 0.224265 0.500000
O O2 0.910904 0.500000 0.652189
O O3 0.854080 0.255854 0.737143
O O4 0.951214 0.228756 0.754434
O O5 0.351112 0.276922 0.212801
O O6 0.244569 0.276454 0.210050
O O7 0.297523 0.000000 0.220405
O O8 0.298445 0.199153 0.000000
O O9 0.450865 0.244375 0.257758
O O10 0.399300 0.000000 0.152145
O O11 0.413351 0.271513 0.000000
O O12 0.500000 0.500000 0.648492
O O13 0.500000 0.219755 0.500000
O O14 0.000000 0.500000 0.161584
O O15 0.000000 0.768662 0.000000
O O16 0.805963 0.000000 0.156525
O O17 0.818704 0.268839 0.000000
#
# Coordination Sequence:
#
# PCOD9385057 Si02
#       6
#     8   8   8   4   4   8
#     4  10  20  33  49  71 100 132 164 199 241 289
#     4   7  12  26  49  75  99 121 151 196 244 285
#     4   9  17  32  56  80  96 117 158 207 247 286
#     4  11  24  37  46  64 100 139 166 193 238 292
#     4   9  17  31  52  73  92 121 164 210 250 287
#     4   9  17  31  52  76 101 129 160 196 240 288
#
# _framework density 20.199401999999999
#
# number of rings (size 3 to 8) (size 9 to 14) (size 15 to 20)
#    0.000    3.000    0.000    3.900    0.000    5.200 
#    0.000    2.500    0.000   12.600    0.000    0.000 
#    0.000    0.000    0.000    0.000    0.000    0.000 
#
# Total GULP energy -222971.481617 kJ/mol
# GULP energy per Si atom -5574.287040 kJ/mol
# Density = 2.015343 g / cm^3
# Si number density = 20.199402 Si / 1000 Ang^3
#
#
#
# Elastic Constant Matrix: (Units=GPa)
#
#
# Indices 1 2 3 4 5 6 
#
# 1 246.7106 4.9861 122.2525 0.0000 0.0000 0.0000
# 2 4.9861 32.9891 6.8686 0.0000 0.0000 0.0000
# 3 122.2525 6.8686 138.2036 0.0000 0.0000 0.0000
# 4 0.0000 0.0000 0.0000 15.8801 0.0000 0.0000
# 5 0.0000 0.0000 0.0000 0.0000 -11.8458 0.0000
# 6 0.0000 0.0000 0.0000 0.0000 0.0000 28.0556
#
#
#
# Elastic Compliance Matrix: (Units=1/GPa)
#
#
# Indices 1 2 3 4 5 6 
#
# 1 0.007219 0.000241 -0.006397 0.000000 0.000000 0.000000
# 2 0.000241 0.030638 -0.001736 0.000000 0.000000 0.000000
# 3 -0.006397 -0.001736 0.012981 0.000000 0.000000 0.000000
# 4 0.000000 0.000000 0.000000 0.062972 0.000000 0.000000
# 5 0.000000 0.000000 0.000000 0.000000 -0.084418 0.000000
# 6 0.000000 0.000000 0.000000 0.000000 0.000000 0.035643
#
#
# Mechanical properties :
#
#
# Convention : Reuss Voigt Hill
#
# Bulk Modulus (GPa) = 28.52821 76.23532 52.38176
# Shear Modulus (GPa) = 54.05184 25.33772 39.69478
#
# Velocity S-wave (km/s) = 5.17853 3.54556 4.43781
# Velocity P-wave (km/s) = 7.06472 7.38814 7.22824
#
# Compressibility (1/GPa) = 0.03505303
#
# Stress axis : x y z
#
# Youngs Moduli (GPa) = 138.53188 32.63919 77.03580
#
# Poissons Ratio (x) = -0.00786 0.49283
# Poissons Ratio (y) = -0.03338 0.13372
# Poissons Ratio (z) = 0.88624 0.05666
#
# Static dielectric constant tensor:
#      x y z
#    x 1.746220 0.000000 0.000000 
#    y 0.000000 1.767390 0.000000 
#    z 0.000000 0.000000 1.687600 
# 
# From -- ./inp_files/13018.got.cif
#   From: 2010.05.17/outbox.cif.g08.bks.cpg/sg47_7_cif.got.tgz:13018.got - 2010.06.03 20:15:42.
