data_PCOD9385582
_publ_section_title
;
Structure prediction by ZEFSAII (Michael W. Deem and Ramdas Pophale) SiO2 
 PCOD9385582
Probable space group: P M M M
;
_chemical_formula_sum "Si O2"
_cell_formula_units_Z 40
_cell_length_a 9.089480
_cell_length_b 16.947751
_cell_length_c 13.513546
_cell_angle_alpha 90.000000
_cell_angle_beta 90.000000
_cell_angle_gamma 90.000000
_cell_volume 2081.711001
_symmetry_space_group_name_H-M "P M M M"
_symmetry_group_IT_number 47
_symmetry_cell_setting 'orthorhombic'
loop_
_space_group_symop_operation_xyz
x,y,z
-x,-y,z
x,-y,-z
-x,y,-z
-x,-y,-z
x,y,-z
-x,y,z
x,-y,z
loop_
_atom_site_type_symbol
_atom_site_label
_atom_site_fract_x
_atom_site_fract_y
_atom_site_fract_z
Si Si1 0.336241 0.838441 0.383631
Si Si2 0.820796 0.410163 0.811603
Si Si3 0.666078 0.859121 0.000000
Si Si4 0.668059 0.000000 0.845911
Si Si5 0.177300 0.693998 0.000000
Si Si6 0.169202 0.000000 0.656223
Si Si7 0.822818 0.679387 0.615462
O O1 0.352523 0.824807 0.500000
O O2 0.500000 0.841889 0.338650
O O3 0.252114 0.920820 0.375566
O O4 0.242464 0.763524 0.349794
O O5 0.773115 0.500000 0.829988
O O6 0.777739 0.381797 0.701134
O O7 0.000000 0.409614 0.812852
O O8 0.773079 0.352134 0.900394
O O9 0.679936 0.920120 0.090900
O O10 0.500000 0.827535 0.000000
O O11 0.771155 0.784447 0.000000
O O12 0.500000 0.000000 0.802975
O O13 0.803915 0.000000 0.772736
O O14 0.000000 0.692317 0.000000
O O15 0.000000 0.000000 0.626198
O O16 0.779753 0.662225 0.500000
O O17 0.000000 0.684422 0.615130
#
# Coordination Sequence:
#
# PCOD9385582 Si02
#       7
#     8   8   4   4   4   4   8
#     4  10  21  37  55  76 107 148 190 228 274 334
#     4   9  18  33  54  81 112 145 182 227 282 337
#     4   9  20  39  59  78 106 144 184 229 276 325
#     4   9  20  39  57  77 108 146 185 224 273 331
#     4  10  20  33  55  83 112 144 185 230 275 333
#     4  12  24  34  53  82 112 143 182 231 278 324
#     4   9  18  33  54  81 111 142 184 236 281 327
#
# _framework density 19.214963000000001
#
# number of rings (size 3 to 8) (size 9 to 14) (size 15 to 20)
#    0.000    2.400    0.000    2.700    2.800    4.800 
#    0.000    3.000    0.000    3.000    0.000    2.800 
#    0.000    0.000    0.000    0.000    0.000    0.000 
#
# Total GULP energy -222824.553183 kJ/mol
# GULP energy per Si atom -5570.613830 kJ/mol
# Density = 1.917123 g / cm^3
# Si number density = 19.214963 Si / 1000 Ang^3
#
#
#
# Elastic Constant Matrix: (Units=GPa)
#
#
# Indices 1 2 3 4 5 6 
#
# 1 35.9352 21.8128 20.5954 0.0000 0.0000 0.0000
# 2 21.8128 126.1009 44.1911 0.0000 0.0000 0.0000
# 3 20.5954 44.1911 82.2979 0.0000 0.0000 0.0000
# 4 0.0000 0.0000 0.0000 -40.5124 0.0000 0.0000
# 5 0.0000 0.0000 0.0000 0.0000 14.1766 0.0000
# 6 0.0000 0.0000 0.0000 0.0000 0.0000 -29.5345
#
#
#
# Elastic Compliance Matrix: (Units=1/GPa)
#
#
# Indices 1 2 3 4 5 6 
#
# 1 0.033725 -0.003543 -0.006538 0.000000 0.000000 0.000000
# 2 -0.003543 0.010140 -0.004558 0.000000 0.000000 0.000000
# 3 -0.006538 -0.004558 0.016235 0.000000 0.000000 0.000000
# 4 0.000000 0.000000 0.000000 -0.024684 0.000000 0.000000
# 5 0.000000 0.000000 0.000000 0.000000 0.070539 0.000000
# 6 0.000000 0.000000 0.000000 0.000000 0.000000 -0.033859
#
#
# Mechanical properties :
#
#
# Convention : Reuss Voigt Hill
#
# Bulk Modulus (GPa) = 32.44346 46.39253 39.41799
# Shear Modulus (GPa) = 44.78354 -0.65841 22.06256
#
# Velocity S-wave (km/s) = 4.83293 -0.58600 3.39218
# Velocity P-wave (km/s) = 6.93282 4.87222 5.99177
#
# Compressibility (1/GPa) = 0.03082285
#
# Stress axis : x y z
#
# Youngs Moduli (GPa) = 29.65150 98.61481 61.59617
#
# Poissons Ratio (x) = 0.34936 0.40269
# Poissons Ratio (y) = 0.10505 0.28079
# Poissons Ratio (z) = 0.19385 0.44954
#
# Static dielectric constant tensor:
#      x y z
#    x 1.680600 0.000000 0.000000 
#    y 0.000000 1.651080 0.000000 
#    z 0.000000 0.000000 1.734590 
# 
# From -- ./inp_files/20737.got.cif
#   From: 2010.05.17/outbox.cif.g08.bks.cpg/sg47_11_cif.got.tgz:20737.got - 2010.06.03 20:15:42.
