data_PCOD9385442
_publ_section_title
;
Structure prediction by ZEFSAII (Michael W. Deem and Ramdas Pophale) SiO2 
 PCOD9385442
Probable space group: P M M M
;
_chemical_formula_sum "Si O2"
_cell_formula_units_Z 44
_cell_length_a 9.678569
_cell_length_b 28.911042
_cell_length_c 7.613327
_cell_angle_alpha 90.000000
_cell_angle_beta 90.000000
_cell_angle_gamma 90.000000
_cell_volume 2130.342241
_symmetry_space_group_name_H-M "P M M M"
_symmetry_group_IT_number 47
_symmetry_cell_setting 'orthorhombic'
loop_
_space_group_symop_operation_xyz
x,y,z
-x,-y,z
x,-y,-z
-x,y,-z
-x,-y,-z
x,y,-z
-x,y,z
x,-y,z
loop_
_atom_site_type_symbol
_atom_site_label
_atom_site_fract_x
_atom_site_fract_y
_atom_site_fract_z
Si Si1 0.658389 0.000000 0.284758
Si Si2 0.158253 0.914087 0.285805
Si Si3 0.155021 0.364160 0.292233
Si Si4 0.658399 0.552454 0.714631
Si Si5 0.656030 0.277473 0.793136
Si Si6 0.842589 0.809445 0.711940
O O1 0.739107 0.954058 0.226837
O O2 0.500000 0.000000 0.228970
O O3 0.660082 0.000000 0.500000
O O4 0.160742 0.914080 0.500000
O O5 0.191871 0.861706 0.229546
O O6 0.000000 0.924137 0.234290
O O7 0.141662 0.372517 0.500000
O O8 0.238128 0.408278 0.220122
O O9 0.246895 0.318376 0.275007
O O10 0.000000 0.358432 0.220154
O O11 0.659166 0.553071 0.500000
O O12 0.500000 0.562174 0.767698
O O13 0.693880 0.500000 0.767655
O O14 0.500000 0.278114 0.719154
O O15 0.732768 0.228856 0.764696
O O16 0.645730 0.284936 0.000000
O O17 0.845995 0.809926 0.500000
O O18 0.000000 0.798475 0.771030
#
# Coordination Sequence:
#
# PCOD9385442 Si02
#       6
#     4   8   8   8   8   8
#     4   9  15  21  33  59  94 127 158 191 228 274
#     4   8  14  25  41  62  91 125 156 189 233 284
#     4  10  20  33  52  78 104 131 165 204 245 289
#     4   8  14  26  46  73 104 135 164 195 235 284
#     4  11  24  38  51  70  97 130 167 205 248 298
#     4   9  18  33  53  76  99 125 162 205 247 293
#
# _framework density 20.653959
#
# number of rings (size 3 to 8) (size 9 to 14) (size 15 to 20)
#    0.000    2.818    0.000    3.545    0.000    7.273 
#    0.000    3.636    0.000    0.545    0.000    4.455 
#    0.000    5.091    0.000    0.000    0.000    0.000 
#
# Total GULP energy -245569.232643 kJ/mol
# GULP energy per Si atom -5581.118924 kJ/mol
# Density = 2.060695 g / cm^3
# Si number density = 20.653959 Si / 1000 Ang^3
#
#
#
# Elastic Constant Matrix: (Units=GPa)
#
#
# Indices 1 2 3 4 5 6 
#
# 1 196.4632 143.6493 3.6267 0.0000 0.0000 0.0000
# 2 143.6493 167.3692 -2.9024 0.0000 0.0000 0.0000
# 3 3.6267 -2.9024 40.5459 0.0000 0.0000 0.0000
# 4 0.0000 0.0000 0.0000 -81.3522 0.0000 0.0000
# 5 0.0000 0.0000 0.0000 0.0000 -6.7238 0.0000
# 6 0.0000 0.0000 0.0000 0.0000 0.0000 51.2702
#
#
#
# Elastic Compliance Matrix: (Units=1/GPa)
#
#
# Indices 1 2 3 4 5 6 
#
# 1 0.013841 -0.011916 -0.002091 0.000000 0.000000 0.000000
# 2 -0.011916 0.016241 0.002228 0.000000 0.000000 0.000000
# 3 -0.002091 0.002228 0.025010 0.000000 0.000000 0.000000
# 4 0.000000 0.000000 0.000000 -0.012292 0.000000 0.000000
# 5 0.000000 0.000000 0.000000 0.000000 -0.148726 0.000000
# 6 0.000000 0.000000 0.000000 0.000000 0.000000 0.019505
#
#
# Mechanical properties :
#
#
# Convention : Reuss Voigt Hill
#
# Bulk Modulus (GPa) = 31.71108 77.01394 54.36251
# Shear Modulus (GPa) = -95.50546 9.97250 -42.76648
#
# Velocity S-wave (km/s) = -6.80743 2.19974 -4.55534
# Velocity P-wave (km/s) = 6.81185 6.61970 1.13597
#
# Compressibility (1/GPa) = 0.03153472
#
# Stress axis : x y z
#
# Youngs Moduli (GPa) = 72.24802 61.57416 39.98411
#
# Poissons Ratio (x) = 0.73371 0.08361
# Poissons Ratio (y) = 0.86090 -0.08910
# Poissons Ratio (z) = 0.15107 -0.13721
#
# Static dielectric constant tensor:
#      x y z
#    x 1.731600 0.000000 0.000000 
#    y 0.000000 1.708630 0.000000 
#    z 0.000000 0.000000 1.773560 
# 
# From -- ./inp_files/2231.got.cif
#   From: 2010.05.17/outbox.cif.g08.bks.cpg/sg47_2_cif.got.tgz:2231.got - 2010.06.03 20:15:42.
