data_PCOD9385843
_publ_section_title
;
Structure prediction by ZEFSAII (Michael W. Deem and Ramdas Pophale) SiO2 
 PCOD9385843
Probable space group: P M M M
;
_chemical_formula_sum "Si O2"
_cell_formula_units_Z 48
_cell_length_a 7.927066
_cell_length_b 15.545331
_cell_length_c 17.781536
_cell_angle_alpha 90.000000
_cell_angle_beta 90.000000
_cell_angle_gamma 90.000000
_cell_volume 2191.198496
_symmetry_space_group_name_H-M "P M M M"
_symmetry_group_IT_number 47
_symmetry_cell_setting 'orthorhombic'
loop_
_space_group_symop_operation_xyz
x,y,z
-x,-y,z
x,-y,-z
-x,y,-z
-x,-y,-z
x,y,-z
-x,y,z
x,-y,z
loop_
_atom_site_type_symbol
_atom_site_label
_atom_site_fract_x
_atom_site_fract_y
_atom_site_fract_z
Si Si1 0.805477 0.818816 0.352992
Si Si2 0.206446 0.901321 0.194965
Si Si3 0.197475 0.276278 0.865749
Si Si4 0.301636 0.597888 0.000000
Si Si5 0.295006 0.407772 0.742417
Si Si6 0.304954 0.359797 0.415245
Si Si7 0.310729 0.900305 0.500000
O O1 0.745783 0.868986 0.278871
O O2 0.704023 0.736227 0.381797
O O3 0.790586 0.877949 0.425553
O O4 0.000000 0.793141 0.340091
O O5 0.264496 0.821915 0.141553
O O6 0.000000 0.903048 0.192668
O O7 0.262380 0.000000 0.180492
O O8 0.261758 0.342227 0.928395
O O9 0.227441 0.326331 0.787462
O O10 0.000000 0.267399 0.879373
O O11 0.226447 0.500000 0.000000
O O12 0.500000 0.586224 0.000000
O O13 0.500000 0.401581 0.742157
O O14 0.250898 0.500000 0.778622
O O15 0.231867 0.409028 0.656434
O O16 0.231787 0.364528 0.500000
O O17 0.500000 0.386388 0.421869
O O18 0.500000 0.858900 0.500000
O O19 0.335337 0.000000 0.500000
#
# Coordination Sequence:
#
# PCOD9385843 Si02
#       7
#     8   8   8   4   8   8   4
#     4  11  20  33  54  78 107 147 197 248 300 355
#     4   9  19  36  58  86 119 154 194 239 289 347
#     4  11  22  39  65  95 124 155 196 246 295 347
#     4  11  25  45  68  95 128 162 193 231 290 359
#     4  10  21  37  58  84 117 159 203 247 301 364
#     4  10  20  34  53  77 111 154 201 252 304 356
#     4  11  23  35  47  71 108 147 194 253 311 360
#
# _framework density 21.905819000000001
#
# number of rings (size 3 to 8) (size 9 to 14) (size 15 to 20)
#    0.000    1.667    2.500    2.500    0.000    4.667 
#    0.000    2.083    0.000    7.500    0.000    2.333 
#    0.000    0.000    0.000    0.000    0.000    0.000 
#
# Total GULP energy -267586.084768 kJ/mol
# GULP energy per Si atom -5574.710099 kJ/mol
# Density = 2.185596 g / cm^3
# Si number density = 21.905819 Si / 1000 Ang^3
#
#
#
# Elastic Constant Matrix: (Units=GPa)
#
#
# Indices 1 2 3 4 5 6 
#
# 1 35.5187 8.6822 8.1340 0.0000 0.0000 0.0000
# 2 8.6822 187.3873 61.3067 0.0000 0.0000 0.0000
# 3 8.1340 61.3067 117.0814 0.0000 0.0000 0.0000
# 4 0.0000 0.0000 0.0000 30.4888 0.0000 0.0000
# 5 0.0000 0.0000 0.0000 0.0000 26.6047 0.0000
# 6 0.0000 0.0000 0.0000 0.0000 0.0000 15.9623
#
#
#
# Elastic Compliance Matrix: (Units=1/GPa)
#
#
# Indices 1 2 3 4 5 6 
#
# 1 0.028713 -0.000818 -0.001567 0.000000 0.000000 0.000000
# 2 -0.000818 0.006463 -0.003327 0.000000 0.000000 0.000000
# 3 -0.001567 -0.003327 0.010392 0.000000 0.000000 0.000000
# 4 0.000000 0.000000 0.000000 0.032799 0.000000 0.000000
# 5 0.000000 0.000000 0.000000 0.000000 0.037587 0.000000
# 6 0.000000 0.000000 0.000000 0.000000 0.000000 0.062648
#
#
# Mechanical properties :
#
#
# Convention : Reuss Voigt Hill
#
# Bulk Modulus (GPa) = 29.28720 55.13701 42.21210
# Shear Modulus (GPa) = 24.82536 32.06880 28.44708
#
# Velocity S-wave (km/s) = 3.37007 3.83030 3.60753
# Velocity P-wave (km/s) = 5.34245 6.69225 6.05508
#
# Compressibility (1/GPa) = 0.03414461
#
# Stress axis : x y z
#
# Youngs Moduli (GPa) = 34.82759 154.72599 96.22602
#
# Poissons Ratio (x) = 0.12654 0.15074
# Poissons Ratio (y) = 0.02848 0.32018
# Poissons Ratio (z) = 0.05456 0.51483
#
# Static dielectric constant tensor:
#      x y z
#    x 1.817850 0.000000 0.000000 
#    y 0.000000 1.871820 0.000000 
#    z 0.000000 0.000000 1.815740 
# 
# From -- ./inp_files/26528.got.cif
#   From: 2010.05.17/outbox.cif.g08.bks.cpg/sg47_14_cif.got.tgz:26528.got - 2010.06.03 20:15:42.
