data_PCOD9385096
_publ_section_title
;
Structure prediction by ZEFSAII (Michael W. Deem and Ramdas Pophale) SiO2 
 PCOD9385096
Probable space group: P M M M
;
_chemical_formula_sum "Si O2"
_cell_formula_units_Z 64
_cell_length_a 14.567973
_cell_length_b 7.652417
_cell_length_c 29.423564
_cell_angle_alpha 90.000000
_cell_angle_beta 90.000000
_cell_angle_gamma 90.000000
_cell_volume 3280.144924
_symmetry_space_group_name_H-M "P M M M"
_symmetry_group_IT_number 47
_symmetry_cell_setting 'orthorhombic'
loop_
_space_group_symop_operation_xyz
x,y,z
-x,-y,z
x,-y,-z
-x,y,-z
-x,-y,-z
x,y,-z
-x,y,z
x,-y,z
loop_
_atom_site_type_symbol
_atom_site_label
_atom_site_fract_x
_atom_site_fract_y
_atom_site_fract_z
Si Si1 0.782187 0.208584 0.361456
Si Si2 0.398945 0.205276 0.140447
Si Si3 0.395612 0.786971 0.688434
Si Si4 0.300384 0.703895 0.948394
Si Si5 0.103379 0.290056 0.551330
Si Si6 0.104144 0.213938 0.726003
Si Si7 0.901672 0.789724 0.053679
Si Si8 0.280606 0.787166 0.777860
O O1 0.679922 0.272173 0.348675
O O2 0.822598 0.244809 0.410774
O O3 0.853147 0.270462 0.322489
O O4 0.778502 0.000000 0.356302
O O5 0.500000 0.282555 0.147212
O O6 0.367999 0.218128 0.088470
O O7 0.322668 0.277245 0.174914
O O8 0.405183 0.000000 0.151404
O O9 0.500000 0.724387 0.683158
O O10 0.350763 0.741107 0.737118
O O11 0.399150 0.000000 0.687143
O O12 0.320915 0.500000 0.951364
O O13 0.196209 0.724104 0.929987
O O14 0.304610 0.777373 0.000000
O O15 0.123892 0.228105 0.500000
O O16 0.099508 0.500000 0.549663
O O17 0.000000 0.227813 0.563639
O O18 0.178779 0.270570 0.763487
O O19 0.000000 0.273643 0.732347
O O20 0.102304 0.000000 0.726094
O O21 0.000000 0.729563 0.073130
O O22 0.899847 0.000000 0.057014
O O23 0.903097 0.744073 0.000000
O O24 0.275753 0.000000 0.778720
#
# Coordination Sequence:
#
# PCOD9385096 Si02
#       8
#     8   8   8   8   8   8   8   8
#     4   9  16  25  42  69  94 117 150 191 229 264
#     4  10  20  33  50  70  90 115 152 198 239 272
#     4   8  13  23  42  68  95 119 145 183 230 274
#     4  10  21  35  50  69  94 124 155 186 224 275
#     4   9  18  31  44  59  84 120 157 190 228 275
#     4   8  13  22  39  66  98 123 142 174 221 269
#     4   8  14  27  49  74  96 117 143 178 217 254
#     4   8  14  25  42  65  91 119 150 181 219 272
#
# _framework density 19.511334000000002
#
# number of rings (size 3 to 8) (size 9 to 14) (size 15 to 20)
#    0.000    3.250    0.000    3.375    0.000    4.000 
#    0.000    3.750    0.000    6.000    0.000    2.625 
#    0.000    0.000    0.000    0.000    0.000    0.000 
#
# Total GULP energy -356513.041428 kJ/mol
# GULP energy per Si atom -5570.516272 kJ/mol
# Density = 1.946692 g / cm^3
# Si number density = 19.511334 Si / 1000 Ang^3
#
#
#
# Elastic Constant Matrix: (Units=GPa)
#
#
# Indices 1 2 3 4 5 6 
#
# 1 176.0886 6.1255 78.9811 0.0000 0.0000 0.0000
# 2 6.1255 29.7913 -1.3018 0.0000 0.0000 0.0000
# 3 78.9811 -1.3018 98.3990 0.0000 0.0000 0.0000
# 4 0.0000 0.0000 0.0000 49.2078 0.0000 0.0000
# 5 0.0000 0.0000 0.0000 0.0000 19.7451 0.0000
# 6 0.0000 0.0000 0.0000 0.0000 0.0000 274.5963
#
#
#
# Elastic Compliance Matrix: (Units=1/GPa)
#
#
# Indices 1 2 3 4 5 6 
#
# 1 0.009012 -0.002170 -0.007262 0.000000 0.000000 0.000000
# 2 -0.002170 0.034109 0.002193 0.000000 0.000000 0.000000
# 3 -0.007262 0.002193 0.016021 0.000000 0.000000 0.000000
# 4 0.000000 0.000000 0.000000 0.020322 0.000000 0.000000
# 5 0.000000 0.000000 0.000000 0.000000 0.050646 0.000000
# 6 0.000000 0.000000 0.000000 0.000000 0.000000 0.003642
#
#
# Mechanical properties :
#
#
# Convention : Reuss Voigt Hill
#
# Bulk Modulus (GPa) = 22.38981 52.43206 37.41093
# Shear Modulus (GPa) = 30.65294 83.40810 57.03052
#
# Velocity S-wave (km/s) = 3.96793 6.54533 5.41229
# Velocity P-wave (km/s) = 5.70024 9.16803 7.63366
#
# Compressibility (1/GPa) = 0.04466317
#
# Stress axis : x y z
#
# Youngs Moduli (GPa) = 110.96669 29.31782 62.41927
#
# Poissons Ratio (x) = 0.06363 0.45329
# Poissons Ratio (y) = 0.24083 -0.13690
# Poissons Ratio (z) = 0.80585 -0.06430
#
# Static dielectric constant tensor:
#      x y z
#    x 1.707410 0.000000 0.000000 
#    y 0.000000 1.728310 0.000000 
#    z 0.000000 0.000000 1.675460 
# 
# From -- ./inp_files/25844.got.cif
#   From: 2010.05.17/outbox.cif.g08.bks.cpg/sg47_13_cif.got.tgz:25844.got - 2010.06.03 20:15:42.
