data_PCOD9385036
_publ_section_title
;
Structure prediction by ZEFSAII (Michael W. Deem and Ramdas Pophale) SiO2 
 PCOD9385036
Probable space group: P M M M
;
_chemical_formula_sum "Si O2"
_cell_formula_units_Z 40
_cell_length_a 27.140789
_cell_length_b 9.483190
_cell_length_c 7.394822
_cell_angle_alpha 90.000000
_cell_angle_beta 90.000000
_cell_angle_gamma 90.000000
_cell_volume 1903.288595
_symmetry_space_group_name_H-M "P M M M"
_symmetry_group_IT_number 47
_symmetry_cell_setting 'orthorhombic'
loop_
_space_group_symop_operation_xyz
x,y,z
-x,-y,z
x,-y,-z
-x,y,-z
-x,-y,-z
x,y,-z
-x,y,z
x,-y,z
loop_
_atom_site_type_symbol
_atom_site_label
_atom_site_fract_x
_atom_site_fract_y
_atom_site_fract_z
Si Si1 0.000000 0.838209 0.279122
Si Si2 0.202525 0.671684 0.709616
Si Si3 0.500000 0.662263 0.778519
Si Si4 0.309595 0.338981 0.282403
Si Si5 0.904881 0.336614 0.278701
Si Si6 0.593640 0.159259 0.214877
O O1 0.950721 0.757223 0.221156
O O2 0.000000 0.835862 0.500000
O O3 0.000000 0.000000 0.222210
O O4 0.202378 0.717451 0.500000
O O5 0.202389 0.500000 0.711628
O O6 0.255895 0.711134 0.786708
O O7 0.149234 0.713223 0.785143
O O8 0.500000 0.500000 0.720411
O O9 0.548679 0.745150 0.717055
O O10 0.500000 0.660557 0.000000
O O11 0.305385 0.346175 0.500000
O O12 0.319000 0.500000 0.219142
O O13 0.354597 0.237314 0.241302
O O14 0.903522 0.335254 0.500000
O O15 0.911966 0.500000 0.226354
O O16 0.593573 0.000000 0.287591
O O17 0.586010 0.148854 0.000000
#
# Coordination Sequence:
#
# PCOD9385036 Si02
#       6
#     4   8   4   8   8   8
#     4   9  15  19  23  37  63  91 122 165 210 245
#     4   7  11  21  37  55  74  99 134 174 212 251
#     4   9  17  31  52  73  90 113 148 186 222 261
#     4   9  17  30  48  69  92 118 150 188 226 263
#     4   8  12  19  31  44  60  89 129 166 201 246
#     4  10  20  33  49  70  96 123 149 179 217 262
#
# _framework density 21.016255999999998
#
# number of rings (size 3 to 8) (size 9 to 14) (size 15 to 20)
#    0.000    3.400    0.000    3.600    0.000    4.000 
#    0.000    1.500    0.000    6.600    0.000    0.000 
#    0.000    0.000    0.000    0.900    0.000   19.800 
#
# Total GULP energy -223027.774905 kJ/mol
# GULP energy per Si atom -5575.694373 kJ/mol
# Density = 2.096842 g / cm^3
# Si number density = 21.016256 Si / 1000 Ang^3
#
#
#
# Elastic Constant Matrix: (Units=GPa)
#
#
# Indices 1 2 3 4 5 6 
#
# 1 261.8666 131.9165 4.9322 0.0000 0.0000 0.0000
# 2 131.9165 144.1132 6.2220 0.0000 0.0000 0.0000
# 3 4.9322 6.2220 71.0109 0.0000 0.0000 0.0000
# 4 0.0000 0.0000 0.0000 1.5366 0.0000 0.0000
# 5 0.0000 0.0000 0.0000 0.0000 18.8880 0.0000
# 6 0.0000 0.0000 0.0000 0.0000 0.0000 -10.9870
#
#
#
# Elastic Compliance Matrix: (Units=1/GPa)
#
#
# Indices 1 2 3 4 5 6 
#
# 1 0.007087 -0.006490 0.000076 0.000000 0.000000 0.000000
# 2 -0.006490 0.012909 -0.000680 0.000000 0.000000 0.000000
# 3 0.000076 -0.000680 0.014137 0.000000 0.000000 0.000000
# 4 0.000000 0.000000 0.000000 0.650793 0.000000 0.000000
# 5 0.000000 0.000000 0.000000 0.000000 0.052944 0.000000
# 6 0.000000 0.000000 0.000000 0.000000 0.000000 -0.091016
#
#
# Mechanical properties :
#
#
# Convention : Reuss Voigt Hill
#
# Bulk Modulus (GPa) = 50.13927 84.79245 67.46586
# Shear Modulus (GPa) = 7.48850 24.14884 15.81867
#
# Velocity S-wave (km/s) = 1.88969 3.39345 2.74649
# Velocity P-wave (km/s) = 5.35448 7.46912 6.49839
#
# Compressibility (1/GPa) = 0.01994445
#
# Stress axis : x y z
#
# Youngs Moduli (GPa) = 141.10637 77.46275 70.73819
#
# Poissons Ratio (x) = 0.50276 -0.00541
# Poissons Ratio (y) = 0.91583 0.04812
# Poissons Ratio (z) = -0.01079 0.05270
#
# Static dielectric constant tensor:
#      x y z
#    x 1.768220 0.000000 0.000000 
#    y 0.000000 1.700110 0.000000 
#    z 0.000000 0.000000 1.858720 
# 
# From -- ./inp_files/13075.got.cif
#   From: 2010.05.17/outbox.cif.g08.bks.cpg/sg47_7_cif.got.tgz:13075.got - 2010.06.03 20:15:42.
