data_PCOD9385575
_publ_section_title
;
Structure prediction by ZEFSAII (Michael W. Deem and Ramdas Pophale) SiO2 
 PCOD9385575
Probable space group: P M M M
;
_chemical_formula_sum "Si O2"
_cell_formula_units_Z 44
_cell_length_a 16.029325
_cell_length_b 7.960860
_cell_length_c 17.387143
_cell_angle_alpha 90.000000
_cell_angle_beta 90.000000
_cell_angle_gamma 90.000000
_cell_volume 2218.724847
_symmetry_space_group_name_H-M "P M M M"
_symmetry_group_IT_number 47
_symmetry_cell_setting 'orthorhombic'
loop_
_space_group_symop_operation_xyz
x,y,z
-x,-y,z
x,-y,-z
-x,y,-z
-x,-y,-z
x,y,-z
-x,y,z
x,-y,z
loop_
_atom_site_type_symbol
_atom_site_label
_atom_site_fract_x
_atom_site_fract_y
_atom_site_fract_z
Si Si1 0.311428 0.687736 0.500000
Si Si2 0.909004 0.699066 0.670420
Si Si3 0.129935 0.191258 0.500000
Si Si4 0.742313 0.296393 0.242528
Si Si5 0.000000 0.308853 0.093535
Si Si6 0.817756 0.705768 0.087334
Si Si7 0.405345 0.198411 0.350125
O O1 0.276077 0.500000 0.500000
O O2 0.230659 0.804397 0.500000
O O3 0.367028 0.714200 0.574962
O O4 0.910224 0.500000 0.686246
O O5 0.899540 0.725067 0.579021
O O6 0.825102 0.764020 0.711429
O O7 0.000000 0.767494 0.695031
O O8 0.100915 0.000000 0.500000
O O9 0.740787 0.500000 0.247460
O O10 0.753881 0.247590 0.153672
O O11 0.658757 0.231281 0.281415
O O12 0.910331 0.233395 0.112257
O O13 0.000000 0.500000 0.124479
O O14 0.000000 0.318975 0.000000
O O15 0.822564 0.500000 0.085786
O O16 0.800139 0.759907 0.000000
O O17 0.500000 0.254449 0.334749
O O18 0.406914 0.000000 0.366237
#
# Coordination Sequence:
#
# PCOD9385575 Si02
#       7
#     4   8   4   8   4   8   8
#     4  12  23  38  61  86 110 138 173 217 270 327
#     4  10  21  35  51  75 110 150 190 231 272 315
#     4  12  23  36  55  76 106 148 191 229 266 313
#     4  10  20  33  54  82 111 145 182 225 272 322
#     4   7  10  18  36  66 105 142 173 210 257 309
#     4   8  14  25  44  74 110 144 179 220 266 315
#     4  11  24  41  60  82 109 140 174 219 274 326
#
# _framework density 19.831209999999999
#
# number of rings (size 3 to 8) (size 9 to 14) (size 15 to 20)
#    0.000    2.091    1.818    3.818    1.273    4.000 
#    0.000    0.000    0.000    1.091    0.000    3.818 
#    0.000    2.182    0.000    0.000    0.000    0.000 
#
# Total GULP energy -245653.961918 kJ/mol
# GULP energy per Si atom -5583.044589 kJ/mol
# Density = 1.978607 g / cm^3
# Si number density = 19.831210 Si / 1000 Ang^3
#
#
#
# Elastic Constant Matrix: (Units=GPa)
#
#
# Indices 1 2 3 4 5 6 
#
# 1 136.9534 3.9721 46.9475 0.0000 0.0000 0.0000
# 2 3.9721 28.0156 -2.2450 0.0000 0.0000 0.0000
# 3 46.9475 -2.2450 100.7247 0.0000 0.0000 0.0000
# 4 0.0000 0.0000 0.0000 -38.5837 0.0000 0.0000
# 5 0.0000 0.0000 0.0000 0.0000 -15.7913 0.0000
# 6 0.0000 0.0000 0.0000 0.0000 0.0000 39.7789
#
#
#
# Elastic Compliance Matrix: (Units=1/GPa)
#
#
# Indices 1 2 3 4 5 6 
#
# 1 0.008759 -0.001572 -0.004117 0.000000 0.000000 0.000000
# 2 -0.001572 0.036040 0.001536 0.000000 0.000000 0.000000
# 3 -0.004117 0.001536 0.011881 0.000000 0.000000 0.000000
# 4 0.000000 0.000000 0.000000 -0.025918 0.000000 0.000000
# 5 0.000000 0.000000 0.000000 0.000000 -0.063326 0.000000
# 6 0.000000 0.000000 0.000000 0.000000 0.000000 0.025139
#
#
# Mechanical properties :
#
#
# Convention : Reuss Voigt Hill
#
# Bulk Modulus (GPa) = 20.67231 40.33809 30.50520
# Shear Modulus (GPa) = 293.99503 11.54874 152.77188
#
# Velocity S-wave (km/s) = 12.18895 2.41581 8.78654
# Velocity P-wave (km/s) = 14.44094 5.30720 10.87904
#
# Compressibility (1/GPa) = 0.04837389
#
# Stress axis : x y z
#
# Youngs Moduli (GPa) = 114.17072 27.74665 84.16493
#
# Poissons Ratio (x) = 0.04361 0.34655
# Poissons Ratio (y) = 0.17945 -0.12927
# Poissons Ratio (z) = 0.47010 -0.04262
#
# Static dielectric constant tensor:
#      x y z
#    x 1.699470 0.000000 0.000000 
#    y 0.000000 1.722290 0.000000 
#    z 0.000000 0.000000 1.696930 
# 
# From -- ./inp_files/9049.got.cif
#   From: 2010.05.17/outbox.cif.g08.bks.cpg/sg47_5_cif.got.tgz:9049.got - 2010.06.03 20:15:42.
