data_PCOD9385528
_publ_section_title
;
Structure prediction by ZEFSAII (Michael W. Deem and Ramdas Pophale) SiO2 
 PCOD9385528
Probable space group: P M M M
;
_chemical_formula_sum "Si O2"
_cell_formula_units_Z 48
_cell_length_a 9.310485
_cell_length_b 18.620993
_cell_length_c 13.700309
_cell_angle_alpha 90.000000
_cell_angle_beta 90.000000
_cell_angle_gamma 90.000000
_cell_volume 2375.229093
_symmetry_space_group_name_H-M "P M M M"
_symmetry_group_IT_number 47
_symmetry_cell_setting 'orthorhombic'
loop_
_space_group_symop_operation_xyz
x,y,z
-x,-y,z
x,-y,-z
-x,y,-z
-x,-y,-z
x,y,-z
-x,y,z
x,-y,z
loop_
_atom_site_type_symbol
_atom_site_label
_atom_site_fract_x
_atom_site_fract_y
_atom_site_fract_z
Si Si1 0.165687 0.081568 0.380982
Si Si2 0.668477 0.500000 0.617184
Si Si3 0.169642 0.360518 0.304451
Si Si4 0.835732 0.000000 0.880852
Si Si5 0.336026 0.859113 0.880972
Si Si6 0.832060 0.284396 0.112435
Si Si7 0.664391 0.777689 0.617802
O O1 0.167374 0.081783 0.500000
O O2 0.268995 0.146106 0.349731
O O3 0.000000 0.095753 0.352085
O O4 0.204736 0.000000 0.351943
O O5 0.500000 0.500000 0.643232
O O6 0.678852 0.500000 0.500000
O O7 0.746580 0.429444 0.657594
O O8 0.187323 0.348602 0.188263
O O9 0.236599 0.288617 0.350923
O O10 0.000000 0.365668 0.326420
O O11 0.755921 0.072299 0.849757
O O12 0.000000 0.000000 0.849328
O O13 0.835251 0.000000 0.000000
O O14 0.500000 0.864429 0.848370
O O15 0.263616 0.783364 0.856642
O O16 0.336773 0.861016 0.000000
O O17 0.000000 0.262341 0.117442
O O18 0.800070 0.302705 0.000000
O O19 0.662143 0.778696 0.500000
O O20 0.500000 0.768076 0.651297
#
# Coordination Sequence:
#
# PCOD9385528 Si02
#       7
#     8   4   8   4   8   8   8
#     4   8  14  26  46  73 106 146 192 240 288 339
#     4  11  25  45  68  95 128 160 187 225 282 343
#     4  11  23  39  63  91 118 152 194 237 285 343
#     4   9  15  23  39  65  99 141 188 239 296 353
#     4   9  16  26  44  72 104 140 186 240 295 348
#     4   9  19  37  59  83 113 150 193 240 291 346
#     4  10  20  33  52  81 117 155 192 234 288 348
#
# _framework density 20.208577999999999
#
# number of rings (size 3 to 8) (size 9 to 14) (size 15 to 20)
#    0.000    2.500    0.000    3.000    0.000    8.333 
#    0.000    2.083    1.833    2.500    0.000    0.000 
#    0.000    0.000    0.000    0.000    0.000    0.000 
#
# Total GULP energy -268349.349468 kJ/mol
# GULP energy per Si atom -5590.611447 kJ/mol
# Density = 2.016258 g / cm^3
# Si number density = 20.208578 Si / 1000 Ang^3
#
#
#
# Elastic Constant Matrix: (Units=GPa)
#
#
# Indices 1 2 3 4 5 6 
#
# 1 163.7369 109.3605 52.7198 0.0000 0.0000 0.0000
# 2 109.3605 158.8302 44.3041 0.0000 0.0000 0.0000
# 3 52.7198 44.3041 74.7228 0.0000 0.0000 0.0000
# 4 0.0000 0.0000 0.0000 33.2913 0.0000 0.0000
# 5 0.0000 0.0000 0.0000 0.0000 17.0367 0.0000
# 6 0.0000 0.0000 0.0000 0.0000 0.0000 339.7601
#
#
#
# Elastic Compliance Matrix: (Units=1/GPa)
#
#
# Indices 1 2 3 4 5 6 
#
# 1 0.012418 -0.007317 -0.004424 0.000000 0.000000 0.000000
# 2 -0.007317 0.011854 -0.001866 0.000000 0.000000 0.000000
# 3 -0.004424 -0.001866 0.017610 0.000000 0.000000 0.000000
# 4 0.000000 0.000000 0.000000 0.030038 0.000000 0.000000
# 5 0.000000 0.000000 0.000000 0.000000 0.058697 0.000000
# 6 0.000000 0.000000 0.000000 0.000000 0.000000 0.002943
#
#
# Mechanical properties :
#
#
# Convention : Reuss Voigt Hill
#
# Bulk Modulus (GPa) = 68.16647 90.00653 79.08650
# Shear Modulus (GPa) = 30.18145 90.74467 60.46306
#
# Velocity S-wave (km/s) = 3.86877 6.70832 5.47581
# Velocity P-wave (km/s) = 7.33220 10.22925 8.89940
#
# Compressibility (1/GPa) = 0.01466997
#
# Stress axis : x y z
#
# Youngs Moduli (GPa) = 80.52509 84.35633 56.78454
#
# Poissons Ratio (x) = 0.61721 0.25119
# Poissons Ratio (y) = 0.58918 0.10599
# Poissons Ratio (z) = 0.35621 0.15745
#
# Static dielectric constant tensor:
#      x y z
#    x 1.682300 0.000000 0.000000 
#    y 0.000000 1.649230 0.000000 
#    z 0.000000 0.000000 1.789780 
# 
# From -- ./inp_files/21105.got.cif
#   From: 2010.05.17/outbox.cif.g08.bks.cpg/sg47_11_cif.got.tgz:21105.got - 2010.06.03 20:15:42.
