data_PCOD9385254
_publ_section_title
;
Structure prediction by ZEFSAII (Michael W. Deem and Ramdas Pophale) SiO2 
 PCOD9385254
Probable space group: P M M M
;
_chemical_formula_sum "Si O2"
_cell_formula_units_Z 64
_cell_length_a 7.632806
_cell_length_b 14.990899
_cell_length_c 26.409554
_cell_angle_alpha 90.000000
_cell_angle_beta 90.000000
_cell_angle_gamma 90.000000
_cell_volume 3021.850463
_symmetry_space_group_name_H-M "P M M M"
_symmetry_group_IT_number 47
_symmetry_cell_setting 'orthorhombic'
loop_
_space_group_symop_operation_xyz
x,y,z
-x,-y,z
x,-y,-z
-x,y,-z
-x,-y,-z
x,y,-z
-x,y,z
x,-y,z
loop_
_atom_site_type_symbol
_atom_site_label
_atom_site_fract_x
_atom_site_fract_y
_atom_site_fract_z
Si Si1 0.292457 0.901902 0.349334
Si Si2 0.710843 0.598388 0.784791
Si Si3 0.288231 0.400592 0.097960
Si Si4 0.207278 0.210128 0.944537
Si Si5 0.715368 0.210246 0.441739
Si Si6 0.292235 0.404991 0.561314
Si Si7 0.205873 0.789446 0.252316
Si Si8 0.214778 0.896255 0.153764
O O1 0.500000 0.910281 0.356866
O O2 0.222479 0.862435 0.401862
O O3 0.271031 0.833392 0.303620
O O4 0.221152 0.000000 0.336738
O O5 0.500000 0.596381 0.785633
O O6 0.771322 0.500000 0.767715
O O7 0.768683 0.610606 0.843340
O O8 0.762702 0.684224 0.752986
O O9 0.500000 0.400051 0.097252
O O10 0.232104 0.500000 0.081030
O O11 0.227850 0.315236 0.066934
O O12 0.276784 0.153246 0.897239
O O13 0.000000 0.191429 0.946337
O O14 0.281799 0.189347 0.000000
O O15 0.768489 0.195852 0.500000
O O16 0.500000 0.212115 0.442090
O O17 0.775753 0.308439 0.423187
O O18 0.278420 0.404594 0.500000
O O19 0.500000 0.406074 0.573035
O O20 0.217899 0.500000 0.579380
O O21 0.277364 0.840905 0.202727
O O22 0.000000 0.804447 0.251679
O O23 0.000000 0.893866 0.153646
O O24 0.265881 0.000000 0.155913
#
# Coordination Sequence:
#
# PCOD9385254 Si02
#       8
#     8   8   8   8   8   8   8   8
#     4  10  21  35  51  75 107 140 177 226 279 323
#     4   9  18  34  57  83 109 137 171 213 261 314
#     4   9  18  33  53  76 104 139 173 206 252 314
#     4  10  20  33  50  75 105 135 173 223 270 310
#     4   8  14  26  45  69  98 134 176 220 265 315
#     4   7   9  15  31  57  88 120 154 194 241 293
#     4  11  21  35  57  80 105 138 175 218 263 316
#     4   9  18  33  52  74  98 128 171 219 266 314
#
# _framework density 21.179074
#
# number of rings (size 3 to 8) (size 9 to 14) (size 15 to 20)
#    0.000    2.875    1.250    2.625    0.000    2.250 
#    0.000    5.625    0.000    3.750    0.000    1.750 
#    0.000    0.000    0.000    4.250    0.000    4.125 
#
# Total GULP energy -356912.371177 kJ/mol
# GULP energy per Si atom -5576.755800 kJ/mol
# Density = 2.113087 g / cm^3
# Si number density = 21.179074 Si / 1000 Ang^3
#
#
#
# Elastic Constant Matrix: (Units=GPa)
#
#
# Indices 1 2 3 4 5 6 
#
# 1 38.3108 -0.8855 3.3459 0.0000 0.0000 0.0000
# 2 -0.8855 133.9031 75.9585 0.0000 0.0000 0.0000
# 3 3.3459 75.9585 114.1061 0.0000 0.0000 0.0000
# 4 0.0000 0.0000 0.0000 19.3272 0.0000 0.0000
# 5 0.0000 0.0000 0.0000 0.0000 15.4710 0.0000
# 6 0.0000 0.0000 0.0000 0.0000 0.0000 2.3578
#
#
#
# Elastic Compliance Matrix: (Units=1/GPa)
#
#
# Indices 1 2 3 4 5 6 
#
# 1 0.026249 0.000980 -0.001422 0.000000 0.000000 0.000000
# 2 0.000980 0.012036 -0.008041 0.000000 0.000000 0.000000
# 3 -0.001422 -0.008041 0.014158 0.000000 0.000000 0.000000
# 4 0.000000 0.000000 0.000000 0.051741 0.000000 0.000000
# 5 0.000000 0.000000 0.000000 0.000000 0.064637 0.000000
# 6 0.000000 0.000000 0.000000 0.000000 0.000000 0.424131
#
#
# Mechanical properties :
#
#
# Convention : Reuss Voigt Hill
#
# Bulk Modulus (GPa) = 28.18670 49.23972 38.71321
# Shear Modulus (GPa) = 8.04191 21.29128 14.66659
#
# Velocity S-wave (km/s) = 1.95073 3.17408 2.63440
# Velocity P-wave (km/s) = 4.29086 6.06076 5.25091
#
# Compressibility (1/GPa) = 0.03547772
#
# Stress axis : x y z
#
# Youngs Moduli (GPa) = 38.09639 83.08530 70.63098
#
# Poissons Ratio (x) = -0.08146 0.10046
# Poissons Ratio (y) = -0.03735 0.56793
# Poissons Ratio (z) = 0.05419 0.66807
#
# Static dielectric constant tensor:
#      x y z
#    x 1.828750 0.000000 0.000000 
#    y 0.000000 1.779760 0.000000 
#    z 0.000000 0.000000 1.751340 
# 
# From -- ./inp_files/32094.got.cif
#   From: 2010.05.17/outbox.cif.g08.bks.cpg/sg47_17_cif.got.tgz:32094.got - 2010.06.03 20:15:42.
