data_PCOD9385872
_publ_section_title
;
Structure prediction by ZEFSAII (Michael W. Deem and Ramdas Pophale) SiO2 
 PCOD9385872
Probable space group: P M M M
;
_chemical_formula_sum "Si O2"
_cell_formula_units_Z 64
_cell_length_a 15.993174
_cell_length_b 8.164501
_cell_length_c 24.572939
_cell_angle_alpha 90.000000
_cell_angle_beta 90.000000
_cell_angle_gamma 90.000000
_cell_volume 3208.643089
_symmetry_space_group_name_H-M "P M M M"
_symmetry_group_IT_number 47
_symmetry_cell_setting 'orthorhombic'
loop_
_space_group_symop_operation_xyz
x,y,z
-x,-y,z
x,-y,-z
-x,y,-z
-x,-y,-z
x,y,-z
-x,y,z
x,-y,z
loop_
_atom_site_type_symbol
_atom_site_label
_atom_site_fract_x
_atom_site_fract_y
_atom_site_fract_z
Si Si1 0.593959 0.198329 0.361982
Si Si2 0.592956 0.302886 0.867619
Si Si3 0.091998 0.306718 0.130560
Si Si4 0.907522 0.200049 0.631782
Si Si5 0.747460 0.200388 0.562544
Si Si6 0.250543 0.194598 0.938587
Si Si7 0.666809 0.695820 0.752234
Si Si8 0.143138 0.807033 0.248172
O O1 0.500000 0.248236 0.377359
O O2 0.665606 0.252570 0.403925
O O3 0.616627 0.262085 0.302132
O O4 0.596476 0.000000 0.360227
O O5 0.500000 0.241671 0.881681
O O6 0.589708 0.500000 0.866543
O O7 0.666217 0.255498 0.908610
O O8 0.619083 0.249700 0.806775
O O9 0.091941 0.500000 0.120592
O O10 0.168920 0.235405 0.096817
O O11 0.107576 0.277377 0.194551
O O12 0.000000 0.239777 0.115974
O O13 0.831015 0.254585 0.594114
O O14 0.892989 0.252209 0.694220
O O15 0.000000 0.249900 0.613262
O O16 0.905172 0.000000 0.632055
O O17 0.746168 0.253518 0.500000
O O18 0.747870 0.000000 0.562662
O O19 0.256489 0.000000 0.941465
O O20 0.243706 0.261379 0.000000
O O21 0.679442 0.500000 0.755407
O O22 0.757326 0.779554 0.750035
O O23 0.125011 0.000000 0.243452
#
# Coordination Sequence:
#
# PCOD9385872 Si02
#       8
#     8   8   8   8   8   8   8   8
#     4  10  20  34  53  79 110 145 186 231 284 342
#     4  10  22  40  62  88 118 153 192 235 288 351
#     4  11  24  41  62  90 122 156 195 237 287 349
#     4   9  17  29  48  77 111 143 176 221 279 337
#     4   9  17  30  48  73 107 144 186 236 284 333
#     4  11  25  43  63  88 118 155 200 247 291 337
#     4  11  21  35  58  86 116 150 187 228 283 346
#     4  11  20  34  58  86 118 151 186 232 286 343
#
# _framework density 19.946124999999999
#
# number of rings (size 3 to 8) (size 9 to 14) (size 15 to 20)
#    0.000    1.750    2.500    2.250    0.000    5.000 
#    0.000    5.000    0.000    0.375    0.000    0.875 
#    0.000    1.000    0.000    0.000    0.000    0.000 
#
# Total GULP energy -357553.817440 kJ/mol
# GULP energy per Si atom -5586.778397 kJ/mol
# Density = 1.990073 g / cm^3
# Si number density = 19.946125 Si / 1000 Ang^3
#
#
#
# Elastic Constant Matrix: (Units=GPa)
#
#
# Indices 1 2 3 4 5 6 
#
# 1 174.3965 4.6098 76.7629 0.0000 0.0000 0.0000
# 2 4.6098 10.7550 4.0906 0.0000 0.0000 0.0000
# 3 76.7629 4.0906 146.2621 0.0000 0.0000 0.0000
# 4 0.0000 0.0000 0.0000 769.5492 0.0000 0.0000
# 5 0.0000 0.0000 0.0000 0.0000 -0.9022 0.0000
# 6 0.0000 0.0000 0.0000 0.0000 0.0000 4.1343
#
#
#
# Elastic Compliance Matrix: (Units=1/GPa)
#
#
# Indices 1 2 3 4 5 6 
#
# 1 0.007488 -0.001733 -0.003882 0.000000 0.000000 0.000000
# 2 -0.001733 0.094380 -0.001730 0.000000 0.000000 0.000000
# 3 -0.003882 -0.001730 0.008923 0.000000 0.000000 0.000000
# 4 0.000000 0.000000 0.000000 0.001299 0.000000 0.000000
# 5 0.000000 0.000000 0.000000 0.000000 -1.108407 0.000000
# 6 0.000000 0.000000 0.000000 0.000000 0.000000 0.241881
#
#
# Mechanical properties :
#
#
# Convention : Reuss Voigt Hill
#
# Bulk Modulus (GPa) = 10.40564 55.81559 33.11061
# Shear Modulus (GPa) = -7.06503 170.95294 81.94396
#
# Velocity S-wave (km/s) = -1.88408 9.26787 6.41653
# Velocity P-wave (km/s) = 0.70371 11.94020 8.45765
#
# Compressibility (1/GPa) = 0.09610175
#
# Stress axis : x y z
#
# Youngs Moduli (GPa) = 133.53892 10.59541 112.07422
#
# Poissons Ratio (x) = 0.01837 0.43504
# Poissons Ratio (y) = 0.23146 0.19388
# Poissons Ratio (z) = 0.51836 0.01833
#
# Static dielectric constant tensor:
#      x y z
#    x 1.717180 0.000000 0.000000 
#    y 0.000000 1.700700 0.000000 
#    z 0.000000 0.000000 1.679900 
# 
# From -- ./inp_files/7805.got.cif
#   From: 2010.05.17/outbox.cif.g08.bks.cpg/sg47_4_cif.got.tgz:7805.got - 2010.06.03 20:15:42.
