data_PCOD9385069
_publ_section_title
;
Structure prediction by ZEFSAII (Michael W. Deem and Ramdas Pophale) SiO2 
 PCOD9385069
Probable space group: P M M M
;
_chemical_formula_sum "Si O2"
_cell_formula_units_Z 40
_cell_length_a 7.663656
_cell_length_b 25.589482
_cell_length_c 10.201507
_cell_angle_alpha 90.000000
_cell_angle_beta 90.000000
_cell_angle_gamma 90.000000
_cell_volume 2000.607206
_symmetry_space_group_name_H-M "P M M M"
_symmetry_group_IT_number 47
_symmetry_cell_setting 'orthorhombic'
loop_
_space_group_symop_operation_xyz
x,y,z
-x,-y,z
x,-y,-z
-x,y,-z
-x,-y,-z
x,y,-z
-x,y,z
x,-y,z
loop_
_atom_site_type_symbol
_atom_site_label
_atom_site_fract_x
_atom_site_fract_y
_atom_site_fract_z
Si Si1 0.794543 0.760350 0.349793
Si Si2 0.706371 0.873660 0.743522
Si Si3 0.713965 0.059318 0.500000
Si Si4 0.214368 0.671215 0.847199
Si Si5 0.792157 0.556077 0.158092
Si Si6 0.207920 0.939862 0.000000
O O1 0.723761 0.763259 0.500000
O O2 0.778189 0.815672 0.275811
O O3 0.723712 0.715204 0.254121
O O4 0.000000 0.749533 0.362664
O O5 0.500000 0.868009 0.727303
O O6 0.774631 0.909664 0.626489
O O7 0.738981 0.905568 0.875228
O O8 0.500000 0.058661 0.500000
O O9 0.772656 0.000000 0.500000
O O10 0.273338 0.613221 0.802148
O O11 0.000000 0.671068 0.848351
O O12 0.265806 0.680096 0.000000
O O13 0.720533 0.500000 0.205971
O O14 0.000000 0.555594 0.185638
O O15 0.774212 0.555981 0.000000
O O16 0.000000 0.943714 0.000000
O O17 0.277052 0.000000 0.000000
#
# Coordination Sequence:
#
# PCOD9385069 Si02
#       6
#     8   8   4   8   8   4
#     4  10  20  33  49  71 103 139 174 215 263 312
#     4  11  22  38  59  82 108 139 176 216 258 306
#     4   9  18  34  57  81 103 129 166 211 254 298
#     4   8  14  24  40  63  90 127 171 211 258 313
#     4   7   9  15  30  54  84 117 158 208 256 304
#     4  11  25  43  61  85 115 141 166 203 256 315
#
# _framework density 19.993931
#
# number of rings (size 3 to 8) (size 9 to 14) (size 15 to 20)
#    0.000    2.800    1.000    3.300    1.400    1.600 
#    0.000    0.000    0.000    3.000    0.000    4.200 
#    0.000    0.800    0.000    6.800    0.000    6.000 
#
# Total GULP energy -222871.303811 kJ/mol
# GULP energy per Si atom -5571.782595 kJ/mol
# Density = 1.994842 g / cm^3
# Si number density = 19.993931 Si / 1000 Ang^3
#
#
#
# Elastic Constant Matrix: (Units=GPa)
#
#
# Indices 1 2 3 4 5 6 
#
# 1 33.8004 -1.7835 -3.7521 0.0000 0.0000 0.0000
# 2 -1.7835 231.2343 93.5773 0.0000 0.0000 0.0000
# 3 -3.7521 93.5773 128.2038 0.0000 0.0000 0.0000
# 4 0.0000 0.0000 0.0000 31.6715 0.0000 0.0000
# 5 0.0000 0.0000 0.0000 0.0000 2.4243 0.0000
# 6 0.0000 0.0000 0.0000 0.0000 0.0000 -38.0117
#
#
#
# Elastic Compliance Matrix: (Units=1/GPa)
#
#
# Indices 1 2 3 4 5 6 
#
# 1 0.029687 -0.000174 0.000996 0.000000 0.000000 0.000000
# 2 -0.000174 0.006139 -0.004486 0.000000 0.000000 0.000000
# 3 0.000996 -0.004486 0.011103 0.000000 0.000000 0.000000
# 4 0.000000 0.000000 0.000000 0.031574 0.000000 0.000000
# 5 0.000000 0.000000 0.000000 0.000000 0.412495 0.000000
# 6 0.000000 0.000000 0.000000 0.000000 0.000000 -0.026308
#
#
# Mechanical properties :
#
#
# Convention : Reuss Voigt Hill
#
# Bulk Modulus (GPa) = 25.25184 63.25797 44.25490
# Shear Modulus (GPa) = 10.30464 19.56326 14.93395
#
# Velocity S-wave (km/s) = 2.27268 3.13143 2.73596
# Velocity P-wave (km/s) = 4.42085 6.69191 5.67123
#
# Compressibility (1/GPa) = 0.03960108
#
# Stress axis : x y z
#
# Youngs Moduli (GPa) = 33.68495 162.90425 90.06259
#
# Poissons Ratio (x) = 0.02835 -0.08969
# Poissons Ratio (y) = 0.00586 0.40399
# Poissons Ratio (z) = -0.03355 0.73074
#
# Static dielectric constant tensor:
#      x y z
#    x 1.758150 0.000000 0.000000 
#    y 0.000000 1.701110 0.000000 
#    z 0.000000 0.000000 1.671270 
# 
# From -- ./inp_files/1822.got.cif
#   From: 2010.05.17/outbox.cif.g08.bks.cpg/sg47_1_cif.got.tgz:1822.got - 2010.06.03 20:15:42.
