data_PCOD9385702
_publ_section_title
;
Structure prediction by ZEFSAII (Michael W. Deem and Ramdas Pophale) SiO2 
 PCOD9385702
Probable space group: P M M M
;
_chemical_formula_sum "Si O2"
_cell_formula_units_Z 40
_cell_length_a 9.287417
_cell_length_b 28.624565
_cell_length_c 7.484138
_cell_angle_alpha 90.000000
_cell_angle_beta 90.000000
_cell_angle_gamma 90.000000
_cell_volume 1989.645152
_symmetry_space_group_name_H-M "P M M M"
_symmetry_group_IT_number 47
_symmetry_cell_setting 'orthorhombic'
loop_
_space_group_symop_operation_xyz
x,y,z
-x,-y,z
x,-y,-z
-x,y,-z
-x,-y,-z
x,y,-z
-x,y,z
x,-y,z
loop_
_atom_site_type_symbol
_atom_site_label
_atom_site_fract_x
_atom_site_fract_y
_atom_site_fract_z
Si Si1 0.666036 0.000000 0.281189
Si Si2 0.663322 0.813886 0.214155
Si Si3 0.674851 0.553020 0.500000
Si Si4 0.834384 0.277308 0.218133
Si Si5 0.836539 0.908383 0.714023
Si Si6 0.671649 0.628324 0.789075
O O1 0.749005 0.046481 0.221068
O O2 0.500000 0.000000 0.224709
O O3 0.665876 0.000000 0.500000
O O4 0.500000 0.816872 0.282943
O O5 0.747200 0.768132 0.280455
O O6 0.751648 0.860808 0.249979
O O7 0.654753 0.809109 0.000000
O O8 0.729224 0.500000 0.500000
O O9 0.500000 0.550605 0.500000
O O10 0.715317 0.583703 0.672407
O O11 0.755999 0.325288 0.268917
O O12 0.000000 0.275890 0.275954
O O13 0.834010 0.276429 0.000000
O O14 0.845137 0.913210 0.500000
O O15 0.000000 0.906657 0.783174
O O16 0.500000 0.636071 0.764559
O O17 0.696514 0.620691 0.000000
#
# Coordination Sequence:
#
# PCOD9385702 Si02
#       6
#     4   8   4   8   8   8
#     4   9  17  31  52  73  96 131 172 214 262 313
#     4  10  20  34  53  77 105 136 170 211 261 316
#     4   9  18  32  51  79 111 139 175 224 271 314
#     4   9  17  31  52  75 100 133 171 209 253 308
#     4  10  20  34  52  75 102 132 170 214 260 313
#     4   9  17  31  52  76 103 138 179 220 265 319
#
# _framework density 20.104085999999999
#
# number of rings (size 3 to 8) (size 9 to 14) (size 15 to 20)
#    0.000    2.600    0.000    2.100    0.000    6.400 
#    1.800    3.000    0.000    4.200    0.000    2.800 
#    0.000    0.000    0.000    0.000    0.000    0.000 
#
# Total GULP energy -223395.828637 kJ/mol
# GULP energy per Si atom -5584.895716 kJ/mol
# Density = 2.005833 g / cm^3
# Si number density = 20.104086 Si / 1000 Ang^3
#
#
#
# Elastic Constant Matrix: (Units=GPa)
#
#
# Indices 1 2 3 4 5 6 
#
# 1 166.2521 122.7512 32.1851 0.0000 0.0000 0.0000
# 2 122.7512 241.6423 38.2511 0.0000 0.0000 0.0000
# 3 32.1851 38.2511 63.7283 0.0000 0.0000 0.0000
# 4 0.0000 0.0000 0.0000 27.7962 0.0000 0.0000
# 5 0.0000 0.0000 0.0000 0.0000 9.9320 0.0000
# 6 0.0000 0.0000 0.0000 0.0000 0.0000 117.4891
#
#
#
# Elastic Compliance Matrix: (Units=1/GPa)
#
#
# Indices 1 2 3 4 5 6 
#
# 1 0.009894 -0.004679 -0.002188 0.000000 0.000000 0.000000
# 2 -0.004679 0.006786 -0.001710 0.000000 0.000000 0.000000
# 3 -0.002188 -0.001710 0.017823 0.000000 0.000000 0.000000
# 4 0.000000 0.000000 0.000000 0.035976 0.000000 0.000000
# 5 0.000000 0.000000 0.000000 0.000000 0.100684 0.000000
# 6 0.000000 0.000000 0.000000 0.000000 0.000000 0.008511
#
#
# Mechanical properties :
#
#
# Convention : Reuss Voigt Hill
#
# Bulk Modulus (GPa) = 57.64315 95.33303 76.48809
# Shear Modulus (GPa) = 24.67773 49.60581 37.14177
#
# Velocity S-wave (km/s) = 3.50737 4.97273 4.30289
# Velocity P-wave (km/s) = 6.71839 8.97181 7.92560
#
# Compressibility (1/GPa) = 0.01734812
#
# Stress axis : x y z
#
# Youngs Moduli (GPa) = 101.07555 147.35929 56.10761
#
# Poissons Ratio (x) = 0.68957 0.12276
# Poissons Ratio (y) = 0.47298 0.09594
# Poissons Ratio (z) = 0.22114 0.25197
#
# Static dielectric constant tensor:
#      x y z
#    x 1.689920 0.000000 0.000000 
#    y 0.000000 1.660840 0.000000 
#    z 0.000000 0.000000 1.772270 
# 
# From -- ./inp_files/1771.got.cif
#   From: 2010.05.17/outbox.cif.g08.bks.cpg/sg47_1_cif.got.tgz:1771.got - 2010.06.03 20:15:42.
