data_PCOD9385964
_publ_section_title
;
Structure prediction by ZEFSAII (Michael W. Deem and Ramdas Pophale) SiO2 
 PCOD9385964
Probable space group: P M M M
;
_chemical_formula_sum "Si O2"
_cell_formula_units_Z 52
_cell_length_a 14.880883
_cell_length_b 8.967782
_cell_length_c 23.051835
_cell_angle_alpha 90.000000
_cell_angle_beta 90.000000
_cell_angle_gamma 90.000000
_cell_volume 3076.233142
_symmetry_space_group_name_H-M "P M M M"
_symmetry_group_IT_number 47
_symmetry_cell_setting 'orthorhombic'
loop_
_space_group_symop_operation_xyz
x,y,z
-x,-y,z
x,-y,-z
-x,y,-z
-x,-y,-z
x,y,-z
-x,y,z
x,-y,z
loop_
_atom_site_type_symbol
_atom_site_label
_atom_site_fract_x
_atom_site_fract_y
_atom_site_fract_z
Si Si1 0.894760 0.826010 0.500000
Si Si2 0.392245 0.322859 0.121204
Si Si3 0.391043 0.171878 0.000000
Si Si4 0.358336 0.670757 0.654583
Si Si5 0.847576 0.667087 0.384037
Si Si6 0.100421 0.319084 0.258202
Si Si7 0.500000 0.179804 0.569057
Si Si8 0.708321 0.178837 0.770594
O O1 0.856709 0.760245 0.441366
O O2 0.000000 0.793679 0.500000
O O3 0.879577 0.000000 0.500000
O O4 0.500000 0.300549 0.127701
O O5 0.375171 0.500000 0.124023
O O6 0.340013 0.237971 0.171795
O O7 0.364792 0.257494 0.058565
O O8 0.500000 0.169764 0.000000
O O9 0.360320 0.000000 0.000000
O O10 0.390394 0.500000 0.663560
O O11 0.256612 0.661646 0.632425
O O12 0.416619 0.753572 0.605720
O O13 0.348312 0.757027 0.715620
O O14 0.880927 0.500000 0.395614
O O15 0.896629 0.723836 0.326370
O O16 0.111917 0.500000 0.255647
O O17 0.189327 0.243033 0.231853
O O18 0.000000 0.283720 0.235203
O O19 0.500000 0.220717 0.500000
O O20 0.500000 0.000000 0.572011
O O21 0.710362 0.000000 0.767999
#
# Coordination Sequence:
#
# PCOD9385964 Si02
#       8
#     4   8   4   8   8   8   4   8
#     4  11  23  33  45  70  99 124 151 191 250 315
#     4  10  20  34  54  79 112 153 193 227 265 316
#     4   9  17  31  51  79 114 149 186 227 271 315
#     4  10  22  40  58  75  99 133 176 218 262 318
#     4   9  19  35  54  73  93 123 162 204 251 307
#     4   9  18  35  57  78 102 134 174 219 266 322
#     4  11  25  41  57  79 103 130 169 218 275 327
#     4  11  22  35  54  82 114 144 179 225 277 323
#
# _framework density 16.903790999999998
#
# number of rings (size 3 to 8) (size 9 to 14) (size 15 to 20)
#    0.000    2.077    0.000    4.385    2.154    7.077 
#    0.000    0.000    0.000    0.000    0.000    0.538 
#    0.000    4.308    0.000    0.000    0.000    0.000 
#
# Total GULP energy -289987.775199 kJ/mol
# GULP energy per Si atom -5576.687985 kJ/mol
# Density = 1.686532 g / cm^3
# Si number density = 16.903791 Si / 1000 Ang^3
#
#
#
# Elastic Constant Matrix: (Units=GPa)
#
#
# Indices 1 2 3 4 5 6 
#
# 1 78.3694 39.6476 50.4095 0.0000 0.0000 0.0000
# 2 39.6476 115.4671 75.7910 0.0000 0.0000 0.0000
# 3 50.4095 75.7910 144.0571 0.0000 0.0000 0.0000
# 4 0.0000 0.0000 0.0000 16.5118 0.0000 0.0000
# 5 0.0000 0.0000 0.0000 0.0000 10.2276 0.0000
# 6 0.0000 0.0000 0.0000 0.0000 0.0000 22.2512
#
#
#
# Elastic Compliance Matrix: (Units=1/GPa)
#
#
# Indices 1 2 3 4 5 6 
#
# 1 0.017109 -0.002971 -0.004424 0.000000 0.000000 0.000000
# 2 -0.002971 0.013745 -0.006192 0.000000 0.000000 0.000000
# 3 -0.004424 -0.006192 0.011747 0.000000 0.000000 0.000000
# 4 0.000000 0.000000 0.000000 0.060563 0.000000 0.000000
# 5 0.000000 0.000000 0.000000 0.000000 0.097774 0.000000
# 6 0.000000 0.000000 0.000000 0.000000 0.000000 0.044941
#
#
# Mechanical properties :
#
#
# Convention : Reuss Voigt Hill
#
# Bulk Modulus (GPa) = 64.81774 74.39886 69.60830
# Shear Modulus (GPa) = 17.97303 21.26782 19.62042
#
# Velocity S-wave (km/s) = 3.26430 3.55092 3.41062
# Velocity P-wave (km/s) = 7.25506 7.80517 7.53513
#
# Compressibility (1/GPa) = 0.01542787
#
# Stress axis : x y z
#
# Youngs Moduli (GPa) = 58.45039 72.75502 85.12608
#
# Poissons Ratio (x) = 0.21614 0.37658
# Poissons Ratio (y) = 0.17365 0.52708
# Poissons Ratio (z) = 0.25857 0.45048
#
# Static dielectric constant tensor:
#      x y z
#    x 1.585680 0.000000 0.000000 
#    y 0.000000 1.576820 0.000000 
#    z 0.000000 0.000000 1.532770 
# 
# From -- ./inp_files/30950.got.cif
#   From: 2010.05.17/outbox.cif.g08.bks.cpg/sg47_16_cif.got.tgz:30950.got - 2010.06.03 20:15:42.
