data_PCOD9385554
_publ_section_title
;
Structure prediction by ZEFSAII (Michael W. Deem and Ramdas Pophale) SiO2 
 PCOD9385554
Probable space group: P M M M
;
_chemical_formula_sum "Si O2"
_cell_formula_units_Z 64
_cell_length_a 25.185997
_cell_length_b 9.448434
_cell_length_c 15.056902
_cell_angle_alpha 90.000000
_cell_angle_beta 90.000000
_cell_angle_gamma 90.000000
_cell_volume 3583.064324
_symmetry_space_group_name_H-M "P M M M"
_symmetry_group_IT_number 47
_symmetry_cell_setting 'orthorhombic'
loop_
_space_group_symop_operation_xyz
x,y,z
-x,-y,z
x,-y,-z
-x,y,-z
-x,-y,-z
x,y,-z
-x,y,z
x,-y,z
loop_
_atom_site_type_symbol
_atom_site_label
_atom_site_fract_x
_atom_site_fract_y
_atom_site_fract_z
Si Si1 0.874582 0.168745 0.753269
Si Si2 0.341108 0.172409 0.102121
Si Si3 0.419036 0.664678 0.400628
Si Si4 0.558872 0.830708 0.777625
Si Si5 0.248319 0.830140 0.233871
Si Si6 0.290924 0.663799 0.599326
Si Si7 0.061842 0.668647 0.605074
Si Si8 0.936418 0.660591 0.103573
O O1 0.813500 0.206508 0.774194
O O2 0.897958 0.244936 0.666072
O O3 0.909338 0.225627 0.834528
O O4 0.878345 0.000000 0.743380
O O5 0.392842 0.216701 0.159016
O O6 0.287734 0.215845 0.154511
O O7 0.341794 0.000000 0.100330
O O8 0.342495 0.220812 0.000000
O O9 0.435699 0.710803 0.500000
O O10 0.434555 0.500000 0.389955
O O11 0.437877 0.756684 0.318139
O O12 0.354885 0.669308 0.399160
O O13 0.500000 0.803432 0.815842
O O14 0.564284 0.000000 0.765727
O O15 0.268910 0.762272 0.324539
O O16 0.252285 0.000000 0.239048
O O17 0.273419 0.704860 0.500000
O O18 0.275524 0.500000 0.614130
O O19 0.069255 0.695707 0.500000
O O20 0.068415 0.500000 0.619391
O O21 0.000000 0.702743 0.627132
O O22 0.921076 0.500000 0.130334
O O23 0.000000 0.669379 0.111350
O O24 0.922906 0.679061 0.000000
#
# Coordination Sequence:
#
# PCOD9385554 Si02
#       8
#     8   8   8   8   8   8   8   8
#     4  11  23  34  50  81 115 143 176 220 270 324
#     4   9  18  35  57  76  99 135 176 218 266 317
#     4   9  18  33  53  77 106 141 175 206 252 313
#     4  10  20  33  53  82 109 134 173 223 268 313
#     4  10  21  36  53  76 106 142 179 213 259 318
#     4   9  18  33  54  78 102 132 173 217 257 302
#     4   9  19  37  59  80 105 144 191 230 267 316
#     4   9  19  37  59  80 104 138 179 220 264 318
#
# _framework density 17.861805
#
# number of rings (size 3 to 8) (size 9 to 14) (size 15 to 20)
#    0.000    2.500    1.250    2.250    0.000    5.750 
#    0.000    8.750    0.000    1.500    0.000    0.875 
#    0.000    0.000    0.000    0.000    0.000    0.000 
#
# Total GULP energy -356934.730521 kJ/mol
# GULP energy per Si atom -5577.105164 kJ/mol
# Density = 1.782115 g / cm^3
# Si number density = 17.861805 Si / 1000 Ang^3
#
#
#
# Elastic Constant Matrix: (Units=GPa)
#
#
# Indices 1 2 3 4 5 6 
#
# 1 100.3517 42.7852 71.7692 0.0000 0.0000 0.0000
# 2 42.7852 24.6829 37.6356 0.0000 0.0000 0.0000
# 3 71.7692 37.6356 122.6949 0.0000 0.0000 0.0000
# 4 0.0000 0.0000 0.0000 17.6998 0.0000 0.0000
# 5 0.0000 0.0000 0.0000 0.0000 159.1817 0.0000
# 6 0.0000 0.0000 0.0000 0.0000 0.0000 15.9054
#
#
#
# Elastic Compliance Matrix: (Units=1/GPa)
#
#
# Indices 1 2 3 4 5 6 
#
# 1 0.039162 -0.061912 -0.003917 0.000000 0.000000 0.000000
# 2 -0.061912 0.173989 -0.017155 0.000000 0.000000 0.000000
# 3 -0.003917 -0.017155 0.015703 0.000000 0.000000 0.000000
# 4 0.000000 0.000000 0.000000 0.056498 0.000000 0.000000
# 5 0.000000 0.000000 0.000000 0.000000 0.006282 0.000000
# 6 0.000000 0.000000 0.000000 0.000000 0.000000 0.062872
#
#
# Mechanical properties :
#
#
# Convention : Reuss Voigt Hill
#
# Bulk Modulus (GPa) = 15.90135 61.34549 38.62342
# Shear Modulus (GPa) = 9.23472 44.92669 27.08070
#
# Velocity S-wave (km/s) = 2.27625 5.02066 3.89797
# Velocity P-wave (km/s) = 3.97872 8.24793 6.47528
#
# Compressibility (1/GPa) = 0.06288776
#
# Stress axis : x y z
#
# Youngs Moduli (GPa) = 25.53472 5.74750 63.68032
#
# Poissons Ratio (x) = 0.35584 0.24942
# Poissons Ratio (y) = 1.58090 1.09242
# Poissons Ratio (z) = 0.10001 0.09860
#
# Static dielectric constant tensor:
#      x y z
#    x 1.627940 0.000000 0.000000 
#    y 0.000000 1.588860 0.000000 
#    z 0.000000 0.000000 1.595790 
# 
# From -- ./inp_files/12756.got.cif
#   From: 2010.05.17/outbox.cif.g08.bks.cpg/sg47_7_cif.got.tgz:12756.got - 2010.06.03 20:15:42.
