data_PCOD9385887
_publ_section_title
;
Structure prediction by ZEFSAII (Michael W. Deem and Ramdas Pophale) SiO2 
 PCOD9385887
Probable space group: P M M M
;
_chemical_formula_sum "Si O2"
_cell_formula_units_Z 56
_cell_length_a 14.748544
_cell_length_b 8.784893
_cell_length_c 21.577299
_cell_angle_alpha 90.000000
_cell_angle_beta 90.000000
_cell_angle_gamma 90.000000
_cell_volume 2795.649387
_symmetry_space_group_name_H-M "P M M M"
_symmetry_group_IT_number 47
_symmetry_cell_setting 'orthorhombic'
loop_
_space_group_symop_operation_xyz
x,y,z
-x,-y,z
x,-y,-z
-x,y,-z
-x,-y,-z
x,y,-z
-x,y,z
x,-y,z
loop_
_atom_site_type_symbol
_atom_site_label
_atom_site_fract_x
_atom_site_fract_y
_atom_site_fract_z
Si Si1 0.131020 0.672669 0.713607
Si Si2 0.356264 0.818060 0.173201
Si Si3 0.500000 0.814250 0.928477
Si Si4 0.902107 0.179614 0.588580
Si Si5 0.348721 0.327005 0.696587
Si Si6 0.856473 0.180937 0.840808
Si Si7 0.304510 0.183897 0.568509
Si Si8 0.000000 0.323071 0.926536
O O1 0.101194 0.500000 0.701728
O O2 0.098213 0.787683 0.661545
O O3 0.240171 0.672668 0.708308
O O4 0.106344 0.731392 0.780940
O O5 0.415151 0.767210 0.114329
O O6 0.384330 0.749708 0.240089
O O7 0.250950 0.786525 0.158391
O O8 0.366233 0.000000 0.179171
O O9 0.500000 0.000000 0.931076
O O10 0.500000 0.761374 0.000000
O O11 0.802069 0.236916 0.568922
O O12 0.000000 0.241082 0.566015
O O13 0.901848 0.000000 0.575045
O O14 0.381147 0.500000 0.692276
O O15 0.355844 0.247237 0.629181
O O16 0.911812 0.240774 0.898980
O O17 0.868102 0.000000 0.833587
O O18 0.341448 0.223400 0.500000
O O19 0.303192 0.000000 0.573834
O O20 0.000000 0.500000 0.907423
O O21 0.000000 0.315104 0.000000
#
# Coordination Sequence:
#
# PCOD9385887 Si02
#       8
#     8   8   4   8   8   8   8   4
#     4   9  17  29  45  65  90 122 164 213 264 315
#     4   9  18  34  58  86 115 147 181 221 266 321
#     4   9  18  34  59  93 126 151 178 213 261 326
#     4   9  17  27  39  58  87 123 164 214 269 325
#     4   9  17  30  49  72 100 136 178 221 265 317
#     4  10  20  34  54  77 101 133 175 223 269 312
#     4   9  17  29  45  66  94 130 175 227 279 332
#     4  11  25  41  53  69  97 135 178 221 268 321
#
# _framework density 20.031124999999999
#
# number of rings (size 3 to 8) (size 9 to 14) (size 15 to 20)
#    0.000    2.714    0.000    1.500    1.000    6.000 
#    0.000    3.214    0.000    0.857    0.000    4.500 
#    0.000    4.000    0.000    0.000    0.000    0.000 
#
# Total GULP energy -312044.323713 kJ/mol
# GULP energy per Si atom -5572.220066 kJ/mol
# Density = 1.998553 g / cm^3
# Si number density = 20.031125 Si / 1000 Ang^3
#
#
#
# Elastic Constant Matrix: (Units=GPa)
#
#
# Indices 1 2 3 4 5 6 
#
# 1 47.5443 19.2447 43.9176 0.0000 0.0000 0.0000
# 2 19.2447 38.2654 42.1706 0.0000 0.0000 0.0000
# 3 43.9176 42.1706 178.3721 0.0000 0.0000 0.0000
# 4 0.0000 0.0000 0.0000 8.6227 0.0000 0.0000
# 5 0.0000 0.0000 0.0000 0.0000 14.4390 0.0000
# 6 0.0000 0.0000 0.0000 0.0000 0.0000 3.9767
#
#
#
# Elastic Compliance Matrix: (Units=1/GPa)
#
#
# Indices 1 2 3 4 5 6 
#
# 1 0.029450 -0.009223 -0.005070 0.000000 0.000000 0.000000
# 2 -0.009223 0.038230 -0.006767 0.000000 0.000000 0.000000
# 3 -0.005070 -0.006767 0.008455 0.000000 0.000000 0.000000
# 4 0.000000 0.000000 0.000000 0.115973 0.000000 0.000000
# 5 0.000000 0.000000 0.000000 0.000000 0.069257 0.000000
# 6 0.000000 0.000000 0.000000 0.000000 0.000000 0.251463
#
#
# Mechanical properties :
#
#
# Convention : Reuss Voigt Hill
#
# Bulk Modulus (GPa) = 29.40114 52.76084 41.08099
# Shear Modulus (GPa) = 8.82945 15.99761 12.41353
#
# Velocity S-wave (km/s) = 2.10177 2.82908 2.49210
# Velocity P-wave (km/s) = 4.53867 6.08837 5.36972
#
# Compressibility (1/GPa) = 0.03401229
#
# Stress axis : x y z
#
# Youngs Moduli (GPa) = 33.95579 26.15749 118.27876
#
# Poissons Ratio (x) = 0.24126 0.59972
# Poissons Ratio (y) = 0.31319 0.80044
# Poissons Ratio (z) = 0.17217 0.17702
#
# Static dielectric constant tensor:
#      x y z
#    x 1.764860 0.000000 0.000000 
#    y 0.000000 1.688090 0.000000 
#    z 0.000000 0.000000 1.705420 
# 
# From -- ./inp_files/31079.got.cif
#   From: 2010.05.17/outbox.cif.g08.bks.cpg/sg47_16_cif.got.tgz:31079.got - 2010.06.03 20:15:42.
