data_PCOD9385568
_publ_section_title
;
Structure prediction by ZEFSAII (Michael W. Deem and Ramdas Pophale) SiO2 
 PCOD9385568
Probable space group: P M M M
;
_chemical_formula_sum "Si O2"
_cell_formula_units_Z 33
_cell_length_a 8.255611
_cell_length_b 25.037611
_cell_length_c 7.540620
_cell_angle_alpha 90.000000
_cell_angle_beta 90.000000
_cell_angle_gamma 90.000000
_cell_volume 1558.652011
_symmetry_space_group_name_H-M "P M M M"
_symmetry_group_IT_number 47
_symmetry_cell_setting 'orthorhombic'
loop_
_space_group_symop_operation_xyz
x,y,z
-x,-y,z
x,-y,-z
-x,y,-z
-x,-y,-z
x,y,-z
-x,y,z
x,-y,z
loop_
_atom_site_type_symbol
_atom_site_label
_atom_site_fract_x
_atom_site_fract_y
_atom_site_fract_z
Si Si1 0.315710 0.115096 0.211400
Si Si2 0.684773 0.000000 0.290400
Si Si3 0.000000 0.500000 0.000000
Si Si4 0.180639 0.227228 0.785600
Si Si5 0.000000 0.401368 0.719505
Si Si6 0.675648 0.338060 0.708819
O O1 0.500000 0.113510 0.282451
O O2 0.238804 0.056870 0.241944
O O3 0.229113 0.168249 0.278441
O O4 0.325302 0.121052 0.000000
O O5 0.500000 0.000000 0.212456
O O6 0.671799 0.000000 0.500000
O O7 0.000000 0.453576 0.158606
O O8 0.298637 0.274792 0.732990
O O9 0.000000 0.240527 0.722902
O O10 0.178769 0.225972 0.000000
O O11 0.162390 0.368127 0.769581
O O12 0.000000 0.409440 0.500000
O O13 0.669023 0.348896 0.500000
O O14 0.500000 0.353826 0.785663
#
# Coordination Sequence:
#
# PCOD9385568 Si02
#       6
#     8   4   1   8   4   8
#     4   9  17  30  47  69  98 137 183 235 298 363
#     4   9  17  29  46  67  92 128 180 241 296 356
#     4  12  26  44  78 102 132 182 222 250 310 362
#     4  10  20  33  53  82 116 149 192 247 305 367
#     4  10  23  45  67  98 139 172 213 264 305 357
#     4  10  21  38  62  90 124 167 206 250 311 365
#
# _framework density 21.172142000000001
#
# number of rings (size 3 to 8) (size 9 to 14) (size 15 to 20)
#    0.000    2.303    1.212    1.273    1.697    3.879 
#    0.000    4.242    0.000    6.545    0.000    0.000 
#    0.000    0.000    0.000    0.000    0.000    0.000 
#
# Total GULP energy -183736.871996 kJ/mol
# GULP energy per Si atom -5567.784000 kJ/mol
# Density = 2.112395 g / cm^3
# Si number density = 21.172142 Si / 1000 Ang^3
#
#
#
# Elastic Constant Matrix: (Units=GPa)
#
#
# Indices 1 2 3 4 5 6 
#
# 1 131.1418 66.1948 14.7199 0.0000 0.0000 0.0000
# 2 66.1948 158.2060 14.0349 0.0000 0.0000 0.0000
# 3 14.7199 14.0349 66.0644 0.0000 0.0000 0.0000
# 4 0.0000 0.0000 0.0000 43.6831 0.0000 0.0000
# 5 0.0000 0.0000 0.0000 0.0000 2.9718 0.0000
# 6 0.0000 0.0000 0.0000 0.0000 0.0000 -8.5348
#
#
#
# Elastic Compliance Matrix: (Units=1/GPa)
#
#
# Indices 1 2 3 4 5 6 
#
# 1 0.009781 -0.003974 -0.001335 0.000000 0.000000 0.000000
# 2 -0.003974 0.008057 -0.000826 0.000000 0.000000 0.000000
# 3 -0.001335 -0.000826 0.015610 0.000000 0.000000 0.000000
# 4 0.000000 0.000000 0.000000 0.022892 0.000000 0.000000
# 5 0.000000 0.000000 0.000000 0.000000 0.336499 0.000000
# 6 0.000000 0.000000 0.000000 0.000000 0.000000 -0.117167
#
#
# Mechanical properties :
#
#
# Convention : Reuss Voigt Hill
#
# Bulk Modulus (GPa) = 47.22071 60.59015 53.90543
# Shear Modulus (GPa) = 16.94907 24.98818 20.96862
#
# Velocity S-wave (km/s) = 2.83244 3.43919 3.15046
# Velocity P-wave (km/s) = 5.74879 6.66713 6.22492
#
# Compressibility (1/GPa) = 0.02117715
#
# Stress axis : x y z
#
# Youngs Moduli (GPa) = 102.23762 124.11641 64.06261
#
# Poissons Ratio (x) = 0.49325 0.08553
# Poissons Ratio (y) = 0.40630 0.05293
# Poissons Ratio (z) = 0.13650 0.10254
#
# Static dielectric constant tensor:
#      x y z
#    x 1.806000 0.000000 0.000000 
#    y 0.000000 1.754910 0.000000 
#    z 0.000000 0.000000 1.786990 
# 
# From -- ./inp_files/1335.got.cif
#   From: 2010.05.17/outbox.cif.g08.bks.cpg/sg47_1_cif.got.tgz:1335.got - 2010.06.03 20:15:42.
