data_PCOD9385496
_publ_section_title
;
Structure prediction by ZEFSAII (Michael W. Deem and Ramdas Pophale) SiO2 
 PCOD9385496
Probable space group: P M M M
;
_chemical_formula_sum "Si O2"
_cell_formula_units_Z 52
_cell_length_a 14.975299
_cell_length_b 8.025520
_cell_length_c 21.522078
_cell_angle_alpha 90.000000
_cell_angle_beta 90.000000
_cell_angle_gamma 90.000000
_cell_volume 2586.621510
_symmetry_space_group_name_H-M "P M M M"
_symmetry_group_IT_number 47
_symmetry_cell_setting 'orthorhombic'
loop_
_space_group_symop_operation_xyz
x,y,z
-x,-y,z
x,-y,-z
-x,y,-z
-x,-y,-z
x,y,-z
-x,y,z
x,-y,z
loop_
_atom_site_type_symbol
_atom_site_label
_atom_site_fract_x
_atom_site_fract_y
_atom_site_fract_z
Si Si1 0.100090 0.196255 0.258696
Si Si2 0.286263 0.200956 0.067795
Si Si3 0.098653 0.000000 0.574208
Si Si4 0.600238 0.196905 0.184267
Si Si5 0.770080 0.302618 0.572367
Si Si6 0.708391 0.691102 0.300664
Si Si7 0.098282 0.300821 0.883824
O O1 0.186109 0.287243 0.286186
O O2 0.105598 0.218798 0.184242
O O3 0.000000 0.254612 0.276945
O O4 0.108195 0.000000 0.273305
O O5 0.342010 0.266853 0.126762
O O6 0.182947 0.247507 0.076719
O O7 0.291445 0.000000 0.068574
O O8 0.318219 0.258917 0.000000
O O9 0.151876 0.829972 0.586938
O O10 0.090361 0.000000 0.500000
O O11 0.000000 0.000000 0.601746
O O12 0.500000 0.266801 0.187557
O O13 0.652670 0.213797 0.248962
O O14 0.592710 0.000000 0.172512
O O15 0.743721 0.277571 0.500000
O O16 0.794644 0.500000 0.578428
O O17 0.698217 0.266411 0.626441
O O18 0.683549 0.500000 0.292468
O O19 0.101447 0.500000 0.875242
O O20 0.000000 0.257990 0.909567
#
# Coordination Sequence:
#
# PCOD9385496 Si02
#       7
#     8   8   4   8   8   8   8
#     4  10  20  33  52  79 112 150 190 234 282 333
#     4  10  21  37  58  83 112 149 190 231 278 334
#     4   9  18  32  52  80 115 159 206 247 291 343
#     4  10  22  40  62  87 114 145 184 233 290 352
#     4   9  20  37  55  80 115 156 200 244 293 348
#     4  11  22  36  59  86 114 151 191 236 288 343
#     4  10  20  34  53  79 113 151 190 231 277 330
#
# _framework density 20.103445000000001
#
# number of rings (size 3 to 8) (size 9 to 14) (size 15 to 20)
#    0.000    2.077    1.538    1.385    2.154    4.000 
#    0.000    6.154    0.000    0.462    0.000    5.385 
#    0.000    0.000    0.000    0.000    0.000    0.000 
#
# Total GULP energy -290019.164821 kJ/mol
# GULP energy per Si atom -5577.291631 kJ/mol
# Density = 2.005769 g / cm^3
# Si number density = 20.103445 Si / 1000 Ang^3
#
#
#
# Elastic Constant Matrix: (Units=GPa)
#
#
# Indices 1 2 3 4 5 6 
#
# 1 96.5149 12.5006 62.4176 0.0000 0.0000 0.0000
# 2 12.5006 37.0679 28.3858 0.0000 0.0000 0.0000
# 3 62.4176 28.3858 131.7653 0.0000 0.0000 0.0000
# 4 0.0000 0.0000 0.0000 7.2675 0.0000 0.0000
# 5 0.0000 0.0000 0.0000 0.0000 2.3628 0.0000
# 6 0.0000 0.0000 0.0000 0.0000 0.0000 -8.1829
#
#
#
# Elastic Compliance Matrix: (Units=1/GPa)
#
#
# Indices 1 2 3 4 5 6 
#
# 1 0.014944 0.000457 -0.007177 0.000000 0.000000 0.000000
# 2 0.000457 0.032321 -0.007179 0.000000 0.000000 0.000000
# 3 -0.007177 -0.007179 0.012536 0.000000 0.000000 0.000000
# 4 0.000000 0.000000 0.000000 0.137599 0.000000 0.000000
# 5 0.000000 0.000000 0.000000 0.000000 0.423218 0.000000
# 6 0.000000 0.000000 0.000000 0.000000 0.000000 -0.122207
#
#
# Mechanical properties :
#
#
# Convention : Reuss Voigt Hill
#
# Bulk Modulus (GPa) = 31.24903 52.43958 41.84431
# Shear Modulus (GPa) = 9.31311 11.09243 10.20277
#
# Velocity S-wave (km/s) = 2.15468 2.35152 2.25525
# Velocity P-wave (km/s) = 4.66563 5.78916 5.25749
#
# Compressibility (1/GPa) = 0.03200099
#
# Stress axis : x y z
#
# Youngs Moduli (GPa) = 66.91860 30.93945 79.77225
#
# Poissons Ratio (x) = -0.01413 0.57254
# Poissons Ratio (y) = -0.03056 0.57270
# Poissons Ratio (z) = 0.48029 0.22212
#
# Static dielectric constant tensor:
#      x y z
#    x 1.698080 0.000000 0.000000 
#    y 0.000000 1.712200 0.000000 
#    z 0.000000 0.000000 1.752000 
# 
# From -- ./inp_files/10967.got.cif
#   From: 2010.05.17/outbox.cif.g08.bks.cpg/sg47_6_cif.got.tgz:10967.got - 2010.06.03 20:15:42.
