data_PCOD9385620
_publ_section_title
;
Structure prediction by ZEFSAII (Michael W. Deem and Ramdas Pophale) SiO2 
 PCOD9385620
Probable space group: P M M M
;
_chemical_formula_sum "Si O2"
_cell_formula_units_Z 64
_cell_length_a 15.479898
_cell_length_b 26.003710
_cell_length_c 8.157504
_cell_angle_alpha 90.000000
_cell_angle_beta 90.000000
_cell_angle_gamma 90.000000
_cell_volume 3283.679065
_symmetry_space_group_name_H-M "P M M M"
_symmetry_group_IT_number 47
_symmetry_cell_setting 'orthorhombic'
loop_
_space_group_symop_operation_xyz
x,y,z
-x,-y,z
x,-y,-z
-x,y,-z
-x,-y,-z
x,y,-z
-x,y,z
x,-y,z
loop_
_atom_site_type_symbol
_atom_site_label
_atom_site_fract_x
_atom_site_fract_y
_atom_site_fract_z
Si Si1 0.161365 0.163177 0.809183
Si Si2 0.404321 0.690896 0.802716
Si Si3 0.772617 0.353777 0.305582
Si Si4 0.217794 0.055745 0.303225
Si Si5 0.638091 0.193640 0.806900
Si Si6 0.094305 0.268353 0.198953
Si Si7 0.097727 0.559319 0.299869
Si Si8 0.407616 0.916184 0.693222
O O1 0.162960 0.106087 0.738345
O O2 0.259118 0.184987 0.795180
O O3 0.104226 0.209590 0.741297
O O4 0.140047 0.157642 0.000000
O O5 0.500000 0.674748 0.746667
O O6 0.324402 0.655106 0.755224
O O7 0.386859 0.749767 0.746351
O O8 0.404895 0.693238 0.000000
O O9 0.768386 0.358925 0.500000
O O10 0.829179 0.303733 0.262240
O O11 0.828281 0.402043 0.240100
O O12 0.223571 0.054770 0.500000
O O13 0.316455 0.063439 0.238366
O O14 0.185281 0.000000 0.246857
O O15 0.597191 0.145438 0.714654
O O16 0.614570 0.189845 0.000000
O O17 0.000000 0.288709 0.246569
O O18 0.099809 0.267676 0.000000
O O19 0.097845 0.560766 0.500000
O O20 0.112454 0.500000 0.252219
O O21 0.000000 0.574033 0.248034
O O22 0.407914 0.928770 0.500000
O O23 0.500000 0.934036 0.762749
#
# Coordination Sequence:
#
# PCOD9385620 Si02
#       8
#     8   8   8   8   8   8   8   8
#     4   9  17  31  50  70  93 122 160 202 245 298
#     4  10  20  34  51  70 100 145 188 220 258 310
#     4  11  21  32  52  82 114 141 173 221 266 308
#     4   9  18  31  46  64  87 119 158 199 250 308
#     4   9  16  29  47  64  87 122 164 204 242 290
#     4  10  20  35  55  78 107 141 171 203 254 320
#     4   8  15  30  52  78 109 144 179 214 258 313
#     4   9  17  27  40  61  88 116 149 194 247 299
#
# _framework density 19.490331999999999
#
# number of rings (size 3 to 8) (size 9 to 14) (size 15 to 20)
#    0.000    2.625    1.250    1.500    0.000    3.250 
#    0.000    1.250    0.000    2.250    0.000   13.125 
#    0.000    0.000    0.000    0.000    0.000    0.000 
#
# Total GULP energy -356785.304558 kJ/mol
# GULP energy per Si atom -5574.770384 kJ/mol
# Density = 1.944597 g / cm^3
# Si number density = 19.490332 Si / 1000 Ang^3
#
#
#
# Elastic Constant Matrix: (Units=GPa)
#
#
# Indices 1 2 3 4 5 6 
#
# 1 91.9035 59.4548 12.9441 0.0000 0.0000 0.0000
# 2 59.4548 122.7758 6.8921 0.0000 0.0000 0.0000
# 3 12.9441 6.8921 8.3459 0.0000 0.0000 0.0000
# 4 0.0000 0.0000 0.0000 23.8308 0.0000 0.0000
# 5 0.0000 0.0000 0.0000 0.0000 14.3017 0.0000
# 6 0.0000 0.0000 0.0000 0.0000 0.0000 -3.6832
#
#
#
# Elastic Compliance Matrix: (Units=1/GPa)
#
#
# Indices 1 2 3 4 5 6 
#
# 1 0.019411 -0.008085 -0.023429 0.000000 0.000000 0.000000
# 2 -0.008085 0.011908 0.002705 0.000000 0.000000 0.000000
# 3 -0.023429 0.002705 0.153922 0.000000 0.000000 0.000000
# 4 0.000000 0.000000 0.000000 0.041962 0.000000 0.000000
# 5 0.000000 0.000000 0.000000 0.000000 0.069922 0.000000
# 6 0.000000 0.000000 0.000000 0.000000 0.000000 -0.271500
#
#
# Mechanical properties :
#
#
# Convention : Reuss Voigt Hill
#
# Bulk Modulus (GPa) = 7.83553 42.40080 25.11816
# Shear Modulus (GPa) = 39.75096 16.47215 28.11155
#
# Velocity S-wave (km/s) = 4.52101 2.91029 3.80193
# Velocity P-wave (km/s) = 5.59300 5.75283 5.67348
#
# Compressibility (1/GPa) = 0.12762382
#
# Stress axis : x y z
#
# Youngs Moduli (GPa) = 51.51707 83.97627 6.49681
#
# Poissons Ratio (x) = 0.67892 0.15221
# Poissons Ratio (y) = 0.41650 -0.01758
# Poissons Ratio (z) = 1.20700 -0.22717
#
# Static dielectric constant tensor:
#      x y z
#    x 1.714420 0.000000 0.000000 
#    y 0.000000 1.692960 0.000000 
#    z 0.000000 0.000000 1.701720 
# 
# From -- ./inp_files/7931.got.cif
#   From: 2010.05.17/outbox.cif.g08.bks.cpg/sg47_4_cif.got.tgz:7931.got - 2010.06.03 20:15:42.
