data_PCOD9385232
_publ_section_title
;
Structure prediction by ZEFSAII (Michael W. Deem and Ramdas Pophale) SiO2 
 PCOD9385232
Probable space group: P M M M
;
_chemical_formula_sum "Si O2"
_cell_formula_units_Z 48
_cell_length_a 7.519269
_cell_length_b 32.171080
_cell_length_c 9.310441
_cell_angle_alpha 90.000000
_cell_angle_beta 90.000000
_cell_angle_gamma 90.000000
_cell_volume 2252.223651
_symmetry_space_group_name_H-M "P M M M"
_symmetry_group_IT_number 47
_symmetry_cell_setting 'orthorhombic'
loop_
_space_group_symop_operation_xyz
x,y,z
-x,-y,z
x,-y,-z
-x,y,-z
-x,-y,-z
x,y,-z
-x,y,z
x,-y,z
loop_
_atom_site_type_symbol
_atom_site_label
_atom_site_fract_x
_atom_site_fract_y
_atom_site_fract_z
Si Si1 0.282180 0.500000 0.665790
Si Si2 0.289052 0.000000 0.163511
Si Si3 0.213243 0.334654 0.663212
Si Si4 0.217489 0.746585 0.834542
Si Si5 0.788817 0.909442 0.836114
Si Si6 0.713164 0.581451 0.836683
Si Si7 0.782289 0.170876 0.664983
O O1 0.500000 0.500000 0.665455
O O2 0.225887 0.500000 0.500000
O O3 0.222437 0.458719 0.749161
O O4 0.237741 0.044441 0.227672
O O5 0.500000 0.000000 0.154640
O O6 0.213246 0.000000 0.000000
O O7 0.281574 0.336990 0.500000
O O8 0.278216 0.294061 0.748098
O O9 0.250033 0.376392 0.751162
O O10 0.000000 0.330553 0.654721
O O11 0.272459 0.788743 0.754980
O O12 0.000000 0.746267 0.834895
O O13 0.274480 0.745616 0.000000
O O14 0.720705 0.871483 0.741218
O O15 0.000000 0.903407 0.847272
O O16 0.716458 0.908828 0.000000
O O17 0.500000 0.577305 0.845203
O O18 0.781712 0.583003 0.000000
O O19 0.725329 0.173397 0.500000
O O20 0.000000 0.170634 0.664438
#
# Coordination Sequence:
#
# PCOD9385232 Si02
#       7
#     4   4   8   8   8   8   8
#     4   9  17  31  52  75  98 127 164 206 252 299
#     4   9  17  29  46  67  90 118 152 187 224 270
#     4  10  20  33  50  74 104 136 168 203 245 293
#     4   9  16  27  45  69  97 128 160 195 237 285
#     4   9  16  27  45  68  91 115 147 188 230 270
#     4  10  20  34  53  76 101 130 166 207 249 295
#     4   9  16  26  42  66  94 121 151 190 234 277
#
# _framework density 21.312270000000002
#
# number of rings (size 3 to 8) (size 9 to 14) (size 15 to 20)
#    0.000    2.667    0.000    2.500    0.000    8.000 
#    0.000    0.833    0.000    6.500    0.000    2.333 
#    0.000    0.000    0.000    0.000    0.000    0.000 
#
# Total GULP energy -268053.418277 kJ/mol
# GULP energy per Si atom -5584.446214 kJ/mol
# Density = 2.126376 g / cm^3
# Si number density = 21.312270 Si / 1000 Ang^3
#
#
#
# Elastic Constant Matrix: (Units=GPa)
#
#
# Indices 1 2 3 4 5 6 
#
# 1 55.0678 -0.3356 7.0648 0.0000 0.0000 0.0000
# 2 -0.3356 256.2904 145.8774 0.0000 0.0000 0.0000
# 3 7.0648 145.8774 211.9089 0.0000 0.0000 0.0000
# 4 0.0000 0.0000 0.0000 26.8438 0.0000 0.0000
# 5 0.0000 0.0000 0.0000 0.0000 4.6127 0.0000
# 6 0.0000 0.0000 0.0000 0.0000 0.0000 26.6973
#
#
#
# Elastic Compliance Matrix: (Units=1/GPa)
#
#
# Indices 1 2 3 4 5 6 
#
# 1 0.018295 0.000610 -0.001030 0.000000 0.000000 0.000000
# 2 0.000610 0.006436 -0.004451 0.000000 0.000000 0.000000
# 3 -0.001030 -0.004451 0.007817 0.000000 0.000000 0.000000
# 4 0.000000 0.000000 0.000000 0.037253 0.000000 0.000000
# 5 0.000000 0.000000 0.000000 0.000000 0.216791 0.000000
# 6 0.000000 0.000000 0.000000 0.000000 0.000000 0.037457
#
#
# Mechanical properties :
#
#
# Convention : Reuss Voigt Hill
#
# Bulk Modulus (GPa) = 43.84561 92.05336 67.94948
# Shear Modulus (GPa) = 14.64591 36.34148 25.49369
#
# Velocity S-wave (km/s) = 2.62430 4.13387 3.46236
# Velocity P-wave (km/s) = 5.45896 8.12845 6.92358
#
# Compressibility (1/GPa) = 0.02280730
#
# Stress axis : x y z
#
# Youngs Moduli (GPa) = 54.65884 155.37585 127.92115
#
# Poissons Ratio (x) = -0.09482 0.13176
# Poissons Ratio (y) = -0.03335 0.56936
# Poissons Ratio (z) = 0.05630 0.69156
#
# Static dielectric constant tensor:
#      x y z
#    x 1.829170 0.000000 0.000000 
#    y 0.000000 1.736220 0.000000 
#    z 0.000000 0.000000 1.740890 
# 
# From -- ./inp_files/2624.got.cif
#   From: 2010.05.17/outbox.cif.g08.bks.cpg/sg47_2_cif.got.tgz:2624.got - 2010.06.03 20:15:42.
