data_PCOD9385831
_publ_section_title
;
Structure prediction by ZEFSAII (Michael W. Deem and Ramdas Pophale) SiO2 
 PCOD9385831
Probable space group: P M M M
;
_chemical_formula_sum "Si O2"
_cell_formula_units_Z 56
_cell_length_a 20.231740
_cell_length_b 8.322477
_cell_length_c 17.065012
_cell_angle_alpha 90.000000
_cell_angle_beta 90.000000
_cell_angle_gamma 90.000000
_cell_volume 2873.375847
_symmetry_space_group_name_H-M "P M M M"
_symmetry_group_IT_number 47
_symmetry_cell_setting 'orthorhombic'
loop_
_space_group_symop_operation_xyz
x,y,z
-x,-y,z
x,-y,-z
-x,y,-z
-x,-y,-z
x,y,-z
-x,y,z
x,-y,z
loop_
_atom_site_type_symbol
_atom_site_label
_atom_site_fract_x
_atom_site_fract_y
_atom_site_fract_z
Si Si1 0.079879 0.318490 0.500000
Si Si2 0.426772 0.680558 0.750576
Si Si3 0.207210 0.195921 0.253640
Si Si4 0.074686 0.808272 0.331693
Si Si5 0.741855 0.309125 0.086807
Si Si6 0.404938 0.186969 0.913229
Si Si7 0.671144 0.181858 0.641436
Si Si8 0.578428 0.691049 0.500000
O O1 0.105609 0.500000 0.500000
O O2 0.096939 0.229714 0.579758
O O3 0.000000 0.324989 0.500000
O O4 0.500000 0.698990 0.716404
O O5 0.403066 0.500000 0.732609
O O6 0.430274 0.705723 0.842925
O O7 0.376830 0.808773 0.716498
O O8 0.133520 0.249413 0.276753
O O9 0.222506 0.259567 0.166849
O O10 0.260260 0.248642 0.321207
O O11 0.210763 0.000000 0.252421
O O12 0.000000 0.743248 0.319237
O O13 0.070821 0.000000 0.323205
O O14 0.727242 0.500000 0.090895
O O15 0.673805 0.210985 0.087475
O O16 0.773278 0.280622 0.000000
O O17 0.421376 0.000000 0.900371
O O18 0.427149 0.233594 0.000000
O O19 0.624784 0.260444 0.574400
O O20 0.684301 0.000000 0.615706
O O21 0.572773 0.500000 0.500000
O O22 0.500000 0.751694 0.500000
#
# Coordination Sequence:
#
# PCOD9385831 Si02
#       8
#     4   8   8   8   8   8   8   4
#     4   9  17  30  49  76 110 145 182 221 264 319
#     4  11  23  37  54  77 107 142 180 224 274 330
#     4  10  21  36  57  86 115 145 185 234 282 331
#     4   9  18  34  56  81 113 153 192 230 279 338
#     4  10  20  34  55  82 111 146 186 228 280 340
#     4  10  20  34  53  77 106 140 179 223 271 326
#     4  11  23  39  59  83 109 140 183 233 282 332
#     4  11  25  44  63  82 109 147 190 236 285 337
#
# _framework density 19.489270999999999
#
# number of rings (size 3 to 8) (size 9 to 14) (size 15 to 20)
#    0.000    1.857    1.429    2.571    0.000    8.000 
#    0.000    4.286    0.000    0.429    0.000    3.000 
#    0.000    0.000    0.000    0.000    0.000    0.000 
#
# Total GULP energy -312056.639075 kJ/mol
# GULP energy per Si atom -5572.439983 kJ/mol
# Density = 1.944491 g / cm^3
# Si number density = 19.489271 Si / 1000 Ang^3
#
#
#
# Elastic Constant Matrix: (Units=GPa)
#
#
# Indices 1 2 3 4 5 6 
#
# 1 117.6873 18.9030 67.6668 0.0000 0.0000 0.0000
# 2 18.9030 27.9874 11.2459 0.0000 0.0000 0.0000
# 3 67.6668 11.2459 117.3676 0.0000 0.0000 0.0000
# 4 0.0000 0.0000 0.0000 27.2384 0.0000 0.0000
# 5 0.0000 0.0000 0.0000 0.0000 -254.5030 0.0000
# 6 0.0000 0.0000 0.0000 0.0000 0.0000 9.0444
#
#
#
# Elastic Compliance Matrix: (Units=1/GPa)
#
#
# Indices 1 2 3 4 5 6 
#
# 1 0.013709 -0.006327 -0.007298 0.000000 0.000000 0.000000
# 2 -0.006327 0.040081 -0.000193 0.000000 0.000000 0.000000
# 3 -0.007298 -0.000193 0.012746 0.000000 0.000000 0.000000
# 4 0.000000 0.000000 0.000000 0.036713 0.000000 0.000000
# 5 0.000000 0.000000 0.000000 0.000000 -0.003929 0.000000
# 6 0.000000 0.000000 0.000000 0.000000 0.000000 0.110566
#
#
# Mechanical properties :
#
#
# Convention : Reuss Voigt Hill
#
# Bulk Modulus (GPa) = 25.70585 50.96373 38.33479
# Shear Modulus (GPa) = 19.96101 -32.62892 -6.33396
#
# Velocity S-wave (km/s) = 3.20379 -4.09614 -1.80472
# Velocity P-wave (km/s) = 5.18692 1.95839 3.92042
#
# Compressibility (1/GPa) = 0.03890165
#
# Stress axis : x y z
#
# Youngs Moduli (GPa) = 72.94312 24.94941 78.45541
#
# Poissons Ratio (x) = 0.15786 0.57254
# Poissons Ratio (y) = 0.46151 0.01512
# Poissons Ratio (z) = 0.53232 0.00481
#
# Static dielectric constant tensor:
#      x y z
#    x 1.703950 0.000000 0.000000 
#    y 0.000000 1.681630 0.000000 
#    z 0.000000 0.000000 1.713780 
# 
# From -- ./inp_files/25207.got.cif
#   From: 2010.05.17/outbox.cif.g08.bks.cpg/sg47_13_cif.got.tgz:25207.got - 2010.06.03 20:15:42.
