data_PCOD9385287
_publ_section_title
;
Structure prediction by ZEFSAII (Michael W. Deem and Ramdas Pophale) SiO2 
 PCOD9385287
Probable space group: P M M M
;
_chemical_formula_sum "Si O2"
_cell_formula_units_Z 36
_cell_length_a 26.525489
_cell_length_b 7.993403
_cell_length_c 7.355213
_cell_angle_alpha 90.000000
_cell_angle_beta 90.000000
_cell_angle_gamma 90.000000
_cell_volume 1559.517893
_symmetry_space_group_name_H-M "P M M M"
_symmetry_group_IT_number 47
_symmetry_cell_setting 'orthorhombic'
loop_
_space_group_symop_operation_xyz
x,y,z
-x,-y,z
x,-y,-z
-x,y,-z
-x,-y,-z
x,y,-z
-x,y,z
x,-y,z
loop_
_atom_site_type_symbol
_atom_site_label
_atom_site_fract_x
_atom_site_fract_y
_atom_site_fract_z
Si Si1 0.441774 0.000000 0.277236
Si Si2 0.837275 0.202674 0.782776
Si Si3 0.271852 0.194171 0.219583
Si Si4 0.381695 0.679810 0.286800
Si Si5 0.945741 0.799664 0.220236
O O1 0.411888 0.163017 0.212073
O O2 0.500000 0.000000 0.224618
O O3 0.440166 0.000000 0.500000
O O4 0.782623 0.261043 0.715653
O O5 0.891490 0.265368 0.713262
O O6 0.836788 0.000000 0.758828
O O7 0.837851 0.232808 0.000000
O O8 0.321867 0.290067 0.273565
O O9 0.277111 0.000000 0.277749
O O10 0.270101 0.194087 0.000000
O O11 0.394108 0.674324 0.500000
O O12 0.394533 0.500000 0.206817
O O13 0.000000 0.732355 0.284002
O O14 0.945938 0.000000 0.256892
O O15 0.945530 0.782744 0.000000
#
# Coordination Sequence:
#
# PCOD9385287 Si02
#       5
#     4   8   8   8   8
#     4   9  18  34  55  77 101 127 154 189 232 274
#     4   7  10  16  27  47  75 108 147 185 222 270
#     4   9  16  27  45  67  93 127 162 195 234 280
#     4  10  20  33  51  75 100 126 157 193 232 274
#     4   7   8  10  18  35  64 102 139 176 220 267
#
# _framework density 23.084057999999999
#
# number of rings (size 3 to 8) (size 9 to 14) (size 15 to 20)
#    0.000    3.667    1.111    3.333    0.000    0.889 
#    0.000    2.222    0.000    1.333    0.000    1.556 
#    0.000    1.778    0.000   19.778    0.000   17.778 
#
# Total GULP energy -200648.237353 kJ/mol
# GULP energy per Si atom -5573.562149 kJ/mol
# Density = 2.303152 g / cm^3
# Si number density = 23.084058 Si / 1000 Ang^3
#
#
#
# Elastic Constant Matrix: (Units=GPa)
#
#
# Indices 1 2 3 4 5 6 
#
# 1 213.0196 87.4108 -0.0672 0.0000 0.0000 0.0000
# 2 87.4108 104.8214 9.5214 0.0000 0.0000 0.0000
# 3 -0.0672 9.5214 82.7455 0.0000 0.0000 0.0000
# 4 0.0000 0.0000 0.0000 -6.9429 0.0000 0.0000
# 5 0.0000 0.0000 0.0000 0.0000 11.6201 0.0000
# 6 0.0000 0.0000 0.0000 0.0000 0.0000 -16.5852
#
#
#
# Elastic Compliance Matrix: (Units=1/GPa)
#
#
# Indices 1 2 3 4 5 6 
#
# 1 0.007176 -0.006048 0.000702 0.000000 0.000000 0.000000
# 2 -0.006048 0.014738 -0.001701 0.000000 0.000000 0.000000
# 3 0.000702 -0.001701 0.012282 0.000000 0.000000 0.000000
# 4 0.000000 0.000000 0.000000 -0.144031 0.000000 0.000000
# 5 0.000000 0.000000 0.000000 0.000000 0.086058 0.000000
# 6 0.000000 0.000000 0.000000 0.000000 0.000000 -0.060295
#
#
# Mechanical properties :
#
#
# Convention : Reuss Voigt Hill
#
# Bulk Modulus (GPa) = 49.74713 66.03517 57.89115
# Shear Modulus (GPa) = -79.01812 17.86649 -30.57582
#
# Velocity S-wave (km/s) = -5.85704 2.78506 -3.64337
# Velocity P-wave (km/s) = 4.91352 6.24584 2.72653
#
# Compressibility (1/GPa) = 0.02010166
#
# Stress axis : x y z
#
# Youngs Moduli (GPa) = 139.34447 67.85114 81.42313
#
# Poissons Ratio (x) = 0.41038 -0.05714
# Poissons Ratio (y) = 0.84279 0.13849
# Poissons Ratio (z) = -0.09779 0.11540
#
# Static dielectric constant tensor:
#      x y z
#    x 1.883380 0.000000 0.000000 
#    y 0.000000 1.872050 0.000000 
#    z 0.000000 0.000000 1.953720 
# 
# From -- ./inp_files/19405.got.cif
#   From: 2010.05.17/outbox.cif.g08.bks.cpg/sg47_10_cif.got.tgz:19405.got - 2010.06.03 20:15:42.
