data_PCOD9385435
_publ_section_title
;
Structure prediction by ZEFSAII (Michael W. Deem and Ramdas Pophale) SiO2 
 PCOD9385435
Probable space group: P M M M
;
_chemical_formula_sum "Si O2"
_cell_formula_units_Z 52
_cell_length_a 9.763057
_cell_length_b 17.414063
_cell_length_c 17.665980
_cell_angle_alpha 90.000000
_cell_angle_beta 90.000000
_cell_angle_gamma 90.000000
_cell_volume 3003.472574
_symmetry_space_group_name_H-M "P M M M"
_symmetry_group_IT_number 47
_symmetry_cell_setting 'orthorhombic'
loop_
_space_group_symop_operation_xyz
x,y,z
-x,-y,z
x,-y,-z
-x,y,-z
-x,-y,-z
x,y,-z
-x,y,z
x,-y,z
loop_
_atom_site_type_symbol
_atom_site_label
_atom_site_fract_x
_atom_site_fract_y
_atom_site_fract_z
Si Si1 0.166401 0.500000 0.585419
Si Si2 0.850640 0.908252 0.085764
Si Si3 0.342881 0.163353 0.202933
Si Si4 0.333891 0.410507 0.000000
Si Si5 0.833919 0.089628 0.500000
Si Si6 0.340398 0.656690 0.837210
Si Si7 0.163242 0.640740 0.690470
Si Si8 0.163452 0.817739 0.348107
O O1 0.218288 0.500000 0.500000
O O2 0.205605 0.575760 0.631254
O O3 0.000000 0.500000 0.582341
O O4 0.726422 0.884762 0.137278
O O5 0.000000 0.880634 0.114839
O O6 0.856214 0.000000 0.082988
O O7 0.834978 0.879640 0.000000
O O8 0.500000 0.143666 0.217584
O O9 0.337142 0.251406 0.173844
O O10 0.251478 0.153068 0.277529
O O11 0.293044 0.369819 0.920877
O O12 0.291724 0.500000 0.000000
O O13 0.500000 0.408310 0.000000
O O14 0.795719 0.138083 0.424927
O O15 0.000000 0.087145 0.500000
O O16 0.787337 0.000000 0.500000
O O17 0.500000 0.632112 0.828063
O O18 0.245658 0.628628 0.768334
O O19 0.186351 0.725418 0.654528
O O20 0.000000 0.634648 0.705092
O O21 0.000000 0.829892 0.336998
#
# Coordination Sequence:
#
# PCOD9385435 Si02
#       8
#     4   8   8   4   4   8   8   8
#     4   9  18  30  49  78 105 130 166 211 261 311
#     4   9  19  35  53  74 101 133 169 209 253 300
#     4  10  20  33  52  77 105 135 170 211 257 307
#     4   9  18  32  51  73  96 131 178 216 249 299
#     4   9  18  32  53  80 102 126 167 213 251 293
#     4   9  19  34  52  74 101 135 174 212 253 299
#     4   9  18  32  51  74 102 133 166 207 256 309
#     4   9  18  33  53  74 100 133 170 209 254 306
#
# _framework density 17.313293000000002
#
# number of rings (size 3 to 8) (size 9 to 14) (size 15 to 20)
#    0.000    2.846    0.000    0.923    3.231    1.846 
#    0.000    3.077    0.000    1.846    0.000    0.000 
#    0.000    0.000    0.000    0.000    0.000    0.000 
#
# Total GULP energy -289595.994938 kJ/mol
# GULP energy per Si atom -5569.153749 kJ/mol
# Density = 1.727389 g / cm^3
# Si number density = 17.313293 Si / 1000 Ang^3
#
#
#
# Elastic Constant Matrix: (Units=GPa)
#
#
# Indices 1 2 3 4 5 6 
#
# 1 54.1719 36.4431 59.5189 0.0000 0.0000 0.0000
# 2 36.4431 49.2508 68.7413 0.0000 0.0000 0.0000
# 3 59.5189 68.7413 161.9523 0.0000 0.0000 0.0000
# 4 0.0000 0.0000 0.0000 29.8051 0.0000 0.0000
# 5 0.0000 0.0000 0.0000 0.0000 9.3726 0.0000
# 6 0.0000 0.0000 0.0000 0.0000 0.0000 15.5475
#
#
#
# Elastic Compliance Matrix: (Units=1/GPa)
#
#
# Indices 1 2 3 4 5 6 
#
# 1 0.038356 -0.021363 -0.005029 0.000000 0.000000 0.000000
# 2 -0.021363 0.061716 -0.018344 0.000000 0.000000 0.000000
# 3 -0.005029 -0.018344 0.015809 0.000000 0.000000 0.000000
# 4 0.000000 0.000000 0.000000 0.033551 0.000000 0.000000
# 5 0.000000 0.000000 0.000000 0.000000 0.106694 0.000000
# 6 0.000000 0.000000 0.000000 0.000000 0.000000 0.064319
#
#
# Mechanical properties :
#
#
# Convention : Reuss Voigt Hill
#
# Bulk Modulus (GPa) = 37.86584 66.08685 51.97635
# Shear Modulus (GPa) = 11.94111 17.65649 14.79880
#
# Velocity S-wave (km/s) = 2.62908 3.19693 2.92681
# Velocity P-wave (km/s) = 5.57983 7.20286 6.44266
#
# Compressibility (1/GPa) = 0.02640902
#
# Stress axis : x y z
#
# Youngs Moduli (GPa) = 26.07121 16.20322 63.25465
#
# Poissons Ratio (x) = 0.34615 0.31808
# Poissons Ratio (y) = 0.55697 1.16037
# Poissons Ratio (z) = 0.13110 0.29724
#
# Static dielectric constant tensor:
#      x y z
#    x 1.580740 0.000000 0.000000 
#    y 0.000000 1.596420 0.000000 
#    z 0.000000 0.000000 1.573970 
# 
# From -- ./inp_files/26817.got.cif
#   From: 2010.05.17/outbox.cif.g08.bks.cpg/sg47_14_cif.got.tgz:26817.got - 2010.06.03 20:15:42.
