data_PCOD9385908
_publ_section_title
;
Structure prediction by ZEFSAII (Michael W. Deem and Ramdas Pophale) SiO2 
 PCOD9385908
Probable space group: P M M M
;
_chemical_formula_sum "Si O2"
_cell_formula_units_Z 32
_cell_length_a 8.964386
_cell_length_b 22.627334
_cell_length_c 9.326707
_cell_angle_alpha 90.000000
_cell_angle_beta 90.000000
_cell_angle_gamma 90.000000
_cell_volume 1891.830704
_symmetry_space_group_name_H-M "P M M M"
_symmetry_group_IT_number 47
_symmetry_cell_setting 'orthorhombic'
loop_
_space_group_symop_operation_xyz
x,y,z
-x,-y,z
x,-y,-z
-x,y,-z
-x,-y,-z
x,y,-z
-x,y,z
x,-y,z
loop_
_atom_site_type_symbol
_atom_site_label
_atom_site_fract_x
_atom_site_fract_y
_atom_site_fract_z
Si Si1 0.178160 0.771326 0.332358
Si Si2 0.821594 0.568890 0.000000
Si Si3 0.680179 0.118578 0.832177
Si Si4 0.325933 0.332001 0.838393
Si Si5 0.318445 0.000000 0.334824
O O1 0.215077 0.778276 0.500000
O O2 0.247894 0.824931 0.242850
O O3 0.244365 0.710435 0.271227
O O4 0.000000 0.771147 0.316485
O O5 0.752299 0.604776 0.865453
O O6 0.783007 0.500000 0.000000
O O7 0.000000 0.575101 0.000000
O O8 0.500000 0.123287 0.822218
O O9 0.727028 0.059037 0.749228
O O10 0.718952 0.115160 0.000000
O O11 0.500000 0.338873 0.803904
O O12 0.316783 0.304290 0.000000
O O13 0.500000 0.000000 0.336217
O O14 0.267935 0.000000 0.500000
#
# Coordination Sequence:
#
# PCOD9385908 Si02
#       5
#     8   4   8   8   4
#     4  11  23  36  51  74 105 141 179 222 275 328
#     4   9  17  31  55  85 115 146 177 212 257 307
#     4  10  20  34  54  78 104 134 175 223 271 325
#     4   9  19  33  53  80 107 138 178 219 261 308
#     4   9  17  31  52  77 104 137 174 216 270 327
#
# _framework density 16.914833000000002
#
# number of rings (size 3 to 8) (size 9 to 14) (size 15 to 20)
#    0.750    1.500    0.000    3.375    0.000    9.000 
#    0.000    0.625    0.000    4.500    0.000    5.250 
#    0.000    0.000    0.000    0.000    0.000    0.000 
#
# Total GULP energy -178367.401412 kJ/mol
# GULP energy per Si atom -5573.981294 kJ/mol
# Density = 1.687633 g / cm^3
# Si number density = 16.914833 Si / 1000 Ang^3
#
#
#
# Elastic Constant Matrix: (Units=GPa)
#
#
# Indices 1 2 3 4 5 6 
#
# 1 48.7708 53.4983 57.0204 0.0000 0.0000 0.0000
# 2 53.4983 162.7754 86.5269 0.0000 0.0000 0.0000
# 3 57.0204 86.5269 131.1672 0.0000 0.0000 0.0000
# 4 0.0000 0.0000 0.0000 5.5715 0.0000 0.0000
# 5 0.0000 0.0000 0.0000 0.0000 22.8493 0.0000
# 6 0.0000 0.0000 0.0000 0.0000 0.0000 40.0705
#
#
#
# Elastic Compliance Matrix: (Units=1/GPa)
#
#
# Indices 1 2 3 4 5 6 
#
# 1 0.046304 -0.006958 -0.015539 0.000000 0.000000 0.000000
# 2 -0.006958 0.010507 -0.003906 0.000000 0.000000 0.000000
# 3 -0.015539 -0.003906 0.016956 0.000000 0.000000 0.000000
# 4 0.000000 0.000000 0.000000 0.179486 0.000000 0.000000
# 5 0.000000 0.000000 0.000000 0.000000 0.043765 0.000000
# 6 0.000000 0.000000 0.000000 0.000000 0.000000 0.024956
#
#
# Mechanical properties :
#
#
# Convention : Reuss Voigt Hill
#
# Bulk Modulus (GPa) = 47.71037 81.86718 64.78877
# Shear Modulus (GPa) = 13.09698 23.40944 18.25321
#
# Velocity S-wave (km/s) = 2.78562 3.72420 3.28857
# Velocity P-wave (km/s) = 6.21400 8.18520 7.26675
#
# Compressibility (1/GPa) = 0.02095981
#
# Stress axis : x y z
#
# Youngs Moduli (GPa) = 21.59627 95.17673 58.97777
#
# Poissons Ratio (x) = 0.66228 0.91645
# Poissons Ratio (y) = 0.15028 0.23037
# Poissons Ratio (z) = 0.33558 0.37176
#
# Static dielectric constant tensor:
#      x y z
#    x 1.562970 0.000000 0.000000 
#    y 0.000000 1.550880 0.000000 
#    z 0.000000 0.000000 1.562730 
# 
# From -- ./inp_files/1297.got.cif
#   From: 2010.05.17/outbox.cif.g08.bks.cpg/sg47_1_cif.got.tgz:1297.got - 2010.06.03 20:15:42.
