data_PCOD9385613
_publ_section_title
;
Structure prediction by ZEFSAII (Michael W. Deem and Ramdas Pophale) SiO2 
 PCOD9385613
Probable space group: P M M M
;
_chemical_formula_sum "Si O2"
_cell_formula_units_Z 52
_cell_length_a 14.042435
_cell_length_b 27.268895
_cell_length_c 8.687386
_cell_angle_alpha 90.000000
_cell_angle_beta 90.000000
_cell_angle_gamma 90.000000
_cell_volume 3326.588490
_symmetry_space_group_name_H-M "P M M M"
_symmetry_group_IT_number 47
_symmetry_cell_setting 'orthorhombic'
loop_
_space_group_symop_operation_xyz
x,y,z
-x,-y,z
x,-y,-z
-x,y,-z
-x,-y,-z
x,y,-z
-x,y,z
x,-y,z
loop_
_atom_site_type_symbol
_atom_site_label
_atom_site_fract_x
_atom_site_fract_y
_atom_site_fract_z
Si Si1 0.890084 0.755426 0.184708
Si Si2 0.212150 0.850279 0.317042
Si Si3 0.390168 0.798358 0.815311
Si Si4 0.711258 0.702914 0.316336
Si Si5 0.387947 0.392390 0.186851
Si Si6 0.384454 0.500000 0.821372
Si Si7 0.111636 0.943670 0.814984
O O1 0.856190 0.808683 0.243856
O O2 0.816501 0.716806 0.256860
O O3 0.000000 0.746806 0.225631
O O4 0.880914 0.754473 0.000000
O O5 0.210743 0.844960 0.500000
O O6 0.317005 0.837583 0.254125
O O7 0.175343 0.903246 0.266486
O O8 0.500000 0.807445 0.775765
O O9 0.356403 0.745725 0.751303
O O10 0.380625 0.797739 0.000000
O O11 0.708826 0.704913 0.500000
O O12 0.673906 0.651037 0.256066
O O13 0.500000 0.385338 0.225275
O O14 0.357229 0.446821 0.243169
O O15 0.381864 0.391665 0.000000
O O16 0.500000 0.500000 0.822061
O O17 0.353887 0.500000 0.000000
O O18 0.000000 0.935571 0.777587
O O19 0.135003 0.000000 0.774508
O O20 0.120893 0.938782 0.000000
#
# Coordination Sequence:
#
# PCOD9385613 Si02
#       7
#     8   8   8   8   8   4   8
#     4  10  20  34  51  68  89 120 157 193 226 267
#     4  11  21  31  48  73 100 126 149 183 232 280
#     4  10  20  34  51  68  89 122 162 197 226 263
#     4  11  21  30  44  68  97 125 151 185 231 279
#     4   9  16  28  46  66  91 123 158 193 226 265
#     4   7  12  24  43  65  86 115 156 195 227 260
#     4   9  18  33  52  72  95 125 159 192 225 265
#
# _framework density 15.631629999999999
#
# number of rings (size 3 to 8) (size 9 to 14) (size 15 to 20)
#    0.000    2.231    0.000    7.846    0.000    7.077 
#    0.000    1.154    0.000    1.846    0.000    3.769 
#    0.000    4.308    0.000    0.000    0.000    0.000 
#
# Total GULP energy -290051.549374 kJ/mol
# GULP energy per Si atom -5577.914411 kJ/mol
# Density = 1.559605 g / cm^3
# Si number density = 15.631630 Si / 1000 Ang^3
#
#
#
# Elastic Constant Matrix: (Units=GPa)
#
#
# Indices 1 2 3 4 5 6 
#
# 1 104.9329 73.0072 40.6711 0.0000 0.0000 0.0000
# 2 73.0072 132.5331 42.7285 0.0000 0.0000 0.0000
# 3 40.6711 42.7285 57.9823 0.0000 0.0000 0.0000
# 4 0.0000 0.0000 0.0000 -33.2442 0.0000 0.0000
# 5 0.0000 0.0000 0.0000 0.0000 -41.5511 0.0000
# 6 0.0000 0.0000 0.0000 0.0000 0.0000 21.7696
#
#
#
# Elastic Compliance Matrix: (Units=1/GPa)
#
#
# Indices 1 2 3 4 5 6 
#
# 1 0.017219 -0.007334 -0.006674 0.000000 0.000000 0.000000
# 2 -0.007334 0.013020 -0.004451 0.000000 0.000000 0.000000
# 3 -0.006674 -0.004451 0.025208 0.000000 0.000000 0.000000
# 4 0.000000 0.000000 0.000000 -0.030080 0.000000 0.000000
# 5 0.000000 0.000000 0.000000 0.000000 -0.024067 0.000000
# 6 0.000000 0.000000 0.000000 0.000000 0.000000 0.045936
#
#
# Mechanical properties :
#
#
# Convention : Reuss Voigt Hill
#
# Bulk Modulus (GPa) = 53.96484 67.58464 60.77474
# Shear Modulus (GPa) = 55.35400 -1.33569 27.00915
#
# Velocity S-wave (km/s) = 5.95721 -0.92538 4.16125
# Velocity P-wave (km/s) = 9.05073 6.49522 7.87730
#
# Compressibility (1/GPa) = 0.01853058
#
# Stress axis : x y z
#
# Youngs Moduli (GPa) = 58.07546 76.80511 39.67057
#
# Poissons Ratio (x) = 0.56326 0.26475
# Poissons Ratio (y) = 0.42590 0.17656
# Poissons Ratio (z) = 0.38758 0.34183
#
# Static dielectric constant tensor:
#      x y z
#    x 1.506700 0.000000 0.000000 
#    y 0.000000 1.519090 0.000000 
#    z 0.000000 0.000000 1.519650 
# 
# From -- ./inp_files/7694.got.cif
#   From: 2010.05.17/outbox.cif.g08.bks.cpg/sg47_4_cif.got.tgz:7694.got - 2010.06.03 20:15:42.
