data_PCOD9385012
_publ_section_title
;
Structure prediction by ZEFSAII (Michael W. Deem and Ramdas Pophale) SiO2 
 PCOD9385012
Probable space group: P M M M
;
_chemical_formula_sum "Si O2"
_cell_formula_units_Z 44
_cell_length_a 29.824036
_cell_length_b 7.350058
_cell_length_c 9.315714
_cell_angle_alpha 90.000000
_cell_angle_beta 90.000000
_cell_angle_gamma 90.000000
_cell_volume 2042.082709
_symmetry_space_group_name_H-M "P M M M"
_symmetry_group_IT_number 47
_symmetry_cell_setting 'orthorhombic'
loop_
_space_group_symop_operation_xyz
x,y,z
-x,-y,z
x,-y,-z
-x,y,-z
-x,-y,-z
x,y,-z
-x,y,z
x,-y,z
loop_
_atom_site_type_symbol
_atom_site_label
_atom_site_fract_x
_atom_site_fract_y
_atom_site_fract_z
Si Si1 0.178219 0.782597 0.837415
Si Si2 0.548214 0.219018 0.828073
Si Si3 0.353982 0.778001 0.832778
Si Si4 0.912500 0.282896 0.337235
Si Si5 0.734491 0.222380 0.334876
Si Si6 0.000000 0.277416 0.834479
O O1 0.133376 0.749170 0.747522
O O2 0.222273 0.715788 0.754583
O O3 0.183194 0.000000 0.846860
O O4 0.174715 0.712359 0.000000
O O5 0.500000 0.286736 0.771916
O O6 0.596990 0.282621 0.776921
O O7 0.547768 0.000000 0.809962
O O8 0.548461 0.252364 0.000000
O O9 0.311666 0.719514 0.740020
O O10 0.354438 0.000000 0.831768
O O11 0.348900 0.724901 0.000000
O O12 0.910647 0.211980 0.500000
O O13 0.917938 0.500000 0.346948
O O14 0.955447 0.216229 0.248564
O O15 0.737220 0.279085 0.500000
O O16 0.734590 0.000000 0.333720
O O17 0.000000 0.500000 0.835043
O O18 0.000000 0.220090 0.000000
#
# Coordination Sequence:
#
# PCOD9385012 Si02
#       6
#     8   8   8   8   8   4
#     4  10  20  33  49  69  93 121 154 192 231 269
#     4   7   9  13  22  37  56  79 112 157 205 248
#     4   8  12  18  29  44  62  87 123 166 208 252
#     4  10  20  34  53  76 100 125 153 185 223 268
#     4   9  16  25  37  53  75 104 137 174 217 264
#     4   9  17  31  52  75  98 125 156 188 220 257
#
# _framework density 21.546631000000001
#
# number of rings (size 3 to 8) (size 9 to 14) (size 15 to 20)
#    0.000    3.182    0.000    3.545    0.000    5.455 
#    0.000    0.455    0.000    3.273    0.000    3.818 
#    0.000    0.000    0.000    0.000    0.000    0.909 
#
# Total GULP energy -245534.736550 kJ/mol
# GULP energy per Si atom -5580.334922 kJ/mol
# Density = 2.149759 g / cm^3
# Si number density = 21.546631 Si / 1000 Ang^3
#
#
#
# Elastic Constant Matrix: (Units=GPa)
#
#
# Indices 1 2 3 4 5 6 
#
# 1 277.8229 4.3093 138.1915 0.0000 0.0000 0.0000
# 2 4.3093 79.2340 7.3364 0.0000 0.0000 0.0000
# 3 138.1915 7.3364 179.7804 0.0000 0.0000 0.0000
# 4 0.0000 0.0000 0.0000 -8.0298 0.0000 0.0000
# 5 0.0000 0.0000 0.0000 0.0000 28.8744 0.0000
# 6 0.0000 0.0000 0.0000 0.0000 0.0000 17.8097
#
#
#
# Elastic Compliance Matrix: (Units=1/GPa)
#
#
# Indices 1 2 3 4 5 6 
#
# 1 0.005828 0.000098 -0.004484 0.000000 0.000000 0.000000
# 2 0.000098 0.012670 -0.000593 0.000000 0.000000 0.000000
# 3 -0.004484 -0.000593 0.009033 0.000000 0.000000 0.000000
# 4 0.000000 0.000000 0.000000 -0.124536 0.000000 0.000000
# 5 0.000000 0.000000 0.000000 0.000000 0.034633 0.000000
# 6 0.000000 0.000000 0.000000 0.000000 0.000000 0.056149
#
#
# Mechanical properties :
#
#
# Convention : Reuss Voigt Hill
#
# Bulk Modulus (GPa) = 56.89842 92.94575 74.92208
# Shear Modulus (GPa) = 521.22112 33.53087 277.37599
#
# Velocity S-wave (km/s) = 15.57013 3.94915 11.35836
# Velocity P-wave (km/s) = 18.70035 8.00157 14.38277
#
# Compressibility (1/GPa) = 0.01757518
#
# Stress axis : x y z
#
# Youngs Moduli (GPa) = 171.57708 78.92434 110.70217
#
# Poissons Ratio (x) = -0.00775 0.49639
# Poissons Ratio (y) = -0.01685 0.06559
# Poissons Ratio (z) = 0.76936 0.04677
#
# Static dielectric constant tensor:
#      x y z
#    x 1.770130 0.000000 0.000000 
#    y 0.000000 1.899200 0.000000 
#    z 0.000000 0.000000 1.690140 
# 
# From -- ./inp_files/1989.got.cif
#   From: 2010.05.17/outbox.cif.g08.bks.cpg/sg47_1_cif.got.tgz:1989.got - 2010.06.03 20:15:42.
