data_PCOD9385519
_publ_section_title
;
Structure prediction by ZEFSAII (Michael W. Deem and Ramdas Pophale) SiO2 
 PCOD9385519
Probable space group: P M M M
;
_chemical_formula_sum "Si O2"
_cell_formula_units_Z 48
_cell_length_a 7.664876
_cell_length_b 9.874388
_cell_length_c 30.089537
_cell_angle_alpha 90.000000
_cell_angle_beta 90.000000
_cell_angle_gamma 90.000000
_cell_volume 2277.355482
_symmetry_space_group_name_H-M "P M M M"
_symmetry_group_IT_number 47
_symmetry_cell_setting 'orthorhombic'
loop_
_space_group_symop_operation_xyz
x,y,z
-x,-y,z
x,-y,-z
-x,y,-z
-x,-y,-z
x,y,-z
-x,y,z
x,-y,z
loop_
_atom_site_type_symbol
_atom_site_label
_atom_site_fract_x
_atom_site_fract_y
_atom_site_fract_z
Si Si1 0.287155 0.846422 0.051026
Si Si2 0.795198 0.655261 0.293008
Si Si3 0.791151 0.000000 0.448589
Si Si4 0.285787 0.500000 0.449704
Si Si5 0.209497 0.155811 0.785969
Si Si6 0.705138 0.742344 0.610151
Si Si7 0.710435 0.344579 0.129810
O O1 0.500000 0.845550 0.051449
O O2 0.227437 0.732114 0.085258
O O3 0.234172 0.000000 0.064038
O O4 0.233260 0.823273 0.000000
O O5 0.723658 0.500000 0.294139
O O6 0.720644 0.755903 0.255639
O O7 0.781820 0.726178 0.340960
O O8 0.000000 0.641428 0.282830
O O9 0.732278 0.124962 0.418683
O O10 0.725924 0.000000 0.500000
O O11 0.000000 0.000000 0.450952
O O12 0.500000 0.500000 0.450796
O O13 0.225920 0.500000 0.500000
O O14 0.224231 0.626840 0.421935
O O15 0.245082 0.245995 0.829384
O O16 0.000000 0.145548 0.781209
O O17 0.275443 0.000000 0.788432
O O18 0.500000 0.720438 0.616590
O O19 0.500000 0.351602 0.127578
O O20 0.773973 0.500000 0.134750
#
# Coordination Sequence:
#
# PCOD9385519 Si02
#       7
#     8   8   4   4   8   8   8
#     4   8  14  26  46  73 107 147 188 230 280 337
#     4  10  21  38  59  83 114 149 185 228 280 340
#     4  11  25  43  61  85 119 157 195 235 278 327
#     4   9  18  34  57  85 117 149 181 221 272 329
#     4  10  22  39  59  82 108 146 191 232 280 337
#     4  11  22  38  61  89 119 151 188 232 282 334
#     4  10  20  33  52  81 114 147 185 233 285 335
#
# _framework density 21.077078
#
# number of rings (size 3 to 8) (size 9 to 14) (size 15 to 20)
#    0.000    2.167    0.833    2.750    1.167    4.333 
#    0.000    1.667    0.000    2.500    0.000    3.500 
#    0.000    0.000    0.000    0.000    0.000    0.000 
#
# Total GULP energy -267867.373765 kJ/mol
# GULP energy per Si atom -5580.570287 kJ/mol
# Density = 2.102911 g / cm^3
# Si number density = 21.077078 Si / 1000 Ang^3
#
#
#
# Elastic Constant Matrix: (Units=GPa)
#
#
# Indices 1 2 3 4 5 6 
#
# 1 39.0007 -3.0091 -5.8436 0.0000 0.0000 0.0000
# 2 -3.0091 215.5818 117.7140 0.0000 0.0000 0.0000
# 3 -5.8436 117.7140 176.2798 0.0000 0.0000 0.0000
# 4 0.0000 0.0000 0.0000 41.4783 0.0000 0.0000
# 5 0.0000 0.0000 0.0000 0.0000 9.4907 0.0000
# 6 0.0000 0.0000 0.0000 0.0000 0.0000 -2.7736
#
#
#
# Elastic Compliance Matrix: (Units=1/GPa)
#
#
# Indices 1 2 3 4 5 6 
#
# 1 0.025772 -0.000168 0.000967 0.000000 0.000000 0.000000
# 2 -0.000168 0.007302 -0.004881 0.000000 0.000000 0.000000
# 3 0.000967 -0.004881 0.008964 0.000000 0.000000 0.000000
# 4 0.000000 0.000000 0.000000 0.024109 0.000000 0.000000
# 5 0.000000 0.000000 0.000000 0.000000 0.105366 0.000000
# 6 0.000000 0.000000 0.000000 0.000000 0.000000 -0.360540
#
#
# Mechanical properties :
#
#
# Convention : Reuss Voigt Hill
#
# Bulk Modulus (GPa) = 29.52218 72.06498 50.79358
# Shear Modulus (GPa) = -29.48640 31.10580 0.80970
#
# Velocity S-wave (km/s) = -3.74435 3.84580 0.62048
# Velocity P-wave (km/s) = 2.15786 7.34749 4.96635
#
# Compressibility (1/GPa) = 0.03387284
#
# Stress axis : x y z
#
# Youngs Moduli (GPa) = 38.80113 136.95569 111.55163
#
# Poissons Ratio (x) = 0.02301 -0.10782
# Poissons Ratio (y) = 0.00652 0.54452
# Poissons Ratio (z) = -0.03750 0.66853
#
# Static dielectric constant tensor:
#      x y z
#    x 1.798370 0.000000 0.000000 
#    y 0.000000 0.344620 0.000000 
#    z 0.000000 0.000000 1.739970 
# 
# From -- ./inp_files/34163.got.cif
#   From: 2010.05.17/outbox.cif.g08.bks.cpg/sg47_18_cif.got.tgz:34163.got - 2010.06.03 20:15:42.
