data_PCOD9385265
_publ_section_title
;
Structure prediction by ZEFSAII (Michael W. Deem and Ramdas Pophale) SiO2 
 PCOD9385265
Probable space group: P M M M
;
_chemical_formula_sum "Si O2"
_cell_formula_units_Z 52
_cell_length_a 14.709504
_cell_length_b 7.753466
_cell_length_c 25.726463
_cell_angle_alpha 90.000000
_cell_angle_beta 90.000000
_cell_angle_gamma 90.000000
_cell_volume 2934.093822
_symmetry_space_group_name_H-M "P M M M"
_symmetry_group_IT_number 47
_symmetry_cell_setting 'orthorhombic'
loop_
_space_group_symop_operation_xyz
x,y,z
-x,-y,z
x,-y,-z
-x,y,-z
-x,-y,-z
x,y,-z
-x,y,z
x,-y,z
loop_
_atom_site_type_symbol
_atom_site_label
_atom_site_fract_x
_atom_site_fract_y
_atom_site_fract_z
Si Si1 0.393324 0.194173 0.135175
Si Si2 0.101080 0.710320 0.716441
Si Si3 0.295152 0.203718 0.443709
Si Si4 0.389592 0.500000 0.940804
Si Si5 0.286348 0.702936 0.236083
Si Si6 0.101451 0.708649 0.404586
Si Si7 0.394309 0.209388 0.659975
O O1 0.500000 0.228199 0.147635
O O2 0.363275 0.332652 0.092511
O O3 0.336307 0.210600 0.187852
O O4 0.386796 0.000000 0.114788
O O5 0.102834 0.500000 0.716691
O O6 0.185353 0.770126 0.750777
O O7 0.113265 0.760670 0.655978
O O8 0.000000 0.764546 0.732962
O O9 0.321699 0.277123 0.500000
O O10 0.187176 0.224601 0.435996
O O11 0.345054 0.273471 0.392511
O O12 0.315902 0.000000 0.444770
O O13 0.500000 0.500000 0.056868
O O14 0.356145 0.500000 0.000000
O O15 0.280579 0.500000 0.224036
O O16 0.343796 0.725026 0.288829
O O17 0.103547 0.500000 0.406555
O O18 0.000000 0.763042 0.421377
O O19 0.500000 0.257962 0.660120
O O20 0.389032 0.000000 0.661177
#
# Coordination Sequence:
#
# PCOD9385265 Si02
#       7
#     8   8   8   4   8   8   8
#     4  10  20  33  50  76 112 150 185 222 263 305
#     4   8  15  28  47  71  97 126 160 198 248 309
#     4  10  21  35  49  66  89 117 154 202 252 305
#     4   9  18  34  54  78 111 149 192 232 260 297
#     4  11  19  30  52  76 102 133 166 210 259 308
#     4   9  17  32  52  70  89 115 149 189 239 303
#     4  10  21  35  49  66  89 121 162 205 254 311
#
# _framework density 17.722677999999998
#
# number of rings (size 3 to 8) (size 9 to 14) (size 15 to 20)
#    0.000    2.385    2.308    1.846    0.000    3.692 
#    0.000    4.615    0.000    1.846    0.000    2.154 
#    0.000    1.231    0.000    1.385    0.000    0.154 
#
# Total GULP energy -290161.901528 kJ/mol
# GULP energy per Si atom -5580.036568 kJ/mol
# Density = 1.768234 g / cm^3
# Si number density = 17.722678 Si / 1000 Ang^3
#
#
#
# Elastic Constant Matrix: (Units=GPa)
#
#
# Indices 1 2 3 4 5 6 
#
# 1 81.8932 11.1775 43.8608 0.0000 0.0000 0.0000
# 2 11.1775 47.0170 27.1748 0.0000 0.0000 0.0000
# 3 43.8608 27.1748 118.0756 0.0000 0.0000 0.0000
# 4 0.0000 0.0000 0.0000 15.2411 0.0000 0.0000
# 5 0.0000 0.0000 0.0000 0.0000 18.1108 0.0000
# 6 0.0000 0.0000 0.0000 0.0000 0.0000 13.5138
#
#
#
# Elastic Compliance Matrix: (Units=1/GPa)
#
#
# Indices 1 2 3 4 5 6 
#
# 1 0.015250 -0.000405 -0.005572 0.000000 0.000000 0.000000
# 2 -0.000405 0.024543 -0.005498 0.000000 0.000000 0.000000
# 3 -0.005572 -0.005498 0.011804 0.000000 0.000000 0.000000
# 4 0.000000 0.000000 0.000000 0.065612 0.000000 0.000000
# 5 0.000000 0.000000 0.000000 0.000000 0.055216 0.000000
# 6 0.000000 0.000000 0.000000 0.000000 0.000000 0.073998
#
#
# Mechanical properties :
#
#
# Convention : Reuss Voigt Hill
#
# Bulk Modulus (GPa) = 34.90673 45.71245 40.30959
# Shear Modulus (GPa) = 17.92610 20.35798 19.14204
#
# Velocity S-wave (km/s) = 3.18382 3.39292 3.29003
# Velocity P-wave (km/s) = 5.76667 6.41860 6.10135
#
# Compressibility (1/GPa) = 0.02864777
#
# Stress axis : x y z
#
# Youngs Moduli (GPa) = 65.57167 40.74493 84.71560
#
# Poissons Ratio (x) = 0.01651 0.47201
# Poissons Ratio (y) = 0.02657 0.46576
# Poissons Ratio (z) = 0.36535 0.22401
#
# Static dielectric constant tensor:
#      x y z
#    x 1.608080 0.000000 0.000000 
#    y 0.000000 1.657060 0.000000 
#    z 0.000000 0.000000 1.579630 
# 
# From -- ./inp_files/29897.got.cif
#   From: 2010.05.17/outbox.cif.g08.bks.cpg/sg47_15_cif.got.tgz:29897.got - 2010.06.03 20:15:42.
