data_PCOD9385092
_publ_section_title
;
Structure prediction by ZEFSAII (Michael W. Deem and Ramdas Pophale) SiO2 
 PCOD9385092
Probable space group: P M M M
;
_chemical_formula_sum "Si O2"
_cell_formula_units_Z 49
_cell_length_a 8.028119
_cell_length_b 19.553918
_cell_length_c 17.067369
_cell_angle_alpha 90.000000
_cell_angle_beta 90.000000
_cell_angle_gamma 90.000000
_cell_volume 2679.255736
_symmetry_space_group_name_H-M "P M M M"
_symmetry_group_IT_number 47
_symmetry_cell_setting 'orthorhombic'
loop_
_space_group_symop_operation_xyz
x,y,z
-x,-y,z
x,-y,-z
-x,y,-z
-x,-y,-z
x,y,-z
-x,y,z
x,-y,z
loop_
_atom_site_type_symbol
_atom_site_label
_atom_site_fract_x
_atom_site_fract_y
_atom_site_fract_z
Si Si1 0.701564 0.921495 0.192111
Si Si2 0.500000 0.000000 0.500000
Si Si3 0.304020 0.831279 0.658351
Si Si4 0.800606 0.800048 0.912553
Si Si5 0.812519 0.417289 0.000000
Si Si6 0.196485 0.714824 0.236043
Si Si7 0.811428 0.890842 0.500000
Si Si8 0.696558 0.422189 0.172286
O O1 0.500000 0.920859 0.190988
O O2 0.753483 0.883023 0.272237
O O3 0.763234 0.875810 0.119877
O O4 0.757503 0.000000 0.190354
O O5 0.348234 0.058370 0.500000
O O6 0.500000 0.843787 0.646097
O O7 0.279039 0.755642 0.693057
O O8 0.209148 0.846495 0.578750
O O9 0.736883 0.749530 0.844584
O O10 0.000000 0.791254 0.915907
O O11 0.733812 0.788587 0.000000
O O12 0.728908 0.399821 0.082119
O O13 0.818651 0.500000 0.000000
O O14 0.000000 0.389236 0.000000
O O15 0.225994 0.634453 0.228353
O O16 0.000000 0.728321 0.240476
O O17 0.000000 0.920373 0.500000
O O18 0.500000 0.423748 0.184961
O O19 0.762046 0.500000 0.181193
#
# Coordination Sequence:
#
# PCOD9385092 Si02
#       8
#     8   1   8   8   4   8   4   8
#     4   9  19  33  52  73  99 134 172 220 273 324
#     4  12  26  44  60  98 132 160 186 244 284 338
#     4  10  20  38  60  81 115 149 184 228 284 338
#     4   9  19  34  48  66  95 132 177 226 273 321
#     4   9  17  29  45  67  99 137 176 223 278 335
#     4  10  20  34  54  78 105 142 188 233 279 337
#     4  12  25  41  65  94 124 160 197 233 286 350
#     4  10  20  33  49  74 106 141 182 229 285 346
#
# _framework density 18.288661000000001
#
# number of rings (size 3 to 8) (size 9 to 14) (size 15 to 20)
#    0.000    2.204    0.816    1.837    2.286    4.245 
#    0.000    1.633    0.000    0.000    0.000    0.571 
#    0.000    4.571    0.000    0.000    0.000    0.000 
#
# Total GULP energy -273085.682647 kJ/mol
# GULP energy per Si atom -5573.177197 kJ/mol
# Density = 1.824704 g / cm^3
# Si number density = 18.288661 Si / 1000 Ang^3
#
#
#
# Elastic Constant Matrix: (Units=GPa)
#
#
# Indices 1 2 3 4 5 6 
#
# 1 53.4633 7.0027 19.0556 0.0000 0.0000 0.0000
# 2 7.0027 94.1014 30.0583 0.0000 0.0000 0.0000
# 3 19.0556 30.0583 90.1779 0.0000 0.0000 0.0000
# 4 0.0000 0.0000 0.0000 -34.2603 0.0000 0.0000
# 5 0.0000 0.0000 0.0000 0.0000 19.9165 0.0000
# 6 0.0000 0.0000 0.0000 0.0000 0.0000 21.7293
#
#
#
# Elastic Compliance Matrix: (Units=1/GPa)
#
#
# Indices 1 2 3 4 5 6 
#
# 1 0.020230 -0.000157 -0.004223 0.000000 0.000000 0.000000
# 2 -0.000157 0.011894 -0.003932 0.000000 0.000000 0.000000
# 3 -0.004223 -0.003932 0.013292 0.000000 0.000000 0.000000
# 4 0.000000 0.000000 0.000000 -0.029188 0.000000 0.000000
# 5 0.000000 0.000000 0.000000 0.000000 0.050210 0.000000
# 6 0.000000 0.000000 0.000000 0.000000 0.000000 0.046021
#
#
# Mechanical properties :
#
#
# Convention : Reuss Voigt Hill
#
# Bulk Modulus (GPa) = 34.72866 38.88621 36.80743
# Shear Modulus (GPa) = 36.05468 13.58550 24.82009
#
# Velocity S-wave (km/s) = 4.44489 2.72846 3.68792
# Velocity P-wave (km/s) = 6.73596 5.58879 6.18901
#
# Compressibility (1/GPa) = 0.02879466
#
# Stress axis : x y z
#
# Youngs Moduli (GPa) = 49.43159 84.07378 75.23356
#
# Poissons Ratio (x) = 0.01317 0.31768
# Poissons Ratio (y) = 0.00774 0.29578
# Poissons Ratio (z) = 0.20873 0.33054
#
# Static dielectric constant tensor:
#      x y z
#    x 1.653630 0.000000 0.000000 
#    y 0.000000 1.648520 0.000000 
#    z 0.000000 0.000000 1.615760 
# 
# From -- ./inp_files/21164.got.cif
#   From: 2010.05.17/outbox.cif.g08.bks.cpg/sg47_11_cif.got.tgz:21164.got - 2010.06.03 20:15:42.
