data_PCOD9385956
_publ_section_title
;
Structure prediction by ZEFSAII (Michael W. Deem and Ramdas Pophale) SiO2 
 PCOD9385956
Probable space group: P M M M
;
_chemical_formula_sum "Si O2"
_cell_formula_units_Z 52
_cell_length_a 7.987399
_cell_length_b 20.075351
_cell_length_c 16.246521
_cell_angle_alpha 90.000000
_cell_angle_beta 90.000000
_cell_angle_gamma 90.000000
_cell_volume 2605.127019
_symmetry_space_group_name_H-M "P M M M"
_symmetry_group_IT_number 47
_symmetry_cell_setting 'orthorhombic'
loop_
_space_group_symop_operation_xyz
x,y,z
-x,-y,z
x,-y,-z
-x,y,-z
-x,-y,-z
x,y,-z
-x,y,z
x,-y,z
loop_
_atom_site_type_symbol
_atom_site_label
_atom_site_fract_x
_atom_site_fract_y
_atom_site_fract_z
Si Si1 0.197368 0.574282 0.131866
Si Si2 0.303599 0.719571 0.089550
Si Si3 0.205993 0.076053 0.179228
Si Si4 0.191235 0.918912 0.000000
Si Si5 0.197133 0.792250 0.256149
Si Si6 0.702779 0.426288 0.678082
Si Si7 0.300245 0.294691 0.590614
O O1 0.258829 0.500000 0.107626
O O2 0.281355 0.639600 0.094749
O O3 0.223276 0.579498 0.230370
O O4 0.000000 0.577328 0.113140
O O5 0.500000 0.734778 0.092140
O O6 0.225774 0.751795 0.171174
O O7 0.235754 0.742137 0.000000
O O8 0.267569 0.097657 0.088056
O O9 0.261041 0.132727 0.241734
O O10 0.000000 0.075941 0.175685
O O11 0.256606 0.000000 0.196011
O O12 0.000000 0.893913 0.000000
O O13 0.183032 0.000000 0.000000
O O14 0.269470 0.755944 0.335250
O O15 0.000000 0.795859 0.269158
O O16 0.500000 0.421593 0.686648
O O17 0.741934 0.500000 0.645923
O O18 0.763613 0.366580 0.621114
O O19 0.234492 0.276449 0.500000
O O20 0.500000 0.301075 0.583886
#
# Coordination Sequence:
#
# PCOD9385956 Si02
#       7
#     8   8   8   4   8   8   8
#     4  10  20  34  54  79 107 139 179 231 284 324
#     4  11  24  39  54  75 108 151 193 227 265 322
#     4   8  15  28  48  77 111 143 176 217 267 322
#     4   7  10  20  40  68 103 137 166 201 248 307
#     4  11  22  35  57  85 112 142 178 227 280 326
#     4   9  17  31  53  78 105 139 177 218 268 327
#     4  10  21  37  57  80 109 146 184 224 273 331
#
# _framework density 19.960640000000001
#
# number of rings (size 3 to 8) (size 9 to 14) (size 15 to 20)
#    0.000    2.385    1.538    2.308    1.077    3.077 
#    0.000    3.077    0.000    2.308    0.000    7.538 
#    0.000    0.000    0.000    0.000    0.000    0.000 
#
# Total GULP energy -290129.051776 kJ/mol
# GULP energy per Si atom -5579.404842 kJ/mol
# Density = 1.991521 g / cm^3
# Si number density = 19.960640 Si / 1000 Ang^3
#
#
#
# Elastic Constant Matrix: (Units=GPa)
#
#
# Indices 1 2 3 4 5 6 
#
# 1 16.7455 0.8401 2.7077 0.0000 0.0000 0.0000
# 2 0.8401 118.6351 67.7522 0.0000 0.0000 0.0000
# 3 2.7077 67.7522 134.2936 0.0000 0.0000 0.0000
# 4 0.0000 0.0000 0.0000 7.2893 0.0000 0.0000
# 5 0.0000 0.0000 0.0000 0.0000 53.7099 0.0000
# 6 0.0000 0.0000 0.0000 0.0000 0.0000 -38.7829
#
#
#
# Elastic Compliance Matrix: (Units=1/GPa)
#
#
# Indices 1 2 3 4 5 6 
#
# 1 0.059924 0.000373 -0.001397 0.000000 0.000000 0.000000
# 2 0.000373 0.011843 -0.005982 0.000000 0.000000 0.000000
# 3 -0.001397 -0.005982 0.010493 0.000000 0.000000 0.000000
# 4 0.000000 0.000000 0.000000 0.137187 0.000000 0.000000
# 5 0.000000 0.000000 0.000000 0.000000 0.018619 0.000000
# 6 0.000000 0.000000 0.000000 0.000000 0.000000 -0.025785
#
#
# Mechanical properties :
#
#
# Convention : Reuss Voigt Hill
#
# Bulk Modulus (GPa) = 14.65227 45.80825 30.23026
# Shear Modulus (GPa) = 20.07689 17.66823 18.87256
#
# Velocity S-wave (km/s) = 3.17491 2.97838 3.07822
# Velocity P-wave (km/s) = 4.56033 5.90142 5.27368
#
# Compressibility (1/GPa) = 0.06824880
#
# Stress axis : x y z
#
# Youngs Moduli (GPa) = 16.68767 84.43701 95.30400
#
# Poissons Ratio (x) = -0.03151 0.13309
# Poissons Ratio (y) = -0.00623 0.57016
# Poissons Ratio (z) = 0.02330 0.50514
#
# Static dielectric constant tensor:
#      x y z
#    x 1.713930 0.000000 0.000000 
#    y 0.000000 1.736670 0.000000 
#    z 0.000000 0.000000 1.722490 
# 
# From -- ./inp_files/21454.got.cif
#   From: 2010.05.17/outbox.cif.g08.bks.cpg/sg47_11_cif.got.tgz:21454.got - 2010.06.03 20:15:42.
