data_PCOD9385331
_publ_section_title
;
Structure prediction by ZEFSAII (Michael W. Deem and Ramdas Pophale) SiO2 
 PCOD9385331
Probable space group: P M M M
;
_chemical_formula_sum "Si O2"
_cell_formula_units_Z 52
_cell_length_a 8.990158
_cell_length_b 23.920854
_cell_length_c 14.570131
_cell_angle_alpha 90.000000
_cell_angle_beta 90.000000
_cell_angle_gamma 90.000000
_cell_volume 3133.339556
_symmetry_space_group_name_H-M "P M M M"
_symmetry_group_IT_number 47
_symmetry_cell_setting 'orthorhombic'
loop_
_space_group_symop_operation_xyz
x,y,z
-x,-y,z
x,-y,-z
-x,y,-z
-x,-y,-z
x,y,-z
-x,y,z
x,-y,z
loop_
_atom_site_type_symbol
_atom_site_label
_atom_site_fract_x
_atom_site_fract_y
_atom_site_fract_z
Si Si1 0.678767 0.937304 0.797016
Si Si2 0.321315 0.615247 0.892987
Si Si3 0.823256 0.169501 0.108838
Si Si4 0.321491 0.273248 0.784026
Si Si5 0.177027 0.766864 0.604935
Si Si6 0.322586 0.111372 0.602546
Si Si7 0.828115 0.500000 0.111490
O O1 0.500000 0.932000 0.808591
O O2 0.758665 0.888520 0.852711
O O3 0.710880 0.927789 0.688757
O O4 0.722436 0.000000 0.824486
O O5 0.500000 0.609968 0.890186
O O6 0.278326 0.669289 0.834351
O O7 0.250457 0.557333 0.859297
O O8 0.278713 0.623884 0.000000
O O9 0.744595 0.220619 0.160802
O O10 0.000000 0.171983 0.125509
O O11 0.796559 0.173625 0.000000
O O12 0.500000 0.269033 0.783256
O O13 0.258166 0.269423 0.681534
O O14 0.208568 0.749579 0.500000
O O15 0.236541 0.830345 0.614620
O O16 0.000000 0.766154 0.619110
O O17 0.289458 0.089199 0.500000
O O18 0.500000 0.123070 0.605768
O O19 0.000000 0.500000 0.138184
O O20 0.819568 0.500000 0.000000
#
# Coordination Sequence:
#
# PCOD9385331 Si02
#       7
#     8   8   8   8   8   8   4
#     4  10  21  36  54  76 100 130 169 211 257 310
#     4   9  18  32  50  74 106 143 178 212 252 298
#     4  11  24  39  54  73  99 133 171 213 263 313
#     4  11  21  34  55  81 106 135 173 215 259 306
#     4  10  20  33  51  76 106 137 167 204 254 310
#     4   9  17  31  52  76 101 129 161 200 250 309
#     4   9  17  29  47  73 106 143 180 215 249 290
#
# _framework density 16.595711000000001
#
# number of rings (size 3 to 8) (size 9 to 14) (size 15 to 20)
#    0.000    2.077    1.538    2.077    0.000    5.846 
#    0.000    4.615    0.000    0.000    0.000    3.769 
#    0.000    4.308    0.000    0.000    0.000    0.000 
#
# Total GULP energy -290181.496916 kJ/mol
# GULP energy per Si atom -5580.413402 kJ/mol
# Density = 1.655794 g / cm^3
# Si number density = 16.595711 Si / 1000 Ang^3
#
#
#
# Elastic Constant Matrix: (Units=GPa)
#
#
# Indices 1 2 3 4 5 6 
#
# 1 46.7970 52.6102 47.2831 0.0000 0.0000 0.0000
# 2 52.6102 138.3132 64.5377 0.0000 0.0000 0.0000
# 3 47.2831 64.5377 86.2366 0.0000 0.0000 0.0000
# 4 0.0000 0.0000 0.0000 21.2892 0.0000 0.0000
# 5 0.0000 0.0000 0.0000 0.0000 25.8287 0.0000
# 6 0.0000 0.0000 0.0000 0.0000 0.0000 -24.8089
#
#
#
# Elastic Compliance Matrix: (Units=1/GPa)
#
#
# Indices 1 2 3 4 5 6 
#
# 1 0.056896 -0.010887 -0.023048 0.000000 0.000000 0.000000
# 2 -0.010887 0.013193 -0.003904 0.000000 0.000000 0.000000
# 3 -0.023048 -0.003904 0.027155 0.000000 0.000000 0.000000
# 4 0.000000 0.000000 0.000000 0.046972 0.000000 0.000000
# 5 0.000000 0.000000 0.000000 0.000000 0.038717 0.000000
# 6 0.000000 0.000000 0.000000 0.000000 0.000000 -0.040308
#
#
# Mechanical properties :
#
#
# Convention : Reuss Voigt Hill
#
# Bulk Modulus (GPa) = 46.37076 66.68988 56.53032
# Shear Modulus (GPa) = 22.17393 11.58954 16.88173
#
# Velocity S-wave (km/s) = 3.65927 2.64549 3.19287
# Velocity P-wave (km/s) = 6.77169 7.04299 6.90867
#
# Compressibility (1/GPa) = 0.02156531
#
# Stress axis : x y z
#
# Youngs Moduli (GPa) = 17.57594 75.80011 36.82619
#
# Poissons Ratio (x) = 0.82525 0.84877
# Poissons Ratio (y) = 0.19135 0.14376
# Poissons Ratio (z) = 0.40509 0.29590
#
# Static dielectric constant tensor:
#      x y z
#    x 1.554580 0.000000 0.000000 
#    y 0.000000 1.531560 0.000000 
#    z 0.000000 0.000000 1.568580 
# 
# From -- ./inp_files/21370.got.cif
#   From: 2010.05.17/outbox.cif.g08.bks.cpg/sg47_11_cif.got.tgz:21370.got - 2010.06.03 20:15:42.
