data_PCOD9385966
_publ_section_title
;
Structure prediction by ZEFSAII (Michael W. Deem and Ramdas Pophale) SiO2 
 PCOD9385966
Probable space group: P M M M
;
_chemical_formula_sum "Si O2"
_cell_formula_units_Z 44
_cell_length_a 29.752933
_cell_length_b 9.306983
_cell_length_c 7.591055
_cell_angle_alpha 90.000000
_cell_angle_beta 90.000000
_cell_angle_gamma 90.000000
_cell_volume 2102.039356
_symmetry_space_group_name_H-M "P M M M"
_symmetry_group_IT_number 47
_symmetry_cell_setting 'orthorhombic'
loop_
_space_group_symop_operation_xyz
x,y,z
-x,-y,z
x,-y,-z
-x,y,-z
-x,-y,-z
x,y,-z
-x,y,z
x,-y,z
loop_
_atom_site_type_symbol
_atom_site_label
_atom_site_fract_x
_atom_site_fract_y
_atom_site_fract_z
Si Si1 0.177436 0.165437 0.284375
Si Si2 0.451685 0.832540 0.788215
Si Si3 0.733278 0.665004 0.715703
Si Si4 0.000000 0.837202 0.790284
Si Si5 0.090036 0.337346 0.710274
Si Si6 0.646368 0.836085 0.290503
O O1 0.177024 0.164966 0.500000
O O2 0.222961 0.245455 0.230125
O O3 0.133405 0.251061 0.222916
O O4 0.176609 0.000000 0.227823
O O5 0.500000 0.771144 0.727953
O O6 0.403397 0.771392 0.736572
O O7 0.450876 0.000000 0.729174
O O8 0.452488 0.832725 0.000000
O O9 0.732964 0.664586 0.500000
O O10 0.735922 0.500000 0.772274
O O11 0.687501 0.741363 0.776784
O O12 0.955475 0.750601 0.739179
O O13 0.000000 0.000000 0.718016
O O14 0.000000 0.846806 0.000000
O O15 0.095949 0.348159 0.500000
O O16 0.087064 0.500000 0.780222
O O17 0.652576 0.847195 0.500000
O O18 0.647348 0.000000 0.218750
#
# Coordination Sequence:
#
# PCOD9385966 Si02
#       6
#     8   8   8   4   8   8
#     4   9  16  27  46  72 100 128 158 195 238 281
#     4   8  14  25  41  61  85 113 145 182 225 271
#     4   9  16  26  41  63  93 125 153 184 227 278
#     4  11  24  39  54  74 102 137 174 209 248 294
#     4  10  20  34  54  80 106 132 166 207 249 293
#     4   9  16  25  40  64  90 114 144 184 226 267
#
# _framework density 20.932053
#
# number of rings (size 3 to 8) (size 9 to 14) (size 15 to 20)
#    0.000    2.818    0.000    2.727    0.000    7.636 
#    0.000    1.818    0.000    2.182    0.000    6.364 
#    0.000    0.000    0.000    0.000    0.000    0.000 
#
# Total GULP energy -245479.827567 kJ/mol
# GULP energy per Si atom -5579.086990 kJ/mol
# Density = 2.088441 g / cm^3
# Si number density = 20.932053 Si / 1000 Ang^3
#
#
#
# Elastic Constant Matrix: (Units=GPa)
#
#
# Indices 1 2 3 4 5 6 
#
# 1 254.6240 127.7399 0.5947 0.0000 0.0000 0.0000
# 2 127.7399 169.5077 6.6866 0.0000 0.0000 0.0000
# 3 0.5947 6.6866 43.1667 0.0000 0.0000 0.0000
# 4 0.0000 0.0000 0.0000 -0.3027 0.0000 0.0000
# 5 0.0000 0.0000 0.0000 0.0000 93.4134 0.0000
# 6 0.0000 0.0000 0.0000 0.0000 0.0000 -15.0344
#
#
#
# Elastic Compliance Matrix: (Units=1/GPa)
#
#
# Indices 1 2 3 4 5 6 
#
# 1 0.006333 -0.004798 0.000656 0.000000 0.000000 0.000000
# 2 -0.004798 0.009571 -0.001417 0.000000 0.000000 0.000000
# 3 0.000656 -0.001417 0.023376 0.000000 0.000000 0.000000
# 4 0.000000 0.000000 0.000000 -3.303970 0.000000 0.000000
# 5 0.000000 0.000000 0.000000 0.000000 0.010705 0.000000
# 6 0.000000 0.000000 0.000000 0.000000 0.000000 -0.066514
#
#
# Mechanical properties :
#
#
# Convention : Reuss Voigt Hill
#
# Bulk Modulus (GPa) = 35.50760 81.92678 58.71719
# Shear Modulus (GPa) = -1.51516 37.76708 18.12596
#
# Velocity S-wave (km/s) = -0.85171 4.25228 2.94588
# Velocity P-wave (km/s) = 4.00411 7.95824 6.29946
#
# Compressibility (1/GPa) = 0.02816298
#
# Stress axis : x y z
#
# Youngs Moduli (GPa) = 157.89968 104.47761 42.77825
#
# Poissons Ratio (x) = 0.50133 -0.02806
# Poissons Ratio (y) = 0.75768 0.06060
# Poissons Ratio (z) = -0.10359 0.14800
#
# Static dielectric constant tensor:
#      x y z
#    x 1.750930 0.000000 0.000000 
#    y 0.000000 1.722990 0.000000 
#    z 0.000000 0.000000 1.785700 
# 
# From -- ./inp_files/13624.got.cif
#   From: 2010.05.17/outbox.cif.g08.bks.cpg/sg47_7_cif.got.tgz:13624.got - 2010.06.03 20:15:42.
