data_PCOD9385522
_publ_section_title
;
Structure prediction by ZEFSAII (Michael W. Deem and Ramdas Pophale) SiO2 
 PCOD9385522
Probable space group: P M M M
;
_chemical_formula_sum "Si O2"
_cell_formula_units_Z 52
_cell_length_a 10.932867
_cell_length_b 30.189361
_cell_length_c 8.948953
_cell_angle_alpha 90.000000
_cell_angle_beta 90.000000
_cell_angle_gamma 90.000000
_cell_volume 2953.658035
_symmetry_space_group_name_H-M "P M M M"
_symmetry_group_IT_number 47
_symmetry_cell_setting 'orthorhombic'
loop_
_space_group_symop_operation_xyz
x,y,z
-x,-y,z
x,-y,-z
-x,y,-z
-x,-y,-z
x,y,-z
-x,y,z
x,-y,z
loop_
_atom_site_type_symbol
_atom_site_label
_atom_site_fract_x
_atom_site_fract_y
_atom_site_fract_z
Si Si1 0.206745 0.887390 0.826219
Si Si2 0.145678 0.202590 0.672472
Si Si3 0.644515 0.049365 0.332019
Si Si4 0.355476 0.358649 0.678477
Si Si5 0.142607 0.298123 0.820444
Si Si6 0.000000 0.948162 0.679150
Si Si7 0.647801 0.549103 0.827786
O O1 0.205656 0.839430 0.751228
O O2 0.329169 0.913799 0.790188
O O3 0.112631 0.920579 0.745146
O O4 0.178184 0.883449 0.000000
O O5 0.184581 0.207029 0.500000
O O6 0.163599 0.248435 0.759514
O O7 0.000000 0.193559 0.673638
O O8 0.689758 0.061412 0.500000
O O9 0.500000 0.045455 0.343071
O O10 0.693848 0.000000 0.296781
O O11 0.350385 0.353689 0.500000
O O12 0.500000 0.350526 0.723397
O O13 0.251635 0.328048 0.753417
O O14 0.322948 0.409007 0.726122
O O15 0.000000 0.310228 0.778775
O O16 0.149001 0.299108 0.000000
O O17 0.000000 0.946088 0.500000
O O18 0.000000 0.000000 0.722667
O O19 0.500000 0.547230 0.830047
O O20 0.690814 0.500000 0.780091
O O21 0.687414 0.556536 0.000000
#
# Coordination Sequence:
#
# PCOD9385522 Si02
#       7
#     8   8   8   8   8   4   8
#     4  12  23  34  53  80 109 134 163 209 259 306
#     4  10  20  36  58  79 103 137 175 213 259 317
#     4   9  19  37  58  76  98 134 176 211 247 301
#     4  10  20  33  52  81 115 149 186 229 278 331
#     4  10  21  37  58  82 108 140 183 231 279 331
#     4  11  23  37  53  75 105 139 171 203 246 303
#     4   8  14  26  46  73 106 145 187 229 276 330
#
# _framework density 17.605287000000001
#
# number of rings (size 3 to 8) (size 9 to 14) (size 15 to 20)
#    0.000    2.077    0.769    4.385    0.000    5.846 
#    0.000    3.077    0.000    5.077    0.000    3.231 
#    0.000    0.000    0.000    0.000    0.000    0.000 
#
# Total GULP energy -289727.347408 kJ/mol
# GULP energy per Si atom -5571.679758 kJ/mol
# Density = 1.756522 g / cm^3
# Si number density = 17.605287 Si / 1000 Ang^3
#
#
#
# Elastic Constant Matrix: (Units=GPa)
#
#
# Indices 1 2 3 4 5 6 
#
# 1 68.5219 52.4333 36.9644 0.0000 0.0000 0.0000
# 2 52.4333 122.9003 57.0225 0.0000 0.0000 0.0000
# 3 36.9644 57.0225 88.3494 0.0000 0.0000 0.0000
# 4 0.0000 0.0000 0.0000 32.3746 0.0000 0.0000
# 5 0.0000 0.0000 0.0000 0.0000 21.3035 0.0000
# 6 0.0000 0.0000 0.0000 0.0000 0.0000 62.2664
#
#
#
# Elastic Compliance Matrix: (Units=1/GPa)
#
#
# Indices 1 2 3 4 5 6 
#
# 1 0.022950 -0.007617 -0.004686 0.000000 0.000000 0.000000
# 2 -0.007617 0.014143 -0.005941 0.000000 0.000000 0.000000
# 3 -0.004686 -0.005941 0.017114 0.000000 0.000000 0.000000
# 4 0.000000 0.000000 0.000000 0.030888 0.000000 0.000000
# 5 0.000000 0.000000 0.000000 0.000000 0.046941 0.000000
# 6 0.000000 0.000000 0.000000 0.000000 0.000000 0.016060
#
#
# Mechanical properties :
#
#
# Convention : Reuss Voigt Hill
#
# Bulk Modulus (GPa) = 56.43803 63.62354 60.03079
# Shear Modulus (GPa) = 26.24791 32.07898 29.16345
#
# Velocity S-wave (km/s) = 3.86542 4.27326 4.07445
# Velocity P-wave (km/s) = 7.21450 7.78235 7.50380
#
# Compressibility (1/GPa) = 0.01771855
#
# Stress axis : x y z
#
# Youngs Moduli (GPa) = 43.57205 70.70621 58.43250
#
# Poissons Ratio (x) = 0.53859 0.27381
# Poissons Ratio (y) = 0.33190 0.34716
# Poissons Ratio (z) = 0.20417 0.42008
#
# Static dielectric constant tensor:
#      x y z
#    x 1.728940 0.000000 0.000000 
#    y 0.000000 1.589840 0.000000 
#    z 0.000000 0.000000 1.606040 
# 
# From -- ./inp_files/4564.got.cif
#   From: 2010.05.17/outbox.cif.g08.bks.cpg/sg47_3_cif.got.tgz:4564.got - 2010.06.03 20:15:42.
