data_PCOD9385885
_publ_section_title
;
Structure prediction by ZEFSAII (Michael W. Deem and Ramdas Pophale) SiO2 
 PCOD9385885
Probable space group: P M M M
;
_chemical_formula_sum "Si O2"
_cell_formula_units_Z 44
_cell_length_a 7.434257
_cell_length_b 9.556719
_cell_length_c 33.431645
_cell_angle_alpha 90.000000
_cell_angle_beta 90.000000
_cell_angle_gamma 90.000000
_cell_volume 2375.221597
_symmetry_space_group_name_H-M "P M M M"
_symmetry_group_IT_number 47
_symmetry_cell_setting 'orthorhombic'
loop_
_space_group_symop_operation_xyz
x,y,z
-x,-y,z
x,-y,-z
-x,y,-z
-x,-y,-z
x,y,-z
-x,y,z
x,-y,z
loop_
_atom_site_type_symbol
_atom_site_label
_atom_site_fract_x
_atom_site_fract_y
_atom_site_fract_z
Si Si1 0.218876 0.837702 0.955724
Si Si2 0.794994 0.829913 0.335226
Si Si3 0.219574 0.838673 0.576389
Si Si4 0.219872 0.339305 0.500000
Si Si5 0.211465 0.666108 0.121550
Si Si6 0.500000 0.332450 0.811855
Si Si7 0.500000 0.830823 0.270894
O O1 0.275993 0.747156 0.917928
O O2 0.000000 0.833601 0.955904
O O3 0.271119 0.000000 0.951125
O O4 0.277308 0.789664 0.000000
O O5 0.726499 0.788081 0.379335
O O6 0.670459 0.790966 0.298349
O O7 0.000000 0.781981 0.330041
O O8 0.796818 0.000000 0.336792
O O9 0.277433 0.742629 0.539795
O O10 0.000000 0.839842 0.577016
O O11 0.276150 0.000000 0.570538
O O12 0.276849 0.500000 0.500000
O O13 0.000000 0.337613 0.500000
O O14 0.230202 0.500000 0.114633
O O15 0.328208 0.701488 0.160342
O O16 0.000000 0.696673 0.127789
O O17 0.500000 0.500000 0.804215
O O18 0.500000 0.246768 0.771117
O O19 0.500000 0.000000 0.265632
#
# Coordination Sequence:
#
# PCOD9385885 Si02
#       7
#     8   8   8   4   8   4   4
#     4   8  14  26  46  73 103 131 159 195 238 279
#     4   8  15  29  49  73  98 121 151 195 239 278
#     4   8  13  23  40  60  85 120 155 183 219 270
#     4   9  15  21  33  60  95 122 149 189 226 259
#     4   9  18  33  52  71  94 129 167 198 231 275
#     4  10  22  38  51  69  99 126 154 198 245 287
#     4  10  20  34  54  76  94 118 155 197 242 291
#
# _framework density 18.524585999999999
#
# number of rings (size 3 to 8) (size 9 to 14) (size 15 to 20)
#    0.000    3.364    0.000    1.909    0.000    2.909 
#    0.000    3.182    0.000    4.364    0.000    3.818 
#    0.000    0.000    0.000    0.000    0.000    0.000 
#
# Total GULP energy -245300.891418 kJ/mol
# GULP energy per Si atom -5575.020259 kJ/mol
# Density = 1.848242 g / cm^3
# Si number density = 18.524586 Si / 1000 Ang^3
#
#
#
# Elastic Constant Matrix: (Units=GPa)
#
#
# Indices 1 2 3 4 5 6 
#
# 1 80.2048 30.7578 67.8064 0.0000 0.0000 0.0000
# 2 30.7578 57.9643 89.7167 0.0000 0.0000 0.0000
# 3 67.8064 89.7167 232.0999 0.0000 0.0000 0.0000
# 4 0.0000 0.0000 0.0000 -22.9375 0.0000 0.0000
# 5 0.0000 0.0000 0.0000 0.0000 41.7005 0.0000
# 6 0.0000 0.0000 0.0000 0.0000 0.0000 4.7087
#
#
#
# Elastic Compliance Matrix: (Units=1/GPa)
#
#
# Indices 1 2 3 4 5 6 
#
# 1 0.016805 -0.003282 -0.003641 0.000000 0.000000 0.000000
# 2 -0.003282 0.043587 -0.015890 0.000000 0.000000 0.000000
# 3 -0.003641 -0.015890 0.011514 0.000000 0.000000 0.000000
# 4 0.000000 0.000000 0.000000 -0.043597 0.000000 0.000000
# 5 0.000000 0.000000 0.000000 0.000000 0.023981 0.000000
# 6 0.000000 0.000000 0.000000 0.000000 0.000000 0.212371
#
#
# Mechanical properties :
#
#
# Convention : Reuss Voigt Hill
#
# Bulk Modulus (GPa) = 38.04973 82.98121 60.51547
# Shear Modulus (GPa) = 15.67174 16.82689 16.24932
#
# Velocity S-wave (km/s) = 2.91176 3.01716 2.96493
# Velocity P-wave (km/s) = 5.64705 7.55183 6.66781
#
# Compressibility (1/GPa) = 0.02628140
#
# Stress axis : x y z
#
# Youngs Moduli (GPa) = 59.50746 22.94251 86.85008
#
# Poissons Ratio (x) = 0.07530 0.31620
# Poissons Ratio (y) = 0.19530 1.38001
# Poissons Ratio (z) = 0.21665 0.36455
#
# Static dielectric constant tensor:
#      x y z
#    x 1.705050 0.000000 0.000000 
#    y 0.000000 1.607530 0.000000 
#    z 0.000000 0.000000 1.614890 
# 
# From -- ./inp_files/33984.got.cif
#   From: 2010.05.17/outbox.cif.g08.bks.cpg/sg47_17_cif.got.tgz:33984.got - 2010.06.03 20:15:42.
