data_PCOD9385125
_publ_section_title
;
Structure prediction by ZEFSAII (Michael W. Deem and Ramdas Pophale) SiO2 
 PCOD9385125
Probable space group: P M M M
;
_chemical_formula_sum "Si O2"
_cell_formula_units_Z 52
_cell_length_a 8.541769
_cell_length_b 16.786963
_cell_length_c 21.061799
_cell_angle_alpha 90.000000
_cell_angle_beta 90.000000
_cell_angle_gamma 90.000000
_cell_volume 3020.058944
_symmetry_space_group_name_H-M "P M M M"
_symmetry_group_IT_number 47
_symmetry_cell_setting 'orthorhombic'
loop_
_space_group_symop_operation_xyz
x,y,z
-x,-y,z
x,-y,-z
-x,y,-z
-x,-y,-z
x,y,-z
-x,y,z
x,-y,z
loop_
_atom_site_type_symbol
_atom_site_label
_atom_site_fract_x
_atom_site_fract_y
_atom_site_fract_z
Si Si1 0.817370 0.000000 0.782734
Si Si2 0.188239 0.905299 0.000000
Si Si3 0.316893 0.000000 0.356473
Si Si4 0.685092 0.142930 0.134855
Si Si5 0.186781 0.255027 0.234066
Si Si6 0.186894 0.828447 0.366584
Si Si7 0.689591 0.409133 0.699860
Si Si8 0.311435 0.327704 0.429850
O O1 0.776882 0.075875 0.825259
O O2 0.716742 0.000000 0.719054
O O3 0.000000 0.000000 0.764538
O O4 0.257024 0.864989 0.062960
O O5 0.000000 0.899840 0.000000
O O6 0.228987 0.000000 0.000000
O O7 0.243666 0.917396 0.380561
O O8 0.500000 0.000000 0.369137
O O9 0.500000 0.127944 0.138039
O O10 0.727952 0.223939 0.171308
O O11 0.231998 0.198913 0.294623
O O12 0.236087 0.343571 0.254200
O O13 0.000000 0.249271 0.226282
O O14 0.257374 0.761288 0.412201
O O15 0.000000 0.825406 0.369864
O O16 0.500000 0.402863 0.703245
O O17 0.733591 0.500000 0.713326
O O18 0.738397 0.384107 0.628250
O O19 0.255105 0.350575 0.500000
O O20 0.500000 0.329094 0.430504
#
# Coordination Sequence:
#
# PCOD9385125 Si02
#       8
#     4   4   4   8   8   8   8   8
#     4  12  22  33  49  73 105 140 178 218 265 313
#     4  11  23  37  53  73 109 152 187 226 266 308
#     4  12  22  32  50  74  98 130 173 223 268 310
#     4  12  23  35  53  77 106 143 186 225 263 309
#     4  10  20  34  53  75 104 138 173 216 266 319
#     4  10  20  33  50  71  99 132 171 218 264 312
#     4   9  18  33  54  81 110 136 168 212 262 318
#     4   9  18  33  52  74 103 137 172 210 257 316
#
# _framework density 17.218207
#
# number of rings (size 3 to 8) (size 9 to 14) (size 15 to 20)
#    0.000    1.615    2.308    3.923    0.000    2.462 
#    0.000    1.923    0.000    2.308    0.000    4.846 
#    0.000    4.308    0.000    0.000    0.000    0.000 
#
# Total GULP energy -290396.106420 kJ/mol
# GULP energy per Si atom -5584.540508 kJ/mol
# Density = 1.717902 g / cm^3
# Si number density = 17.218207 Si / 1000 Ang^3
#
#
#
# Elastic Constant Matrix: (Units=GPa)
#
#
# Indices 1 2 3 4 5 6 
#
# 1 29.1191 10.7572 9.8187 0.0000 0.0000 0.0000
# 2 10.7572 98.8886 21.6590 0.0000 0.0000 0.0000
# 3 9.8187 21.6590 69.9748 0.0000 0.0000 0.0000
# 4 0.0000 0.0000 0.0000 10.6337 0.0000 0.0000
# 5 0.0000 0.0000 0.0000 0.0000 18.5818 0.0000
# 6 0.0000 0.0000 0.0000 0.0000 0.0000 3.2972
#
#
#
# Elastic Compliance Matrix: (Units=1/GPa)
#
#
# Indices 1 2 3 4 5 6 
#
# 1 0.036907 -0.003090 -0.004222 0.000000 0.000000 0.000000
# 2 -0.003090 0.011107 -0.003004 0.000000 0.000000 0.000000
# 3 -0.004222 -0.003004 0.015813 0.000000 0.000000 0.000000
# 4 0.000000 0.000000 0.000000 0.094041 0.000000 0.000000
# 5 0.000000 0.000000 0.000000 0.000000 0.053816 0.000000
# 6 0.000000 0.000000 0.000000 0.000000 0.000000 0.303284
#
#
# Mechanical properties :
#
#
# Convention : Reuss Voigt Hill
#
# Bulk Modulus (GPa) = 23.15146 31.38357 27.26751
# Shear Modulus (GPa) = 9.09093 16.88571 12.98832
#
# Velocity S-wave (km/s) = 2.30028 3.13499 2.74950
# Velocity P-wave (km/s) = 4.53102 5.60096 5.09416
#
# Compressibility (1/GPa) = 0.04319382
#
# Stress axis : x y z
#
# Youngs Moduli (GPa) = 27.09518 90.03735 63.23836
#
# Poissons Ratio (x) = 0.27821 0.26701
# Poissons Ratio (y) = 0.08372 0.18998
# Poissons Ratio (z) = 0.11440 0.27049
#
# Static dielectric constant tensor:
#      x y z
#    x 1.576460 0.000000 0.000000 
#    y 0.000000 1.581170 0.000000 
#    z 0.000000 0.000000 1.582780 
# 
# From -- ./inp_files/29638.got.cif
#   From: 2010.05.17/outbox.cif.g08.bks.cpg/sg47_15_cif.got.tgz:29638.got - 2010.06.03 20:15:42.
