data_PCOD9385316
_publ_section_title
;
Structure prediction by ZEFSAII (Michael W. Deem and Ramdas Pophale) SiO2 
 PCOD9385316
Probable space group: P M M M
;
_chemical_formula_sum "Si O2"
_cell_formula_units_Z 48
_cell_length_a 9.380736
_cell_length_b 7.995634
_cell_length_c 32.012317
_cell_angle_alpha 90.000000
_cell_angle_beta 90.000000
_cell_angle_gamma 90.000000
_cell_volume 2401.081650
_symmetry_space_group_name_H-M "P M M M"
_symmetry_group_IT_number 47
_symmetry_cell_setting 'orthorhombic'
loop_
_space_group_symop_operation_xyz
x,y,z
-x,-y,z
x,-y,-z
-x,y,-z
-x,-y,-z
x,y,-z
-x,y,z
x,-y,z
loop_
_atom_site_type_symbol
_atom_site_label
_atom_site_fract_x
_atom_site_fract_y
_atom_site_fract_z
Si Si1 0.838282 0.298638 0.745462
Si Si2 0.662723 0.800427 0.500000
Si Si3 0.665150 0.296067 0.918884
Si Si4 0.662253 0.199453 0.336019
Si Si5 0.837378 0.300456 0.582068
Si Si6 0.665395 0.295774 0.174313
Si Si7 0.163605 0.705031 0.000000
O O1 0.845157 0.500000 0.748528
O O2 0.742868 0.258466 0.705423
O O3 0.763356 0.236356 0.787856
O O4 0.000000 0.235669 0.740743
O O5 0.500000 0.733658 0.500000
O O6 0.749256 0.748662 0.458928
O O7 0.653855 0.000000 0.500000
O O8 0.500000 0.248211 0.924443
O O9 0.669160 0.500000 0.919016
O O10 0.710923 0.242908 0.872324
O O11 0.757740 0.238365 0.957892
O O12 0.500000 0.266131 0.338242
O O13 0.752789 0.245999 0.376758
O O14 0.654279 0.000000 0.334388
O O15 0.846201 0.500000 0.582880
O O16 0.000000 0.233664 0.581184
O O17 0.500000 0.246919 0.180546
O O18 0.667660 0.500000 0.174632
O O19 0.168041 0.500000 0.000000
O O20 0.000000 0.755909 0.000000
#
# Coordination Sequence:
#
# PCOD9385316 Si02
#       7
#     8   4   8   8   8   8   4
#     4  10  20  33  51  76 103 132 168 210 258 313
#     4  11  24  41  62  90 122 155 192 229 266 312
#     4   8  13  21  32  46  68 103 147 191 236 290
#     4  11  24  40  58  81 108 140 179 220 263 313
#     4  11  24  41  62  89 118 148 185 226 268 316
#     4   8  14  25  41  60  83 115 156 201 248 298
#     4   9  15  19  25  41  67 101 142 189 240 291
#
# _framework density 19.99099
#
# number of rings (size 3 to 8) (size 9 to 14) (size 15 to 20)
#    0.000    2.333    0.000    4.250    0.000   11.000 
#    0.000    3.333    0.000    0.000    0.000    0.000 
#    0.000    0.000    0.000    0.750    0.000   15.333 
#
# Total GULP energy -268007.210814 kJ/mol
# GULP energy per Si atom -5583.483559 kJ/mol
# Density = 1.994549 g / cm^3
# Si number density = 19.990990 Si / 1000 Ang^3
#
#
#
# Elastic Constant Matrix: (Units=GPa)
#
#
# Indices 1 2 3 4 5 6 
#
# 1 190.0456 12.5379 139.8302 0.0000 0.0000 0.0000
# 2 12.5379 20.5727 7.6925 0.0000 0.0000 0.0000
# 3 139.8302 7.6925 226.6830 0.0000 0.0000 0.0000
# 4 0.0000 0.0000 0.0000 -159.4513 0.0000 0.0000
# 5 0.0000 0.0000 0.0000 0.0000 -100.1162 0.0000
# 6 0.0000 0.0000 0.0000 0.0000 0.0000 18.0193
#
#
#
# Elastic Compliance Matrix: (Units=1/GPa)
#
#
# Indices 1 2 3 4 5 6 
#
# 1 0.009921 -0.003806 -0.005990 0.000000 0.000000 0.000000
# 2 -0.003806 0.050693 0.000628 0.000000 0.000000 0.000000
# 3 -0.005990 0.000628 0.008085 0.000000 0.000000 0.000000
# 4 0.000000 0.000000 0.000000 -0.006272 0.000000 0.000000
# 5 0.000000 0.000000 0.000000 0.000000 -0.009988 0.000000
# 6 0.000000 0.000000 0.000000 0.000000 0.000000 0.055496
#
#
# Mechanical properties :
#
#
# Convention : Reuss Voigt Hill
#
# Bulk Modulus (GPa) = 19.85661 84.15806 52.00734
# Shear Modulus (GPa) = 34.95038 -29.82692 2.56173
#
# Velocity S-wave (km/s) = 4.18581 -3.86686 1.13324
# Velocity P-wave (km/s) = 5.77198 4.71727 5.27107
#
# Compressibility (1/GPa) = 0.05036106
#
# Stress axis : x y z
#
# Youngs Moduli (GPa) = 100.80105 19.72657 123.68090
#
# Poissons Ratio (x) = 0.07508 0.74089
# Poissons Ratio (y) = 0.38366 -0.07761
# Poissons Ratio (z) = 0.60383 -0.01238
#
# Static dielectric constant tensor:
#      x y z
#    x 1.699060 0.000000 0.000000 
#    y 0.000000 1.722900 0.000000 
#    z 0.000000 0.000000 1.659880 
# 
# From -- ./inp_files/34128.got.cif
#   From: 2010.05.17/outbox.cif.g08.bks.cpg/sg47_18_cif.got.tgz:34128.got - 2010.06.03 20:15:42.
