data_PCOD9385233
_publ_section_title
;
Structure prediction by ZEFSAII (Michael W. Deem and Ramdas Pophale) SiO2 
 PCOD9385233
Probable space group: P M M M
;
_chemical_formula_sum "Si O2"
_cell_formula_units_Z 48
_cell_length_a 9.383513
_cell_length_b 8.400523
_cell_length_c 32.187040
_cell_angle_alpha 90.000000
_cell_angle_beta 90.000000
_cell_angle_gamma 90.000000
_cell_volume 2537.189030
_symmetry_space_group_name_H-M "P M M M"
_symmetry_group_IT_number 47
_symmetry_cell_setting 'orthorhombic'
loop_
_space_group_symop_operation_xyz
x,y,z
-x,-y,z
x,-y,-z
-x,y,-z
-x,-y,-z
x,y,-z
-x,y,z
x,-y,z
loop_
_atom_site_type_symbol
_atom_site_label
_atom_site_fract_x
_atom_site_fract_y
_atom_site_fract_z
Si Si1 0.335807 0.194513 0.500000
Si Si2 0.162342 0.691634 0.919033
Si Si3 0.163862 0.807544 0.581643
Si Si4 0.673102 0.684086 0.247740
Si Si5 0.664128 0.188650 0.840913
Si Si6 0.335912 0.694810 0.000000
Si Si7 0.665013 0.307268 0.661184
O O1 0.500000 0.246546 0.500000
O O2 0.253119 0.246237 0.458595
O O3 0.335813 0.000000 0.500000
O O4 0.157834 0.500000 0.921511
O O5 0.238946 0.737097 0.876381
O O6 0.253579 0.747761 0.958626
O O7 0.000000 0.750946 0.920620
O O8 0.239165 0.750921 0.623590
O O9 0.000000 0.754029 0.579290
O O10 0.164149 0.000000 0.581279
O O11 0.500000 0.687016 0.249358
O O12 0.717287 0.500000 0.243886
O O13 0.715121 0.772677 0.205792
O O14 0.717310 0.746991 0.293068
O O15 0.500000 0.248145 0.844788
O O16 0.662341 0.000000 0.846357
O O17 0.335928 0.500000 0.000000
O O18 0.500000 0.746404 0.000000
O O19 0.500000 0.256168 0.655156
O O20 0.664991 0.500000 0.662348
#
# Coordination Sequence:
#
# PCOD9385233 Si02
#       7
#     4   8   8   8   8   4   8
#     4   9  17  31  52  75  98 129 170 212 252 295
#     4  10  20  34  53  77 105 137 172 209 251 301
#     4  10  20  33  50  74 104 136 169 206 250 301
#     4   8  15  30  52  75  99 130 169 212 255 298
#     4  10  20  33  51  77 106 135 170 212 256 302
#     4   9  17  31  54  81 104 129 166 212 256 297
#     4   9  18  33  53  77 103 131 167 211 256 302
#
# _framework density 18.918574
#
# number of rings (size 3 to 8) (size 9 to 14) (size 15 to 20)
#    0.000    2.667    0.000    3.000    0.000    6.000 
#    0.000    3.333    0.000    6.000    0.000    0.000 
#    0.000    0.000    0.000    0.000    0.000    0.000 
#
# Total GULP energy -267735.508526 kJ/mol
# GULP energy per Si atom -5577.823094 kJ/mol
# Density = 1.887551 g / cm^3
# Si number density = 18.918574 Si / 1000 Ang^3
#
#
#
# Elastic Constant Matrix: (Units=GPa)
#
#
# Indices 1 2 3 4 5 6 
#
# 1 139.9705 15.9774 106.5266 0.0000 0.0000 0.0000
# 2 15.9774 3.4307 13.8834 0.0000 0.0000 0.0000
# 3 106.5266 13.8834 198.1354 0.0000 0.0000 0.0000
# 4 0.0000 0.0000 0.0000 44.0354 0.0000 0.0000
# 5 0.0000 0.0000 0.0000 0.0000 -11.1111 0.0000
# 6 0.0000 0.0000 0.0000 0.0000 0.0000 16.9333
#
#
#
# Elastic Compliance Matrix: (Units=1/GPa)
#
#
# Indices 1 2 3 4 5 6 
#
# 1 0.018793 -0.065090 -0.005543 0.000000 0.000000 0.000000
# 2 -0.065090 0.632293 -0.009310 0.000000 0.000000 0.000000
# 3 -0.005543 -0.009310 0.008680 0.000000 0.000000 0.000000
# 4 0.000000 0.000000 0.000000 0.022709 0.000000 0.000000
# 5 0.000000 0.000000 0.000000 0.000000 -0.090000 0.000000
# 6 0.000000 0.000000 0.000000 0.000000 0.000000 0.059055
#
#
# Mechanical properties :
#
#
# Convention : Reuss Voigt Hill
#
# Bulk Modulus (GPa) = 2.00048 68.25683 35.12865
# Shear Modulus (GPa) = 5.11226 23.64813 14.38020
#
# Velocity S-wave (km/s) = 1.64563 3.53936 2.76000
# Velocity P-wave (km/s) = 2.16114 7.27051 5.36334
#
# Compressibility (1/GPa) = 0.49987986
#
# Stress axis : x y z
#
# Youngs Moduli (GPa) = 53.21158 1.58155 115.21300
#
# Poissons Ratio (x) = 0.10294 0.63863
# Poissons Ratio (y) = 3.46354 1.07260
# Poissons Ratio (z) = 0.29495 0.01472
#
# Static dielectric constant tensor:
#      x y z
#    x 1.642120 0.000000 0.000000 
#    y 0.000000 1.663720 0.000000 
#    z 0.000000 0.000000 1.644790 
# 
# From -- ./inp_files/34176.got.cif
#   From: 2010.05.17/outbox.cif.g08.bks.cpg/sg47_18_cif.got.tgz:34176.got - 2010.06.03 20:15:42.
