data_PCOD9385741
_publ_section_title
;
Structure prediction by ZEFSAII (Michael W. Deem and Ramdas Pophale) SiO2 
 PCOD9385741
Probable space group: P M M M
;
_chemical_formula_sum "Si O2"
_cell_formula_units_Z 44
_cell_length_a 9.046198
_cell_length_b 19.502850
_cell_length_c 15.109209
_cell_angle_alpha 90.000000
_cell_angle_beta 90.000000
_cell_angle_gamma 90.000000
_cell_volume 2665.667017
_symmetry_space_group_name_H-M "P M M M"
_symmetry_group_IT_number 47
_symmetry_cell_setting 'orthorhombic'
loop_
_space_group_symop_operation_xyz
x,y,z
-x,-y,z
x,-y,-z
-x,y,-z
-x,-y,-z
x,y,-z
-x,y,z
x,-y,z
loop_
_atom_site_type_symbol
_atom_site_label
_atom_site_fract_x
_atom_site_fract_y
_atom_site_fract_z
Si Si1 0.323383 0.728663 0.272598
Si Si2 0.169032 0.371020 0.595691
Si Si3 0.671770 0.500000 0.347921
Si Si4 0.676872 0.857585 0.603470
Si Si5 0.176511 0.500000 0.841723
Si Si6 0.167242 0.000000 0.606795
Si Si7 0.675596 0.643487 0.100746
O O1 0.500000 0.716610 0.287530
O O2 0.221371 0.677679 0.327580
O O3 0.291048 0.801508 0.319984
O O4 0.294673 0.704680 0.171306
O O5 0.178370 0.336088 0.500000
O O6 0.280461 0.433846 0.598541
O O7 0.000000 0.394641 0.607541
O O8 0.500000 0.500000 0.325161
O O9 0.769124 0.500000 0.259399
O O10 0.721359 0.840095 0.500000
O O11 0.500000 0.865300 0.600835
O O12 0.749720 0.929787 0.629286
O O13 0.240797 0.571548 0.880473
O O14 0.000000 0.500000 0.849442
O O15 0.161532 0.000000 0.500000
O O16 0.000000 0.000000 0.641068
O O17 0.500000 0.628254 0.108365
O O18 0.707060 0.664750 0.000000
#
# Coordination Sequence:
#
# PCOD9385741 Si02
#       7
#     8   8   4   8   4   4   8
#     4  10  20  34  53  75 101 135 171 206 249 305
#     4  11  23  36  50  71 100 132 166 208 254 298
#     4  12  23  36  53  70  92 128 171 211 254 303
#     4   9  17  30  49  74 104 137 172 206 239 284
#     4  12  23  36  55  76  98 126 167 219 272 319
#     4   9  17  29  47  73 104 137 170 202 243 291
#     4  10  21  37  56  77 101 131 168 213 265 316
#
# _framework density 16.506188000000002
#
# number of rings (size 3 to 8) (size 9 to 14) (size 15 to 20)
#    0.000    1.727    1.818    3.545    0.000    6.545 
#    0.000    1.818    0.000    0.000    0.000    0.636 
#    0.000    5.091    0.000    0.000    0.000    0.000 
#
# Total GULP energy -245079.411715 kJ/mol
# GULP energy per Si atom -5569.986630 kJ/mol
# Density = 1.646862 g / cm^3
# Si number density = 16.506188 Si / 1000 Ang^3
#
#
#
# Elastic Constant Matrix: (Units=GPa)
#
#
# Indices 1 2 3 4 5 6 
#
# 1 38.0438 43.0600 38.9994 0.0000 0.0000 0.0000
# 2 43.0600 105.2498 55.0207 0.0000 0.0000 0.0000
# 3 38.9994 55.0207 126.3230 0.0000 0.0000 0.0000
# 4 0.0000 0.0000 0.0000 6.6106 0.0000 0.0000
# 5 0.0000 0.0000 0.0000 0.0000 14.5233 0.0000
# 6 0.0000 0.0000 0.0000 0.0000 0.0000 80.0694
#
#
#
# Elastic Compliance Matrix: (Units=1/GPa)
#
#
# Indices 1 2 3 4 5 6 
#
# 1 0.056689 -0.018184 -0.009581 0.000000 0.000000 0.000000
# 2 -0.018184 0.018135 -0.002285 0.000000 0.000000 0.000000
# 3 -0.009581 -0.002285 0.011869 0.000000 0.000000 0.000000
# 4 0.000000 0.000000 0.000000 0.151272 0.000000 0.000000
# 5 0.000000 0.000000 0.000000 0.000000 0.068855 0.000000
# 6 0.000000 0.000000 0.000000 0.000000 0.000000 0.012489
#
#
# Mechanical properties :
#
#
# Convention : Reuss Voigt Hill
#
# Bulk Modulus (GPa) = 37.60370 60.41964 49.01167
# Shear Modulus (GPa) = 12.87747 29.07641 20.97694
#
# Velocity S-wave (km/s) = 2.79617 4.20163 3.56877
# Velocity P-wave (km/s) = 5.76678 7.76028 6.83658
#
# Compressibility (1/GPa) = 0.02659313
#
# Stress axis : x y z
#
# Youngs Moduli (GPa) = 17.64007 55.14143 84.24962
#
# Poissons Ratio (x) = 1.00269 0.80723
# Poissons Ratio (y) = 0.32077 0.19251
# Poissons Ratio (z) = 0.16902 0.12600
#
# Static dielectric constant tensor:
#      x y z
#    x 1.553720 0.000000 0.000000 
#    y 0.000000 1.575180 0.000000 
#    z 0.000000 0.000000 1.576490 
# 
# From -- ./inp_files/20969.got.cif
#   From: 2010.05.17/outbox.cif.g08.bks.cpg/sg47_11_cif.got.tgz:20969.got - 2010.06.03 20:15:42.
