data_PCOD9385906
_publ_section_title
;
Structure prediction by ZEFSAII (Michael W. Deem and Ramdas Pophale) SiO2 
 PCOD9385906
Probable space group: P M M M
;
_chemical_formula_sum "Si O2"
_cell_formula_units_Z 64
_cell_length_a 17.335684
_cell_length_b 21.103704
_cell_length_c 9.284840
_cell_angle_alpha 90.000000
_cell_angle_beta 90.000000
_cell_angle_gamma 90.000000
_cell_volume 3396.832194
_symmetry_space_group_name_H-M "P M M M"
_symmetry_group_IT_number 47
_symmetry_cell_setting 'orthorhombic'
loop_
_space_group_symop_operation_xyz
x,y,z
-x,-y,z
x,-y,-z
-x,y,-z
-x,-y,-z
x,y,-z
-x,y,z
x,-y,z
loop_
_atom_site_type_symbol
_atom_site_label
_atom_site_fract_x
_atom_site_fract_y
_atom_site_fract_z
Si Si1 0.126457 0.206074 0.167166
Si Si2 0.377800 0.572005 0.831400
Si Si3 0.137136 0.068443 0.828993
Si Si4 0.301576 0.929582 0.672040
Si Si5 0.086112 0.331087 0.670658
Si Si6 0.588060 0.301311 0.331397
Si Si7 0.686975 0.803217 0.169448
Si Si8 0.192175 0.428628 0.168361
O O1 0.096883 0.135165 0.201473
O O2 0.094731 0.260803 0.266610
O O3 0.219975 0.204107 0.182159
O O4 0.108848 0.220166 0.000000
O O5 0.400810 0.500000 0.792139
O O6 0.409051 0.628127 0.733936
O O7 0.284685 0.575458 0.820989
O O8 0.398144 0.581706 0.000000
O O9 0.214274 0.067759 0.733439
O O10 0.097748 0.000000 0.808766
O O11 0.158746 0.072161 0.000000
O O12 0.301349 0.919996 0.500000
O O13 0.336576 0.868834 0.752353
O O14 0.335256 0.000000 0.701462
O O15 0.095375 0.329779 0.500000
O O16 0.149692 0.375860 0.740854
O O17 0.000000 0.354906 0.705410
O O18 0.608976 0.302396 0.500000
O O19 0.500000 0.277860 0.318231
O O20 0.644973 0.255637 0.244113
O O21 0.669133 0.805613 0.000000
O O22 0.169718 0.500000 0.212432
O O23 0.172734 0.420382 0.000000
#
# Coordination Sequence:
#
# PCOD9385906 Si02
#       8
#     8   8   8   8   8   8   8   8
#     4   9  18  32  52  77 101 130 170 213 256 303
#     4   9  19  37  60  84 108 134 168 210 253 302
#     4   8  14  26  45  71 102 131 163 209 260 305
#     4   9  16  26  44  73 106 136 167 206 255 309
#     4  11  24  37  49  71 104 139 173 210 252 300
#     4  11  24  38  52  75 108 142 175 213 256 303
#     4  10  20  34  54  78 103 134 174 218 261 307
#     4   9  19  37  60  83 104 128 163 207 253 302
#
# _framework density 18.841083000000001
#
# number of rings (size 3 to 8) (size 9 to 14) (size 15 to 20)
#    0.000    2.500    0.000    3.750    0.000    9.750 
#    0.000    3.750    0.000    0.750    0.000    5.250 
#    0.000    0.000    0.000    0.000    0.000    0.000 
#
# Total GULP energy -356964.899197 kJ/mol
# GULP energy per Si atom -5577.576550 kJ/mol
# Density = 1.879820 g / cm^3
# Si number density = 18.841083 Si / 1000 Ang^3
#
#
#
# Elastic Constant Matrix: (Units=GPa)
#
#
# Indices 1 2 3 4 5 6 
#
# 1 38.8286 33.6555 29.9587 0.0000 0.0000 0.0000
# 2 33.6555 111.0496 52.8350 0.0000 0.0000 0.0000
# 3 29.9587 52.8350 70.6238 0.0000 0.0000 0.0000
# 4 0.0000 0.0000 0.0000 21.6284 0.0000 0.0000
# 5 0.0000 0.0000 0.0000 0.0000 27.0443 0.0000
# 6 0.0000 0.0000 0.0000 0.0000 0.0000 23.2382
#
#
#
# Elastic Compliance Matrix: (Units=1/GPa)
#
#
# Indices 1 2 3 4 5 6 
#
# 1 0.041063 -0.006455 -0.012590 0.000000 0.000000 0.000000
# 2 -0.006455 0.014996 -0.008481 0.000000 0.000000 0.000000
# 3 -0.012590 -0.008481 0.025845 0.000000 0.000000 0.000000
# 4 0.000000 0.000000 0.000000 0.046235 0.000000 0.000000
# 5 0.000000 0.000000 0.000000 0.000000 0.036976 0.000000
# 6 0.000000 0.000000 0.000000 0.000000 0.000000 0.043033
#
#
# Mechanical properties :
#
#
# Convention : Reuss Voigt Hill
#
# Bulk Modulus (GPa) = 37.24003 50.37784 43.80894
# Shear Modulus (GPa) = 18.37217 21.31904 19.84560
#
# Velocity S-wave (km/s) = 3.12607 3.36745 3.24900
# Velocity P-wave (km/s) = 5.73044 6.47426 6.11367
#
# Compressibility (1/GPa) = 0.02685283
#
# Stress axis : x y z
#
# Youngs Moduli (GPa) = 24.35282 66.68350 38.69229
#
# Poissons Ratio (x) = 0.43043 0.48714
# Poissons Ratio (y) = 0.15719 0.32814
# Poissons Ratio (z) = 0.30660 0.56553
#
# Static dielectric constant tensor:
#      x y z
#    x 1.639030 0.000000 0.000000 
#    y 0.000000 1.679580 0.000000 
#    z 0.000000 0.000000 1.618570 
# 
# From -- ./inp_files/9978.got.cif
#   From: 2010.05.17/outbox.cif.g08.bks.cpg/sg47_5_cif.got.tgz:9978.got - 2010.06.03 20:15:42.
