data_PCOD9385578
_publ_section_title
;
Structure prediction by ZEFSAII (Michael W. Deem and Ramdas Pophale) SiO2 
 PCOD9385578
Probable space group: P M M M
;
_chemical_formula_sum "Si O2"
_cell_formula_units_Z 52
_cell_length_a 8.338864
_cell_length_b 20.789570
_cell_length_c 16.262748
_cell_angle_alpha 90.000000
_cell_angle_beta 90.000000
_cell_angle_gamma 90.000000
_cell_volume 2819.332710
_symmetry_space_group_name_H-M "P M M M"
_symmetry_group_IT_number 47
_symmetry_cell_setting 'orthorhombic'
loop_
_space_group_symop_operation_xyz
x,y,z
-x,-y,z
x,-y,-z
-x,y,-z
-x,-y,-z
x,y,-z
-x,y,z
x,-y,z
loop_
_atom_site_type_symbol
_atom_site_label
_atom_site_fract_x
_atom_site_fract_y
_atom_site_fract_z
Si Si1 0.685827 0.930050 0.598644
Si Si2 0.807332 0.573767 0.591813
Si Si3 0.305779 0.291282 0.909477
Si Si4 0.820293 0.152384 0.131094
Si Si5 0.500000 0.071431 0.097990
Si Si6 0.822129 0.195083 0.680970
Si Si7 0.312802 0.670929 0.271328
O O1 0.688638 0.931450 0.500000
O O2 0.500000 0.927239 0.625448
O O3 0.767581 0.864647 0.626539
O O4 0.752333 0.000000 0.627194
O O5 0.751765 0.595170 0.500000
O O6 0.751787 0.500000 0.603750
O O7 0.760233 0.619099 0.667003
O O8 0.000000 0.572575 0.589123
O O9 0.500000 0.282582 0.903727
O O10 0.224071 0.221275 0.907931
O O11 0.252950 0.325655 0.824136
O O12 0.272993 0.320960 0.000000
O O13 0.666524 0.107065 0.118691
O O14 0.828077 0.166186 0.227775
O O15 0.000000 0.130798 0.104509
O O16 0.500000 0.000000 0.134882
O O17 0.500000 0.067243 0.000000
O O18 0.714727 0.258521 0.688873
O O19 0.000000 0.216721 0.656125
O O20 0.500000 0.657540 0.266151
#
# Coordination Sequence:
#
# PCOD9385578 Si02
#       7
#     8   8   8   8   4   8   8
#     4   9  19  35  53  73  98 132 175 222 274 333
#     4   9  19  37  59  81 110 151 191 225 269 325
#     4   9  17  32  55  80 108 143 180 222 278 337
#     4  10  21  36  54  77 103 134 178 227 276 335
#     4  11  24  38  52  72  99 135 174 217 277 337
#     4  10  21  35  53  77 105 137 175 222 275 327
#     4  10  20  33  54  84 114 141 177 228 277 323
#
# _framework density 18.444081000000001
#
# number of rings (size 3 to 8) (size 9 to 14) (size 15 to 20)
#    0.000    2.385    0.769    2.308    2.154    4.615 
#    0.000    3.846    0.000    0.462    0.000    3.231 
#    0.000    0.000    0.000    0.000    0.000    0.000 
#
# Total GULP energy -289569.152609 kJ/mol
# GULP energy per Si atom -5568.637550 kJ/mol
# Density = 1.840210 g / cm^3
# Si number density = 18.444081 Si / 1000 Ang^3
#
#
#
# Elastic Constant Matrix: (Units=GPa)
#
#
# Indices 1 2 3 4 5 6 
#
# 1 65.8593 28.3923 29.5778 0.0000 0.0000 0.0000
# 2 28.3923 79.8441 64.0213 0.0000 0.0000 0.0000
# 3 29.5778 64.0213 100.6667 0.0000 0.0000 0.0000
# 4 0.0000 0.0000 0.0000 5.5338 0.0000 0.0000
# 5 0.0000 0.0000 0.0000 0.0000 11.5646 0.0000
# 6 0.0000 0.0000 0.0000 0.0000 0.0000 22.5555
#
#
#
# Elastic Compliance Matrix: (Units=1/GPa)
#
#
# Indices 1 2 3 4 5 6 
#
# 1 0.018241 -0.004467 -0.002519 0.000000 0.000000 0.000000
# 2 -0.004467 0.026651 -0.015637 0.000000 0.000000 0.000000
# 3 -0.002519 -0.015637 0.020618 0.000000 0.000000 0.000000
# 4 0.000000 0.000000 0.000000 0.180707 0.000000 0.000000
# 5 0.000000 0.000000 0.000000 0.000000 0.086471 0.000000
# 6 0.000000 0.000000 0.000000 0.000000 0.000000 0.044335
#
#
# Mechanical properties :
#
#
# Convention : Reuss Voigt Hill
#
# Bulk Modulus (GPa) = 49.34521 54.48364 51.91443
# Shear Modulus (GPa) = 11.65439 16.22269 13.93854
#
# Velocity S-wave (km/s) = 2.51644 2.96896 2.75202
# Velocity P-wave (km/s) = 5.93762 6.43094 6.18920
#
# Compressibility (1/GPa) = 0.02026539
#
# Stress axis : x y z
#
# Youngs Moduli (GPa) = 54.82242 37.52239 48.50046
#
# Poissons Ratio (x) = 0.16760 0.12216
# Poissons Ratio (y) = 0.24488 0.75839
# Poissons Ratio (z) = 0.13808 0.58673
#
# Static dielectric constant tensor:
#      x y z
#    x 1.688570 0.000000 0.000000 
#    y 0.000000 1.622680 0.000000 
#    z 0.000000 0.000000 1.680980 
# 
# From -- ./inp_files/26772.got.cif
#   From: 2010.05.17/outbox.cif.g08.bks.cpg/sg47_14_cif.got.tgz:26772.got - 2010.06.03 20:15:42.
