data_PCOD9385847
_publ_section_title
;
Structure prediction by ZEFSAII (Michael W. Deem and Ramdas Pophale) SiO2 
 PCOD9385847
Probable space group: P M M M
;
_chemical_formula_sum "Si O2"
_cell_formula_units_Z 48
_cell_length_a 31.879102
_cell_length_b 7.896255
_cell_length_c 9.257166
_cell_angle_alpha 90.000000
_cell_angle_beta 90.000000
_cell_angle_gamma 90.000000
_cell_volume 2330.264912
_symmetry_space_group_name_H-M "P M M M"
_symmetry_group_IT_number 47
_symmetry_cell_setting 'orthorhombic'
loop_
_space_group_symop_operation_xyz
x,y,z
-x,-y,z
x,-y,-z
-x,y,-z
-x,-y,-z
x,y,-z
-x,y,z
x,-y,z
loop_
_atom_site_type_symbol
_atom_site_label
_atom_site_fract_x
_atom_site_fract_y
_atom_site_fract_z
Si Si1 0.417300 0.703366 0.835753
Si Si2 0.500000 0.707601 0.666692
Si Si3 0.666268 0.202064 0.664249
Si Si4 0.833545 0.796691 0.335808
Si Si5 0.000000 0.792947 0.333445
Si Si6 0.083901 0.207396 0.833342
Si Si7 0.249967 0.702015 0.835777
O O1 0.421124 0.500000 0.844029
O O2 0.458215 0.764879 0.749676
O O3 0.374936 0.740958 0.749677
O O4 0.415647 0.768916 0.000000
O O5 0.500000 0.500000 0.666903
O O6 0.500000 0.761306 0.500000
O O7 0.666797 0.270008 0.500000
O O8 0.708096 0.250588 0.750089
O O9 0.665116 0.000000 0.656302
O O10 0.831815 0.731029 0.500000
O O11 0.874380 0.734463 0.249609
O O12 0.791122 0.759979 0.249792
O O13 0.837575 0.000000 0.344226
O O14 0.041926 0.739262 0.250020
O O15 0.000000 0.738281 0.500000
O O16 0.000000 0.000000 0.333795
O O17 0.084123 0.000000 0.833302
O O18 0.083796 0.261366 0.000000
O O19 0.248473 0.500000 0.843765
O O20 0.250590 0.770015 0.000000
#
# Coordination Sequence:
#
# PCOD9385847 Si02
#       7
#     8   4   8   8   4   8   8
#     4  10  20  35  57  85 115 147 185 227 269 316
#     4   9  17  31  54  83 114 149 186 224 268 315
#     4  11  24  40  58  82 111 143 180 222 269 321
#     4  10  20  34  53  78 107 139 176 218 266 319
#     4   9  15  23  37  61  96 135 174 217 262 309
#     4   9  16  26  42  66  98 136 175 215 262 314
#     4  11  24  40  58  81 107 137 176 220 266 319
#
# _framework density 20.598517000000001
#
# number of rings (size 3 to 8) (size 9 to 14) (size 15 to 20)
#    0.000    2.000    0.000    4.000    0.000   12.667 
#    0.000    0.417    0.000    2.500    0.000    0.583 
#    0.000    4.667    0.000    0.000    0.000    0.000 
#
# Total GULP energy -268280.181328 kJ/mol
# GULP energy per Si atom -5589.170444 kJ/mol
# Density = 2.055163 g / cm^3
# Si number density = 20.598517 Si / 1000 Ang^3
#
#
#
# Elastic Constant Matrix: (Units=GPa)
#
#
# Indices 1 2 3 4 5 6 
#
# 1 246.9404 1.2812 157.3694 0.0000 0.0000 0.0000
# 2 1.2812 21.5362 10.2311 0.0000 0.0000 0.0000
# 3 157.3694 10.2311 263.6089 0.0000 0.0000 0.0000
# 4 0.0000 0.0000 0.0000 16.2707 0.0000 0.0000
# 5 0.0000 0.0000 0.0000 0.0000 45.8619 0.0000
# 6 0.0000 0.0000 0.0000 0.0000 0.0000 21.9435
#
#
#
# Elastic Compliance Matrix: (Units=1/GPa)
#
#
# Indices 1 2 3 4 5 6 
#
# 1 0.006584 0.001503 -0.003989 0.000000 0.000000 0.000000
# 2 0.001503 0.047649 -0.002747 0.000000 0.000000 0.000000
# 3 -0.003989 -0.002747 0.006281 0.000000 0.000000 0.000000
# 4 0.000000 0.000000 0.000000 0.061460 0.000000 0.000000
# 5 0.000000 0.000000 0.000000 0.000000 0.021805 0.000000
# 6 0.000000 0.000000 0.000000 0.000000 0.000000 0.045572
#
#
# Mechanical properties :
#
#
# Convention : Reuss Voigt Hill
#
# Bulk Modulus (GPa) = 19.98024 96.64988 58.31506
# Shear Modulus (GPa) = 23.09497 41.02881 32.06189
#
# Velocity S-wave (km/s) = 3.35206 4.46784 3.94955
# Velocity P-wave (km/s) = 4.97017 8.58126 7.01216
#
# Compressibility (1/GPa) = 0.05004945
#
# Stress axis : x y z
#
# Youngs Moduli (GPa) = 151.89188 20.98685 159.20416
#
# Poissons Ratio (x) = -0.03155 0.63501
# Poissons Ratio (y) = -0.22832 0.43729
# Poissons Ratio (z) = 0.60584 0.05764
#
# Static dielectric constant tensor:
#      x y z
#    x 1.720210 0.000000 0.000000 
#    y 0.000000 1.763130 0.000000 
#    z 0.000000 0.000000 1.725170 
# 
# From -- ./inp_files/13918.got.cif
#   From: 2010.05.17/outbox.cif.g08.bks.cpg/sg47_7_cif.got.tgz:13918.got - 2010.06.03 20:15:42.
