data_PCOD9385823
_publ_section_title
;
Structure prediction by ZEFSAII (Michael W. Deem and Ramdas Pophale) SiO2 
 PCOD9385823
Probable space group: P M M M
;
_chemical_formula_sum "Si O2"
_cell_formula_units_Z 40
_cell_length_a 9.269795
_cell_length_b 28.366964
_cell_length_c 7.727341
_cell_angle_alpha 90.000000
_cell_angle_beta 90.000000
_cell_angle_gamma 90.000000
_cell_volume 2031.950224
_symmetry_space_group_name_H-M "P M M M"
_symmetry_group_IT_number 47
_symmetry_cell_setting 'orthorhombic'
loop_
_space_group_symop_operation_xyz
x,y,z
-x,-y,z
x,-y,-z
-x,y,-z
-x,-y,-z
x,y,-z
-x,y,z
x,-y,z
loop_
_atom_site_type_symbol
_atom_site_label
_atom_site_fract_x
_atom_site_fract_y
_atom_site_fract_z
Si Si1 0.175436 0.553669 0.000000
Si Si2 0.164126 0.187692 0.208282
Si Si3 0.833623 0.000000 0.712035
Si Si4 0.335869 0.907107 0.708090
Si Si5 0.829385 0.623905 0.697566
Si Si6 0.666751 0.719395 0.210136
O O1 0.217894 0.583934 0.832299
O O2 0.228364 0.500000 0.000000
O O3 0.000000 0.551644 0.000000
O O4 0.251420 0.140622 0.250912
O O5 0.247024 0.234349 0.270223
O O6 0.000000 0.185482 0.273882
O O7 0.157900 0.190993 0.000000
O O8 0.750708 0.046965 0.770118
O O9 0.833446 0.000000 0.500000
O O10 0.000000 0.000000 0.767052
O O11 0.342902 0.910928 0.500000
O O12 0.500000 0.905819 0.774178
O O13 0.813177 0.608056 0.500000
O O14 0.742627 0.671922 0.726611
O O15 0.000000 0.633481 0.728584
O O16 0.500000 0.721652 0.263846
O O17 0.670370 0.718682 0.000000
#
# Coordination Sequence:
#
# PCOD9385823 Si02
#       6
#     4   8   4   8   8   8
#     4   9  18  34  57  85 119 155 191 238 289 334
#     4  10  21  36  55  79 108 142 179 222 273 328
#     4   9  17  31  52  75 100 135 178 224 276 331
#     4  10  20  34  53  77 105 137 176 223 274 330
#     4  10  20  34  56  85 115 150 192 236 284 339
#     4  10  20  35  56  79 106 144 185 226 278 337
#
# _framework density 19.685521000000001
#
# number of rings (size 3 to 8) (size 9 to 14) (size 15 to 20)
#    0.000    2.200    1.000    2.100    0.000    6.000 
#    0.000    2.500    0.000    4.200    0.000    1.400 
#    0.000    0.000    0.000    0.000    0.000    0.000 
#
# Total GULP energy -223458.974642 kJ/mol
# GULP energy per Si atom -5586.474366 kJ/mol
# Density = 1.964072 g / cm^3
# Si number density = 19.685521 Si / 1000 Ang^3
#
#
#
# Elastic Constant Matrix: (Units=GPa)
#
#
# Indices 1 2 3 4 5 6 
#
# 1 158.9273 106.5042 41.2809 0.0000 0.0000 0.0000
# 2 106.5042 214.1725 45.6791 0.0000 0.0000 0.0000
# 3 41.2809 45.6791 54.9847 0.0000 0.0000 0.0000
# 4 0.0000 0.0000 0.0000 30.3074 0.0000 0.0000
# 5 0.0000 0.0000 0.0000 0.0000 16.7936 0.0000
# 6 0.0000 0.0000 0.0000 0.0000 0.0000 -90.6098
#
#
#
# Elastic Compliance Matrix: (Units=1/GPa)
#
#
# Indices 1 2 3 4 5 6 
#
# 1 0.010168 -0.004167 -0.004173 0.000000 0.000000 0.000000
# 2 -0.004167 0.007382 -0.003004 0.000000 0.000000 0.000000
# 3 -0.004173 -0.003004 0.023816 0.000000 0.000000 0.000000
# 4 0.000000 0.000000 0.000000 0.032995 0.000000 0.000000
# 5 0.000000 0.000000 0.000000 0.000000 0.059546 0.000000
# 6 0.000000 0.000000 0.000000 0.000000 0.000000 -0.011036
#
#
# Mechanical properties :
#
#
# Convention : Reuss Voigt Hill
#
# Bulk Modulus (GPa) = 53.53769 90.55698 72.04733
# Shear Modulus (GPa) = 32.94151 6.93961 19.94056
#
# Velocity S-wave (km/s) = 4.09514 1.87960 3.18615
# Velocity P-wave (km/s) = 7.04385 7.12827 7.08618
#
# Compressibility (1/GPa) = 0.01867843
#
# Stress axis : x y z
#
# Youngs Moduli (GPa) = 98.34612 135.46723 41.98941
#
# Poissons Ratio (x) = 0.56443 0.17520
# Poissons Ratio (y) = 0.40976 0.12616
# Poissons Ratio (z) = 0.41036 0.40701
#
# Static dielectric constant tensor:
#      x y z
#    x 1.673780 0.000000 0.000000 
#    y 0.000000 1.636100 0.000000 
#    z 0.000000 0.000000 1.730120 
# 
# From -- ./inp_files/1742.got.cif
#   From: 2010.05.17/outbox.cif.g08.bks.cpg/sg47_1_cif.got.tgz:1742.got - 2010.06.03 20:15:42.
