data_PCOD9385212
_publ_section_title
;
Structure prediction by ZEFSAII (Michael W. Deem and Ramdas Pophale) SiO2 
 PCOD9385212
Probable space group: P M M M
;
_chemical_formula_sum "Si O2"
_cell_formula_units_Z 40
_cell_length_a 9.607579
_cell_length_b 26.845826
_cell_length_c 7.648862
_cell_angle_alpha 90.000000
_cell_angle_beta 90.000000
_cell_angle_gamma 90.000000
_cell_volume 1972.820448
_symmetry_space_group_name_H-M "P M M M"
_symmetry_group_IT_number 47
_symmetry_cell_setting 'orthorhombic'
loop_
_space_group_symop_operation_xyz
x,y,z
-x,-y,z
x,-y,-z
-x,y,-z
-x,-y,-z
x,y,-z
-x,y,z
x,-y,z
loop_
_atom_site_type_symbol
_atom_site_label
_atom_site_fract_x
_atom_site_fract_y
_atom_site_fract_z
Si Si1 0.839608 0.199706 0.713522
Si Si2 0.342296 0.406470 0.791885
Si Si3 0.840574 0.688581 0.289177
Si Si4 0.658761 0.000000 0.792474
Si Si5 0.341862 0.892214 0.708785
Si Si6 0.160634 0.500000 0.785515
O O1 0.835517 0.199414 0.500000
O O2 0.799007 0.255648 0.768813
O O3 0.744959 0.154489 0.777066
O O4 0.000000 0.192087 0.763880
O O5 0.500000 0.407192 0.721260
O O6 0.265098 0.354237 0.763953
O O7 0.244678 0.451179 0.725855
O O8 0.352625 0.414100 0.000000
O O9 0.844392 0.689256 0.500000
O O10 0.000000 0.678728 0.229227
O O11 0.721979 0.946972 0.740283
O O12 0.500000 0.000000 0.717775
O O13 0.650352 0.000000 0.000000
O O14 0.350269 0.886427 0.500000
O O15 0.500000 0.892217 0.779301
O O16 0.000000 0.500000 0.728785
O O17 0.158369 0.500000 0.000000
#
# Coordination Sequence:
#
# PCOD9385212 Si02
#       6
#     8   8   8   4   8   4
#     4   8  15  29  48  69  93 120 151 189 232 276
#     4  10  20  33  50  74 102 129 160 201 245 287
#     4   9  18  33  52  73  98 129 163 198 239 289
#     4   9  17  29  44  63  90 122 150 181 228 278
#     4   9  16  27  46  69  88 111 150 193 225 263
#     4   9  17  31  52  73  94 127 168 204 240 285
#
# _framework density 20.275539999999999
#
# number of rings (size 3 to 8) (size 9 to 14) (size 15 to 20)
#    0.000    3.000    0.000    2.400    0.000    4.800 
#    0.000    4.000    0.000   10.200    0.000    0.000 
#    0.000    0.000    0.000    0.000    0.000    0.000 
#
# Total GULP energy -223045.804521 kJ/mol
# GULP energy per Si atom -5576.145113 kJ/mol
# Density = 2.022939 g / cm^3
# Si number density = 20.275540 Si / 1000 Ang^3
#
#
#
# Elastic Constant Matrix: (Units=GPa)
#
#
# Indices 1 2 3 4 5 6 
#
# 1 131.9640 126.2387 5.8691 0.0000 0.0000 0.0000
# 2 126.2387 217.5791 0.6001 0.0000 0.0000 0.0000
# 3 5.8691 0.6001 37.1743 0.0000 0.0000 0.0000
# 4 0.0000 0.0000 0.0000 24.7225 0.0000 0.0000
# 5 0.0000 0.0000 0.0000 0.0000 10.5952 0.0000
# 6 0.0000 0.0000 0.0000 0.0000 0.0000 35.9653
#
#
#
# Elastic Compliance Matrix: (Units=1/GPa)
#
#
# Indices 1 2 3 4 5 6 
#
# 1 0.017271 -0.010013 -0.002565 0.000000 0.000000 0.000000
# 2 -0.010013 0.010402 0.001413 0.000000 0.000000 0.000000
# 3 -0.002565 0.001413 0.027283 0.000000 0.000000 0.000000
# 4 0.000000 0.000000 0.000000 0.040449 0.000000 0.000000
# 5 0.000000 0.000000 0.000000 0.000000 0.094383 0.000000
# 6 0.000000 0.000000 0.000000 0.000000 0.000000 0.027805
#
#
# Mechanical properties :
#
#
# Convention : Reuss Voigt Hill
#
# Bulk Modulus (GPa) = 30.65204 72.45925 51.55565
# Shear Modulus (GPa) = 19.93641 31.19055 25.56348
#
# Velocity S-wave (km/s) = 3.13912 3.92642 3.55463
# Velocity P-wave (km/s) = 5.31877 7.50803 6.50614
#
# Compressibility (1/GPa) = 0.03262425
#
# Stress axis : x y z
#
# Youngs Moduli (GPa) = 57.90069 96.13609 36.65351
#
# Poissons Ratio (x) = 0.96266 0.09402
# Poissons Ratio (y) = 0.57979 -0.05179
# Poissons Ratio (z) = 0.14852 -0.13584
#
# Static dielectric constant tensor:
#      x y z
#    x 1.705320 0.000000 0.000000 
#    y 0.000000 1.720810 0.000000 
#    z 0.000000 0.000000 1.761700 
# 
# From -- ./inp_files/1716.got.cif
#   From: 2010.05.17/outbox.cif.g08.bks.cpg/sg47_1_cif.got.tgz:1716.got - 2010.06.03 20:15:42.
