data_PCOD9385240
_publ_section_title
;
Structure prediction by ZEFSAII (Michael W. Deem and Ramdas Pophale) SiO2 
 PCOD9385240
Probable space group: P M M M
;
_chemical_formula_sum "Si O2"
_cell_formula_units_Z 48
_cell_length_a 7.906146
_cell_length_b 32.119271
_cell_length_c 9.297235
_cell_angle_alpha 90.000000
_cell_angle_beta 90.000000
_cell_angle_gamma 90.000000
_cell_volume 2360.936564
_symmetry_space_group_name_H-M "P M M M"
_symmetry_group_IT_number 47
_symmetry_cell_setting 'orthorhombic'
loop_
_space_group_symop_operation_xyz
x,y,z
-x,-y,z
x,-y,-z
-x,y,-z
-x,-y,-z
x,y,-z
-x,y,z
x,-y,z
loop_
_atom_site_type_symbol
_atom_site_label
_atom_site_fract_x
_atom_site_fract_y
_atom_site_fract_z
Si Si1 0.793003 0.164606 0.665858
Si Si2 0.202302 0.328592 0.662594
Si Si3 0.700827 0.410156 0.164696
Si Si4 0.203505 0.917181 0.163967
Si Si5 0.297972 0.000000 0.663858
Si Si6 0.792866 0.752413 0.834405
Si Si7 0.798549 0.500000 0.164707
O O1 0.738525 0.164079 0.500000
O O2 0.735350 0.123628 0.751145
O O3 0.740544 0.206595 0.747196
O O4 0.000000 0.164292 0.665559
O O5 0.270118 0.328459 0.500000
O O6 0.234657 0.372019 0.741656
O O7 0.266014 0.289563 0.755624
O O8 0.000000 0.323405 0.653680
O O9 0.500000 0.406753 0.156769
O O10 0.743101 0.455781 0.227373
O O11 0.769740 0.407963 0.000000
O O12 0.243727 0.958879 0.250852
O O13 0.000000 0.913879 0.156584
O O14 0.267674 0.918910 0.000000
O O15 0.500000 0.000000 0.657132
O O16 0.231063 0.000000 0.500000
O O17 0.000000 0.752138 0.835109
O O18 0.738229 0.753792 0.000000
O O19 0.000000 0.500000 0.159604
O O20 0.729480 0.500000 0.000000
#
# Coordination Sequence:
#
# PCOD9385240 Si02
#       7
#     8   8   8   8   4   8   4
#     4   9  16  27  46  74 107 139 170 209 258 308
#     4  10  20  33  50  74 104 138 176 216 257 303
#     4  10  20  34  53  77 105 137 173 213 258 309
#     4  10  20  34  54  80 107 136 174 218 262 311
#     4  11  24  39  54  74 102 137 176 217 264 318
#     4   9  16  27  46  73 104 136 171 213 258 303
#     4   9  17  31  54  81 106 133 168 212 260 309
#
# _framework density 20.330914
#
# number of rings (size 3 to 8) (size 9 to 14) (size 15 to 20)
#    0.000    2.333    0.000    3.250    0.000    9.667 
#    0.000    0.417    0.000    3.500    0.000    0.000 
#    0.000    0.000    0.000    0.000    0.000    0.000 
#
# Total GULP energy -268035.567933 kJ/mol
# GULP energy per Si atom -5584.074332 kJ/mol
# Density = 2.028464 g / cm^3
# Si number density = 20.330914 Si / 1000 Ang^3
#
#
#
# Elastic Constant Matrix: (Units=GPa)
#
#
# Indices 1 2 3 4 5 6 
#
# 1 19.8540 -0.1029 8.5786 0.0000 0.0000 0.0000
# 2 -0.1029 229.8424 131.7257 0.0000 0.0000 0.0000
# 3 8.5786 131.7257 198.4655 0.0000 0.0000 0.0000
# 4 0.0000 0.0000 0.0000 6.8290 0.0000 0.0000
# 5 0.0000 0.0000 0.0000 0.0000 8.7092 0.0000
# 6 0.0000 0.0000 0.0000 0.0000 0.0000 -48.8406
#
#
#
# Elastic Compliance Matrix: (Units=1/GPa)
#
#
# Indices 1 2 3 4 5 6 
#
# 1 0.051955 0.002115 -0.003649 0.000000 0.000000 0.000000
# 2 0.002115 0.007108 -0.004809 0.000000 0.000000 0.000000
# 3 -0.003649 -0.004809 0.008388 0.000000 0.000000 0.000000
# 4 0.000000 0.000000 0.000000 0.146435 0.000000 0.000000
# 5 0.000000 0.000000 0.000000 0.000000 0.114821 0.000000
# 6 0.000000 0.000000 0.000000 0.000000 0.000000 -0.020475
#
#
# Mechanical properties :
#
#
# Convention : Reuss Voigt Hill
#
# Bulk Modulus (GPa) = 18.26008 80.95164 49.60586
# Shear Modulus (GPa) = 14.74168 13.87022 14.30595
#
# Velocity S-wave (km/s) = 2.69566 2.61477 2.65553
# Velocity P-wave (km/s) = 4.32316 7.00139 5.81847
#
# Compressibility (1/GPa) = 0.05476427
#
# Stress axis : x y z
#
# Youngs Moduli (GPa) = 19.24725 140.68865 119.21392
#
# Poissons Ratio (x) = -0.29752 0.43506
# Poissons Ratio (y) = -0.04070 0.57331
# Poissons Ratio (z) = 0.07024 0.67658
#
# Static dielectric constant tensor:
#      x y z
#    x 1.729270 0.000000 0.000000 
#    y 0.000000 1.690390 0.000000 
#    z 0.000000 0.000000 1.713090 
# 
# From -- ./inp_files/2619.got.cif
#   From: 2010.05.17/outbox.cif.g08.bks.cpg/sg47_2_cif.got.tgz:2619.got - 2010.06.03 20:15:42.
