data_PCOD9385761
_publ_section_title
;
Structure prediction by ZEFSAII (Michael W. Deem and Ramdas Pophale) SiO2 
 PCOD9385761
Probable space group: P M M M
;
_chemical_formula_sum "Si O2"
_cell_formula_units_Z 40
_cell_length_a 7.718174
_cell_length_b 26.860386
_cell_length_c 9.328707
_cell_angle_alpha 90.000000
_cell_angle_beta 90.000000
_cell_angle_gamma 90.000000
_cell_volume 1933.963474
_symmetry_space_group_name_H-M "P M M M"
_symmetry_group_IT_number 47
_symmetry_cell_setting 'orthorhombic'
loop_
_space_group_symop_operation_xyz
x,y,z
-x,-y,z
x,-y,-z
-x,y,-z
-x,-y,-z
x,y,-z
-x,y,z
x,-y,z
loop_
_atom_site_type_symbol
_atom_site_label
_atom_site_fract_x
_atom_site_fract_y
_atom_site_fract_z
Si Si1 0.706452 0.802513 0.838347
Si Si2 0.701616 0.500000 0.174535
Si Si3 0.293665 0.000000 0.837234
Si Si4 0.287664 0.293608 0.664660
Si Si5 0.287719 0.391564 0.166353
Si Si6 0.205659 0.900785 0.337657
O O1 0.500000 0.795469 0.849988
O O2 0.773377 0.754128 0.754560
O O3 0.732805 0.852530 0.748350
O O4 0.776493 0.806903 0.000000
O O5 0.500000 0.500000 0.219717
O O6 0.774866 0.553813 0.216658
O O7 0.703343 0.500000 0.000000
O O8 0.243758 0.950804 0.750048
O O9 0.500000 0.000000 0.847851
O O10 0.222532 0.000000 0.000000
O O11 0.232910 0.290306 0.500000
O O12 0.500000 0.293326 0.665784
O O13 0.232893 0.345105 0.738426
O O14 0.500000 0.393108 0.168121
O O15 0.237975 0.384231 0.000000
O O16 0.277324 0.902865 0.500000
O O17 0.000000 0.896620 0.348173
#
# Coordination Sequence:
#
# PCOD9385761 Si02
#       6
#     8   4   4   8   8   8
#     4  10  20  34  53  76 100 130 171 214 254 300
#     4   7  10  16  27  43  65  99 144 191 238 289
#     4  11  24  41  62  88 114 141 176 213 246 286
#     4   9  16  25  38  58  85 117 154 199 250 299
#     4   8  12  19  31  47  70 104 148 195 241 292
#     4  11  24  40  58  82 111 141 172 207 251 301
#
# _framework density 20.682914
#
# number of rings (size 3 to 8) (size 9 to 14) (size 15 to 20)
#    0.000    2.600    0.000    4.200    0.000    9.600 
#    0.000    0.500    0.000    3.000    0.000    0.000 
#    0.000    0.000    0.000    0.900    0.000   18.400 
#
# Total GULP energy -223253.735539 kJ/mol
# GULP energy per Si atom -5581.343388 kJ/mol
# Density = 2.063584 g / cm^3
# Si number density = 20.682914 Si / 1000 Ang^3
#
#
#
# Elastic Constant Matrix: (Units=GPa)
#
#
# Indices 1 2 3 4 5 6 
#
# 1 32.7299 -1.3611 6.7969 0.0000 0.0000 0.0000
# 2 -1.3611 234.2387 130.5093 0.0000 0.0000 0.0000
# 3 6.7969 130.5093 190.8650 0.0000 0.0000 0.0000
# 4 0.0000 0.0000 0.0000 -90.1604 0.0000 0.0000
# 5 0.0000 0.0000 0.0000 0.0000 33.4045 0.0000
# 6 0.0000 0.0000 0.0000 0.0000 0.0000 -59.2639
#
#
#
# Elastic Compliance Matrix: (Units=1/GPa)
#
#
# Indices 1 2 3 4 5 6 
#
# 1 0.031018 0.001285 -0.001984 0.000000 0.000000 0.000000
# 2 0.001285 0.006950 -0.004798 0.000000 0.000000 0.000000
# 3 -0.001984 -0.004798 0.008591 0.000000 0.000000 0.000000
# 4 0.000000 0.000000 0.000000 -0.011091 0.000000 0.000000
# 5 0.000000 0.000000 0.000000 0.000000 0.029936 0.000000
# 6 0.000000 0.000000 0.000000 0.000000 0.000000 -0.016874
#
#
# Mechanical properties :
#
#
# Convention : Reuss Voigt Hill
#
# Bulk Modulus (GPa) = 28.11609 81.08043 54.59826
# Shear Modulus (GPa) = 70.04982 -1.74473 34.15254
#
# Velocity S-wave (km/s) = 5.82597 -0.91945 4.06796
# Velocity P-wave (km/s) = 7.67329 6.17734 6.96559
#
# Compressibility (1/GPa) = 0.03556683
#
# Stress axis : x y z
#
# Youngs Moduli (GPa) = 32.23887 143.88794 116.40544
#
# Poissons Ratio (x) = -0.18495 0.23089
# Poissons Ratio (y) = -0.04144 0.55851
# Poissons Ratio (z) = 0.06395 0.69036
#
# Static dielectric constant tensor:
#      x y z
#    x 1.774460 0.000000 0.000000 
#    y 0.000000 1.679560 0.000000 
#    z 0.000000 0.000000 1.729530 
# 
# From -- ./inp_files/1686.got.cif
#   From: 2010.05.17/outbox.cif.g08.bks.cpg/sg47_1_cif.got.tgz:1686.got - 2010.06.03 20:15:42.
