data_PCOD9385827
_publ_section_title
;
Structure prediction by ZEFSAII (Michael W. Deem and Ramdas Pophale) SiO2 
 PCOD9385827
Probable space group: P M M M
;
_chemical_formula_sum "Si O2"
_cell_formula_units_Z 52
_cell_length_a 9.076944
_cell_length_b 20.964452
_cell_length_c 15.050798
_cell_angle_alpha 90.000000
_cell_angle_beta 90.000000
_cell_angle_gamma 90.000000
_cell_volume 2864.063864
_symmetry_space_group_name_H-M "P M M M"
_symmetry_group_IT_number 47
_symmetry_cell_setting 'orthorhombic'
loop_
_space_group_symop_operation_xyz
x,y,z
-x,-y,z
x,-y,-z
-x,y,-z
-x,-y,-z
x,y,-z
-x,y,z
x,-y,z
loop_
_atom_site_type_symbol
_atom_site_label
_atom_site_fract_x
_atom_site_fract_y
_atom_site_fract_z
Si Si1 0.665098 0.923254 0.500000
Si Si2 0.326450 0.805184 0.259800
Si Si3 0.320479 0.304602 0.396848
Si Si4 0.677266 0.429684 0.714321
Si Si5 0.166898 0.253791 0.899284
Si Si6 0.829076 0.407080 0.098738
Si Si7 0.824258 0.926338 0.317193
O O1 0.500000 0.895418 0.500000
O O2 0.755194 0.908032 0.412373
O O3 0.651711 0.000000 0.500000
O O4 0.500000 0.816080 0.270555
O O5 0.276370 0.757713 0.339622
O O6 0.287511 0.769551 0.169153
O O7 0.242797 0.872314 0.255541
O O8 0.272822 0.302866 0.500000
O O9 0.500000 0.305169 0.397031
O O10 0.272513 0.369152 0.344878
O O11 0.500000 0.425635 0.719031
O O12 0.715404 0.500000 0.676734
O O13 0.740232 0.426837 0.814245
O O14 0.171206 0.330273 0.901042
O O15 0.000000 0.235181 0.871285
O O16 0.190204 0.230960 0.000000
O O17 0.000000 0.426950 0.106882
O O18 0.775658 0.426882 0.000000
O O19 0.000000 0.923504 0.320242
O O20 0.782425 0.000000 0.297278
#
# Coordination Sequence:
#
# PCOD9385827 Si02
#       7
#     4   8   8   8   8   8   8
#     4   9  17  31  51  75 105 141 182 225 268 317
#     4  11  21  33  56  84 110 142 179 226 276 321
#     4   9  19  35  52  75 107 140 179 224 268 315
#     4  10  20  34  53  77 105 139 181 227 272 317
#     4   9  18  34  56  80 107 140 177 219 270 330
#     4   9  18  33  53  76 104 139 175 214 266 328
#     4  10  21  36  53  76 110 150 187 223 269 328
#
# _framework density 18.156020000000002
#
# number of rings (size 3 to 8) (size 9 to 14) (size 15 to 20)
#    0.000    2.385    1.538    2.077    1.077    3.385 
#    0.000    4.615    0.000    2.769    0.000    4.308 
#    0.000    0.000    0.000    0.000    0.000    0.000 
#
# Total GULP energy -289832.446461 kJ/mol
# GULP energy per Si atom -5573.700893 kJ/mol
# Density = 1.811470 g / cm^3
# Si number density = 18.156020 Si / 1000 Ang^3
#
#
#
# Elastic Constant Matrix: (Units=GPa)
#
#
# Indices 1 2 3 4 5 6 
#
# 1 33.7563 33.8656 17.7550 0.0000 0.0000 0.0000
# 2 33.8656 109.8647 36.1859 0.0000 0.0000 0.0000
# 3 17.7550 36.1859 74.1227 0.0000 0.0000 0.0000
# 4 0.0000 0.0000 0.0000 3.1751 0.0000 0.0000
# 5 0.0000 0.0000 0.0000 0.0000 27.3044 0.0000
# 6 0.0000 0.0000 0.0000 0.0000 0.0000 14.2561
#
#
#
# Elastic Compliance Matrix: (Units=1/GPa)
#
#
# Indices 1 2 3 4 5 6 
#
# 1 0.044215 -0.012084 -0.004692 0.000000 0.000000 0.000000
# 2 -0.012084 0.014149 -0.004013 0.000000 0.000000 0.000000
# 3 -0.004692 -0.004013 0.016574 0.000000 0.000000 0.000000
# 4 0.000000 0.000000 0.000000 0.314952 0.000000 0.000000
# 5 0.000000 0.000000 0.000000 0.000000 0.036624 0.000000
# 6 0.000000 0.000000 0.000000 0.000000 0.000000 0.070145
#
#
# Mechanical properties :
#
#
# Convention : Reuss Voigt Hill
#
# Bulk Modulus (GPa) = 29.97540 43.70632 36.84086
# Shear Modulus (GPa) = 9.10157 17.60961 13.35559
#
# Velocity S-wave (km/s) = 2.24140 3.11771 2.71514
# Velocity P-wave (km/s) = 4.82123 6.08975 5.49223
#
# Compressibility (1/GPa) = 0.03336069
#
# Stress axis : x y z
#
# Youngs Moduli (GPa) = 22.61687 70.67859 60.33566
#
# Poissons Ratio (x) = 0.85407 0.28308
# Poissons Ratio (y) = 0.27330 0.24211
# Poissons Ratio (z) = 0.10611 0.28361
#
# Static dielectric constant tensor:
#      x y z
#    x 1.612760 0.000000 0.000000 
#    y 0.000000 1.651710 0.000000 
#    z 0.000000 0.000000 1.631640 
# 
# From -- ./inp_files/11062.got.cif
#   From: 2010.05.17/outbox.cif.g08.bks.cpg/sg47_6_cif.got.tgz:11062.got - 2010.06.03 20:15:42.
