data_PCOD9385574
_publ_section_title
;
Structure prediction by ZEFSAII (Michael W. Deem and Ramdas Pophale) SiO2 
 PCOD9385574
Probable space group: P M M M
;
_chemical_formula_sum "Si O2"
_cell_formula_units_Z 52
_cell_length_a 15.006401
_cell_length_b 20.511340
_cell_length_c 9.502529
_cell_angle_alpha 90.000000
_cell_angle_beta 90.000000
_cell_angle_gamma 90.000000
_cell_volume 2924.891664
_symmetry_space_group_name_H-M "P M M M"
_symmetry_group_IT_number 47
_symmetry_cell_setting 'orthorhombic'
loop_
_space_group_symop_operation_xyz
x,y,z
-x,-y,z
x,-y,-z
-x,y,-z
-x,-y,-z
x,y,-z
-x,y,z
x,-y,z
loop_
_atom_site_type_symbol
_atom_site_label
_atom_site_fract_x
_atom_site_fract_y
_atom_site_fract_z
Si Si1 0.101476 0.669099 0.750524
Si Si2 0.709320 0.180764 0.670111
Si Si3 0.094426 0.818203 0.336183
Si Si4 0.892748 0.427703 0.500000
Si Si5 0.392771 0.423859 0.335911
Si Si6 0.294902 0.686315 0.840991
Si Si7 0.392944 0.925244 0.160868
O O1 0.096312 0.739486 0.674833
O O2 0.126950 0.614100 0.637559
O O3 0.187961 0.674627 0.846984
O O4 0.000000 0.656644 0.805268
O O5 0.707318 0.187212 0.500000
O O6 0.809721 0.160442 0.717967
O O7 0.689829 0.249880 0.744428
O O8 0.644690 0.125684 0.728322
O O9 0.092197 0.836170 0.500000
O O10 0.000000 0.839552 0.270186
O O11 0.853452 0.500000 0.500000
O O12 0.000000 0.433062 0.500000
O O13 0.369465 0.410761 0.500000
O O14 0.500000 0.415987 0.322784
O O15 0.372444 0.500000 0.307010
O O16 0.342166 0.374671 0.233806
O O17 0.327883 0.696208 0.000000
O O18 0.500000 0.923809 0.164067
O O19 0.365183 0.000000 0.189483
O O20 0.365479 0.908625 0.000000
#
# Coordination Sequence:
#
# PCOD9385574 Si02
#       7
#     8   8   8   4   8   8   8
#     4   9  17  30  47  69 102 138 174 215 259 310
#     4  10  20  33  54  82 110 139 176 224 267 304
#     4   8  13  25  46  70  98 133 170 212 259 302
#     4   9  16  26  44  70  95 127 174 221 265 313
#     4   9  20  40  62  79  96 125 170 224 276 323
#     4  11  23  35  52  79 110 143 177 216 267 323
#     4   9  19  37  59  81 109 146 180 210 256 321
#
# _framework density 17.778435999999999
#
# number of rings (size 3 to 8) (size 9 to 14) (size 15 to 20)
#    0.000    2.692    0.769    1.846    2.154    2.769 
#    0.000    1.538    0.000    1.846    0.000    6.462 
#    0.000    0.000    0.000    0.000    0.000    0.000 
#
# Total GULP energy -289498.583317 kJ/mol
# GULP energy per Si atom -5567.280448 kJ/mol
# Density = 1.773797 g / cm^3
# Si number density = 17.778436 Si / 1000 Ang^3
#
#
#
# Elastic Constant Matrix: (Units=GPa)
#
#
# Indices 1 2 3 4 5 6 
#
# 1 54.0287 37.1780 35.5933 0.0000 0.0000 0.0000
# 2 37.1780 70.9170 55.3615 0.0000 0.0000 0.0000
# 3 35.5933 55.3615 98.4492 0.0000 0.0000 0.0000
# 4 0.0000 0.0000 0.0000 24.9742 0.0000 0.0000
# 5 0.0000 0.0000 0.0000 0.0000 15.9355 0.0000
# 6 0.0000 0.0000 0.0000 0.0000 0.0000 7.8410
#
#
#
# Elastic Compliance Matrix: (Units=1/GPa)
#
#
# Indices 1 2 3 4 5 6 
#
# 1 0.029624 -0.012779 -0.003524 0.000000 0.000000 0.000000
# 2 -0.012779 0.030648 -0.012614 0.000000 0.000000 0.000000
# 3 -0.003524 -0.012614 0.018525 0.000000 0.000000 0.000000
# 4 0.000000 0.000000 0.000000 0.040041 0.000000 0.000000
# 5 0.000000 0.000000 0.000000 0.000000 0.062753 0.000000
# 6 0.000000 0.000000 0.000000 0.000000 0.000000 0.127535
#
#
# Mechanical properties :
#
#
# Convention : Reuss Voigt Hill
#
# Bulk Modulus (GPa) = 47.70566 53.29560 50.50063
# Shear Modulus (GPa) = 13.37088 16.10094 14.73591
#
# Velocity S-wave (km/s) = 2.74539 3.01266 2.88212
# Velocity P-wave (km/s) = 6.07793 6.49186 6.28830
#
# Compressibility (1/GPa) = 0.02096187
#
# Stress axis : x y z
#
# Youngs Moduli (GPa) = 33.75674 32.62904 53.98131
#
# Poissons Ratio (x) = 0.41697 0.19023
# Poissons Ratio (y) = 0.43138 0.68092
# Poissons Ratio (z) = 0.11896 0.41158
#
# Static dielectric constant tensor:
#      x y z
#    x 1.661510 0.000000 0.000000 
#    y 0.000000 1.580690 0.000000 
#    z 0.000000 0.000000 1.603350 
# 
# From -- ./inp_files/7005.got.cif
#   From: 2010.05.17/outbox.cif.g08.bks.cpg/sg47_4_cif.got.tgz:7005.got - 2010.06.03 20:15:42.
