data_PCOD9385943
_publ_section_title
;
Structure prediction by ZEFSAII (Michael W. Deem and Ramdas Pophale) SiO2 
 PCOD9385943
Probable space group: P M M M
;
_chemical_formula_sum "Si O2"
_cell_formula_units_Z 48
_cell_length_a 9.208728
_cell_length_b 33.513084
_cell_length_c 7.535327
_cell_angle_alpha 90.000000
_cell_angle_beta 90.000000
_cell_angle_gamma 90.000000
_cell_volume 2325.498930
_symmetry_space_group_name_H-M "P M M M"
_symmetry_group_IT_number 47
_symmetry_cell_setting 'orthorhombic'
loop_
_space_group_symop_operation_xyz
x,y,z
-x,-y,z
x,-y,-z
-x,y,-z
-x,-y,-z
x,y,-z
-x,y,z
x,-y,z
loop_
_atom_site_type_symbol
_atom_site_label
_atom_site_fract_x
_atom_site_fract_y
_atom_site_fract_z
Si Si1 0.828131 0.952404 0.500000
Si Si2 0.167358 0.500000 0.217331
Si Si3 0.664870 0.578972 0.786945
Si Si4 0.164652 0.660181 0.712818
Si Si5 0.834828 0.181340 0.212849
Si Si6 0.335721 0.737539 0.287786
Si Si7 0.327257 0.899550 0.787567
O O1 0.751741 0.933053 0.328278
O O2 0.000000 0.942964 0.500000
O O3 0.811289 0.000000 0.500000
O O4 0.249897 0.539863 0.276968
O O5 0.000000 0.500000 0.273247
O O6 0.167849 0.500000 0.000000
O O7 0.500000 0.580678 0.718993
O O8 0.750791 0.619376 0.748044
O O9 0.657293 0.575428 0.000000
O O10 0.155914 0.664446 0.500000
O O11 0.252054 0.698584 0.781868
O O12 0.000000 0.658698 0.781712
O O13 0.754442 0.222378 0.256272
O O14 0.742374 0.142835 0.268723
O O15 0.000000 0.180535 0.281899
O O16 0.842482 0.179149 0.000000
O O17 0.346026 0.732778 0.500000
O O18 0.500000 0.740640 0.217871
O O19 0.500000 0.899474 0.755545
O O20 0.304504 0.904795 0.000000
#
# Coordination Sequence:
#
# PCOD9385943 Si02
#       7
#     4   4   8   8   8   8   8
#     4  11  25  43  65  95 129 169 215 261 313 376
#     4   9  17  31  52  77 104 133 168 214 266 319
#     4  10  20  34  54  79 105 135 172 215 266 325
#     4  10  21  37  55  76 105 141 181 225 274 329
#     4  10  21  37  58  85 117 153 193 238 290 347
#     4  10  21  36  55  79 108 145 187 230 279 335
#     4  10  22  41  65  93 127 166 209 261 317 371
#
# _framework density 20.640732
#
# number of rings (size 3 to 8) (size 9 to 14) (size 15 to 20)
#    0.000    2.000    0.000    3.000    1.167    7.667 
#    0.000    2.083    0.000    2.500    0.000    0.000 
#    0.000    0.000    0.000    0.000    0.000    0.000 
#
# Total GULP energy -268302.714183 kJ/mol
# GULP energy per Si atom -5589.639879 kJ/mol
# Density = 2.059375 g / cm^3
# Si number density = 20.640732 Si / 1000 Ang^3
#
#
#
# Elastic Constant Matrix: (Units=GPa)
#
#
# Indices 1 2 3 4 5 6 
#
# 1 236.9645 132.0294 41.3421 0.0000 0.0000 0.0000
# 2 132.0294 193.9874 31.5019 0.0000 0.0000 0.0000
# 3 41.3421 31.5019 62.8685 0.0000 0.0000 0.0000
# 4 0.0000 0.0000 0.0000 30.8084 0.0000 0.0000
# 5 0.0000 0.0000 0.0000 0.0000 21.2386 0.0000
# 6 0.0000 0.0000 0.0000 0.0000 0.0000 45.4079
#
#
#
# Elastic Compliance Matrix: (Units=1/GPa)
#
#
# Indices 1 2 3 4 5 6 
#
# 1 0.007130 -0.004454 -0.002457 0.000000 0.000000 0.000000
# 2 -0.004454 0.008394 -0.001277 0.000000 0.000000 0.000000
# 3 -0.002457 -0.001277 0.018162 0.000000 0.000000 0.000000
# 4 0.000000 0.000000 0.000000 0.032459 0.000000 0.000000
# 5 0.000000 0.000000 0.000000 0.000000 0.047084 0.000000
# 6 0.000000 0.000000 0.000000 0.000000 0.000000 0.022023
#
#
# Mechanical properties :
#
#
# Convention : Reuss Voigt Hill
#
# Bulk Modulus (GPa) = 57.77069 100.39637 79.08353
# Shear Modulus (GPa) = 31.76673 38.75411 35.26042
#
# Velocity S-wave (km/s) = 3.92731 4.33778 4.13763
# Velocity P-wave (km/s) = 6.97240 8.59267 7.82459
#
# Compressibility (1/GPa) = 0.01730981
#
# Stress axis : x y z
#
# Youngs Moduli (GPa) = 140.24610 119.13645 55.06042
#
# Poissons Ratio (x) = 0.53063 0.13529
# Poissons Ratio (y) = 0.62465 0.07031
# Poissons Ratio (z) = 0.34460 0.15214
#
# Static dielectric constant tensor:
#      x y z
#    x 1.722410 0.000000 0.000000 
#    y 0.000000 1.680060 0.000000 
#    z 0.000000 0.000000 1.777900 
# 
# From -- ./inp_files/2716.got.cif
#   From: 2010.05.17/outbox.cif.g08.bks.cpg/sg47_2_cif.got.tgz:2716.got - 2010.06.03 20:15:42.
