data_PCOD9385258
_publ_section_title
;
Structure prediction by ZEFSAII (Michael W. Deem and Ramdas Pophale) SiO2 
 PCOD9385258
Probable space group: P M M M
;
_chemical_formula_sum "Si O2"
_cell_formula_units_Z 52
_cell_length_a 10.836074
_cell_length_b 8.890432
_cell_length_c 31.522983
_cell_angle_alpha 90.000000
_cell_angle_beta 90.000000
_cell_angle_gamma 90.000000
_cell_volume 3036.841562
_symmetry_space_group_name_H-M "P M M M"
_symmetry_group_IT_number 47
_symmetry_cell_setting 'orthorhombic'
loop_
_space_group_symop_operation_xyz
x,y,z
-x,-y,z
x,-y,-z
-x,y,-z
-x,-y,-z
x,y,-z
-x,y,z
x,-y,z
loop_
_atom_site_type_symbol
_atom_site_label
_atom_site_fract_x
_atom_site_fract_y
_atom_site_fract_z
Si Si1 0.000000 0.820176 0.050500
Si Si2 0.649218 0.174502 0.832533
Si Si3 0.854644 0.683310 0.405970
Si Si4 0.350907 0.671630 0.254660
Si Si5 0.354879 0.819497 0.655016
Si Si6 0.148792 0.670724 0.500000
Si Si7 0.249476 0.320837 0.082308
Si Si8 0.644110 0.832673 0.000000
O O1 0.883575 0.748548 0.073381
O O2 0.000000 0.000000 0.054050
O O3 0.000000 0.782461 0.000000
O O4 0.500000 0.179430 0.833121
O O5 0.692295 0.249673 0.788561
O O6 0.697297 0.261088 0.873559
O O7 0.686368 0.000000 0.834321
O O8 0.850645 0.500000 0.405593
O O9 0.749804 0.747500 0.375016
O O10 0.821857 0.737385 0.454005
O O11 0.000000 0.723311 0.396987
O O12 0.500000 0.665774 0.251715
O O13 0.305721 0.500000 0.258083
O O14 0.325457 0.764285 0.297238
O O15 0.500000 0.776014 0.645932
O O16 0.348957 0.000000 0.652581
O O17 0.198665 0.500000 0.500000
O O18 0.000000 0.660384 0.500000
O O19 0.247862 0.500000 0.081932
O O20 0.323916 0.257301 0.042186
O O21 0.500000 0.853402 0.000000
O O22 0.705416 0.000000 0.000000
#
# Coordination Sequence:
#
# PCOD9385258 Si02
#       8
#     4   8   8   8   8   4   8   4
#     4  11  23  41  63  79 100 138 180 214 252 305
#     4  10  20  35  56  82 112 143 173 208 256 313
#     4   9  17  31  53  78 103 135 178 227 276 323
#     4   9  17  31  53  79 105 135 174 218 261 307
#     4  10  20  33  50  75 108 145 182 219 265 323
#     4   7  12  26  48  73 100 132 174 223 272 323
#     4  12  24  37  57  82 108 136 173 216 256 301
#     4  11  23  38  55  78 109 141 171 207 256 307
#
# _framework density 17.123052999999999
#
# number of rings (size 3 to 8) (size 9 to 14) (size 15 to 20)
#    0.000    2.077    0.769    4.615    0.000    6.769 
#    0.000    0.769    1.692    3.692    0.000    0.000 
#    0.000    0.000    0.000    0.000    0.000    0.000 
#
# Total GULP energy -289816.464375 kJ/mol
# GULP energy per Si atom -5573.393546 kJ/mol
# Density = 1.708408 g / cm^3
# Si number density = 17.123053 Si / 1000 Ang^3
#
#
#
# Elastic Constant Matrix: (Units=GPa)
#
#
# Indices 1 2 3 4 5 6 
#
# 1 76.1366 41.2486 60.1199 0.0000 0.0000 0.0000
# 2 41.2486 103.6776 61.4842 0.0000 0.0000 0.0000
# 3 60.1199 61.4842 165.1065 0.0000 0.0000 0.0000
# 4 0.0000 0.0000 0.0000 13.5069 0.0000 0.0000
# 5 0.0000 0.0000 0.0000 0.0000 35.0653 0.0000
# 6 0.0000 0.0000 0.0000 0.0000 0.0000 24.5046
#
#
#
# Elastic Compliance Matrix: (Units=1/GPa)
#
#
# Indices 1 2 3 4 5 6 
#
# 1 0.020063 -0.004684 -0.005561 0.000000 0.000000 0.000000
# 2 -0.004684 0.013473 -0.003311 0.000000 0.000000 0.000000
# 3 -0.005561 -0.003311 0.009315 0.000000 0.000000 0.000000
# 4 0.000000 0.000000 0.000000 0.074036 0.000000 0.000000
# 5 0.000000 0.000000 0.000000 0.000000 0.028518 0.000000
# 6 0.000000 0.000000 0.000000 0.000000 0.000000 0.040809
#
#
# Mechanical properties :
#
#
# Convention : Reuss Voigt Hill
#
# Bulk Modulus (GPa) = 63.54442 74.51400 69.02921
# Shear Modulus (GPa) = 22.87554 26.75322 24.81438
#
# Velocity S-wave (km/s) = 3.65903 3.95702 3.81094
# Velocity P-wave (km/s) = 7.41905 8.03048 7.73081
#
# Compressibility (1/GPa) = 0.01573702
#
# Stress axis : x y z
#
# Youngs Moduli (GPa) = 49.84182 74.22386 107.35529
#
# Poissons Ratio (x) = 0.34769 0.59703
# Poissons Ratio (y) = 0.23348 0.35550
# Poissons Ratio (z) = 0.27718 0.24579
#
# Static dielectric constant tensor:
#      x y z
#    x 1.288530 0.000000 0.000000 
#    y 0.000000 1.582700 0.000000 
#    z 0.000000 0.000000 1.550580 
# 
# From -- ./inp_files/34553.got.cif
#   From: 2010.05.17/outbox.cif.g08.bks.cpg/sg47_18_cif.got.tgz:34553.got - 2010.06.03 20:15:42.
