data_PCOD9385482
_publ_section_title
;
Structure prediction by ZEFSAII (Michael W. Deem and Ramdas Pophale) SiO2 
 PCOD9385482
Probable space group: P M M M
;
_chemical_formula_sum "Si O2"
_cell_formula_units_Z 48
_cell_length_a 31.687477
_cell_length_b 9.455256
_cell_length_c 7.813669
_cell_angle_alpha 90.000000
_cell_angle_beta 90.000000
_cell_angle_gamma 90.000000
_cell_volume 2341.078428
_symmetry_space_group_name_H-M "P M M M"
_symmetry_group_IT_number 47
_symmetry_cell_setting 'orthorhombic'
loop_
_space_group_symop_operation_xyz
x,y,z
-x,-y,z
x,-y,-z
-x,y,-z
-x,-y,-z
x,y,-z
-x,y,z
x,-y,z
loop_
_atom_site_type_symbol
_atom_site_label
_atom_site_fract_x
_atom_site_fract_y
_atom_site_fract_z
Si Si1 0.789925 0.339103 0.295806
Si Si2 0.628578 0.340333 0.795273
Si Si3 0.952456 0.336879 0.208927
Si Si4 0.452396 0.161499 0.293418
Si Si5 0.707530 0.160254 0.794820
Si Si6 0.872506 0.839532 0.793859
O O1 0.788484 0.346700 0.500000
O O2 0.789518 0.500000 0.227324
O O3 0.749350 0.250558 0.238176
O O4 0.832309 0.256608 0.246660
O O5 0.630249 0.500000 0.726549
O O6 0.583811 0.267009 0.763548
O O7 0.666518 0.242905 0.726871
O O8 0.634209 0.348815 0.000000
O O9 0.944611 0.500000 0.259554
O O10 0.915333 0.234990 0.269441
O O11 0.000000 0.297493 0.262559
O O12 0.952192 0.334773 0.000000
O O13 0.452691 0.160565 0.500000
O O14 0.500000 0.198538 0.236509
O O15 0.443388 0.000000 0.236516
O O16 0.710773 0.000000 0.727506
O O17 0.702920 0.150038 0.000000
O O18 0.867569 0.000000 0.729721
O O19 0.875498 0.846490 0.000000
#
# Coordination Sequence:
#
# PCOD9385482 Si02
#       6
#     8   8   8   8   8   8
#     4  11  24  39  55  77 105 138 176 216 260 311
#     4  10  21  36  55  81 111 141 174 214 261 312
#     4   8  14  26  46  73 104 137 173 213 257 305
#     4   9  19  36  56  78 106 142 183 223 263 309
#     4  10  21  38  60  83 106 135 173 215 261 314
#     4  10  20  33  52  79 108 139 175 214 260 312
#
# _framework density 20.503373
#
# number of rings (size 3 to 8) (size 9 to 14) (size 15 to 20)
#    0.000    2.333    0.000    3.500    0.000    8.333 
#    0.000    4.167    0.000    0.500    0.000    3.500 
#    0.000    0.000    0.000    0.000    0.000    0.000 
#
# Total GULP energy -268072.046189 kJ/mol
# GULP energy per Si atom -5584.834296 kJ/mol
# Density = 2.045671 g / cm^3
# Si number density = 20.503373 Si / 1000 Ang^3
#
#
#
# Elastic Constant Matrix: (Units=GPa)
#
#
# Indices 1 2 3 4 5 6 
#
# 1 181.2352 139.6187 0.2186 0.0000 0.0000 0.0000
# 2 139.6187 215.3372 10.3160 0.0000 0.0000 0.0000
# 3 0.2186 10.3160 25.0253 0.0000 0.0000 0.0000
# 4 0.0000 0.0000 0.0000 16.0755 0.0000 0.0000
# 5 0.0000 0.0000 0.0000 0.0000 64.2363 0.0000
# 6 0.0000 0.0000 0.0000 0.0000 0.0000 57.1513
#
#
#
# Elastic Compliance Matrix: (Units=1/GPa)
#
#
# Indices 1 2 3 4 5 6 
#
# 1 0.011235 -0.007427 0.002963 0.000000 0.000000 0.000000
# 2 -0.007427 0.009647 -0.003912 0.000000 0.000000 0.000000
# 3 0.002963 -0.003912 0.041546 0.000000 0.000000 0.000000
# 4 0.000000 0.000000 0.000000 0.062207 0.000000 0.000000
# 5 0.000000 0.000000 0.000000 0.000000 0.015568 0.000000
# 6 0.000000 0.000000 0.000000 0.000000 0.000000 0.017497
#
#
# Mechanical properties :
#
#
# Convention : Reuss Voigt Hill
#
# Bulk Modulus (GPa) = 21.89232 80.21159 51.05195
# Shear Modulus (GPa) = 26.36074 45.58890 35.97482
#
# Velocity S-wave (km/s) = 3.58953 4.72050 4.19332
# Velocity P-wave (km/s) = 5.28017 8.30162 6.95691
#
# Compressibility (1/GPa) = 0.04567813
#
# Stress axis : x y z
#
# Youngs Moduli (GPa) = 89.00383 103.66391 24.06957
#
# Poissons Ratio (x) = 0.76988 -0.07133
# Poissons Ratio (y) = 0.66101 0.09415
# Poissons Ratio (z) = -0.26375 0.40550
#
# Static dielectric constant tensor:
#      x y z
#    x 1.692070 0.000000 0.000000 
#    y 0.000000 1.723690 0.000000 
#    z 0.000000 0.000000 1.757930 
# 
# From -- ./inp_files/2459.got.cif
#   From: 2010.05.17/outbox.cif.g08.bks.cpg/sg47_2_cif.got.tgz:2459.got - 2010.06.03 20:15:42.
