data_PCOD9385544
_publ_section_title
;
Structure prediction by ZEFSAII (Michael W. Deem and Ramdas Pophale) SiO2 
 PCOD9385544
Probable space group: P M M M
;
_chemical_formula_sum "Si O2"
_cell_formula_units_Z 48
_cell_length_a 10.292058
_cell_length_b 13.597692
_cell_length_c 18.324143
_cell_angle_alpha 90.000000
_cell_angle_beta 90.000000
_cell_angle_gamma 90.000000
_cell_volume 2564.431466
_symmetry_space_group_name_H-M "P M M M"
_symmetry_group_IT_number 47
_symmetry_cell_setting 'orthorhombic'
loop_
_space_group_symop_operation_xyz
x,y,z
-x,-y,z
x,-y,-z
-x,y,-z
-x,-y,-z
x,y,-z
-x,y,z
x,-y,z
loop_
_atom_site_type_symbol
_atom_site_label
_atom_site_fract_x
_atom_site_fract_y
_atom_site_fract_z
Si Si1 0.355432 0.701536 0.085795
Si Si2 0.000000 0.881631 0.919532
Si Si3 0.148581 0.388187 0.191912
Si Si4 0.652269 0.281260 0.588321
Si Si5 0.153910 0.796518 0.699458
Si Si6 0.656452 0.500000 0.582141
Si Si7 0.736325 0.113190 0.162965
O O1 0.500000 0.657982 0.091015
O O2 0.250042 0.637237 0.128453
O O3 0.357044 0.806452 0.127889
O O4 0.325162 0.715401 0.000000
O O5 0.128074 0.857768 0.875868
O O6 0.000000 0.000000 0.925299
O O7 0.000000 0.838382 0.000000
O O8 0.169038 0.500000 0.218410
O O9 0.160729 0.306130 0.254929
O O10 0.000000 0.381277 0.164533
O O11 0.659023 0.278086 0.500000
O O12 0.500000 0.261031 0.607815
O O13 0.759961 0.214803 0.626980
O O14 0.685750 0.393257 0.613488
O O15 0.229360 0.872099 0.752400
O O16 0.000000 0.819328 0.689232
O O17 0.500000 0.500000 0.576285
O O18 0.711769 0.500000 0.500000
O O19 0.703019 0.000000 0.147205
#
# Coordination Sequence:
#
# PCOD9385544 Si02
#       7
#     8   4   8   8   8   4   8
#     4  10  22  37  53  79 112 142 177 225 278 328
#     4   9  16  28  52  82 102 126 171 220 266 316
#     4   9  20  38  56  76 106 146 189 227 266 318
#     4   9  18  33  53  77 106 141 182 222 261 316
#     4  10  20  33  53  80 110 139 172 224 279 323
#     4   7  12  26  47  71  99 131 169 212 254 301
#     4  10  20  36  56  78 106 141 178 220 273 332
#
# _framework density 18.717599
#
# number of rings (size 3 to 8) (size 9 to 14) (size 15 to 20)
#    0.000    2.667    0.833    1.500    2.333    5.333 
#    0.000    2.500    0.000    2.000    0.000    2.333 
#    0.000    0.000    0.000    0.000    0.000    0.000 
#
# Total GULP energy -267288.421709 kJ/mol
# GULP energy per Si atom -5568.508786 kJ/mol
# Density = 1.867500 g / cm^3
# Si number density = 18.717599 Si / 1000 Ang^3
#
#
#
# Elastic Constant Matrix: (Units=GPa)
#
#
# Indices 1 2 3 4 5 6 
#
# 1 79.2779 1.5210 35.5971 0.0000 0.0000 0.0000
# 2 1.5210 37.3861 -3.8830 0.0000 0.0000 0.0000
# 3 35.5971 -3.8830 59.9195 0.0000 0.0000 0.0000
# 4 0.0000 0.0000 0.0000 13.0312 0.0000 0.0000
# 5 0.0000 0.0000 0.0000 0.0000 29.4967 0.0000
# 6 0.0000 0.0000 0.0000 0.0000 0.0000 15.3519
#
#
#
# Elastic Compliance Matrix: (Units=1/GPa)
#
#
# Indices 1 2 3 4 5 6 
#
# 1 0.017320 -0.001785 -0.010405 0.000000 0.000000 0.000000
# 2 -0.001785 0.027113 0.002818 0.000000 0.000000 0.000000
# 3 -0.010405 0.002818 0.023053 0.000000 0.000000 0.000000
# 4 0.000000 0.000000 0.000000 0.076739 0.000000 0.000000
# 5 0.000000 0.000000 0.000000 0.000000 0.033902 0.000000
# 6 0.000000 0.000000 0.000000 0.000000 0.000000 0.065138
#
#
# Mechanical properties :
#
#
# Convention : Reuss Voigt Hill
#
# Bulk Modulus (GPa) = 20.51675 27.00597 23.76136
# Shear Modulus (GPa) = 17.96885 21.13252 19.55069
#
# Velocity S-wave (km/s) = 3.10174 3.36373 3.23539
# Velocity P-wave (km/s) = 4.87983 5.43560 5.16519
#
# Compressibility (1/GPa) = 0.04874066
#
# Stress axis : x y z
#
# Youngs Moduli (GPa) = 57.73582 36.88244 43.37779
#
# Poissons Ratio (x) = 0.06585 0.45136
# Poissons Ratio (y) = 0.10308 -0.12223
# Poissons Ratio (z) = 0.60076 -0.10392
#
# Static dielectric constant tensor:
#      x y z
#    x 1.761790 0.000000 0.000000 
#    y 0.000000 1.675230 0.000000 
#    z 0.000000 0.000000 1.665140 
# 
# From -- ./inp_files/26567.got.cif
#   From: 2010.05.17/outbox.cif.g08.bks.cpg/sg47_14_cif.got.tgz:26567.got - 2010.06.03 20:15:42.
