data_PCOD9385130
_publ_section_title
;
Structure prediction by ZEFSAII (Michael W. Deem and Ramdas Pophale) SiO2 
 PCOD9385130
Probable space group: P M M M
;
_chemical_formula_sum "Si O2"
_cell_formula_units_Z 56
_cell_length_a 19.638598
_cell_length_b 9.954935
_cell_length_c 15.640669
_cell_angle_alpha 90.000000
_cell_angle_beta 90.000000
_cell_angle_gamma 90.000000
_cell_volume 3057.765907
_symmetry_space_group_name_H-M "P M M M"
_symmetry_group_IT_number 47
_symmetry_cell_setting 'orthorhombic'
loop_
_space_group_symop_operation_xyz
x,y,z
-x,-y,z
x,-y,-z
-x,y,-z
-x,-y,-z
x,y,-z
-x,y,z
x,-y,z
loop_
_atom_site_type_symbol
_atom_site_label
_atom_site_fract_x
_atom_site_fract_y
_atom_site_fract_z
Si Si1 0.423314 0.257861 0.905601
Si Si2 0.280349 0.145821 0.868645
Si Si3 0.160521 0.659278 0.094429
Si Si4 0.188527 0.342671 0.401073
Si Si5 0.420524 0.351938 0.714491
Si Si6 0.305577 0.154812 0.333159
Si Si7 0.077203 0.663037 0.260449
O O1 0.500000 0.197206 0.900518
O O2 0.358077 0.161916 0.899543
O O3 0.416177 0.342761 0.818411
O O4 0.419901 0.324328 0.000000
O O5 0.231785 0.263204 0.900279
O O6 0.281394 0.152396 0.765802
O O7 0.254029 0.000000 0.895073
O O8 0.172732 0.500000 0.105122
O O9 0.112001 0.704999 0.171346
O O10 0.130476 0.680109 0.000000
O O11 0.167945 0.335662 0.500000
O O12 0.205904 0.500000 0.382141
O O13 0.251877 0.244846 0.384281
O O14 0.127281 0.301855 0.338107
O O15 0.500000 0.339629 0.693096
O O16 0.395617 0.500000 0.688723
O O17 0.376707 0.234535 0.672428
O O18 0.311071 0.000000 0.362084
O O19 0.074239 0.500000 0.258972
O O20 0.000000 0.712560 0.269583
#
# Coordination Sequence:
#
# PCOD9385130 Si02
#       7
#     8   8   8   8   8   8   8
#     4   9  18  30  43  66 102 141 183 232 282 327
#     4  10  20  33  50  72 100 140 187 231 274 318
#     4  10  20  33  52  78 107 144 186 225 268 317
#     4  10  20  35  59  88 113 140 175 216 268 329
#     4   9  18  32  51  75 104 142 186 232 281 328
#     4  10  20  34  54  78 107 145 184 224 271 323
#     4   9  18  34  56  83 115 145 174 217 269 319
#
# _framework density 18.314025000000001
#
# number of rings (size 3 to 8) (size 9 to 14) (size 15 to 20)
#    0.000    2.429    1.429    0.857    0.000    5.143 
#    0.000    7.857    0.000    2.143    0.000    5.000 
#    0.000    0.000    0.000    0.000    0.000    0.000 
#
# Total GULP energy -311966.801097 kJ/mol
# GULP energy per Si atom -5570.835734 kJ/mol
# Density = 1.827234 g / cm^3
# Si number density = 18.314025 Si / 1000 Ang^3
#
#
#
# Elastic Constant Matrix: (Units=GPa)
#
#
# Indices 1 2 3 4 5 6 
#
# 1 104.5838 51.5156 47.2914 0.0000 0.0000 0.0000
# 2 51.5156 84.3608 33.3821 0.0000 0.0000 0.0000
# 3 47.2914 33.3821 77.9334 0.0000 0.0000 0.0000
# 4 0.0000 0.0000 0.0000 6.0883 0.0000 0.0000
# 5 0.0000 0.0000 0.0000 0.0000 5.1545 0.0000
# 6 0.0000 0.0000 0.0000 0.0000 0.0000 -3.1096
#
#
#
# Elastic Compliance Matrix: (Units=1/GPa)
#
#
# Indices 1 2 3 4 5 6 
#
# 1 0.016145 -0.007203 -0.006711 0.000000 0.000000 0.000000
# 2 -0.007203 0.017487 -0.003119 0.000000 0.000000 0.000000
# 3 -0.006711 -0.003119 0.018240 0.000000 0.000000 0.000000
# 4 0.000000 0.000000 0.000000 0.164249 0.000000 0.000000
# 5 0.000000 0.000000 0.000000 0.000000 0.194007 0.000000
# 6 0.000000 0.000000 0.000000 0.000000 0.000000 -0.321587
#
#
# Mechanical properties :
#
#
# Convention : Reuss Voigt Hill
#
# Bulk Modulus (GPa) = 56.16756 59.02845 57.59801
# Shear Modulus (GPa) = 38.89772 10.60590 24.75181
#
# Velocity S-wave (km/s) = 4.61361 2.40909 3.68029
# Velocity P-wave (km/s) = 7.68871 6.32768 7.04116
#
# Compressibility (1/GPa) = 0.01780387
#
# Stress axis : x y z
#
# Youngs Moduli (GPa) = 61.94019 57.18594 54.82375
#
# Poissons Ratio (x) = 0.41191 0.36795
# Poissons Ratio (y) = 0.44616 0.17102
# Poissons Ratio (z) = 0.41571 0.17839
#
# Static dielectric constant tensor:
#      x y z
#    x 1.611680 0.000000 0.000000 
#    y 0.000000 1.632590 0.000000 
#    z 0.000000 0.000000 1.648890 
# 
# From -- ./inp_files/25151.got.cif
#   From: 2010.05.17/outbox.cif.g08.bks.cpg/sg47_13_cif.got.tgz:25151.got - 2010.06.03 20:15:42.
