data_PCOD9385709
_publ_section_title
;
Structure prediction by ZEFSAII (Michael W. Deem and Ramdas Pophale) SiO2 
 PCOD9385709
Probable space group: P M M M
;
_chemical_formula_sum "Si O2"
_cell_formula_units_Z 40
_cell_length_a 27.827785
_cell_length_b 9.014443
_cell_length_c 9.561436
_cell_angle_alpha 90.000000
_cell_angle_beta 90.000000
_cell_angle_gamma 90.000000
_cell_volume 2398.505168
_symmetry_space_group_name_H-M "P M M M"
_symmetry_group_IT_number 47
_symmetry_cell_setting 'orthorhombic'
loop_
_space_group_symop_operation_xyz
x,y,z
-x,-y,z
x,-y,-z
-x,y,-z
-x,-y,-z
x,y,-z
-x,y,z
x,-y,z
loop_
_atom_site_type_symbol
_atom_site_label
_atom_site_fract_x
_atom_site_fract_y
_atom_site_fract_z
Si Si1 0.000000 0.677560 0.834478
Si Si2 0.364986 0.827350 0.343736
Si Si3 0.275656 0.178494 0.835408
Si Si4 0.555145 0.676865 0.500000
Si Si5 0.913357 0.177113 0.334976
Si Si6 0.189461 0.323897 0.664959
O O1 0.953565 0.747148 0.759716
O O2 0.000000 0.500000 0.816438
O O3 0.000000 0.710068 0.000000
O O4 0.341727 0.819658 0.500000
O O5 0.326439 0.773659 0.232332
O O6 0.414252 0.738599 0.368197
O O7 0.376106 0.000000 0.316499
O O8 0.232107 0.256898 0.756420
O O9 0.272143 0.000000 0.814542
O O10 0.274328 0.208539 0.000000
O O11 0.556460 0.500000 0.500000
O O12 0.500000 0.726837 0.500000
O O13 0.923322 0.205978 0.500000
O O14 0.860972 0.243923 0.303249
O O15 0.913387 0.000000 0.314769
O O16 0.199529 0.299545 0.500000
O O17 0.184853 0.500000 0.687837
#
# Coordination Sequence:
#
# PCOD9385709 Si02
#       6
#     4   8   8   4   8   8
#     4  11  24  39  56  80 110 141 172 211 260 314
#     4   8  16  30  49  73  99 131 169 211 255 301
#     4  10  20  34  52  75 105 140 175 212 258 311
#     4   9  17  29  49  77 103 129 169 218 261 302
#     4  10  21  38  60  83 104 133 174 218 262 311
#     4  10  21  36  55  79 106 137 174 215 260 309
#
# _framework density 16.677054999999999
#
# number of rings (size 3 to 8) (size 9 to 14) (size 15 to 20)
#    0.600    1.800    0.000    2.400    0.000    8.000 
#    0.000    0.000    0.000    0.600    0.000    4.200 
#    0.000    0.000    0.000    0.000    0.000    0.000 
#
# Total GULP energy -222933.573501 kJ/mol
# GULP energy per Si atom -5573.339338 kJ/mol
# Density = 1.663910 g / cm^3
# Si number density = 16.677055 Si / 1000 Ang^3
#
#
#
# Elastic Constant Matrix: (Units=GPa)
#
#
# Indices 1 2 3 4 5 6 
#
# 1 170.0797 77.6107 93.1696 0.0000 0.0000 0.0000
# 2 77.6107 69.2220 61.2990 0.0000 0.0000 0.0000
# 3 93.1696 61.2990 83.1250 0.0000 0.0000 0.0000
# 4 0.0000 0.0000 0.0000 22.3087 0.0000 0.0000
# 5 0.0000 0.0000 0.0000 0.0000 -3.2658 0.0000
# 6 0.0000 0.0000 0.0000 0.0000 0.0000 39.4217
#
#
#
# Elastic Compliance Matrix: (Units=1/GPa)
#
#
# Indices 1 2 3 4 5 6 
#
# 1 0.016038 -0.005946 -0.013592 0.000000 0.000000 0.000000
# 2 -0.005946 0.043839 -0.025664 0.000000 0.000000 0.000000
# 3 -0.013592 -0.025664 0.046190 0.000000 0.000000 0.000000
# 4 0.000000 0.000000 0.000000 0.044826 0.000000 0.000000
# 5 0.000000 0.000000 0.000000 0.000000 -0.306208 0.000000
# 6 0.000000 0.000000 0.000000 0.000000 0.000000 0.025367
#
#
# Mechanical properties :
#
#
# Convention : Reuss Voigt Hill
#
# Bulk Modulus (GPa) = 63.84077 87.39835 75.61956
# Shear Modulus (GPa) = -145.67370 17.71610 -63.97880
#
# Velocity S-wave (km/s) = -9.35625 3.26284 -6.20054
# Velocity P-wave (km/s) = 8.85186 8.16792 2.41253
#
# Compressibility (1/GPa) = 0.01566397
#
# Stress axis : x y z
#
# Youngs Moduli (GPa) = 62.35046 22.81052 21.64993
#
# Poissons Ratio (x) = 0.13563 0.29426
# Poissons Ratio (y) = 0.37074 0.55562
# Poissons Ratio (z) = 0.84744 0.58541
#
# Static dielectric constant tensor:
#      x y z
#    x 1.540930 0.000000 0.000000 
#    y 0.000000 1.558200 0.000000 
#    z 0.000000 0.000000 1.551470 
# 
# From -- ./inp_files/13022.got.cif
#   From: 2010.05.17/outbox.cif.g08.bks.cpg/sg47_7_cif.got.tgz:13022.got - 2010.06.03 20:15:42.
