data_PCOD9385796
_publ_section_title
;
Structure prediction by ZEFSAII (Michael W. Deem and Ramdas Pophale) SiO2 
 PCOD9385796
Probable space group: P M M M
;
_chemical_formula_sum "Si O2"
_cell_formula_units_Z 64
_cell_length_a 32.900546
_cell_length_b 14.712348
_cell_length_c 8.265835
_cell_angle_alpha 90.000000
_cell_angle_beta 90.000000
_cell_angle_gamma 90.000000
_cell_volume 4001.030169
_symmetry_space_group_name_H-M "P M M M"
_symmetry_group_IT_number 47
_symmetry_cell_setting 'orthorhombic'
loop_
_space_group_symop_operation_xyz
x,y,z
-x,-y,z
x,-y,-z
-x,y,-z
-x,-y,-z
x,y,-z
-x,y,z
x,-y,z
loop_
_atom_site_type_symbol
_atom_site_label
_atom_site_fract_x
_atom_site_fract_y
_atom_site_fract_z
Si Si1 0.426473 0.397849 0.809348
Si Si2 0.335326 0.602421 0.690820
Si Si3 0.779833 0.105240 0.303949
Si Si4 0.544225 0.208264 0.692890
Si Si5 0.131235 0.110385 0.690674
Si Si6 0.702796 0.781254 0.191416
Si Si7 0.375361 0.894605 0.696305
Si Si8 0.043809 0.891733 0.303360
O O1 0.436376 0.500000 0.750117
O O2 0.378153 0.384456 0.781912
O O3 0.448819 0.314834 0.724851
O O4 0.435194 0.394198 0.000000
O O5 0.344555 0.608434 0.500000
O O6 0.320788 0.500000 0.726101
O O7 0.304405 0.681463 0.735643
O O8 0.781140 0.104442 0.500000
O O9 0.824514 0.136605 0.243264
O O10 0.743371 0.168883 0.249973
O O11 0.773043 0.000000 0.252852
O O12 0.543640 0.193652 0.500000
O O13 0.500000 0.180674 0.758290
O O14 0.583263 0.153461 0.755626
O O15 0.131241 0.134210 0.500000
O O16 0.087635 0.142821 0.758377
O O17 0.130876 0.000000 0.698364
O O18 0.663923 0.841145 0.243077
O O19 0.703544 0.773689 0.000000
O O20 0.374818 0.890390 0.500000
O O21 0.374103 0.000000 0.743862
O O22 0.044376 0.883469 0.500000
O O23 0.000000 0.854473 0.246642
O O24 0.043255 0.000000 0.269862
#
# Coordination Sequence:
#
# PCOD9385796 Si02
#       8
#     8   8   8   8   8   8   8   8
#     4  10  20  34  53  77 102 125 146 171 210 256
#     4  10  20  35  56  77  95 116 142 173 210 256
#     4   9  17  29  44  61  85 120 159 194 226 262
#     4  10  21  36  54  75  97 123 154 184 215 255
#     4   7  10  17  29  46  70 103 143 184 224 264
#     4  12  23  33  49  72  96 119 145 180 221 264
#     4  10  21  37  55  72  92 120 153 187 221 257
#     4   7   8  10  19  38  65  96 131 175 226 271
#
# _framework density 15.99588
#
# number of rings (size 3 to 8) (size 9 to 14) (size 15 to 20)
#    0.000    2.625    1.250    4.125    0.000    4.250 
#    0.000    2.500    0.000    0.000    0.000    1.750 
#    0.000    0.500    0.000    4.875    0.000    4.625 
#
# Total GULP energy -356494.794590 kJ/mol
# GULP energy per Si atom -5570.231165 kJ/mol
# Density = 1.595947 g / cm^3
# Si number density = 15.995880 Si / 1000 Ang^3
#
#
#
# Elastic Constant Matrix: (Units=GPa)
#
#
# Indices 1 2 3 4 5 6 
#
# 1 141.3063 39.6592 5.0395 0.0000 0.0000 0.0000
# 2 39.6592 55.3577 4.1541 0.0000 0.0000 0.0000
# 3 5.0395 4.1541 11.8932 0.0000 0.0000 0.0000
# 4 0.0000 0.0000 0.0000 -9.4459 0.0000 0.0000
# 5 0.0000 0.0000 0.0000 0.0000 -15.8260 0.0000
# 6 0.0000 0.0000 0.0000 0.0000 0.0000 2.3325
#
#
#
# Elastic Compliance Matrix: (Units=1/GPa)
#
#
# Indices 1 2 3 4 5 6 
#
# 1 0.008887 -0.006248 -0.001583 0.000000 0.000000 0.000000
# 2 -0.006248 0.022943 -0.005366 0.000000 0.000000 0.000000
# 3 -0.001583 -0.005366 0.086627 0.000000 0.000000 0.000000
# 4 0.000000 0.000000 0.000000 -0.105866 0.000000 0.000000
# 5 0.000000 0.000000 0.000000 0.000000 -0.063187 0.000000
# 6 0.000000 0.000000 0.000000 0.000000 0.000000 0.428729
#
#
# Mechanical properties :
#
#
# Convention : Reuss Voigt Hill
#
# Bulk Modulus (GPa) = 10.86228 34.02921 22.44574
# Shear Modulus (GPa) = 11.48859 6.05908 8.77384
#
# Velocity S-wave (km/s) = 2.68287 1.94836 2.34456
# Velocity P-wave (km/s) = 4.05000 5.13628 4.62514
#
# Compressibility (1/GPa) = 0.09206169
#
# Stress axis : x y z
#
# Youngs Moduli (GPa) = 112.52603 43.58606 11.54380
#
# Poissons Ratio (x) = 0.27232 0.01828
# Poissons Ratio (y) = 0.70305 0.06195
# Poissons Ratio (z) = 0.17817 0.23389
#
# Static dielectric constant tensor:
#      x y z
#    x 1.585640 0.000000 0.000000 
#    y 0.000000 1.516660 0.000000 
#    z 0.000000 0.000000 1.547460 
# 
# From -- ./inp_files/14324.got.cif
#   From: 2010.05.17/outbox.cif.g08.bks.cpg/sg47_8_cif.got.tgz:14324.got - 2010.06.03 20:15:42.
