data_PCOD9385416
_publ_section_title
;
Structure prediction by ZEFSAII (Michael W. Deem and Ramdas Pophale) SiO2 
 PCOD9385416
Probable space group: P M M M
;
_chemical_formula_sum "Si O2"
_cell_formula_units_Z 56
_cell_length_a 16.105536
_cell_length_b 19.194371
_cell_length_c 7.500568
_cell_angle_alpha 90.000000
_cell_angle_beta 90.000000
_cell_angle_gamma 90.000000
_cell_volume 2318.692838
_symmetry_space_group_name_H-M "P M M M"
_symmetry_group_IT_number 47
_symmetry_cell_setting 'orthorhombic'
loop_
_space_group_symop_operation_xyz
x,y,z
-x,-y,z
x,-y,-z
-x,y,-z
-x,-y,-z
x,y,-z
-x,y,z
x,-y,z
loop_
_atom_site_type_symbol
_atom_site_label
_atom_site_fract_x
_atom_site_fract_y
_atom_site_fract_z
Si Si1 0.094243 0.848641 0.705220
Si Si2 0.597032 0.000000 0.718482
Si Si3 0.591627 0.233687 0.786353
Si Si4 0.236246 0.425343 0.284026
Si Si5 0.872584 0.308013 0.793929
Si Si6 0.277487 0.119929 0.708904
Si Si7 0.587324 0.396615 0.290457
Si Si8 0.000000 0.422324 0.782096
O O1 0.090293 0.872384 0.500000
O O2 0.109557 0.764981 0.704131
O O3 0.182421 0.877566 0.783049
O O4 0.000000 0.861095 0.780412
O O5 0.654050 0.065174 0.778334
O O6 0.500000 0.000000 0.776799
O O7 0.593887 0.000000 0.500000
O O8 0.500000 0.204115 0.728976
O O9 0.672933 0.192402 0.723589
O O10 0.593144 0.313016 0.724130
O O11 0.592977 0.232017 0.000000
O O12 0.231835 0.423654 0.500000
O O13 0.194634 0.500000 0.226819
O O14 0.213610 0.347381 0.218614
O O15 0.330131 0.429345 0.219399
O O16 0.924705 0.373936 0.723909
O O17 0.894503 0.295861 0.000000
O O18 0.266758 0.103853 0.500000
O O19 0.585813 0.413918 0.500000
O O20 0.500000 0.417462 0.209747
O O21 0.000000 0.500000 0.713323
O O22 0.000000 0.425422 0.000000
#
# Coordination Sequence:
#
# PCOD9385416 Si02
#       8
#     8   4   8   8   8   8   8   4
#     4  10  21  37  56  80 112 145 180 227 279 326
#     4   9  18  34  58  88 118 147 185 229 266 313
#     4  10  20  33  51  79 112 142 175 221 275 327
#     4  10  21  35  50  72 102 134 172 220 275 332
#     4  11  21  35  55  77 103 137 179 224 271 324
#     4  10  20  35  57  83 111 148 188 223 266 321
#     4   9  18  33  52  72  97 134 178 221 266 320
#     4   9  18  32  49  71  99 130 169 218 268 319
#
# _framework density 24.151537999999999
#
# number of rings (size 3 to 8) (size 9 to 14) (size 15 to 20)
#    0.000    2.143    0.714    2.571    0.000    7.143 
#    0.000    2.143    0.000    5.143    0.000    3.000 
#    0.000    2.286    0.000    0.000    0.000    0.000 
#
# Total GULP energy -312092.191174 kJ/mol
# GULP energy per Si atom -5573.074842 kJ/mol
# Density = 2.409657 g / cm^3
# Si number density = 24.151538 Si / 1000 Ang^3
#
#
#
# Elastic Constant Matrix: (Units=GPa)
#
#
# Indices 1 2 3 4 5 6 
#
# 1 202.1437 48.0936 4.7374 0.0000 0.0000 0.0000
# 2 48.0936 81.0139 -7.5028 0.0000 0.0000 0.0000
# 3 4.7374 -7.5028 75.1384 0.0000 0.0000 0.0000
# 4 0.0000 0.0000 0.0000 246.0888 0.0000 0.0000
# 5 0.0000 0.0000 0.0000 0.0000 10.3854 0.0000
# 6 0.0000 0.0000 0.0000 0.0000 0.0000 30.3517
#
#
#
# Elastic Compliance Matrix: (Units=1/GPa)
#
#
# Indices 1 2 3 4 5 6 
#
# 1 0.005799 -0.003509 -0.000716 0.000000 0.000000 0.000000
# 2 -0.003509 0.014582 0.001677 0.000000 0.000000 0.000000
# 3 -0.000716 0.001677 0.013521 0.000000 0.000000 0.000000
# 4 0.000000 0.000000 0.000000 0.004064 0.000000 0.000000
# 5 0.000000 0.000000 0.000000 0.000000 0.096289 0.000000
# 6 0.000000 0.000000 0.000000 0.000000 0.000000 0.032947
#
#
# Mechanical properties :
#
#
# Convention : Reuss Voigt Hill
#
# Bulk Modulus (GPa) = 34.71363 49.88360 42.29861
# Shear Modulus (GPa) = 27.48788 78.22970 52.85879
#
# Velocity S-wave (km/s) = 3.37730 5.69750 4.68336
# Velocity P-wave (km/s) = 5.44175 7.99883 6.84083
#
# Compressibility (1/GPa) = 0.02880713
#
# Stress axis : x y z
#
# Youngs Moduli (GPa) = 172.45829 68.57892 73.95686
#
# Poissons Ratio (x) = 0.24061 0.05295
# Poissons Ratio (y) = 0.60508 -0.12404
# Poissons Ratio (z) = 0.12347 -0.11502
#
# Static dielectric constant tensor:
#      x y z
#    x 6.388200 0.000000 0.000000 
#    y 0.000000 1.897120 0.000000 
#    z 0.000000 0.000000 1.972540 
# 
# From -- ./inp_files/7388.got.cif
#   From: 2010.05.17/outbox.cif.g08.bks.cpg/sg47_4_cif.got.tgz:7388.got - 2010.06.03 20:15:42.
