data_PCOD9385648
_publ_section_title
;
Structure prediction by ZEFSAII (Michael W. Deem and Ramdas Pophale) SiO2 
 PCOD9385648
Probable space group: P M M M
;
_chemical_formula_sum "Si O2"
_cell_formula_units_Z 48
_cell_length_a 17.999023
_cell_length_b 7.468158
_cell_length_c 15.529188
_cell_angle_alpha 90.000000
_cell_angle_beta 90.000000
_cell_angle_gamma 90.000000
_cell_volume 2087.426426
_symmetry_space_group_name_H-M "P M M M"
_symmetry_group_IT_number 47
_symmetry_cell_setting 'orthorhombic'
loop_
_space_group_symop_operation_xyz
x,y,z
-x,-y,z
x,-y,-z
-x,y,-z
-x,-y,-z
x,y,-z
-x,y,z
x,-y,z
loop_
_atom_site_type_symbol
_atom_site_label
_atom_site_fract_x
_atom_site_fract_y
_atom_site_fract_z
Si Si1 0.662052 0.707589 0.098704
Si Si2 0.235910 0.719209 0.593768
Si Si3 0.173052 0.784522 0.164499
Si Si4 0.917538 0.781873 0.000000
Si Si5 0.637808 0.287573 0.720380
Si Si6 0.500000 0.786729 0.597718
Si Si7 0.084718 0.708951 0.338761
O O1 0.640079 0.500000 0.089745
O O2 0.745549 0.717764 0.137446
O O3 0.620150 0.784902 0.183417
O O4 0.659019 0.782437 0.000000
O O5 0.266878 0.768758 0.500000
O O6 0.235314 0.500000 0.597874
O O7 0.287888 0.783015 0.672200
O O8 0.150627 0.782619 0.601089
O O9 0.123923 0.725912 0.084542
O O10 0.127506 0.721276 0.247481
O O11 0.177396 0.000000 0.169311
O O12 0.000000 0.715969 0.000000
O O13 0.918005 0.000000 0.000000
O O14 0.649422 0.500000 0.731565
O O15 0.571706 0.265837 0.652949
O O16 0.500000 0.714627 0.500000
O O17 0.500000 0.000000 0.592012
O O18 0.077072 0.500000 0.360978
O O19 0.000000 0.782823 0.337876
#
# Coordination Sequence:
#
# PCOD9385648 Si02
#       7
#     8   8   8   4   8   4   8
#     4  10  20  36  60  88 119 151 189 237 284 336
#     4   9  17  31  54  83 111 143 189 241 289 343
#     4  11  20  32  51  74 106 148 193 240 290 346
#     4   9  18  30  43  65  99 138 185 238 285 333
#     4  10  20  38  64  90 119 156 195 234 281 342
#     4  11  25  43  64  95 130 156 185 233 290 341
#     4  10  20  34  51  74 108 147 191 245 300 347
#
# _framework density 22.994824999999999
#
# number of rings (size 3 to 8) (size 9 to 14) (size 15 to 20)
#    0.000    2.000    2.500    1.750    0.000    3.333 
#    0.000    2.083    0.000    5.000    0.000    1.167 
#    0.000    0.000    0.000    0.000    0.000    0.000 
#
# Total GULP energy -267626.753536 kJ/mol
# GULP energy per Si atom -5575.557365 kJ/mol
# Density = 2.294249 g / cm^3
# Si number density = 22.994825 Si / 1000 Ang^3
#
#
#
# Elastic Constant Matrix: (Units=GPa)
#
#
# Indices 1 2 3 4 5 6 
#
# 1 94.5829 -2.6819 57.0339 0.0000 0.0000 0.0000
# 2 -2.6819 75.4676 1.6913 0.0000 0.0000 0.0000
# 3 57.0339 1.6913 212.2601 0.0000 0.0000 0.0000
# 4 0.0000 0.0000 0.0000 -13.7106 0.0000 0.0000
# 5 0.0000 0.0000 0.0000 0.0000 44.8410 0.0000
# 6 0.0000 0.0000 0.0000 0.0000 0.0000 259.1618
#
#
#
# Elastic Compliance Matrix: (Units=1/GPa)
#
#
# Indices 1 2 3 4 5 6 
#
# 1 0.012638 0.000525 -0.003400 0.000000 0.000000 0.000000
# 2 0.000525 0.013275 -0.000247 0.000000 0.000000 0.000000
# 3 -0.003400 -0.000247 0.005627 0.000000 0.000000 0.000000
# 4 0.000000 0.000000 0.000000 -0.072936 0.000000 0.000000
# 5 0.000000 0.000000 0.000000 0.000000 0.022301 0.000000
# 6 0.000000 0.000000 0.000000 0.000000 0.000000 0.003859
#
#
# Mechanical properties :
#
#
# Convention : Reuss Voigt Hill
#
# Bulk Modulus (GPa) = 39.53140 54.93301 47.23221
# Shear Modulus (GPa) = -8898.83198 79.80959 -4409.51120
#
# Velocity S-wave (km/s) = -62.27624 5.89771 -43.83803
# Velocity P-wave (km/s) = 71.79051 8.38561 50.41606
#
# Compressibility (1/GPa) = 0.02529635
#
# Stress axis : x y z
#
# Youngs Moduli (GPa) = 79.12759 75.33001 177.72313
#
# Poissons Ratio (x) = -0.03957 0.60425
# Poissons Ratio (y) = -0.04157 0.04388
# Poissons Ratio (z) = 0.26903 0.01860
#
# Static dielectric constant tensor:
#      x y z
#    x 1.869280 0.000000 0.000000 
#    y 0.000000 1.866510 0.000000 
#    z 0.000000 0.000000 1.912220 
# 
# From -- ./inp_files/24451.got.cif
#   From: 2010.05.17/outbox.cif.g08.bks.cpg/sg47_13_cif.got.tgz:24451.got - 2010.06.03 20:15:42.
