data_PCOD9385247
_publ_section_title
;
Structure prediction by ZEFSAII (Michael W. Deem and Ramdas Pophale) SiO2 
 PCOD9385247
Probable space group: P M M M
;
_chemical_formula_sum "Si O2"
_cell_formula_units_Z 56
_cell_length_a 14.629318
_cell_length_b 24.155963
_cell_length_c 8.816465
_cell_angle_alpha 90.000000
_cell_angle_beta 90.000000
_cell_angle_gamma 90.000000
_cell_volume 3115.608814
_symmetry_space_group_name_H-M "P M M M"
_symmetry_group_IT_number 47
_symmetry_cell_setting 'orthorhombic'
loop_
_space_group_symop_operation_xyz
x,y,z
-x,-y,z
x,-y,-z
-x,y,-z
-x,-y,-z
x,y,-z
-x,y,z
x,-y,z
loop_
_atom_site_type_symbol
_atom_site_label
_atom_site_fract_x
_atom_site_fract_y
_atom_site_fract_z
Si Si1 0.606199 0.112025 0.181139
Si Si2 0.890653 0.837143 0.177003
Si Si3 0.395310 0.562772 0.815417
Si Si4 0.893743 0.718676 0.318960
Si Si5 0.722665 0.332955 0.182179
Si Si6 0.391060 0.767849 0.321786
Si Si7 0.779821 0.938032 0.681153
O O1 0.500000 0.100744 0.218131
O O2 0.627873 0.174011 0.239350
O O3 0.676810 0.071476 0.261270
O O4 0.616945 0.109519 0.000000
O O5 0.867353 0.780370 0.263358
O O6 0.840037 0.889961 0.244737
O O7 0.000000 0.844608 0.189931
O O8 0.867114 0.830708 0.000000
O O9 0.500000 0.575481 0.768919
O O10 0.373368 0.500000 0.766642
O O11 0.325332 0.610055 0.766694
O O12 0.395035 0.562715 0.000000
O O13 0.886137 0.716177 0.500000
O O14 0.824663 0.675874 0.243050
O O15 0.000000 0.709956 0.276434
O O16 0.663494 0.282081 0.246720
O O17 0.722141 0.330935 0.000000
O O18 0.368158 0.772509 0.500000
O O19 0.500000 0.757740 0.308603
O O20 0.783124 0.932713 0.500000
O O21 0.810695 0.000000 0.722906
#
# Coordination Sequence:
#
# PCOD9385247 Si02
#       7
#     8   8   8   8   8   8   8
#     4  10  21  37  56  76 100 132 171 216 262 306
#     4  10  21  38  60  83 106 132 165 210 262 311
#     4   8  15  29  49  75 108 144 180 216 255 301
#     4  10  21  37  56  77 104 138 173 210 256 313
#     4  11  20  30  51  80 108 137 172 218 265 307
#     4  10  20  33  50  74 106 140 171 206 252 310
#     4  11  24  39  55  76 103 136 172 209 251 306
#
# _framework density 17.974015000000001
#
# number of rings (size 3 to 8) (size 9 to 14) (size 15 to 20)
#    0.000    2.000    0.000    4.286    0.000    5.714 
#    0.000    2.857    0.000    2.143    0.000    8.000 
#    0.000    0.000    0.000    0.000    0.000    0.000 
#
# Total GULP energy -312832.646260 kJ/mol
# GULP energy per Si atom -5586.297255 kJ/mol
# Density = 1.793311 g / cm^3
# Si number density = 17.974015 Si / 1000 Ang^3
#
#
#
# Elastic Constant Matrix: (Units=GPa)
#
#
# Indices 1 2 3 4 5 6 
#
# 1 67.2416 56.4653 23.9363 0.0000 0.0000 0.0000
# 2 56.4653 88.6081 19.5069 0.0000 0.0000 0.0000
# 3 23.9363 19.5069 43.9735 0.0000 0.0000 0.0000
# 4 0.0000 0.0000 0.0000 44.4794 0.0000 0.0000
# 5 0.0000 0.0000 0.0000 0.0000 29.3274 0.0000
# 6 0.0000 0.0000 0.0000 0.0000 0.0000 22.2463
#
#
#
# Elastic Compliance Matrix: (Units=1/GPa)
#
#
# Indices 1 2 3 4 5 6 
#
# 1 0.035813 -0.020535 -0.010384 0.000000 0.000000 0.000000
# 2 -0.020535 0.024282 0.000406 0.000000 0.000000 0.000000
# 3 -0.010384 0.000406 0.028213 0.000000 0.000000 0.000000
# 4 0.000000 0.000000 0.000000 0.022482 0.000000 0.000000
# 5 0.000000 0.000000 0.000000 0.000000 0.034098 0.000000
# 6 0.000000 0.000000 0.000000 0.000000 0.000000 0.044951
#
#
# Mechanical properties :
#
#
# Convention : Reuss Voigt Hill
#
# Bulk Modulus (GPa) = 36.65514 44.40447 40.52981
# Shear Modulus (GPa) = 19.23367 25.87159 22.55263
#
# Velocity S-wave (km/s) = 3.27476 3.79804 3.54607
# Velocity P-wave (km/s) = 5.89376 6.63264 6.27409
#
# Compressibility (1/GPa) = 0.02728130
#
# Stress axis : x y z
#
# Youngs Moduli (GPa) = 27.92304 41.18213 35.44430
#
# Poissons Ratio (x) = 0.84569 0.36807
# Poissons Ratio (y) = 0.57341 -0.01440
# Poissons Ratio (z) = 0.28996 -0.01673
#
# Static dielectric constant tensor:
#      x y z
#    x 1.631510 0.000000 0.000000 
#    y 0.000000 1.592740 0.000000 
#    z 0.000000 0.000000 1.601800 
# 
# From -- ./inp_files/7292.got.cif
#   From: 2010.05.17/outbox.cif.g08.bks.cpg/sg47_4_cif.got.tgz:7292.got - 2010.06.03 20:15:42.
