data_PCOD9385256
_publ_section_title
;
Structure prediction by ZEFSAII (Michael W. Deem and Ramdas Pophale) SiO2 
 PCOD9385256
Probable space group: P M M M
;
_chemical_formula_sum "Si O2"
_cell_formula_units_Z 40
_cell_length_a 7.711780
_cell_length_b 12.260431
_cell_length_c 21.212585
_cell_angle_alpha 90.000000
_cell_angle_beta 90.000000
_cell_angle_gamma 90.000000
_cell_volume 2005.644536
_symmetry_space_group_name_H-M "P M M M"
_symmetry_group_IT_number 47
_symmetry_cell_setting 'orthorhombic'
loop_
_space_group_symop_operation_xyz
x,y,z
-x,-y,z
x,-y,-z
-x,y,-z
-x,-y,-z
x,y,-z
-x,y,z
x,-y,z
loop_
_atom_site_type_symbol
_atom_site_label
_atom_site_fract_x
_atom_site_fract_y
_atom_site_fract_z
Si Si1 0.287648 0.266645 0.929075
Si Si2 0.711944 0.500000 0.124406
Si Si3 0.788267 0.125683 0.428841
Si Si4 0.706688 0.877393 0.812867
Si Si5 0.205264 0.261041 0.689676
Si Si6 0.293853 0.500000 0.730902
O O1 0.500000 0.265669 0.928380
O O2 0.234488 0.389157 0.909996
O O3 0.226114 0.183962 0.875094
O O4 0.232796 0.239725 0.000000
O O5 0.500000 0.500000 0.124966
O O6 0.773179 0.500000 0.196933
O O7 0.732059 0.153672 0.500000
O O8 0.724699 0.205133 0.373910
O O9 0.000000 0.128213 0.429304
O O10 0.738786 0.000000 0.415704
O O11 0.500000 0.885921 0.821192
O O12 0.733121 0.802955 0.751627
O O13 0.776419 0.000000 0.804575
O O14 0.242525 0.388739 0.696696
O O15 0.000000 0.247159 0.688163
O O16 0.500000 0.500000 0.735802
#
# Coordination Sequence:
#
# PCOD9385256 Si02
#       6
#     8   4   8   8   8   4
#     4   9  16  27  46  73 101 130 173 226 267 302
#     4   9  15  27  48  71  95 125 167 216 263 304
#     4   8  15  30  53  80 108 137 171 214 259 299
#     4  10  20  33  50  75 107 142 177 214 263 318
#     4  11  21  34  55  82 107 134 175 220 263 310
#     4  11  21  36  56  76 106 142 173 211 265 319
#
# _framework density 19.943714
#
# number of rings (size 3 to 8) (size 9 to 14) (size 15 to 20)
#    0.000    2.400    2.000    2.400    0.000    2.800 
#    0.000    2.500    0.000    6.000    0.000    9.800 
#    0.000    0.000    0.000    0.000    0.000    0.000 
#
# Total GULP energy -223290.286889 kJ/mol
# GULP energy per Si atom -5582.257172 kJ/mol
# Density = 1.989832 g / cm^3
# Si number density = 19.943714 Si / 1000 Ang^3
#
#
#
# Elastic Constant Matrix: (Units=GPa)
#
#
# Indices 1 2 3 4 5 6 
#
# 1 30.4387 -1.4229 1.3919 0.0000 0.0000 0.0000
# 2 -1.4229 171.2519 111.4029 0.0000 0.0000 0.0000
# 3 1.3919 111.4029 191.7726 0.0000 0.0000 0.0000
# 4 0.0000 0.0000 0.0000 39.3098 0.0000 0.0000
# 5 0.0000 0.0000 0.0000 0.0000 17.0300 0.0000
# 6 0.0000 0.0000 0.0000 0.0000 0.0000 9.5421
#
#
#
# Elastic Compliance Matrix: (Units=1/GPa)
#
#
# Indices 1 2 3 4 5 6 
#
# 1 0.032914 0.000689 -0.000639 0.000000 0.000000 0.000000
# 2 0.000689 0.009401 -0.005466 0.000000 0.000000 0.000000
# 3 -0.000639 -0.005466 0.008394 0.000000 0.000000 0.000000
# 4 0.000000 0.000000 0.000000 0.025439 0.000000 0.000000
# 5 0.000000 0.000000 0.000000 0.000000 0.058720 0.000000
# 6 0.000000 0.000000 0.000000 0.000000 0.000000 0.104799
#
#
# Mechanical properties :
#
#
# Convention : Reuss Voigt Hill
#
# Bulk Modulus (GPa) = 25.07672 68.46742 46.77207
# Shear Modulus (GPa) = 18.95435 31.98249 25.46842
#
# Velocity S-wave (km/s) = 3.08619 4.00889 3.57741
# Velocity P-wave (km/s) = 5.02996 7.47216 6.36921
#
# Compressibility (1/GPa) = 0.03987763
#
# Stress axis : x y z
#
# Youngs Moduli (GPa) = 30.38186 106.37304 119.12622
#
# Poissons Ratio (x) = -0.07334 0.07617
# Poissons Ratio (y) = -0.02095 0.65115
# Poissons Ratio (z) = 0.01943 0.58144
#
# Static dielectric constant tensor:
#      x y z
#    x 1.764360 0.000000 0.000000 
#    y 0.000000 1.668430 0.000000 
#    z 0.000000 0.000000 1.696240 
# 
# From -- ./inp_files/10716.got.cif
#   From: 2010.05.17/outbox.cif.g08.bks.cpg/sg47_6_cif.got.tgz:10716.got - 2010.06.03 20:15:42.
