data_PCOD9385158
_publ_section_title
;
Structure prediction by ZEFSAII (Michael W. Deem and Ramdas Pophale) SiO2 
 PCOD9385158
Probable space group: P M M M
;
_chemical_formula_sum "Si O2"
_cell_formula_units_Z 44
_cell_length_a 10.665820
_cell_length_b 9.171682
_cell_length_c 25.534595
_cell_angle_alpha 90.000000
_cell_angle_beta 90.000000
_cell_angle_gamma 90.000000
_cell_volume 2497.883692
_symmetry_space_group_name_H-M "P M M M"
_symmetry_group_IT_number 47
_symmetry_cell_setting 'orthorhombic'
loop_
_space_group_symop_operation_xyz
x,y,z
-x,-y,z
x,-y,-z
-x,y,-z
-x,-y,-z
x,y,-z
-x,y,z
x,-y,z
loop_
_atom_site_type_symbol
_atom_site_label
_atom_site_fract_x
_atom_site_fract_y
_atom_site_fract_z
Si Si1 0.000000 0.334356 0.563024
Si Si2 0.742344 0.825686 0.561087
Si Si3 0.646549 0.336736 0.657618
Si Si4 0.652002 0.166036 0.758480
Si Si5 0.856594 0.826282 0.937446
Si Si6 0.646840 0.325156 0.867508
O O1 0.122744 0.241817 0.575467
O O2 0.000000 0.500000 0.583894
O O3 0.000000 0.346332 0.500000
O O4 0.714646 0.790518 0.500000
O O5 0.654875 0.749740 0.603333
O O6 0.741401 0.000000 0.565919
O O7 0.500000 0.352466 0.669755
O O8 0.700450 0.500000 0.652927
O O9 0.700856 0.244954 0.706088
O O10 0.500000 0.158103 0.754789
O O11 0.677539 0.258347 0.810518
O O12 0.698209 0.000000 0.762664
O O13 0.747083 0.741118 0.907730
O O14 0.000000 0.784598 0.922170
O O15 0.843464 0.000000 0.927676
O O16 0.846202 0.804071 0.000000
O O17 0.500000 0.287496 0.879516
O O18 0.655287 0.500000 0.866244
#
# Coordination Sequence:
#
# PCOD9385158 Si02
#       6
#     4   8   8   8   8   8
#     4   9  17  31  51  71  91 119 157 199 244 295
#     4  10  20  33  50  72  98 129 166 207 251 303
#     4  10  20  33  50  73 102 134 167 206 254 308
#     4   9  17  31  52  75  99 131 171 211 254 305
#     4   9  19  36  56  78 107 145 186 224 265 316
#     4  10  20  33  52  80 111 141 177 222 268 316
#
# _framework density 17.614912
#
# number of rings (size 3 to 8) (size 9 to 14) (size 15 to 20)
#    0.000    2.455    0.000    3.000    0.000    8.000 
#    0.000    4.545    2.000    0.000    0.000    0.000 
#    0.000    0.000    0.000    0.000    0.000    0.000 
#
# Total GULP energy -245129.829167 kJ/mol
# GULP energy per Si atom -5571.132481 kJ/mol
# Density = 1.757482 g / cm^3
# Si number density = 17.614912 Si / 1000 Ang^3
#
#
#
# Elastic Constant Matrix: (Units=GPa)
#
#
# Indices 1 2 3 4 5 6 
#
# 1 61.6231 46.9409 46.9134 0.0000 0.0000 0.0000
# 2 46.9409 117.9313 68.6545 0.0000 0.0000 0.0000
# 3 46.9134 68.6545 94.7699 0.0000 0.0000 0.0000
# 4 0.0000 0.0000 0.0000 25.9505 0.0000 0.0000
# 5 0.0000 0.0000 0.0000 0.0000 -10.3579 0.0000
# 6 0.0000 0.0000 0.0000 0.0000 0.0000 24.7678
#
#
#
# Elastic Compliance Matrix: (Units=1/GPa)
#
#
# Indices 1 2 3 4 5 6 
#
# 1 0.027825 -0.005286 -0.009945 0.000000 0.000000 0.000000
# 2 -0.005286 0.015668 -0.008734 0.000000 0.000000 0.000000
# 3 -0.009945 -0.008734 0.021802 0.000000 0.000000 0.000000
# 4 0.000000 0.000000 0.000000 0.038535 0.000000 0.000000
# 5 0.000000 0.000000 0.000000 0.000000 -0.096545 0.000000
# 6 0.000000 0.000000 0.000000 0.000000 0.000000 0.040375
#
#
# Mechanical properties :
#
#
# Convention : Reuss Voigt Hill
#
# Bulk Modulus (GPa) = 57.58400 66.59355 62.08878
# Shear Modulus (GPa) = 49.32065 15.52644 32.42355
#
# Velocity S-wave (km/s) = 5.29718 2.97212 4.29498
# Velocity P-wave (km/s) = 8.37705 7.04736 7.74081
#
# Compressibility (1/GPa) = 0.01736593
#
# Stress axis : x y z
#
# Youngs Moduli (GPa) = 35.93869 63.82482 45.86789
#
# Poissons Ratio (x) = 0.33738 0.45615
# Poissons Ratio (y) = 0.18997 0.40059
# Poissons Ratio (z) = 0.35740 0.55742
#
# Static dielectric constant tensor:
#      x y z
#    x 1.650370 0.000000 0.000000 
#    y 0.000000 1.609770 0.000000 
#    z 0.000000 0.000000 1.584730 
# 
# From -- ./inp_files/15276.got.cif
#   From: 2010.05.17/outbox.cif.g08.bks.cpg/sg47_8_cif.got.tgz:15276.got - 2010.06.03 20:15:42.
