data_PCOD9385907
_publ_section_title
;
Structure prediction by ZEFSAII (Michael W. Deem and Ramdas Pophale) SiO2 
 PCOD9385907
Probable space group: P M M M
;
_chemical_formula_sum "Si O2"
_cell_formula_units_Z 52
_cell_length_a 7.529589
_cell_length_b 21.795655
_cell_length_c 15.086763
_cell_angle_alpha 90.000000
_cell_angle_beta 90.000000
_cell_angle_gamma 90.000000
_cell_volume 2475.923740
_symmetry_space_group_name_H-M "P M M M"
_symmetry_group_IT_number 47
_symmetry_cell_setting 'orthorhombic'
loop_
_space_group_symop_operation_xyz
x,y,z
-x,-y,z
x,-y,-z
-x,y,-z
-x,-y,-z
x,y,-z
-x,y,z
x,-y,z
loop_
_atom_site_type_symbol
_atom_site_label
_atom_site_fract_x
_atom_site_fract_y
_atom_site_fract_z
Si Si1 0.784111 0.111471 0.596785
Si Si2 0.706082 0.303099 0.207718
Si Si3 0.000000 0.572897 0.596280
Si Si4 0.213669 0.933321 0.214405
Si Si5 0.712897 0.812929 0.899685
Si Si6 0.286554 0.429428 0.741670
Si Si7 0.214403 0.743802 0.598245
O O1 0.723569 0.089100 0.500000
O O2 0.720832 0.078372 0.685252
O O3 0.740746 0.183767 0.603880
O O4 0.000000 0.107516 0.596396
O O5 0.500000 0.305405 0.182976
O O6 0.785647 0.246205 0.153661
O O7 0.770806 0.373019 0.195427
O O8 0.717438 0.287348 0.312411
O O9 0.823857 0.584686 0.652678
O O10 0.000000 0.500000 0.585913
O O11 0.000000 0.602647 0.500000
O O12 0.255958 0.875505 0.153504
O O13 0.000000 0.935244 0.218845
O O14 0.276049 0.000000 0.182057
O O15 0.500000 0.806555 0.904018
O O16 0.781253 0.815788 0.000000
O O17 0.500000 0.426377 0.728480
O O18 0.244940 0.500000 0.768220
O O19 0.273933 0.722408 0.500000
O O20 0.000000 0.738805 0.600752
#
# Coordination Sequence:
#
# PCOD9385907 Si02
#       7
#     8   8   4   8   8   8   8
#     4   8  14  27  47  73 105 138 172 210 255 307
#     4  10  20  34  54  78 103 136 178 224 272 324
#     4   9  18  32  50  76 111 153 198 235 273 327
#     4  10  20  34  55  82 110 140 176 220 265 313
#     4  10  22  40  59  78 103 136 175 222 276 334
#     4   9  19  35  53  76 109 148 188 232 284 338
#     4   9  17  29  48  74 103 137 174 212 256 308
#
# _framework density 21.002262999999999
#
# number of rings (size 3 to 8) (size 9 to 14) (size 15 to 20)
#    0.000    2.692    1.538    0.923    1.077    2.462 
#    0.000    6.154    0.000    0.923    0.000    4.308 
#    0.000    1.846    0.000    0.154    0.000    0.000 
#
# Total GULP energy -289885.213127 kJ/mol
# GULP energy per Si atom -5574.715637 kJ/mol
# Density = 2.095446 g / cm^3
# Si number density = 21.002263 Si / 1000 Ang^3
#
#
#
# Elastic Constant Matrix: (Units=GPa)
#
#
# Indices 1 2 3 4 5 6 
#
# 1 54.4650 15.9079 4.6150 0.0000 0.0000 0.0000
# 2 15.9079 181.8045 92.1483 0.0000 0.0000 0.0000
# 3 4.6150 92.1483 120.1418 0.0000 0.0000 0.0000
# 4 0.0000 0.0000 0.0000 2.2877 0.0000 0.0000
# 5 0.0000 0.0000 0.0000 0.0000 10.4082 0.0000
# 6 0.0000 0.0000 0.0000 0.0000 0.0000 11.7847
#
#
#
# Elastic Compliance Matrix: (Units=1/GPa)
#
#
# Indices 1 2 3 4 5 6 
#
# 1 0.018900 -0.002103 0.000887 0.000000 0.000000 0.000000
# 2 -0.002103 0.009233 -0.007001 0.000000 0.000000 0.000000
# 3 0.000887 -0.007001 0.013659 0.000000 0.000000 0.000000
# 4 0.000000 0.000000 0.000000 0.437117 0.000000 0.000000
# 5 0.000000 0.000000 0.000000 0.000000 0.096078 0.000000
# 6 0.000000 0.000000 0.000000 0.000000 0.000000 0.084856
#
#
# Mechanical properties :
#
#
# Convention : Reuss Voigt Hill
#
# Bulk Modulus (GPa) = 39.43577 64.63929 52.03753
# Shear Modulus (GPa) = 7.30216 21.14547 14.22382
#
# Velocity S-wave (km/s) = 1.86665 3.17648 2.60523
# Velocity P-wave (km/s) = 4.84392 6.65564 5.82070
#
# Compressibility (1/GPa) = 0.02535769
#
# Stress axis : x y z
#
# Youngs Moduli (GPa) = 52.91112 108.30933 73.21212
#
# Poissons Ratio (x) = 0.22783 -0.06497
# Poissons Ratio (y) = 0.11130 0.51254
# Poissons Ratio (z) = -0.04695 0.75824
#
# Static dielectric constant tensor:
#      x y z
#    x 1.919130 0.000000 0.000000 
#    y 0.000000 1.799600 0.000000 
#    z 0.000000 0.000000 1.743010 
# 
# From -- ./inp_files/21401.got.cif
#   From: 2010.05.17/outbox.cif.g08.bks.cpg/sg47_11_cif.got.tgz:21401.got - 2010.06.03 20:15:42.
