data_PCOD9385282
_publ_section_title
;
Structure prediction by ZEFSAII (Michael W. Deem and Ramdas Pophale) SiO2 
 PCOD9385282
Probable space group: P M M M
;
_chemical_formula_sum "Si O2"
_cell_formula_units_Z 52
_cell_length_a 14.798856
_cell_length_b 8.754945
_cell_length_c 23.891784
_cell_angle_alpha 90.000000
_cell_angle_beta 90.000000
_cell_angle_gamma 90.000000
_cell_volume 3095.495280
_symmetry_space_group_name_H-M "P M M M"
_symmetry_group_IT_number 47
_symmetry_cell_setting 'orthorhombic'
loop_
_space_group_symop_operation_xyz
x,y,z
-x,-y,z
x,-y,-z
-x,y,-z
-x,-y,-z
x,y,-z
-x,y,z
x,-y,z
loop_
_atom_site_type_symbol
_atom_site_label
_atom_site_fract_x
_atom_site_fract_y
_atom_site_fract_z
Si Si1 0.900329 0.185383 0.606162
Si Si2 0.715551 0.682883 0.778481
Si Si3 0.394418 0.817269 0.118203
Si Si4 0.604429 0.315727 0.331752
Si Si5 0.291891 0.815138 0.562352
Si Si6 0.102206 0.183805 0.737663
Si Si7 0.390411 0.324160 0.000000
O O1 0.812009 0.235271 0.572816
O O2 0.888530 0.224975 0.671745
O O3 0.000000 0.238966 0.587625
O O4 0.902144 0.000000 0.603230
O O5 0.712616 0.500000 0.780946
O O6 0.665630 0.750044 0.832308
O O7 0.662016 0.733460 0.722351
O O8 0.818030 0.739229 0.771914
O O9 0.500000 0.770977 0.126068
O O10 0.390875 0.000000 0.118894
O O11 0.363313 0.757508 0.057470
O O12 0.500000 0.269471 0.325734
O O13 0.607864 0.500000 0.334208
O O14 0.647436 0.249762 0.388087
O O15 0.321115 0.769633 0.500000
O O16 0.293680 0.000000 0.565356
O O17 0.000000 0.225144 0.754825
O O18 0.110489 0.000000 0.741124
O O19 0.361286 0.500000 0.000000
O O20 0.500000 0.320825 0.000000
#
# Coordination Sequence:
#
# PCOD9385282 Si02
#       7
#     8   8   8   8   8   8   4
#     4   8  14  27  48  72  97 123 151 190 244 304
#     4  11  21  33  52  77 104 133 169 215 260 305
#     4  10  20  33  51  77 109 145 182 217 255 301
#     4  10  22  38  52  67  92 129 168 206 252 305
#     4  10  20  33  51  74  96 120 158 207 253 302
#     4   9  17  31  52  75 100 131 165 203 251 309
#     4   9  17  31  51  75 108 147 182 217 255 295
#
# _framework density 16.798604000000001
#
# number of rings (size 3 to 8) (size 9 to 14) (size 15 to 20)
#    0.000    2.385    1.538    2.538    0.000    4.615 
#    0.000    3.077    0.000    0.462    0.000    1.615 
#    0.000    4.308    0.000    0.000    0.000    0.000 
#
# Total GULP energy -290047.843998 kJ/mol
# GULP energy per Si atom -5577.843154 kJ/mol
# Density = 1.676037 g / cm^3
# Si number density = 16.798604 Si / 1000 Ang^3
#
#
#
# Elastic Constant Matrix: (Units=GPa)
#
#
# Indices 1 2 3 4 5 6 
#
# 1 107.5133 32.0824 70.3207 0.0000 0.0000 0.0000
# 2 32.0824 28.8387 38.9264 0.0000 0.0000 0.0000
# 3 70.3207 38.9264 136.8841 0.0000 0.0000 0.0000
# 4 0.0000 0.0000 0.0000 26.2456 0.0000 0.0000
# 5 0.0000 0.0000 0.0000 0.0000 22.2833 0.0000
# 6 0.0000 0.0000 0.0000 0.0000 0.0000 20.1370
#
#
#
# Elastic Compliance Matrix: (Units=1/GPa)
#
#
# Indices 1 2 3 4 5 6 
#
# 1 0.015831 -0.010767 -0.005071 0.000000 0.000000 0.000000
# 2 -0.010767 0.063600 -0.012555 0.000000 0.000000 0.000000
# 3 -0.005071 -0.012555 0.013481 0.000000 0.000000 0.000000
# 4 0.000000 0.000000 0.000000 0.038102 0.000000 0.000000
# 5 0.000000 0.000000 0.000000 0.000000 0.044877 0.000000
# 6 0.000000 0.000000 0.000000 0.000000 0.000000 0.049660
#
#
# Mechanical properties :
#
#
# Convention : Reuss Voigt Hill
#
# Bulk Modulus (GPa) = 27.68060 61.76613 44.72336
# Shear Modulus (GPa) = 16.98499 22.52696 19.75598
#
# Velocity S-wave (km/s) = 3.18322 3.66594 3.43308
# Velocity P-wave (km/s) = 5.47944 7.40049 6.51120
#
# Compressibility (1/GPa) = 0.03612639
#
# Stress axis : x y z
#
# Youngs Moduli (GPa) = 63.16870 15.72317 74.17928
#
# Poissons Ratio (x) = 0.16929 0.37615
# Poissons Ratio (y) = 0.68012 0.93134
# Poissons Ratio (z) = 0.32032 0.19741
#
# Static dielectric constant tensor:
#      x y z
#    x 1.567310 0.000000 0.000000 
#    y 0.000000 1.567980 0.000000 
#    z 0.000000 0.000000 1.546200 
# 
# From -- ./inp_files/6973.got.cif
#   From: 2010.05.17/outbox.cif.g08.bks.cpg/sg47_4_cif.got.tgz:6973.got - 2010.06.03 20:15:42.
