data_PCOD9385041
_publ_section_title
;
Structure prediction by ZEFSAII (Michael W. Deem and Ramdas Pophale) SiO2 
 PCOD9385041
Probable space group: P M M M
;
_chemical_formula_sum "Si O2"
_cell_formula_units_Z 40
_cell_length_a 9.277113
_cell_length_b 26.600946
_cell_length_c 7.358124
_cell_angle_alpha 90.000000
_cell_angle_beta 90.000000
_cell_angle_gamma 90.000000
_cell_volume 1815.837708
_symmetry_space_group_name_H-M "P M M M"
_symmetry_group_IT_number 47
_symmetry_cell_setting 'orthorhombic'
loop_
_space_group_symop_operation_xyz
x,y,z
-x,-y,z
x,-y,-z
-x,y,-z
-x,-y,-z
x,y,-z
-x,y,z
x,-y,z
loop_
_atom_site_type_symbol
_atom_site_label
_atom_site_fract_x
_atom_site_fract_y
_atom_site_fract_z
Si Si1 0.666276 0.399761 0.778286
Si Si2 0.163568 0.901358 0.282920
Si Si3 0.166340 0.500000 0.221800
Si Si4 0.336420 0.799111 0.217051
Si Si5 0.333712 0.000000 0.722338
Si Si6 0.833712 0.700600 0.777946
O O1 0.500000 0.399810 0.720451
O O2 0.750114 0.449846 0.720762
O O3 0.749562 0.349515 0.721482
O O4 0.665918 0.399847 0.000000
O O5 0.154077 0.907103 0.500000
O O6 0.250169 0.850288 0.249675
O O7 0.000000 0.898791 0.212543
O O8 0.250594 0.949992 0.216620
O O9 0.000000 0.500000 0.279336
O O10 0.166159 0.500000 0.000000
O O11 0.500000 0.801626 0.287419
O O12 0.248896 0.750634 0.283949
O O13 0.345963 0.793179 0.000000
O O14 0.500000 0.000000 0.779409
O O15 0.334044 0.000000 0.500000
O O16 0.000000 0.700259 0.720525
O O17 0.834102 0.700840 0.000000
#
# Coordination Sequence:
#
# PCOD9385041 Si02
#       6
#     8   8   4   8   4   8
#     4   9  15  22  32  47  69  99 137 180 224 270
#     4  10  20  34  53  76 100 126 157 193 233 278
#     4   9  15  21  29  43  65  95 134 179 224 269
#     4  10  20  33  49  70  96 126 160 197 236 279
#     4   9  17  31  52  75  98 125 156 190 230 277
#     4   9  16  26  40  57  79 110 147 185 226 274
#
# _framework density 22.028397999999999
#
# number of rings (size 3 to 8) (size 9 to 14) (size 15 to 20)
#    0.000    2.600    0.000    3.000    0.000    9.600 
#    0.000    0.500    0.000    3.000    0.000    0.000 
#    0.000    0.000    0.000    0.900    0.000   17.600 
#
# Total GULP energy -223645.553526 kJ/mol
# GULP energy per Si atom -5591.138838 kJ/mol
# Density = 2.197826 g / cm^3
# Si number density = 22.028398 Si / 1000 Ang^3
#
#
#
# Elastic Constant Matrix: (Units=GPa)
#
#
# Indices 1 2 3 4 5 6 
#
# 1 293.2672 182.2130 8.6080 0.0000 0.0000 0.0000
# 2 182.2130 278.3386 2.0824 0.0000 0.0000 0.0000
# 3 8.6080 2.0824 81.8921 0.0000 0.0000 0.0000
# 4 0.0000 0.0000 0.0000 20.0746 0.0000 0.0000
# 5 0.0000 0.0000 0.0000 0.0000 -1.0770 0.0000
# 6 0.0000 0.0000 0.0000 0.0000 0.0000 49.5440
#
#
#
# Elastic Compliance Matrix: (Units=1/GPa)
#
#
# Indices 1 2 3 4 5 6 
#
# 1 0.005769 -0.003773 -0.000510 0.000000 0.000000 0.000000
# 2 -0.003773 0.006061 0.000242 0.000000 0.000000 0.000000
# 3 -0.000510 0.000242 0.012259 0.000000 0.000000 0.000000
# 4 0.000000 0.000000 0.000000 0.049814 0.000000 0.000000
# 5 0.000000 0.000000 0.000000 0.000000 -0.928480 0.000000
# 6 0.000000 0.000000 0.000000 0.000000 0.000000 0.020184
#
#
# Mechanical properties :
#
#
# Convention : Reuss Voigt Hill
#
# Bulk Modulus (GPa) = 62.47344 115.47831 88.97587
# Shear Modulus (GPa) = -6.09031 44.41463 19.16216
#
# Velocity S-wave (km/s) = -1.66456 4.49513 2.95258
# Velocity P-wave (km/s) = 4.97269 8.91504 7.21822
#
# Compressibility (1/GPa) = 0.01600680
#
# Stress axis : x y z
#
# Youngs Moduli (GPa) = 173.34132 164.99525 81.57486
#
# Poissons Ratio (x) = 0.62249 0.04164
# Poissons Ratio (y) = 0.65398 -0.01978
# Poissons Ratio (z) = 0.08848 -0.04000
#
# Static dielectric constant tensor:
#      x y z
#    x 1.843920 0.000000 0.000000 
#    y 0.000000 1.733980 0.000000 
#    z 0.000000 0.000000 1.902260 
# 
# From -- ./inp_files/1734.got.cif
#   From: 2010.05.17/outbox.cif.g08.bks.cpg/sg47_1_cif.got.tgz:1734.got - 2010.06.03 20:15:42.
