data_PCOD9385052
_publ_section_title
;
Structure prediction by ZEFSAII (Michael W. Deem and Ramdas Pophale) SiO2 
 PCOD9385052
Probable space group: P M M M
;
_chemical_formula_sum "Si O2"
_cell_formula_units_Z 52
_cell_length_a 14.767110
_cell_length_b 21.940798
_cell_length_c 7.600297
_cell_angle_alpha 90.000000
_cell_angle_beta 90.000000
_cell_angle_gamma 90.000000
_cell_volume 2462.512778
_symmetry_space_group_name_H-M "P M M M"
_symmetry_group_IT_number 47
_symmetry_cell_setting 'orthorhombic'
loop_
_space_group_symop_operation_xyz
x,y,z
-x,-y,z
x,-y,-z
-x,y,-z
-x,-y,-z
x,y,-z
-x,y,z
x,-y,z
loop_
_atom_site_type_symbol
_atom_site_label
_atom_site_fract_x
_atom_site_fract_y
_atom_site_fract_z
Si Si1 0.893163 0.500000 0.702410
Si Si2 0.596719 0.733317 0.290827
Si Si3 0.602826 0.929020 0.714451
Si Si4 0.209680 0.382475 0.202184
Si Si5 0.896980 0.258483 0.709466
Si Si6 0.402229 0.595552 0.800017
Si Si7 0.254044 0.829365 0.285396
O O1 0.862667 0.500000 0.500000
O O2 0.859024 0.438039 0.787498
O O3 0.000000 0.500000 0.705872
O O4 0.606173 0.721084 0.500000
O O5 0.500000 0.764778 0.265623
O O6 0.594073 0.668980 0.197927
O O7 0.677576 0.775285 0.235921
O O8 0.601557 0.924660 0.500000
O O9 0.500000 0.910993 0.771509
O O10 0.689391 0.888937 0.773582
O O11 0.614546 0.000000 0.760529
O O12 0.163137 0.320244 0.268582
O O13 0.302909 0.410344 0.284336
O O14 0.232216 0.369579 0.000000
O O15 0.904247 0.250917 0.500000
O O16 0.842467 0.198253 0.775026
O O17 0.000000 0.265330 0.779171
O O18 0.500000 0.576042 0.721578
O O19 0.400386 0.571414 0.000000
O O20 0.249591 0.833276 0.500000
#
# Coordination Sequence:
#
# PCOD9385052 Si02
#       7
#     4   8   8   8   8   8   8
#     4  11  25  43  62  81 102 132 169 209 254 301
#     4   9  15  23  40  66  92 120 157 198 236 279
#     4   8  13  21  35  59  93 131 168 207 253 303
#     4  11  22  37  58  81 104 132 166 206 250 297
#     4  10  20  33  49  70  99 133 167 208 261 312
#     4   9  18  32  49  72 103 133 157 186 233 293
#     4   9  15  24  39  61  91 127 165 204 248 299
#
# _framework density 21.116641999999999
#
# number of rings (size 3 to 8) (size 9 to 14) (size 15 to 20)
#    0.000    2.538    1.538    2.077    0.000    5.231 
#    0.000    0.385    0.000    2.769    0.000    3.231 
#    0.000    2.462    0.000   12.308    0.000   11.692 
#
# Total GULP energy -289485.636832 kJ/mol
# GULP energy per Si atom -5567.031478 kJ/mol
# Density = 2.106858 g / cm^3
# Si number density = 21.116642 Si / 1000 Ang^3
#
#
#
# Elastic Constant Matrix: (Units=GPa)
#
#
# Indices 1 2 3 4 5 6 
#
# 1 154.5064 53.4551 21.2260 0.0000 0.0000 0.0000
# 2 53.4551 111.4421 4.6878 0.0000 0.0000 0.0000
# 3 21.2260 4.6878 40.3447 0.0000 0.0000 0.0000
# 4 0.0000 0.0000 0.0000 0.4621 0.0000 0.0000
# 5 0.0000 0.0000 0.0000 0.0000 7.8039 0.0000
# 6 0.0000 0.0000 0.0000 0.0000 0.0000 21.5904
#
#
#
# Elastic Compliance Matrix: (Units=1/GPa)
#
#
# Indices 1 2 3 4 5 6 
#
# 1 0.008341 -0.003835 -0.003943 0.000000 0.000000 0.000000
# 2 -0.003835 0.010781 0.000765 0.000000 0.000000 0.000000
# 3 -0.003943 0.000765 0.026772 0.000000 0.000000 0.000000
# 4 0.000000 0.000000 0.000000 2.163810 0.000000 0.000000
# 5 0.000000 0.000000 0.000000 0.000000 0.128140 0.000000
# 6 0.000000 0.000000 0.000000 0.000000 0.000000 0.046317
#
#
# Mechanical properties :
#
#
# Convention : Reuss Voigt Hill
#
# Bulk Modulus (GPa) = 31.37943 51.67010 41.52477
# Shear Modulus (GPa) = 2.07572 21.09958 11.58765
#
# Velocity S-wave (km/s) = 0.99253 3.16443 2.34507
# Velocity P-wave (km/s) = 4.02564 6.15415 5.19997
#
# Compressibility (1/GPa) = 0.03186801
#
# Stress axis : x y z
#
# Youngs Moduli (GPa) = 119.89534 92.75963 37.35277
#
# Poissons Ratio (x) = 0.35572 0.14726
# Poissons Ratio (y) = 0.45978 -0.02857
# Poissons Ratio (z) = 0.47269 -0.07096
#
# Static dielectric constant tensor:
#      x y z
#    x 1.867060 0.000000 0.000000 
#    y 0.000000 1.735710 0.000000 
#    z 0.000000 0.000000 1.837100 
# 
# From -- ./inp_files/7036.got.cif
#   From: 2010.05.17/outbox.cif.g08.bks.cpg/sg47_4_cif.got.tgz:7036.got - 2010.06.03 20:15:42.
