data_PCOD9385396
_publ_section_title
;
Structure prediction by ZEFSAII (Michael W. Deem and Ramdas Pophale) SiO2 
 PCOD9385396
Probable space group: P M M M
;
_chemical_formula_sum "Si O2"
_cell_formula_units_Z 56
_cell_length_a 14.840211
_cell_length_b 22.099640
_cell_length_c 8.056524
_cell_angle_alpha 90.000000
_cell_angle_beta 90.000000
_cell_angle_gamma 90.000000
_cell_volume 2642.244364
_symmetry_space_group_name_H-M "P M M M"
_symmetry_group_IT_number 47
_symmetry_cell_setting 'orthorhombic'
loop_
_space_group_symop_operation_xyz
x,y,z
-x,-y,z
x,-y,-z
-x,y,-z
-x,-y,-z
x,y,-z
-x,y,z
x,-y,z
loop_
_atom_site_type_symbol
_atom_site_label
_atom_site_fract_x
_atom_site_fract_y
_atom_site_fract_z
Si Si1 0.898970 0.259371 0.802118
Si Si2 0.285989 0.066034 0.699630
Si Si3 0.601137 0.182465 0.803386
Si Si4 0.295236 0.567881 0.295986
Si Si5 0.905404 0.572358 0.310296
Si Si6 0.705620 0.698047 0.303264
Si Si7 0.100119 0.880317 0.701177
O O1 0.812802 0.294737 0.732761
O O2 0.885968 0.188528 0.760423
O O3 0.000000 0.274601 0.738281
O O4 0.898836 0.267098 0.000000
O O5 0.282645 0.063569 0.500000
O O6 0.347818 0.122799 0.742357
O O7 0.184220 0.080095 0.758636
O O8 0.316546 0.000000 0.760643
O O9 0.500000 0.186367 0.732934
O O10 0.656265 0.243401 0.767213
O O11 0.595407 0.176951 0.000000
O O12 0.293227 0.566202 0.500000
O O13 0.326537 0.500000 0.245417
O O14 0.192677 0.577516 0.232998
O O15 0.335882 0.633008 0.247507
O O16 0.902324 0.596431 0.500000
O O17 0.911946 0.500000 0.325356
O O18 0.000000 0.592692 0.230200
O O19 0.695308 0.700230 0.500000
O O20 0.100835 0.879741 0.500000
O O21 0.000000 0.900049 0.754682
#
# Coordination Sequence:
#
# PCOD9385396 Si02
#       7
#     8   8   8   8   8   8   8
#     4  10  20  33  51  77 113 157 200 240 281 329
#     4  10  21  37  60  92 126 157 189 231 285 336
#     4  11  25  44  64  84 109 147 194 239 287 348
#     4   8  15  27  44  72 109 143 176 221 281 346
#     4   7   9  15  29  51  85 130 172 206 244 296
#     4  11  21  34  58  88 115 146 187 238 295 348
#     4   9  17  31  53  82 118 158 197 233 271 322
#
# _framework density 21.194102999999998
#
# number of rings (size 3 to 8) (size 9 to 14) (size 15 to 20)
#    0.000    2.571    1.429    2.571    0.000    3.429 
#    0.000    4.286    0.000    2.143    0.000    7.000 
#    0.000    0.000    0.000    0.000    0.000    0.000 
#
# Total GULP energy -311971.575859 kJ/mol
# GULP energy per Si atom -5570.920997 kJ/mol
# Density = 2.114586 g / cm^3
# Si number density = 21.194103 Si / 1000 Ang^3
#
#
#
# Elastic Constant Matrix: (Units=GPa)
#
#
# Indices 1 2 3 4 5 6 
#
# 1 76.6290 63.4347 8.4960 0.0000 0.0000 0.0000
# 2 63.4347 191.0093 12.0740 0.0000 0.0000 0.0000
# 3 8.4960 12.0740 19.4847 0.0000 0.0000 0.0000
# 4 0.0000 0.0000 0.0000 -117.5739 0.0000 0.0000
# 5 0.0000 0.0000 0.0000 0.0000 19.2985 0.0000
# 6 0.0000 0.0000 0.0000 0.0000 0.0000 -3.0077
#
#
#
# Elastic Compliance Matrix: (Units=1/GPa)
#
#
# Indices 1 2 3 4 5 6 
#
# 1 0.018353 -0.005817 -0.004398 0.000000 0.000000 0.000000
# 2 -0.005817 0.007293 -0.001982 0.000000 0.000000 0.000000
# 3 -0.004398 -0.001982 0.054468 0.000000 0.000000 0.000000
# 4 0.000000 0.000000 0.000000 -0.008505 0.000000 0.000000
# 5 0.000000 0.000000 0.000000 0.000000 0.051818 0.000000
# 6 0.000000 0.000000 0.000000 0.000000 0.000000 -0.332475
#
#
# Mechanical properties :
#
#
# Convention : Reuss Voigt Hill
#
# Bulk Modulus (GPa) = 17.94721 50.57028 34.25874
# Shear Modulus (GPa) = -30.10581 -6.71541 -18.41061
#
# Velocity S-wave (km/s) = -3.77302 -1.78197 -2.95051
# Velocity P-wave (km/s) = 3.23951 4.43604 2.14290
#
# Compressibility (1/GPa) = 0.05571898
#
# Stress axis : x y z
#
# Youngs Moduli (GPa) = 54.48716 137.12673 18.35927
#
# Poissons Ratio (x) = 0.79767 0.08074
# Poissons Ratio (y) = 0.31696 0.03640
# Poissons Ratio (z) = 0.23963 0.27185
#
# Static dielectric constant tensor:
#      x y z
#    x 1.682640 0.000000 0.000000 
#    y 0.000000 1.828770 0.000000 
#    z 0.000000 0.000000 1.749630 
# 
# From -- ./inp_files/7352.got.cif
#   From: 2010.05.17/outbox.cif.g08.bks.cpg/sg47_4_cif.got.tgz:7352.got - 2010.06.03 20:15:42.
