data_PCOD9385105
_publ_section_title
;
Structure prediction by ZEFSAII (Michael W. Deem and Ramdas Pophale) SiO2 
 PCOD9385105
Probable space group: P M M M
;
_chemical_formula_sum "Si O2"
_cell_formula_units_Z 64
_cell_length_a 31.980103
_cell_length_b 8.949993
_cell_length_c 14.578592
_cell_angle_alpha 90.000000
_cell_angle_beta 90.000000
_cell_angle_gamma 90.000000
_cell_volume 4172.709357
_symmetry_space_group_name_H-M "P M M M"
_symmetry_group_IT_number 47
_symmetry_cell_setting 'orthorhombic'
loop_
_space_group_symop_operation_xyz
x,y,z
-x,-y,z
x,-y,-z
-x,y,-z
-x,-y,-z
x,y,-z
-x,y,z
x,-y,z
loop_
_atom_site_type_symbol
_atom_site_label
_atom_site_fract_x
_atom_site_fract_y
_atom_site_fract_z
Si Si1 0.215118 0.179535 0.214133
Si Si2 0.335179 0.822153 0.603253
Si Si3 0.244188 0.678033 0.394919
Si Si4 0.293897 0.678300 0.109031
Si Si5 0.548089 0.320566 0.107455
Si Si6 0.868344 0.820453 0.106491
Si Si7 0.374234 0.178465 0.793577
Si Si8 0.954269 0.676610 0.889173
O O1 0.217692 0.239657 0.317499
O O2 0.254314 0.248261 0.159336
O O3 0.172003 0.224475 0.164804
O O4 0.218489 0.000000 0.212855
O O5 0.350817 0.791475 0.500000
O O6 0.291995 0.733591 0.616341
O O7 0.366123 0.786866 0.686322
O O8 0.325702 0.000000 0.608700
O O9 0.231967 0.712859 0.500000
O O10 0.242397 0.500000 0.382140
O O11 0.293639 0.500000 0.124281
O O12 0.336192 0.747338 0.150359
O O13 0.291865 0.705899 0.000000
O O14 0.500000 0.280789 0.129194
O O15 0.552098 0.500000 0.116290
O O16 0.582258 0.240740 0.169184
O O17 0.555429 0.284392 0.000000
O O18 0.912297 0.757136 0.142750
O O19 0.870562 0.000000 0.106918
O O20 0.862910 0.772458 0.000000
O O21 0.372449 0.000000 0.805224
O O22 0.951477 0.500000 0.870306
O O23 0.000000 0.730675 0.856134
O O24 0.954640 0.693952 0.000000
#
# Coordination Sequence:
#
# PCOD9385105 Si02
#       8
#     8   8   8   8   8   8   8   8
#     4  11  21  33  48  67  94 128 162 198 239 282
#     4   9  18  33  51  71  96 125 156 191 236 285
#     4  10  20  33  50  71  93 120 158 201 241 283
#     4  11  23  35  47  66  95 131 165 196 232 277
#     4   9  19  36  55  73  96 128 161 193 234 283
#     4   9  18  30  43  62  90 125 162 197 234 278
#     4  11  21  32  51  77  99 123 156 197 239 280
#     4   8  14  25  41  61  85 115 154 198 239 278
#
# _framework density 15.337756000000001
#
# number of rings (size 3 to 8) (size 9 to 14) (size 15 to 20)
#    0.000    2.250    1.250    3.000    0.000    6.000 
#    0.000    3.125    0.000    0.375    0.000    2.625 
#    0.000    0.500    0.000    5.500    0.000    4.250 
#
# Total GULP energy -356904.851822 kJ/mol
# GULP energy per Si atom -5576.638310 kJ/mol
# Density = 1.530285 g / cm^3
# Si number density = 15.337756 Si / 1000 Ang^3
#
#
#
# Elastic Constant Matrix: (Units=GPa)
#
#
# Indices 1 2 3 4 5 6 
#
# 1 129.3487 47.4186 74.0330 0.0000 0.0000 0.0000
# 2 47.4186 41.6534 47.5190 0.0000 0.0000 0.0000
# 3 74.0330 47.5190 101.0002 0.0000 0.0000 0.0000
# 4 0.0000 0.0000 0.0000 22.3136 0.0000 0.0000
# 5 0.0000 0.0000 0.0000 0.0000 6.9302 0.0000
# 6 0.0000 0.0000 0.0000 0.0000 0.0000 29.7669
#
#
#
# Elastic Compliance Matrix: (Units=1/GPa)
#
#
# Indices 1 2 3 4 5 6 
#
# 1 0.014954 -0.009755 -0.006372 0.000000 0.000000 0.000000
# 2 -0.009755 0.058186 -0.020226 0.000000 0.000000 0.000000
# 3 -0.006372 -0.020226 0.024087 0.000000 0.000000 0.000000
# 4 0.000000 0.000000 0.000000 0.044816 0.000000 0.000000
# 5 0.000000 0.000000 0.000000 0.000000 0.144295 0.000000
# 6 0.000000 0.000000 0.000000 0.000000 0.000000 0.033594
#
#
# Mechanical properties :
#
#
# Convention : Reuss Voigt Hill
#
# Bulk Modulus (GPa) = 40.77741 67.77152 54.27446
# Shear Modulus (GPa) = 12.47470 18.67090 15.57280
#
# Velocity S-wave (km/s) = 2.85499 3.49279 3.18987
# Velocity P-wave (km/s) = 6.12470 7.78127 7.00215
#
# Compressibility (1/GPa) = 0.02452338
#
# Stress axis : x y z
#
# Youngs Moduli (GPa) = 66.87185 17.18625 41.51557
#
# Poissons Ratio (x) = 0.16764 0.26453
# Poissons Ratio (y) = 0.65231 0.83968
# Poissons Ratio (z) = 0.42610 0.34760
#
# Static dielectric constant tensor:
#      x y z
#    x 1.495270 0.000000 0.000000 
#    y 0.000000 1.513270 0.000000 
#    z 0.000000 0.000000 1.511670 
# 
# From -- ./inp_files/22143.got.cif
#   From: 2010.05.17/outbox.cif.g08.bks.cpg/sg47_12_cif.got.tgz:22143.got - 2010.06.03 20:15:42.
