data_PCOD9385961
_publ_section_title
;
Structure prediction by ZEFSAII (Michael W. Deem and Ramdas Pophale) SiO2 
 PCOD9385961
Probable space group: P M M M
;
_chemical_formula_sum "Si O2"
_cell_formula_units_Z 40
_cell_length_a 27.813852
_cell_length_b 9.091930
_cell_length_c 9.161495
_cell_angle_alpha 90.000000
_cell_angle_beta 90.000000
_cell_angle_gamma 90.000000
_cell_volume 2316.773472
_symmetry_space_group_name_H-M "P M M M"
_symmetry_group_IT_number 47
_symmetry_cell_setting 'orthorhombic'
loop_
_space_group_symop_operation_xyz
x,y,z
-x,-y,z
x,-y,-z
-x,y,-z
-x,-y,-z
x,y,-z
-x,y,z
x,-y,z
loop_
_atom_site_type_symbol
_atom_site_label
_atom_site_fract_x
_atom_site_fract_y
_atom_site_fract_z
Si Si1 0.000000 0.675822 0.173814
Si Si2 0.908556 0.175634 0.673411
Si Si3 0.556061 0.324405 0.000000
Si Si4 0.365116 0.170026 0.164572
Si Si5 0.181888 0.676498 0.172557
Si Si6 0.719222 0.324616 0.670121
O O1 0.046797 0.746793 0.247353
O O2 0.000000 0.500000 0.195758
O O3 0.000000 0.703622 0.000000
O O4 0.910099 0.205059 0.500000
O O5 0.859881 0.239548 0.742308
O O6 0.911153 0.000000 0.694666
O O7 0.584912 0.256047 0.137729
O O8 0.561181 0.500000 0.000000
O O9 0.500000 0.286287 0.000000
O O10 0.328232 0.243986 0.273657
O O11 0.373887 0.000000 0.199936
O O12 0.342953 0.176479 0.000000
O O13 0.175955 0.500000 0.193447
O O14 0.233960 0.717658 0.236636
O O15 0.179300 0.706316 0.000000
O O16 0.728085 0.294142 0.500000
O O17 0.712417 0.500000 0.687884
#
# Coordination Sequence:
#
# PCOD9385961 Si02
#       6
#     4   8   4   8   8   8
#     4  11  24  41  62  86 110 139 180 227 274 328
#     4  11  24  40  58  83 113 145 181 223 274 330
#     4   9  17  31  55  83 109 141 183 230 275 320
#     4   9  19  32  50  78 109 143 180 221 272 325
#     4  10  21  37  58  83 110 143 185 229 273 324
#     4  10  20  34  54  79 108 146 188 229 274 325
#
# _framework density 17.26539
#
# number of rings (size 3 to 8) (size 9 to 14) (size 15 to 20)
#    0.600    1.400    0.000    3.600    0.000   10.000 
#    0.000    0.000    0.000    0.600    0.000    4.200 
#    0.000    0.000    0.000    0.000    0.000    0.000 
#
# Total GULP energy -223132.024077 kJ/mol
# GULP energy per Si atom -5578.300602 kJ/mol
# Density = 1.722609 g / cm^3
# Si number density = 17.265390 Si / 1000 Ang^3
#
#
#
# Elastic Constant Matrix: (Units=GPa)
#
#
# Indices 1 2 3 4 5 6 
#
# 1 158.4177 79.4487 73.8023 0.0000 0.0000 0.0000
# 2 79.4487 79.0615 73.2709 0.0000 0.0000 0.0000
# 3 73.8023 73.2709 102.0515 0.0000 0.0000 0.0000
# 4 0.0000 0.0000 0.0000 27.8439 0.0000 0.0000
# 5 0.0000 0.0000 0.0000 0.0000 -9.9829 0.0000
# 6 0.0000 0.0000 0.0000 0.0000 0.0000 -50.7851
#
#
#
# Elastic Compliance Matrix: (Units=1/GPa)
#
#
# Indices 1 2 3 4 5 6 
#
# 1 0.012726 -0.012729 -0.000064 0.000000 0.000000 0.000000
# 2 -0.012729 0.050532 -0.027076 0.000000 0.000000 0.000000
# 3 -0.000064 -0.027076 0.029285 0.000000 0.000000 0.000000
# 4 0.000000 0.000000 0.000000 0.035915 0.000000 0.000000
# 5 0.000000 0.000000 0.000000 0.000000 -0.100171 0.000000
# 6 0.000000 0.000000 0.000000 0.000000 0.000000 -0.019691
#
#
# Mechanical properties :
#
#
# Convention : Reuss Voigt Hill
#
# Bulk Modulus (GPa) = 78.08940 88.06384 83.07662
# Shear Modulus (GPa) = 53.99388 0.94908 27.47148
#
# Velocity S-wave (km/s) = 5.59828 0.74222 3.99322
# Velocity P-wave (km/s) = 9.33353 7.20078 8.33565
#
# Compressibility (1/GPa) = 0.01280583
#
# Stress axis : x y z
#
# Youngs Moduli (GPa) = 78.57892 19.78930 34.14670
#
# Poissons Ratio (x) = 0.25189 0.00220
# Poissons Ratio (y) = 1.00022 0.92455
# Poissons Ratio (z) = 0.00505 0.53581
#
# Static dielectric constant tensor:
#      x y z
#    x 1.556980 0.000000 0.000000 
#    y 0.000000 1.578590 0.000000 
#    z 0.000000 0.000000 1.573420 
# 
# From -- ./inp_files/13032.got.cif
#   From: 2010.05.17/outbox.cif.g08.bks.cpg/sg47_7_cif.got.tgz:13032.got - 2010.06.03 20:15:42.
