data_PCOD9385259
_publ_section_title
;
Structure prediction by ZEFSAII (Michael W. Deem and Ramdas Pophale) SiO2 
 PCOD9385259
Probable space group: P M M M
;
_chemical_formula_sum "Si O2"
_cell_formula_units_Z 52
_cell_length_a 28.870466
_cell_length_b 8.914259
_cell_length_c 11.989038
_cell_angle_alpha 90.000000
_cell_angle_beta 90.000000
_cell_angle_gamma 90.000000
_cell_volume 3085.484569
_symmetry_space_group_name_H-M "P M M M"
_symmetry_group_IT_number 47
_symmetry_cell_setting 'orthorhombic'
loop_
_space_group_symop_operation_xyz
x,y,z
-x,-y,z
x,-y,-z
-x,y,-z
-x,-y,-z
x,y,-z
-x,y,z
x,-y,z
loop_
_atom_site_type_symbol
_atom_site_label
_atom_site_fract_x
_atom_site_fract_y
_atom_site_fract_z
Si Si1 0.946485 0.178095 0.776350
Si Si2 0.867904 0.320644 0.630007
Si Si3 0.804532 0.820458 0.000000
Si Si4 0.092635 0.320578 0.000000
Si Si5 0.595292 0.672350 0.635541
Si Si6 0.500000 0.826437 0.363975
Si Si7 0.224724 0.320421 0.229479
Si Si8 0.307923 0.178505 0.367520
O O1 0.911241 0.235190 0.682700
O O2 0.000000 0.206504 0.747078
O O3 0.940590 0.000000 0.794007
O O4 0.933491 0.263429 0.890087
O O5 0.861354 0.284655 0.500000
O O6 0.875613 0.500000 0.639811
O O7 0.821795 0.284940 0.700141
O O8 0.779640 0.760423 0.110863
O O9 0.856177 0.750805 0.000000
O O10 0.807168 0.000000 0.000000
O O11 0.096390 0.500000 0.000000
O O12 0.593920 0.672805 0.500000
O O13 0.599039 0.500000 0.671776
O O14 0.547049 0.745338 0.673245
O O15 0.641016 0.764743 0.666389
O O16 0.500000 0.822438 0.500000
O O17 0.500000 0.000000 0.330957
O O18 0.226670 0.500000 0.214864
O O19 0.268682 0.262802 0.298259
O O20 0.302209 0.210605 0.500000
O O21 0.304306 0.000000 0.352308
#
# Coordination Sequence:
#
# PCOD9385259 Si02
#       8
#     8   8   4   4   8   4   8   8
#     4  11  24  40  59  84 112 142 176 217 264 312
#     4  10  22  39  59  82 109 143 180 216 257 311
#     4  12  24  39  61  86 110 136 169 214 265 314
#     4  12  23  39  62  87 110 138 173 213 263 316
#     4   9  16  26  41  63  94 135 181 225 268 316
#     4   9  15  23  37  59  91 132 177 224 271 319
#     4  11  22  38  59  82 107 139 177 217 264 317
#     4  10  20  33  50  75 108 145 183 223 268 317
#
# _framework density 16.853107000000001
#
# number of rings (size 3 to 8) (size 9 to 14) (size 15 to 20)
#    0.000    1.615    1.538    4.154    0.000    7.692 
#    0.000    1.538    0.000    0.000    0.000    0.000 
#    0.000    0.615    0.000    6.154    0.000    5.538 
#
# Total GULP energy -290445.728961 kJ/mol
# GULP energy per Si atom -5585.494788 kJ/mol
# Density = 1.681475 g / cm^3
# Si number density = 16.853107 Si / 1000 Ang^3
#
#
#
# Elastic Constant Matrix: (Units=GPa)
#
#
# Indices 1 2 3 4 5 6 
#
# 1 138.8817 69.1515 52.1695 0.0000 0.0000 0.0000
# 2 69.1515 102.1572 54.7122 0.0000 0.0000 0.0000
# 3 52.1695 54.7122 88.5547 0.0000 0.0000 0.0000
# 4 0.0000 0.0000 0.0000 23.8224 0.0000 0.0000
# 5 0.0000 0.0000 0.0000 0.0000 12.9660 0.0000
# 6 0.0000 0.0000 0.0000 0.0000 0.0000 36.7066
#
#
#
# Elastic Compliance Matrix: (Units=1/GPa)
#
#
# Indices 1 2 3 4 5 6 
#
# 1 0.011337 -0.006123 -0.002896 0.000000 0.000000 0.000000
# 2 -0.006123 0.017937 -0.007475 0.000000 0.000000 0.000000
# 3 -0.002896 -0.007475 0.017617 0.000000 0.000000 0.000000
# 4 0.000000 0.000000 0.000000 0.041977 0.000000 0.000000
# 5 0.000000 0.000000 0.000000 0.000000 0.077125 0.000000
# 6 0.000000 0.000000 0.000000 0.000000 0.000000 0.027243
#
#
# Mechanical properties :
#
#
# Convention : Reuss Voigt Hill
#
# Bulk Modulus (GPa) = 71.92656 75.73999 73.83327
# Shear Modulus (GPa) = 21.65838 24.93636 23.29737
#
# Velocity S-wave (km/s) = 3.58876 3.85077 3.72207
# Velocity P-wave (km/s) = 7.74231 8.05047 7.89789
#
# Compressibility (1/GPa) = 0.01390307
#
# Stress axis : x y z
#
# Youngs Moduli (GPa) = 88.20668 55.75056 56.76495
#
# Poissons Ratio (x) = 0.34138 0.16437
# Poissons Ratio (y) = 0.54012 0.42430
# Poissons Ratio (z) = 0.25542 0.41672
#
# Static dielectric constant tensor:
#      x y z
#    x 1.552970 0.000000 0.000000 
#    y 0.000000 1.564390 0.000000 
#    z 0.000000 0.000000 1.545660 
# 
# From -- ./inp_files/19873.got.cif
#   From: 2010.05.17/outbox.cif.g08.bks.cpg/sg47_10_cif.got.tgz:19873.got - 2010.06.03 20:15:42.
