data_PCOD9385464
_publ_section_title
;
Structure prediction by ZEFSAII (Michael W. Deem and Ramdas Pophale) SiO2 
 PCOD9385464
Probable space group: P M M M
;
_chemical_formula_sum "Si O2"
_cell_formula_units_Z 40
_cell_length_a 7.567933
_cell_length_b 13.154383
_cell_length_c 19.070468
_cell_angle_alpha 90.000000
_cell_angle_beta 90.000000
_cell_angle_gamma 90.000000
_cell_volume 1898.493489
_symmetry_space_group_name_H-M "P M M M"
_symmetry_group_IT_number 47
_symmetry_cell_setting 'orthorhombic'
loop_
_space_group_symop_operation_xyz
x,y,z
-x,-y,z
x,-y,-z
-x,y,-z
-x,-y,-z
x,y,-z
-x,y,z
x,-y,z
loop_
_atom_site_type_symbol
_atom_site_label
_atom_site_fract_x
_atom_site_fract_y
_atom_site_fract_z
Si Si1 0.710798 0.000000 0.919944
Si Si2 0.209109 0.810150 0.671185
Si Si3 0.713150 0.384742 0.420002
Si Si4 0.784248 0.385644 0.919466
Si Si5 0.783077 0.000000 0.580300
Si Si6 0.210599 0.198478 0.171330
O O1 0.763897 0.099651 0.876539
O O2 0.500000 0.000000 0.924049
O O3 0.780552 0.000000 0.000000
O O4 0.231289 0.701520 0.634064
O O5 0.282591 0.813414 0.750031
O O6 0.000000 0.829802 0.677158
O O7 0.278046 0.899732 0.621456
O O8 0.771986 0.361343 0.500000
O O9 0.500000 0.385733 0.420812
O O10 0.771861 0.500000 0.402835
O O11 0.730004 0.500000 0.899857
O O12 0.719189 0.297748 0.868525
O O13 0.000000 0.384381 0.919063
O O14 0.730898 0.366396 0.000000
O O15 0.724826 0.000000 0.500000
O O16 0.000000 0.000000 0.579026
O O17 0.000000 0.213693 0.178094
#
# Coordination Sequence:
#
# PCOD9385464 Si02
#       6
#     4   8   8   8   4   8
#     4  11  24  39  55  77 106 141 182 225 264 306
#     4  10  20  33  52  79 106 132 169 218 269 319
#     4   9  19  36  55  75 104 144 186 223 260 308
#     4   8  14  26  46  72  99 127 162 203 246 296
#     4   9  17  30  47  67  96 131 162 200 256 313
#     4  10  20  34  54  79 106 136 171 213 264 320
#
# _framework density 21.069337000000001
#
# number of rings (size 3 to 8) (size 9 to 14) (size 15 to 20)
#    0.000    2.600    0.000    3.300    0.000    6.400 
#    0.000    3.500    0.000    2.400    0.000    2.800 
#    0.000    0.000    0.000    0.000    0.000    0.000 
#
# Total GULP energy -223366.693521 kJ/mol
# GULP energy per Si atom -5584.167338 kJ/mol
# Density = 2.102138 g / cm^3
# Si number density = 21.069337 Si / 1000 Ang^3
#
#
#
# Elastic Constant Matrix: (Units=GPa)
#
#
# Indices 1 2 3 4 5 6 
#
# 1 44.8614 -7.3284 2.8283 0.0000 0.0000 0.0000
# 2 -7.3284 177.1460 144.6740 0.0000 0.0000 0.0000
# 3 2.8283 144.6740 215.8163 0.0000 0.0000 0.0000
# 4 0.0000 0.0000 0.0000 -17.6644 0.0000 0.0000
# 5 0.0000 0.0000 0.0000 0.0000 5.7745 0.0000
# 6 0.0000 0.0000 0.0000 0.0000 0.0000 5.5625
#
#
#
# Elastic Compliance Matrix: (Units=1/GPa)
#
#
# Indices 1 2 3 4 5 6 
#
# 1 0.022850 0.002629 -0.002062 0.000000 0.000000 0.000000
# 2 0.002629 0.012777 -0.008600 0.000000 0.000000 0.000000
# 3 -0.002062 -0.008600 0.010426 0.000000 0.000000 0.000000
# 4 0.000000 0.000000 0.000000 -0.056611 0.000000 0.000000
# 5 0.000000 0.000000 0.000000 0.000000 0.173176 0.000000
# 6 0.000000 0.000000 0.000000 0.000000 0.000000 0.179775
#
#
# Mechanical properties :
#
#
# Convention : Reuss Voigt Hill
#
# Bulk Modulus (GPa) = 33.34640 79.79684 56.57162
# Shear Modulus (GPa) = 13.57021 18.57783 16.07402
#
# Velocity S-wave (km/s) = 2.54061 2.97264 2.76508
# Velocity P-wave (km/s) = 4.94648 7.05250 6.09120
#
# Compressibility (1/GPa) = 0.02998825
#
# Stress axis : x y z
#
# Youngs Moduli (GPa) = 43.76285 78.26438 95.91864
#
# Poissons Ratio (x) = -0.20579 0.19780
# Poissons Ratio (y) = -0.11507 0.82488
# Poissons Ratio (z) = 0.09024 0.67305
#
# Static dielectric constant tensor:
#      x y z
#    x 1.776640 0.000000 0.000000 
#    y 0.000000 1.724560 0.000000 
#    z 0.000000 0.000000 1.775350 
# 
# From -- ./inp_files/29364.got.cif
#   From: 2010.05.17/outbox.cif.g08.bks.cpg/sg47_15_cif.got.tgz:29364.got - 2010.06.03 20:15:42.
