data_PCOD9385844
_publ_section_title
;
Structure prediction by ZEFSAII (Michael W. Deem and Ramdas Pophale) SiO2 
 PCOD9385844
Probable space group: P M M M
;
_chemical_formula_sum "Si O2"
_cell_formula_units_Z 44
_cell_length_a 12.959154
_cell_length_b 14.364657
_cell_length_c 14.633765
_cell_angle_alpha 90.000000
_cell_angle_beta 90.000000
_cell_angle_gamma 90.000000
_cell_volume 2724.130996
_symmetry_space_group_name_H-M "P M M M"
_symmetry_group_IT_number 47
_symmetry_cell_setting 'orthorhombic'
loop_
_space_group_symop_operation_xyz
x,y,z
-x,-y,z
x,-y,-z
-x,y,-z
-x,-y,-z
x,y,-z
-x,y,z
x,-y,z
loop_
_atom_site_type_symbol
_atom_site_label
_atom_site_fract_x
_atom_site_fract_y
_atom_site_fract_z
Si Si1 0.500000 0.393496 0.389124
Si Si2 0.706630 0.717587 0.609445
Si Si3 0.714062 0.107724 0.102980
Si Si4 0.380559 0.108075 0.704546
Si Si5 0.120464 0.730042 0.103665
Si Si6 0.122105 0.390187 0.280938
O O1 0.500000 0.500000 0.356831
O O2 0.500000 0.395113 0.500000
O O3 0.604066 0.340167 0.361945
O O4 0.710250 0.721442 0.500000
O O5 0.691246 0.819864 0.651482
O O6 0.805895 0.665564 0.649358
O O7 0.636005 0.121152 0.186719
O O8 0.806784 0.180508 0.115725
O O9 0.749678 0.000000 0.107974
O O10 0.671599 0.121443 0.000000
O O11 0.500000 0.125159 0.680267
O O12 0.357132 0.000000 0.683900
O O13 0.141890 0.653609 0.180813
O O14 0.000000 0.756631 0.112029
O O15 0.136278 0.694792 0.000000
O O16 0.145036 0.500000 0.283184
O O17 0.000000 0.378367 0.300609
#
# Coordination Sequence:
#
# PCOD9385844 Si02
#       6
#     4   8   8   8   8   8
#     4   9  18  32  51  75  98 125 165 215 267 308
#     4  11  21  35  54  76 103 134 173 220 263 305
#     4   9  17  30  50  76 104 133 166 205 251 305
#     4  10  20  34  53  78 106 135 170 210 256 311
#     4   9  17  30  50  76 104 132 164 206 255 305
#     4  10  21  36  54  77 104 136 175 215 258 309
#
# _framework density 16.15194
#
# number of rings (size 3 to 8) (size 9 to 14) (size 15 to 20)
#    0.000    2.273    2.727    0.545    0.000    2.909 
#    0.000    7.273    0.000    0.545    0.000    1.273 
#    0.000    5.818    0.000    0.000    0.000    0.000 
#
# Total GULP energy -245170.961160 kJ/mol
# GULP energy per Si atom -5572.067299 kJ/mol
# Density = 1.611518 g / cm^3
# Si number density = 16.151940 Si / 1000 Ang^3
#
#
#
# Elastic Constant Matrix: (Units=GPa)
#
#
# Indices 1 2 3 4 5 6 
#
# 1 55.0707 48.4200 37.6442 0.0000 0.0000 0.0000
# 2 48.4200 104.9139 50.8143 0.0000 0.0000 0.0000
# 3 37.6442 50.8143 79.1104 0.0000 0.0000 0.0000
# 4 0.0000 0.0000 0.0000 20.3651 0.0000 0.0000
# 5 0.0000 0.0000 0.0000 0.0000 23.0202 0.0000
# 6 0.0000 0.0000 0.0000 0.0000 0.0000 26.4721
#
#
#
# Elastic Compliance Matrix: (Units=1/GPa)
#
#
# Indices 1 2 3 4 5 6 
#
# 1 0.034450 -0.011554 -0.008971 0.000000 0.000000 0.000000
# 2 -0.011554 0.017711 -0.005878 0.000000 0.000000 0.000000
# 3 -0.008971 -0.005878 0.020685 0.000000 0.000000 0.000000
# 4 0.000000 0.000000 0.000000 0.049104 0.000000 0.000000
# 5 0.000000 0.000000 0.000000 0.000000 0.043440 0.000000
# 6 0.000000 0.000000 0.000000 0.000000 0.000000 0.037776
#
#
# Mechanical properties :
#
#
# Convention : Reuss Voigt Hill
#
# Bulk Modulus (GPa) = 49.90319 56.98353 53.44336
# Shear Modulus (GPa) = 19.03658 20.78590 19.91124
#
# Velocity S-wave (km/s) = 3.43679 3.59123 3.51486
# Velocity P-wave (km/s) = 6.83461 7.24929 7.04500
#
# Compressibility (1/GPa) = 0.02003880
#
# Stress axis : x y z
#
# Youngs Moduli (GPa) = 29.02797 56.46145 48.34370
#
# Poissons Ratio (x) = 0.65236 0.43370
# Poissons Ratio (y) = 0.33539 0.28418
# Poissons Ratio (z) = 0.26041 0.33190
#
# Static dielectric constant tensor:
#      x y z
#    x 1.521640 0.000000 0.000000 
#    y 0.000000 1.528920 0.000000 
#    z 0.000000 0.000000 1.544370 
# 
# From -- ./inp_files/17393.got.cif
#   From: 2010.05.17/outbox.cif.g08.bks.cpg/sg47_9_cif.got.tgz:17393.got - 2010.06.03 20:15:42.
