data_PCOD9385346
_publ_section_title
;
Structure prediction by ZEFSAII (Michael W. Deem and Ramdas Pophale) SiO2 
 PCOD9385346
Probable space group: P M M M
;
_chemical_formula_sum "Si O2"
_cell_formula_units_Z 52
_cell_length_a 14.922527
_cell_length_b 9.006702
_cell_length_c 23.060170
_cell_angle_alpha 90.000000
_cell_angle_beta 90.000000
_cell_angle_gamma 90.000000
_cell_volume 3099.350351
_symmetry_space_group_name_H-M "P M M M"
_symmetry_group_IT_number 47
_symmetry_cell_setting 'orthorhombic'
loop_
_space_group_symop_operation_xyz
x,y,z
-x,-y,z
x,-y,-z
-x,y,-z
-x,-y,-z
x,y,-z
-x,y,z
x,-y,z
loop_
_atom_site_type_symbol
_atom_site_label
_atom_site_fract_x
_atom_site_fract_y
_atom_site_fract_z
Si Si1 0.891255 0.328890 0.000000
Si Si2 0.856391 0.171141 0.348010
Si Si3 0.000000 0.678806 0.431240
Si Si4 0.597787 0.678515 0.264567
Si Si5 0.797991 0.321142 0.769518
Si Si6 0.107296 0.176430 0.120543
Si Si7 0.648608 0.830842 0.617975
Si Si8 0.606754 0.333895 0.500000
O O1 0.864475 0.244809 0.941335
O O2 0.861180 0.500000 0.000000
O O3 0.000000 0.329521 0.000000
O O4 0.916195 0.254379 0.395631
O O5 0.850316 0.254597 0.286220
O O6 0.754441 0.168148 0.369831
O O7 0.886503 0.000000 0.340483
O O8 0.000000 0.500000 0.427701
O O9 0.000000 0.719016 0.500000
O O10 0.500000 0.723639 0.239651
O O11 0.599091 0.500000 0.266726
O O12 0.692150 0.723105 0.234898
O O13 0.604095 0.741982 0.329453
O O14 0.803424 0.500000 0.768213
O O15 0.841686 0.256369 0.827310
O O16 0.000000 0.200294 0.126905
O O17 0.123093 0.000000 0.121608
O O18 0.633417 0.752620 0.557325
O O19 0.615943 0.000000 0.617104
O O20 0.645543 0.500000 0.500000
O O21 0.500000 0.344443 0.500000
#
# Coordination Sequence:
#
# PCOD9385346 Si02
#       8
#     4   8   4   8   8   8   8   4
#     4   9  17  31  51  77 108 143 184 223 257 300
#     4  10  22  39  56  74 100 131 166 210 261 312
#     4  11  25  41  57  77  97 126 171 216 259 311
#     4   9  18  34  54  75 101 133 168 209 259 311
#     4  10  20  34  54  80 108 139 177 219 260 307
#     4  10  20  33  51  76 111 150 183 216 259 307
#     4  10  21  35  52  74  97 123 157 201 252 306
#     4  11  23  35  49  70  95 124 155 191 244 309
#
# _framework density 16.777709999999999
#
# number of rings (size 3 to 8) (size 9 to 14) (size 15 to 20)
#    0.000    2.077    0.000    3.000    2.154    7.692 
#    0.000    0.000    0.000    0.000    0.000    0.538 
#    0.000    4.308    0.000    0.000    0.000    0.000 
#
# Total GULP energy -290086.656202 kJ/mol
# GULP energy per Si atom -5578.589542 kJ/mol
# Density = 1.673952 g / cm^3
# Si number density = 16.777710 Si / 1000 Ang^3
#
#
#
# Elastic Constant Matrix: (Units=GPa)
#
#
# Indices 1 2 3 4 5 6 
#
# 1 74.8216 38.7568 53.9839 0.0000 0.0000 0.0000
# 2 38.7568 72.5567 64.6800 0.0000 0.0000 0.0000
# 3 53.9839 64.6800 152.5360 0.0000 0.0000 0.0000
# 4 0.0000 0.0000 0.0000 32.1251 0.0000 0.0000
# 5 0.0000 0.0000 0.0000 0.0000 14.4033 0.0000
# 6 0.0000 0.0000 0.0000 0.0000 0.0000 17.0389
#
#
#
# Elastic Compliance Matrix: (Units=1/GPa)
#
#
# Indices 1 2 3 4 5 6 
#
# 1 0.019945 -0.007012 -0.004085 0.000000 0.000000 0.000000
# 2 -0.007012 0.024623 -0.007959 0.000000 0.000000 0.000000
# 3 -0.004085 -0.007959 0.011377 0.000000 0.000000 0.000000
# 4 0.000000 0.000000 0.000000 0.031128 0.000000 0.000000
# 5 0.000000 0.000000 0.000000 0.000000 0.069429 0.000000
# 6 0.000000 0.000000 0.000000 0.000000 0.000000 0.058689
#
#
# Mechanical properties :
#
#
# Convention : Reuss Voigt Hill
#
# Bulk Modulus (GPa) = 56.08098 68.30620 62.19359
# Shear Modulus (GPa) = 19.28656 22.21303 20.74980
#
# Velocity S-wave (km/s) = 3.39416 3.64257 3.52056
# Velocity P-wave (km/s) = 6.98991 7.64801 7.32635
#
# Compressibility (1/GPa) = 0.01783136
#
# Stress axis : x y z
#
# Youngs Moduli (GPa) = 50.13842 40.61230 87.89867
#
# Poissons Ratio (x) = 0.28476 0.35910
# Poissons Ratio (y) = 0.35156 0.69962
# Poissons Ratio (z) = 0.20484 0.32325
#
# Static dielectric constant tensor:
#      x y z
#    x 1.589670 0.000000 0.000000 
#    y 0.000000 1.572870 0.000000 
#    z 0.000000 0.000000 1.508460 
# 
# From -- ./inp_files/30921.got.cif
#   From: 2010.05.17/outbox.cif.g08.bks.cpg/sg47_16_cif.got.tgz:30921.got - 2010.06.03 20:15:42.
