data_PCOD9385410
_publ_section_title
;
Structure prediction by ZEFSAII (Michael W. Deem and Ramdas Pophale) SiO2 
 PCOD9385410
Probable space group: P M M M
;
_chemical_formula_sum "Si O2"
_cell_formula_units_Z 48
_cell_length_a 8.531177
_cell_length_b 10.162817
_cell_length_c 29.889633
_cell_angle_alpha 90.000000
_cell_angle_beta 90.000000
_cell_angle_gamma 90.000000
_cell_volume 2591.454813
_symmetry_space_group_name_H-M "P M M M"
_symmetry_group_IT_number 47
_symmetry_cell_setting 'orthorhombic'
loop_
_space_group_symop_operation_xyz
x,y,z
-x,-y,z
x,-y,-z
-x,y,-z
-x,-y,-z
x,y,-z
-x,y,z
x,-y,z
loop_
_atom_site_type_symbol
_atom_site_label
_atom_site_fract_x
_atom_site_fract_y
_atom_site_fract_z
Si Si1 0.686591 0.848784 0.797557
Si Si2 0.688204 0.000000 0.552056
Si Si3 0.186756 0.154644 0.699365
Si Si4 0.812043 0.748842 0.604682
Si Si5 0.312423 0.500000 0.448479
Si Si6 0.809051 0.148574 0.948396
Si Si7 0.810623 0.652188 0.872066
O O1 0.500000 0.847575 0.803301
O O2 0.728825 0.818791 0.746067
O O3 0.760645 0.740198 0.829818
O O4 0.742710 0.000000 0.806707
O O5 0.754149 0.125551 0.577455
O O6 0.500000 0.000000 0.554019
O O7 0.734869 0.000000 0.500000
O O8 0.239627 0.237500 0.656424
O O9 0.000000 0.173523 0.705844
O O10 0.210846 0.000000 0.688405
O O11 0.747004 0.624865 0.578626
O O12 0.000000 0.746360 0.605122
O O13 0.500000 0.500000 0.449655
O O14 0.255855 0.500000 0.500000
O O15 0.755970 0.263550 0.915274
O O16 0.000000 0.148805 0.947754
O O17 0.760091 0.000000 0.934563
O O18 0.761495 0.168758 0.000000
O O19 0.755734 0.500000 0.871018
O O20 0.000000 0.648279 0.873366
#
# Coordination Sequence:
#
# PCOD9385410 Si02
#       7
#     8   4   8   8   4   8   8
#     4  10  21  36  56  81 106 139 183 227 273 328
#     4  11  23  37  57  87 121 155 187 227 280 335
#     4   9  18  36  60  86 113 139 174 225 281 333
#     4  11  22  39  62  88 114 146 190 237 283 334
#     4  11  25  43  59  81 117 157 193 229 278 339
#     4   8  14  26  47  76 108 142 183 230 277 326
#     4  10  20  33  51  78 111 148 186 225 275 329
#
# _framework density 18.522414999999999
#
# number of rings (size 3 to 8) (size 9 to 14) (size 15 to 20)
#    0.000    2.167    0.833    3.000    0.000    7.000 
#    1.500    1.667    0.000    0.500    0.000    3.500 
#    0.000    0.000    0.000    0.000    0.000    0.000 
#
# Total GULP energy -267874.178991 kJ/mol
# GULP energy per Si atom -5580.712062 kJ/mol
# Density = 1.848026 g / cm^3
# Si number density = 18.522415 Si / 1000 Ang^3
#
#
#
# Elastic Constant Matrix: (Units=GPa)
#
#
# Indices 1 2 3 4 5 6 
#
# 1 19.0366 26.7492 21.4743 0.0000 0.0000 0.0000
# 2 26.7492 175.9944 102.1850 0.0000 0.0000 0.0000
# 3 21.4743 102.1850 138.6375 0.0000 0.0000 0.0000
# 4 0.0000 0.0000 0.0000 28.9759 0.0000 0.0000
# 5 0.0000 0.0000 0.0000 0.0000 -200.9460 0.0000
# 6 0.0000 0.0000 0.0000 0.0000 0.0000 20.1848
#
#
#
# Elastic Compliance Matrix: (Units=1/GPa)
#
#
# Indices 1 2 3 4 5 6 
#
# 1 0.068844 -0.007468 -0.005159 0.000000 0.000000 0.000000
# 2 -0.007468 0.010743 -0.006761 0.000000 0.000000 0.000000
# 3 -0.005159 -0.006761 0.012996 0.000000 0.000000 0.000000
# 4 0.000000 0.000000 0.000000 0.034511 0.000000 0.000000
# 5 0.000000 0.000000 0.000000 0.000000 -0.004976 0.000000
# 6 0.000000 0.000000 0.000000 0.000000 0.000000 0.049542
#
#
# Mechanical properties :
#
#
# Convention : Reuss Voigt Hill
#
# Bulk Modulus (GPa) = 18.58559 70.49839 44.54199
# Shear Modulus (GPa) = 21.89414 -18.13971 1.87722
#
# Velocity S-wave (km/s) = 3.44180 -3.13283 1.00781
# Velocity P-wave (km/s) = 5.08435 5.00575 5.04520
#
# Compressibility (1/GPa) = 0.05380514
#
# Stress axis : x y z
#
# Youngs Moduli (GPa) = 14.52567 93.08535 76.94795
#
# Poissons Ratio (x) = 0.69516 0.39699
# Poissons Ratio (y) = 0.10848 0.52028
# Poissons Ratio (z) = 0.07494 0.62939
#
# Static dielectric constant tensor:
#      x y z
#    x 1.631060 0.000000 0.000000 
#    y 0.000000 1.607370 0.000000 
#    z 0.000000 0.000000 1.632950 
# 
# From -- ./inp_files/2759.got.cif
#   From: 2010.05.17/outbox.cif.g08.bks.cpg/sg47_2_cif.got.tgz:2759.got - 2010.06.03 20:15:42.
