data_PCOD9385978
_publ_section_title
;
Structure prediction by ZEFSAII (Michael W. Deem and Ramdas Pophale) SiO2 
 PCOD9385978
Probable space group: P M M M
;
_chemical_formula_sum "Si O2"
_cell_formula_units_Z 48
_cell_length_a 33.823045
_cell_length_b 8.048837
_cell_length_c 9.487830
_cell_angle_alpha 90.000000
_cell_angle_beta 90.000000
_cell_angle_gamma 90.000000
_cell_volume 2582.930558
_symmetry_space_group_name_H-M "P M M M"
_symmetry_group_IT_number 47
_symmetry_cell_setting 'orthorhombic'
loop_
_space_group_symop_operation_xyz
x,y,z
-x,-y,z
x,-y,-z
-x,y,-z
-x,-y,-z
x,y,-z
-x,y,z
x,-y,z
loop_
_atom_site_type_symbol
_atom_site_label
_atom_site_fract_x
_atom_site_fract_y
_atom_site_fract_z
Si Si1 0.500000 0.796258 0.837369
Si Si2 0.812164 0.300074 0.659946
Si Si3 0.099598 0.308129 0.671980
Si Si4 0.736980 0.802023 0.160199
Si Si5 0.650658 0.302866 0.838243
Si Si6 0.575724 0.198825 0.340019
Si Si7 0.045558 0.000000 0.671952
O O1 0.539028 0.739889 0.753957
O O2 0.500000 0.000000 0.838605
O O3 0.500000 0.742536 0.000000
O O4 0.808206 0.235971 0.500000
O O5 0.812256 0.500000 0.654084
O O6 0.855914 0.255688 0.715143
O O7 0.775155 0.245370 0.751016
O O8 0.100119 0.310963 0.500000
O O9 0.091667 0.500000 0.716100
O O10 0.068499 0.167743 0.716229
O O11 0.694898 0.736060 0.214298
O O12 0.734136 0.000000 0.156375
O O13 0.741419 0.738022 0.000000
O O14 0.645906 0.500000 0.843663
O O15 0.616646 0.233300 0.739044
O O16 0.647381 0.237316 0.000000
O O17 0.575247 0.264728 0.500000
O O18 0.571118 0.000000 0.348794
O O19 0.045942 0.000000 0.500000
O O20 0.000000 0.000000 0.717207
#
# Coordination Sequence:
#
# PCOD9385978 Si02
#       7
#     4   8   8   8   8   8   4
#     4   9  17  31  54  81 106 135 170 208 252 301
#     4   9  18  32  50  72  98 132 171 208 252 307
#     4   8  15  27  41  61  92 127 165 210 258 310
#     4  10  21  35  52  76 103 131 167 211 256 304
#     4  10  21  37  55  73  97 133 171 206 250 301
#     4  10  20  34  54  80 108 135 166 207 253 301
#     4   9  16  24  38  62  91 129 173 211 257 314
#
# _framework density 18.583542000000001
#
# number of rings (size 3 to 8) (size 9 to 14) (size 15 to 20)
#    0.000    2.667    0.000    2.750    1.167    5.333 
#    0.000    2.083    0.000    2.500    0.000    0.000 
#    0.000    1.333    0.000    3.667    0.000    3.667 
#
# Total GULP energy -267647.759282 kJ/mol
# GULP energy per Si atom -5575.994985 kJ/mol
# Density = 1.854125 g / cm^3
# Si number density = 18.583542 Si / 1000 Ang^3
#
#
#
# Elastic Constant Matrix: (Units=GPa)
#
#
# Indices 1 2 3 4 5 6 
#
# 1 181.6803 44.8178 75.3353 0.0000 0.0000 0.0000
# 2 44.8178 41.2112 23.1310 0.0000 0.0000 0.0000
# 3 75.3353 23.1310 70.9054 0.0000 0.0000 0.0000
# 4 0.0000 0.0000 0.0000 14.6237 0.0000 0.0000
# 5 0.0000 0.0000 0.0000 0.0000 72.9155 0.0000
# 6 0.0000 0.0000 0.0000 0.0000 0.0000 84.8830
#
#
#
# Elastic Compliance Matrix: (Units=1/GPa)
#
#
# Indices 1 2 3 4 5 6 
#
# 1 0.011177 -0.006720 -0.009683 0.000000 0.000000 0.000000
# 2 -0.006720 0.033745 -0.003868 0.000000 0.000000 0.000000
# 3 -0.009683 -0.003868 0.025653 0.000000 0.000000 0.000000
# 4 0.000000 0.000000 0.000000 0.068382 0.000000 0.000000
# 5 0.000000 0.000000 0.000000 0.000000 0.013715 0.000000
# 6 0.000000 0.000000 0.000000 0.000000 0.000000 0.011781
#
#
# Mechanical properties :
#
#
# Convention : Reuss Voigt Hill
#
# Bulk Modulus (GPa) = 33.29776 64.48501 48.89138
# Shear Modulus (GPa) = 23.25507 44.51865 33.88686
#
# Velocity S-wave (km/s) = 3.54132 4.89979 4.27486
# Velocity P-wave (km/s) = 5.88881 8.17227 7.12264
#
# Compressibility (1/GPa) = 0.03003205
#
# Stress axis : x y z
#
# Youngs Moduli (GPa) = 89.46779 29.63412 38.98138
#
# Poissons Ratio (x) = 0.19915 0.37746
# Poissons Ratio (y) = 0.60126 0.15078
# Poissons Ratio (z) = 0.86633 0.11463
#
# Static dielectric constant tensor:
#      x y z
#    x 1.630530 0.000000 0.000000 
#    y 0.000000 1.661290 0.000000 
#    z 0.000000 0.000000 1.647840 
# 
# From -- ./inp_files/13959.got.cif
#   From: 2010.05.17/outbox.cif.g08.bks.cpg/sg47_7_cif.got.tgz:13959.got - 2010.06.03 20:15:42.
