data_PCOD9385893
_publ_section_title
;
Structure prediction by ZEFSAII (Michael W. Deem and Ramdas Pophale) SiO2 
 PCOD9385893
Probable space group: P M M M
;
_chemical_formula_sum "Si O2"
_cell_formula_units_Z 40
_cell_length_a 21.171696
_cell_length_b 12.278098
_cell_length_c 7.618185
_cell_angle_alpha 90.000000
_cell_angle_beta 90.000000
_cell_angle_gamma 90.000000
_cell_volume 1980.333160
_symmetry_space_group_name_H-M "P M M M"
_symmetry_group_IT_number 47
_symmetry_cell_setting 'orthorhombic'
loop_
_space_group_symop_operation_xyz
x,y,z
-x,-y,z
x,-y,-z
-x,y,-z
-x,-y,-z
x,y,-z
-x,y,z
x,-y,z
loop_
_atom_site_type_symbol
_atom_site_label
_atom_site_fract_x
_atom_site_fract_y
_atom_site_fract_z
Si Si1 0.233335 0.000000 0.214425
Si Si2 0.620523 0.000000 0.210417
Si Si3 0.430213 0.762513 0.706473
Si Si4 0.691227 0.377567 0.792905
Si Si5 0.071499 0.375095 0.785959
Si Si6 0.809674 0.764324 0.784643
O O1 0.199980 0.888813 0.270933
O O2 0.306607 0.000000 0.271203
O O3 0.234202 0.000000 0.000000
O O4 0.586755 0.889369 0.267839
O O5 0.621272 0.000000 0.000000
O O6 0.432408 0.741317 0.500000
O O7 0.500000 0.740495 0.781301
O O8 0.373772 0.688370 0.776562
O O9 0.687547 0.500000 0.719603
O O10 0.749512 0.306303 0.723186
O O11 0.703744 0.387626 0.000000
O O12 0.085449 0.500000 0.733664
O O13 0.125773 0.293090 0.727479
O O14 0.000000 0.348271 0.730185
O O15 0.071668 0.374120 0.000000
O O16 0.809420 0.764521 0.000000
#
# Coordination Sequence:
#
# PCOD9385893 Si02
#       6
#     4   4   8   8   8   8
#     4   9  16  26  45  69  93 122 157 202 256 300
#     4  11  20  36  59  81 102 129 169 216 257 301
#     4  11  24  39  54  75 105 137 167 206 262 320
#     4  10  20  34  54  77  99 131 177 221 260 304
#     4   8  13  21  35  58  91 131 168 201 245 302
#     4   9  15  26  43  66  95 126 165 212 256 300
#
# _framework density 20.198623000000001
#
# number of rings (size 3 to 8) (size 9 to 14) (size 15 to 20)
#    0.000    2.400    2.000    2.400    0.000    6.000 
#    0.000    2.500    0.000    3.000    0.000    0.000 
#    0.000    0.800    0.000    6.000    0.000    6.600 
#
# Total GULP energy -223316.059930 kJ/mol
# GULP energy per Si atom -5582.901498 kJ/mol
# Density = 2.015265 g / cm^3
# Si number density = 20.198623 Si / 1000 Ang^3
#
#
#
# Elastic Constant Matrix: (Units=GPa)
#
#
# Indices 1 2 3 4 5 6 
#
# 1 183.1281 111.1946 -2.7836 0.0000 0.0000 0.0000
# 2 111.1946 176.9183 -1.9217 0.0000 0.0000 0.0000
# 3 -2.7836 -1.9217 39.3534 0.0000 0.0000 0.0000
# 4 0.0000 0.0000 0.0000 -14.9724 0.0000 0.0000
# 5 0.0000 0.0000 0.0000 0.0000 103.0274 0.0000
# 6 0.0000 0.0000 0.0000 0.0000 0.0000-1575.0263
#
#
#
# Elastic Compliance Matrix: (Units=1/GPa)
#
#
# Indices 1 2 3 4 5 6 
#
# 1 0.008836 -0.005549 0.000354 0.000000 0.000000 0.000000
# 2 -0.005549 0.009141 0.000054 0.000000 0.000000 0.000000
# 3 0.000354 0.000054 0.025438 0.000000 0.000000 0.000000
# 4 0.000000 0.000000 0.000000 -0.066789 0.000000 0.000000
# 5 0.000000 0.000000 0.000000 0.000000 0.009706 0.000000
# 6 0.000000 0.000000 0.000000 0.000000 0.000000 -0.000635
#
#
# Mechanical properties :
#
#
# Convention : Reuss Voigt Hill
#
# Bulk Modulus (GPa) = 30.18263 68.04203 49.11233
# Shear Modulus (GPa) = 711.86991 -277.86689 217.00151
#
# Velocity S-wave (km/s) = 18.79362 -11.74163 10.37627
# Velocity P-wave (km/s) = 22.04334 12.24996 12.95853
#
# Compressibility (1/GPa) = 0.03313164
#
# Stress axis : x y z
#
# Youngs Moduli (GPa) = 113.17817 109.39996 39.31059
#
# Poissons Ratio (x) = 0.60711 -0.01392
# Poissons Ratio (y) = 0.62807 -0.00212
# Poissons Ratio (z) = -0.04006 -0.00589
#
# Static dielectric constant tensor:
#      x y z
#    x 1.702570 0.000000 0.000000 
#    y 0.000000 1.667360 0.000000 
#    z 0.000000 0.000000 1.761750 
# 
# From -- ./inp_files/10717.got.cif
#   From: 2010.05.17/outbox.cif.g08.bks.cpg/sg47_6_cif.got.tgz:10717.got - 2010.06.03 20:15:42.
