data_PCOD9385817
_publ_section_title
;
Structure prediction by ZEFSAII (Michael W. Deem and Ramdas Pophale) SiO2 
 PCOD9385817
Probable space group: P M M M
;
_chemical_formula_sum "Si O2"
_cell_formula_units_Z 56
_cell_length_a 21.904962
_cell_length_b 15.074044
_cell_length_c 7.516710
_cell_angle_alpha 90.000000
_cell_angle_beta 90.000000
_cell_angle_gamma 90.000000
_cell_volume 2481.990289
_symmetry_space_group_name_H-M "P M M M"
_symmetry_group_IT_number 47
_symmetry_cell_setting 'orthorhombic'
loop_
_space_group_symop_operation_xyz
x,y,z
-x,-y,z
x,-y,-z
-x,y,-z
-x,-y,-z
x,y,-z
-x,y,z
x,-y,z
loop_
_atom_site_type_symbol
_atom_site_label
_atom_site_fract_x
_atom_site_fract_y
_atom_site_fract_z
Si Si1 0.573305 0.906715 0.205190
Si Si2 0.814357 0.400083 0.287899
Si Si3 0.883424 0.901949 0.785215
Si Si4 0.699203 0.288232 0.286914
Si Si5 0.260235 0.901896 0.711059
Si Si6 0.933180 0.284202 0.785599
Si Si7 0.568232 0.288018 0.786092
O O1 0.500000 0.911456 0.196155
O O2 0.581320 0.810813 0.290165
O O3 0.594179 0.000000 0.288177
O O4 0.594821 0.904968 0.000000
O O5 0.805640 0.406023 0.500000
O O6 0.817634 0.500000 0.216719
O O7 0.756181 0.345331 0.217987
O O8 0.876916 0.346979 0.260660
O O9 0.812357 0.889891 0.736055
O O10 0.919664 0.816028 0.721530
O O11 0.902867 0.000000 0.722315
O O12 0.887230 0.902944 0.000000
O O13 0.705061 0.282358 0.500000
O O14 0.707332 0.186690 0.217116
O O15 0.633261 0.332797 0.250426
O O16 0.272598 0.905348 0.500000
O O17 0.274675 0.000000 0.786325
O O18 0.000000 0.314233 0.723436
O O19 0.934651 0.280770 0.000000
O O20 0.500000 0.317839 0.726324
O O21 0.563831 0.280980 0.000000
#
# Coordination Sequence:
#
# PCOD9385817 Si02
#       7
#     8   8   8   8   8   8   8
#     4   7  10  19  36  58  87 124 164 203 240 281
#     4  10  22  41  62  82 105 137 182 231 276 327
#     4   9  17  30  50  77 110 148 187 222 257 304
#     4  10  20  34  53  77 104 136 174 219 272 324
#     4   9  17  30  49  73 103 139 179 224 271 316
#     4  10  21  36  56  85 119 150 180 220 270 320
#     4   9  18  31  48  73 103 135 172 214 261 317
#
# _framework density 22.562538
#
# number of rings (size 3 to 8) (size 9 to 14) (size 15 to 20)
#    0.000    2.857    1.429    1.286    0.000    3.143 
#    0.000    2.857    0.000    0.429    0.000   10.000 
#    0.000    0.000    0.000    0.000    0.000    0.000 
#
# Total GULP energy -312160.806443 kJ/mol
# GULP energy per Si atom -5574.300115 kJ/mol
# Density = 2.251119 g / cm^3
# Si number density = 22.562538 Si / 1000 Ang^3
#
#
#
# Elastic Constant Matrix: (Units=GPa)
#
#
# Indices 1 2 3 4 5 6 
#
# 1 187.1052 79.7018 0.8803 0.0000 0.0000 0.0000
# 2 79.7018 107.3201 11.0335 0.0000 0.0000 0.0000
# 3 0.8803 11.0335 64.9298 0.0000 0.0000 0.0000
# 4 0.0000 0.0000 0.0000 0.7348 0.0000 0.0000
# 5 0.0000 0.0000 0.0000 0.0000 22.9585 0.0000
# 6 0.0000 0.0000 0.0000 0.0000 0.0000 -4.7222
#
#
#
# Elastic Compliance Matrix: (Units=1/GPa)
#
#
# Indices 1 2 3 4 5 6 
#
# 1 0.007869 -0.005937 0.000902 0.000000 0.000000 0.000000
# 2 -0.005937 0.013963 -0.002292 0.000000 0.000000 0.000000
# 3 0.000902 -0.002292 0.015779 0.000000 0.000000 0.000000
# 4 0.000000 0.000000 0.000000 1.360871 0.000000 0.000000
# 5 0.000000 0.000000 0.000000 0.000000 0.043557 0.000000
# 6 0.000000 0.000000 0.000000 0.000000 0.000000 -0.211766
#
#
# Mechanical properties :
#
#
# Convention : Reuss Voigt Hill
#
# Bulk Modulus (GPa) = 43.56040 60.28736 51.92388
# Shear Modulus (GPa) = 3.99177 21.64353 12.81765
#
# Velocity S-wave (km/s) = 1.33156 3.10057 2.38606
# Velocity P-wave (km/s) = 4.65967 6.29255 5.53663
#
# Compressibility (1/GPa) = 0.02295663
#
# Stress axis : x y z
#
# Youngs Moduli (GPa) = 127.07585 71.61960 63.37724
#
# Poissons Ratio (x) = 0.42520 -0.05718
# Poissons Ratio (y) = 0.75444 0.14527
# Poissons Ratio (z) = -0.11464 0.16416
#
# Static dielectric constant tensor:
#      x y z
#    x 1.861310 0.000000 0.000000 
#    y 0.000000 1.882390 0.000000 
#    z 0.000000 0.000000 1.867020 
# 
# From -- ./inp_files/11228.got.cif
#   From: 2010.05.17/outbox.cif.g08.bks.cpg/sg47_6_cif.got.tgz:11228.got - 2010.06.03 20:15:42.
