data_PCOD9385912
_publ_section_title
;
Structure prediction by ZEFSAII (Michael W. Deem and Ramdas Pophale) SiO2 
 PCOD9385912
Probable space group: P M M M
;
_chemical_formula_sum "Si O2"
_cell_formula_units_Z 64
_cell_length_a 15.641571
_cell_length_b 23.486784
_cell_length_c 9.121361
_cell_angle_alpha 90.000000
_cell_angle_beta 90.000000
_cell_angle_gamma 90.000000
_cell_volume 3350.916210
_symmetry_space_group_name_H-M "P M M M"
_symmetry_group_IT_number 47
_symmetry_cell_setting 'orthorhombic'
loop_
_space_group_symop_operation_xyz
x,y,z
-x,-y,z
x,-y,-z
-x,y,-z
-x,-y,-z
x,y,-z
-x,y,z
x,-y,z
loop_
_atom_site_type_symbol
_atom_site_label
_atom_site_fract_x
_atom_site_fract_y
_atom_site_fract_z
Si Si1 0.100375 0.609931 0.325164
Si Si2 0.402133 0.341650 0.176672
Si Si3 0.831014 0.174416 0.668427
Si Si4 0.736089 0.563968 0.824639
Si Si5 0.899582 0.723513 0.161672
Si Si6 0.360489 0.775940 0.332059
Si Si7 0.594669 0.097291 0.675406
Si Si8 0.232830 0.064407 0.826248
O O1 0.105533 0.606561 0.500000
O O2 0.171468 0.570862 0.250370
O O3 0.127126 0.673113 0.270132
O O4 0.000000 0.598950 0.285204
O O5 0.500000 0.355725 0.220666
O O6 0.331896 0.388219 0.225453
O O7 0.379667 0.278944 0.236055
O O8 0.399794 0.340554 0.000000
O O9 0.859738 0.171270 0.500000
O O10 0.887099 0.215046 0.768585
O O11 0.738944 0.206128 0.670607
O O12 0.818371 0.112415 0.737857
O O13 0.703349 0.500000 0.797481
O O14 0.747501 0.570682 0.000000
O O15 0.000000 0.714631 0.145519
O O16 0.858544 0.718831 0.000000
O O17 0.384939 0.763211 0.500000
O O18 0.404935 0.835251 0.288287
O O19 0.613349 0.093026 0.500000
O O20 0.500000 0.074033 0.701494
O O21 0.670197 0.069074 0.766296
O O22 0.201976 0.000000 0.802012
O O23 0.231062 0.076426 0.000000
#
# Coordination Sequence:
#
# PCOD9385912 Si02
#       8
#     8   8   8   8   8   8   8   8
#     4  10  21  37  58  85 116 146 175 213 265 324
#     4  10  21  35  52  76 104 136 177 225 275 323
#     4  10  20  34  54  78 105 139 176 216 262 312
#     4  10  22  39  57  77 104 142 186 229 273 323
#     4  10  20  34  55  84 115 142 168 203 251 309
#     4   9  18  32  50  74 102 131 166 209 260 316
#     4   9  18  32  49  70  98 132 169 211 262 320
#     4  10  21  35  50  70  98 134 176 220 265 312
#
# _framework density 19.099254999999999
#
# number of rings (size 3 to 8) (size 9 to 14) (size 15 to 20)
#    0.000    2.250    0.000    3.375    0.000    9.500 
#    0.000    3.750    0.000    0.375    0.000    4.375 
#    0.000    0.000    0.000    0.000    0.000    0.000 
#
# Total GULP energy -356997.912325 kJ/mol
# GULP energy per Si atom -5578.092380 kJ/mol
# Density = 1.905578 g / cm^3
# Si number density = 19.099255 Si / 1000 Ang^3
#
#
#
# Elastic Constant Matrix: (Units=GPa)
#
#
# Indices 1 2 3 4 5 6 
#
# 1 35.5519 26.2649 18.2896 0.0000 0.0000 0.0000
# 2 26.2649 89.0836 28.3175 0.0000 0.0000 0.0000
# 3 18.2896 28.3175 45.4378 0.0000 0.0000 0.0000
# 4 0.0000 0.0000 0.0000 154.7924 0.0000 0.0000
# 5 0.0000 0.0000 0.0000 0.0000 22.1347 0.0000
# 6 0.0000 0.0000 0.0000 0.0000 0.0000 -11.1942
#
#
#
# Elastic Compliance Matrix: (Units=1/GPa)
#
#
# Indices 1 2 3 4 5 6 
#
# 1 0.039847 -0.008293 -0.010871 0.000000 0.000000 0.000000
# 2 -0.008293 0.015724 -0.006462 0.000000 0.000000 0.000000
# 3 -0.010871 -0.006462 0.030411 0.000000 0.000000 0.000000
# 4 0.000000 0.000000 0.000000 0.006460 0.000000 0.000000
# 5 0.000000 0.000000 0.000000 0.000000 0.045178 0.000000
# 6 0.000000 0.000000 0.000000 0.000000 0.000000 -0.089332
#
#
# Mechanical properties :
#
#
# Convention : Reuss Voigt Hill
#
# Bulk Modulus (GPa) = 28.79238 35.09084 31.94161
# Shear Modulus (GPa) = 44.99793 39.62665 42.31229
#
# Velocity S-wave (km/s) = 4.85913 4.55991 4.71190
# Velocity P-wave (km/s) = 6.82565 6.79238 6.80904
#
# Compressibility (1/GPa) = 0.03473141
#
# Stress axis : x y z
#
# Youngs Moduli (GPa) = 25.09606 63.59548 32.88289
#
# Poissons Ratio (x) = 0.52737 0.35747
# Poissons Ratio (y) = 0.20811 0.21248
# Poissons Ratio (z) = 0.27282 0.41094
#
# Static dielectric constant tensor:
#      x y z
#    x 1.714110 0.000000 0.000000 
#    y 0.000000 1.663020 0.000000 
#    z 0.000000 0.000000 1.657680 
# 
# From -- ./inp_files/10018.got.cif
#   From: 2010.05.17/outbox.cif.g08.bks.cpg/sg47_6_cif.got.tgz:10018.got - 2010.06.03 20:15:42.
