data_PCOD9385027
_publ_section_title
;
Structure prediction by ZEFSAII (Michael W. Deem and Ramdas Pophale) SiO2 
 PCOD9385027
Probable space group: P M M M
;
_chemical_formula_sum "Si O2"
_cell_formula_units_Z 52
_cell_length_a 7.521518
_cell_length_b 20.286333
_cell_length_c 16.594484
_cell_angle_alpha 90.000000
_cell_angle_beta 90.000000
_cell_angle_gamma 90.000000
_cell_volume 2532.053059
_symmetry_space_group_name_H-M "P M M M"
_symmetry_group_IT_number 47
_symmetry_cell_setting 'orthorhombic'
loop_
_space_group_symop_operation_xyz
x,y,z
-x,-y,z
x,-y,-z
-x,y,-z
-x,-y,-z
x,y,-z
-x,y,z
x,-y,z
loop_
_atom_site_type_symbol
_atom_site_label
_atom_site_fract_x
_atom_site_fract_y
_atom_site_fract_z
Si Si1 0.000000 0.421074 0.413967
Si Si2 0.207819 0.074193 0.643299
Si Si3 0.282520 0.204664 0.088712
Si Si4 0.289503 0.425317 0.285582
Si Si5 0.284524 0.715734 0.243884
Si Si6 0.707147 0.781131 0.410703
Si Si7 0.715044 0.927544 0.832271
O O1 0.177958 0.408401 0.364845
O O2 0.000000 0.500000 0.422200
O O3 0.000000 0.388359 0.500000
O O4 0.285856 0.139684 0.603203
O O5 0.226919 0.083311 0.739853
O O6 0.000000 0.073656 0.622541
O O7 0.278905 0.000000 0.624587
O O8 0.500000 0.207264 0.088675
O O9 0.220215 0.245807 0.165670
O O10 0.228936 0.129982 0.108524
O O11 0.223729 0.225739 0.000000
O O12 0.500000 0.425409 0.301024
O O13 0.240870 0.500000 0.258980
O O14 0.247978 0.361897 0.231841
O O15 0.500000 0.723338 0.246227
O O16 0.218770 0.745726 0.329607
O O17 0.783299 0.766590 0.500000
O O18 0.500000 0.761685 0.413528
O O19 0.500000 0.926817 0.830163
O O20 0.774942 0.000000 0.856981
#
# Coordination Sequence:
#
# PCOD9385027 Si02
#       7
#     4   8   8   8   8   8   8
#     4   9  18  32  50  78 111 137 174 223 263 313
#     4  10  20  33  49  69  96 131 169 209 253 298
#     4   9  16  27  48  77 104 130 160 201 258 310
#     4   9  18  33  54  77 103 142 183 217 263 317
#     4   9  17  32  51  73 104 134 165 210 257 305
#     4  10  20  34  52  72  95 127 167 209 254 301
#     4   9  16  28  48  71  95 124 162 205 248 300
#
# _framework density 20.536694000000001
#
# number of rings (size 3 to 8) (size 9 to 14) (size 15 to 20)
#    0.000    2.692    1.538    0.462    0.000    2.769 
#    1.385    6.154    0.000    0.923    0.000    5.385 
#    0.000    1.846    0.000    0.154    0.000    0.000 
#
# Total GULP energy -289795.360537 kJ/mol
# GULP energy per Si atom -5572.987703 kJ/mol
# Density = 2.048995 g / cm^3
# Si number density = 20.536694 Si / 1000 Ang^3
#
#
#
# Elastic Constant Matrix: (Units=GPa)
#
#
# Indices 1 2 3 4 5 6 
#
# 1 43.9394 10.5303 4.5975 0.0000 0.0000 0.0000
# 2 10.5303 129.0620 78.7237 0.0000 0.0000 0.0000
# 3 4.5975 78.7237 136.7221 0.0000 0.0000 0.0000
# 4 0.0000 0.0000 0.0000 5.3138 0.0000 0.0000
# 5 0.0000 0.0000 0.0000 0.0000 48.3736 0.0000
# 6 0.0000 0.0000 0.0000 0.0000 0.0000 0.0211
#
#
#
# Elastic Compliance Matrix: (Units=1/GPa)
#
#
# Indices 1 2 3 4 5 6 
#
# 1 0.023233 -0.002187 0.000478 0.000000 0.000000 0.000000
# 2 -0.002187 0.012149 -0.006922 0.000000 0.000000 0.000000
# 3 0.000478 -0.006922 0.011283 0.000000 0.000000 0.000000
# 4 0.000000 0.000000 0.000000 0.188190 0.000000 0.000000
# 5 0.000000 0.000000 0.000000 0.000000 0.020672 0.000000
# 6 0.000000 0.000000 0.000000 0.000000 0.000000 47.445593
#
#
# Mechanical properties :
#
#
# Convention : Reuss Voigt Hill
#
# Bulk Modulus (GPa) = 34.00951 55.26961 44.63956
# Shear Modulus (GPa) = 0.10476 25.13315 12.61895
#
# Velocity S-wave (km/s) = 0.22610 3.50210 2.48152
# Velocity P-wave (km/s) = 4.08221 6.58210 5.47670
#
# Compressibility (1/GPa) = 0.02940354
#
# Stress axis : x y z
#
# Youngs Moduli (GPa) = 43.04262 82.31410 88.62577
#
# Poissons Ratio (x) = 0.18004 -0.04238
# Poissons Ratio (y) = 0.09414 0.61343
# Poissons Ratio (z) = -0.02058 0.56974
#
# Static dielectric constant tensor:
#      x y z
#    x 1.744570 0.000000 0.000000 
#    y 0.000000 1.755900 0.000000 
#    z 0.000000 0.000000 1.724920 
# 
# From -- ./inp_files/21474.got.cif
#   From: 2010.05.17/outbox.cif.g08.bks.cpg/sg47_11_cif.got.tgz:21474.got - 2010.06.03 20:15:42.
