data_PCOD9385684
_publ_section_title
;
Structure prediction by ZEFSAII (Michael W. Deem and Ramdas Pophale) SiO2 
 PCOD9385684
Probable space group: P M M M
;
_chemical_formula_sum "Si O2"
_cell_formula_units_Z 52
_cell_length_a 7.996675
_cell_length_b 18.710509
_cell_length_c 18.204581
_cell_angle_alpha 90.000000
_cell_angle_beta 90.000000
_cell_angle_gamma 90.000000
_cell_volume 2723.803262
_symmetry_space_group_name_H-M "P M M M"
_symmetry_group_IT_number 47
_symmetry_cell_setting 'orthorhombic'
loop_
_space_group_symop_operation_xyz
x,y,z
-x,-y,z
x,-y,-z
-x,y,-z
-x,-y,-z
x,y,-z
-x,y,z
x,-y,z
loop_
_atom_site_type_symbol
_atom_site_label
_atom_site_fract_x
_atom_site_fract_y
_atom_site_fract_z
Si Si1 0.701549 0.420714 0.913560
Si Si2 0.193480 0.724541 0.155353
Si Si3 0.298698 0.136197 0.080388
Si Si4 0.295013 0.920229 0.238682
Si Si5 0.200084 0.654933 0.416826
Si Si6 0.806061 0.500000 0.589737
Si Si7 0.691426 0.222632 0.691749
O O1 0.500000 0.415601 0.907456
O O2 0.752090 0.500000 0.888289
O O3 0.781688 0.355687 0.870892
O O4 0.742385 0.414981 0.000000
O O5 0.251533 0.781147 0.093974
O O6 0.297976 0.740961 0.228163
O O7 0.000000 0.738086 0.172503
O O8 0.500000 0.130069 0.079637
O O9 0.241006 0.096191 0.154470
O O10 0.237262 0.112235 0.000000
O O11 0.500000 0.917224 0.238322
O O12 0.236009 0.856437 0.291907
O O13 0.244811 0.000000 0.259785
O O14 0.262900 0.666794 0.500000
O O15 0.267371 0.577497 0.388871
O O16 0.231055 0.722471 0.365506
O O17 0.000000 0.645865 0.421337
O O18 0.805339 0.500000 0.500000
O O19 0.000000 0.500000 0.614384
O O20 0.500000 0.213222 0.669318
#
# Coordination Sequence:
#
# PCOD9385684 Si02
#       7
#     8   8   8   8   8   4   8
#     4   9  18  33  51  68  89 121 161 207 257 300
#     4  11  21  32  47  67  94 128 166 204 244 294
#     4   9  17  29  47  71  97 125 158 201 254 305
#     4   8  15  29  49  72  97 127 166 211 253 294
#     4   9  17  32  55  80 105 133 164 199 241 291
#     4   7  12  26  49  75 101 129 158 187 224 273
#     4  10  20  34  52  74 100 130 165 204 249 297
#
# _framework density 19.090952999999999
#
# number of rings (size 3 to 8) (size 9 to 14) (size 15 to 20)
#    0.000    2.846    0.000    4.615    0.000    3.385 
#    1.385    2.692    0.000   13.385    0.000    7.538 
#    0.000    0.000    0.000    0.000    0.000    0.000 
#
# Total GULP energy -289712.674227 kJ/mol
# GULP energy per Si atom -5571.397581 kJ/mol
# Density = 1.904750 g / cm^3
# Si number density = 19.090953 Si / 1000 Ang^3
#
#
#
# Elastic Constant Matrix: (Units=GPa)
#
#
# Indices 1 2 3 4 5 6 
#
# 1 14.8737 5.4433 4.3490 0.0000 0.0000 0.0000
# 2 5.4433 166.0424 58.4632 0.0000 0.0000 0.0000
# 3 4.3490 58.4632 56.6218 0.0000 0.0000 0.0000
# 4 0.0000 0.0000 0.0000 0.1686 0.0000 0.0000
# 5 0.0000 0.0000 0.0000 0.0000 13.4389 0.0000
# 6 0.0000 0.0000 0.0000 0.0000 0.0000 -15.8600
#
#
#
# Elastic Compliance Matrix: (Units=1/GPa)
#
#
# Indices 1 2 3 4 5 6 
#
# 1 0.068818 -0.000621 -0.004645 0.000000 0.000000 0.000000
# 2 -0.000621 0.009468 -0.009729 0.000000 0.000000 0.000000
# 3 -0.004645 -0.009729 0.028063 0.000000 0.000000 0.000000
# 4 0.000000 0.000000 0.000000 5.930967 0.000000 0.000000
# 5 0.000000 0.000000 0.000000 0.000000 0.074411 0.000000
# 6 0.000000 0.000000 0.000000 0.000000 0.000000 -0.063052
#
#
# Mechanical properties :
#
#
# Convention : Reuss Voigt Hill
#
# Bulk Modulus (GPa) = 13.09574 41.56099 27.32836
# Shear Modulus (GPa) = 0.81912 10.83499 5.82706
#
# Velocity S-wave (km/s) = 0.65574 2.38491 1.74897
# Velocity P-wave (km/s) = 2.72908 5.42227 4.29237
#
# Compressibility (1/GPa) = 0.07636072
#
# Stress axis : x y z
#
# Youngs Moduli (GPa) = 14.53111 105.61541 35.63439
#
# Poissons Ratio (x) = 0.06554 0.16552
# Poissons Ratio (y) = 0.00902 0.34667
# Poissons Ratio (z) = 0.06750 1.02749
#
# Static dielectric constant tensor:
#      x y z
#    x 1.694260 0.000000 0.000000 
#    y 0.000000 1.698990 0.000000 
#    z 0.000000 0.000000 1.648530 
# 
# From -- ./inp_files/26768.got.cif
#   From: 2010.05.17/outbox.cif.g08.bks.cpg/sg47_14_cif.got.tgz:26768.got - 2010.06.03 20:15:42.
