data_PCOD9385485
_publ_section_title
;
Structure prediction by ZEFSAII (Michael W. Deem and Ramdas Pophale) SiO2 
 PCOD9385485
Probable space group: P M M M
;
_chemical_formula_sum "Si O2"
_cell_formula_units_Z 44
_cell_length_a 29.178947
_cell_length_b 7.922155
_cell_length_c 9.327513
_cell_angle_alpha 90.000000
_cell_angle_beta 90.000000
_cell_angle_gamma 90.000000
_cell_volume 2156.149219
_symmetry_space_group_name_H-M "P M M M"
_symmetry_group_IT_number 47
_symmetry_cell_setting 'orthorhombic'
loop_
_space_group_symop_operation_xyz
x,y,z
-x,-y,z
x,-y,-z
-x,y,-z
-x,-y,-z
x,y,-z
-x,y,z
x,-y,z
loop_
_atom_site_type_symbol
_atom_site_label
_atom_site_fract_x
_atom_site_fract_y
_atom_site_fract_z
Si Si1 0.090890 0.296757 0.836502
Si Si2 0.269690 0.201565 0.836949
Si Si3 0.820688 0.702764 0.336882
Si Si4 0.000000 0.798222 0.663661
Si Si5 0.551330 0.705999 0.834048
Si Si6 0.360116 0.703756 0.662810
O O1 0.094563 0.500000 0.843989
O O2 0.135653 0.232397 0.752367
O O3 0.045174 0.256759 0.748816
O O4 0.088752 0.232872 0.000000
O O5 0.226168 0.260624 0.745797
O O6 0.316558 0.251515 0.758867
O O7 0.267949 0.000000 0.843168
O O8 0.268095 0.268358 0.000000
O O9 0.819899 0.768104 0.500000
O O10 0.825224 0.500000 0.345011
O O11 0.000000 0.732405 0.500000
O O12 0.000000 0.000000 0.657597
O O13 0.500000 0.759415 0.790666
O O14 0.551551 0.500000 0.831313
O O15 0.592787 0.765333 0.735208
O O16 0.558672 0.755321 0.000000
O O17 0.354779 0.765672 0.500000
O O18 0.362598 0.500000 0.657739
#
# Coordination Sequence:
#
# PCOD9385485 Si02
#       6
#     8   8   8   4   8   8
#     4  10  21  38  61  87 113 144 183 225 270 320
#     4  11  24  39  55  77 106 142 182 222 267 319
#     4  10  21  38  61  87 112 140 177 221 270 323
#     4  11  24  39  56  82 116 153 190 227 270 318
#     4   8  14  26  46  73 104 137 173 214 261 312
#     4  10  20  33  52  79 108 139 176 218 266 319
#
# _framework density 20.406749000000001
#
# number of rings (size 3 to 8) (size 9 to 14) (size 15 to 20)
#    0.000    2.091    0.000    3.818    0.000    9.818 
#    0.000    1.818    0.000    0.545    0.000    3.818 
#    0.000    0.000    0.000    0.000    0.000    0.000 
#
# Total GULP energy -245831.060130 kJ/mol
# GULP energy per Si atom -5587.069548 kJ/mol
# Density = 2.036030 g / cm^3
# Si number density = 20.406749 Si / 1000 Ang^3
#
#
#
# Elastic Constant Matrix: (Units=GPa)
#
#
# Indices 1 2 3 4 5 6 
#
# 1 203.2026 0.7104 134.1092 0.0000 0.0000 0.0000
# 2 0.7104 19.3870 11.5708 0.0000 0.0000 0.0000
# 3 134.1092 11.5708 221.9658 0.0000 0.0000 0.0000
# 4 0.0000 0.0000 0.0000 15.8468 0.0000 0.0000
# 5 0.0000 0.0000 0.0000 0.0000 53.1162 0.0000
# 6 0.0000 0.0000 0.0000 0.0000 0.0000 -157.7178
#
#
#
# Elastic Compliance Matrix: (Units=1/GPa)
#
#
# Indices 1 2 3 4 5 6 
#
# 1 0.008328 0.002785 -0.005177 0.000000 0.000000 0.000000
# 2 0.002785 0.054168 -0.004506 0.000000 0.000000 0.000000
# 3 -0.005177 -0.004506 0.007868 0.000000 0.000000 0.000000
# 4 0.000000 0.000000 0.000000 0.063104 0.000000 0.000000
# 5 0.000000 0.000000 0.000000 0.000000 0.018827 0.000000
# 6 0.000000 0.000000 0.000000 0.000000 0.000000 -0.006340
#
#
# Mechanical properties :
#
#
# Convention : Reuss Voigt Hill
#
# Bulk Modulus (GPa) = 17.67800 81.92625 49.80212
# Shear Modulus (GPa) = 27.99433 2.12670 15.06052
#
# Velocity S-wave (km/s) = 3.70782 1.02197 2.71959
# Velocity P-wave (km/s) = 5.19733 6.45185 5.85827
#
# Compressibility (1/GPa) = 0.05656749
#
# Stress axis : x y z
#
# Youngs Moduli (GPa) = 120.07546 18.46094 127.09841
#
# Poissons Ratio (x) = -0.05141 0.65798
# Poissons Ratio (y) = -0.33436 0.57272
# Poissons Ratio (z) = 0.62162 0.08319
#
# Static dielectric constant tensor:
#      x y z
#    x 1.678940 0.000000 0.000000 
#    y 0.000000 1.738910 0.000000 
#    z 0.000000 0.000000 1.719270 
# 
# From -- ./inp_files/13630.got.cif
#   From: 2010.05.17/outbox.cif.g08.bks.cpg/sg47_7_cif.got.tgz:13630.got - 2010.06.03 20:15:42.
