data_PCOD9385650
_publ_section_title
;
Structure prediction by ZEFSAII (Michael W. Deem and Ramdas Pophale) SiO2 
 PCOD9385650
Probable space group: P M M M
;
_chemical_formula_sum "Si O2"
_cell_formula_units_Z 48
_cell_length_a 14.150226
_cell_length_b 9.962442
_cell_length_c 18.689590
_cell_angle_alpha 90.000000
_cell_angle_beta 90.000000
_cell_angle_gamma 90.000000
_cell_volume 2634.686563
_symmetry_space_group_name_H-M "P M M M"
_symmetry_group_IT_number 47
_symmetry_cell_setting 'orthorhombic'
loop_
_space_group_symop_operation_xyz
x,y,z
-x,-y,z
x,-y,-z
-x,y,-z
-x,-y,-z
x,y,-z
-x,y,z
x,-y,z
loop_
_atom_site_type_symbol
_atom_site_label
_atom_site_fract_x
_atom_site_fract_y
_atom_site_fract_z
Si Si1 0.000000 0.844555 0.585476
Si Si2 0.887322 0.000000 0.078582
Si Si3 0.253039 0.841171 0.300332
Si Si4 0.112042 0.750618 0.819256
Si Si5 0.389535 0.156552 0.832705
Si Si6 0.183664 0.659507 0.585469
Si Si7 0.258462 0.352875 0.081630
O O1 0.090324 0.750255 0.600412
O O2 0.000000 0.861528 0.500000
O O3 0.000000 0.000000 0.615371
O O4 0.867464 0.126284 0.127170
O O5 0.000000 0.000000 0.069868
O O6 0.843367 0.000000 0.000000
O O7 0.162240 0.791276 0.254257
O O8 0.339375 0.827569 0.244599
O O9 0.259979 0.740175 0.367188
O O10 0.243115 0.000000 0.319225
O O11 0.171255 0.641655 0.862656
O O12 0.000000 0.728102 0.811969
O O13 0.500000 0.189430 0.829697
O O14 0.332819 0.246558 0.888629
O O15 0.379203 0.000000 0.852209
O O16 0.201107 0.665374 0.500000
O O17 0.173597 0.500000 0.603986
O O18 0.303426 0.500000 0.081314
O O19 0.227056 0.323729 0.000000
#
# Coordination Sequence:
#
# PCOD9385650 Si02
#       7
#     4   4   8   8   8   8   8
#     4   9  17  31  51  75 103 141 189 230 267 312
#     4   9  16  28  48  72  98 136 184 225 266 314
#     4  10  20  34  56  83 111 142 181 231 282 333
#     4  10  20  34  51  76 110 149 189 230 277 322
#     4   9  20  40  63  85 108 137 177 226 283 342
#     4  10  21  36  53  77 112 150 189 230 272 324
#     4  10  22  37  53  79 113 147 186 230 275 327
#
# _framework density 18.218485999999999
#
# number of rings (size 3 to 8) (size 9 to 14) (size 15 to 20)
#    0.000    2.333    0.833    1.250    2.333    7.000 
#    0.000    2.500    0.000    0.500    0.000    3.500 
#    0.000    0.000    0.000    0.000    0.000    0.000 
#
# Total GULP energy -267300.515060 kJ/mol
# GULP energy per Si atom -5568.760730 kJ/mol
# Density = 1.817702 g / cm^3
# Si number density = 18.218486 Si / 1000 Ang^3
#
#
#
# Elastic Constant Matrix: (Units=GPa)
#
#
# Indices 1 2 3 4 5 6 
#
# 1 90.4715 37.1717 18.5229 0.0000 0.0000 0.0000
# 2 37.1717 129.5130 49.6106 0.0000 0.0000 0.0000
# 3 18.5229 49.6106 86.9215 0.0000 0.0000 0.0000
# 4 0.0000 0.0000 0.0000 35.2360 0.0000 0.0000
# 5 0.0000 0.0000 0.0000 0.0000 12.8749 0.0000
# 6 0.0000 0.0000 0.0000 0.0000 0.0000 -20.7504
#
#
#
# Elastic Compliance Matrix: (Units=1/GPa)
#
#
# Indices 1 2 3 4 5 6 
#
# 1 0.012573 -0.003305 -0.000793 0.000000 0.000000 0.000000
# 2 -0.003305 0.010750 -0.005432 0.000000 0.000000 0.000000
# 3 -0.000793 -0.005432 0.014774 0.000000 0.000000 0.000000
# 4 0.000000 0.000000 0.000000 0.028380 0.000000 0.000000
# 5 0.000000 0.000000 0.000000 0.000000 0.077671 0.000000
# 6 0.000000 0.000000 0.000000 0.000000 0.000000 -0.048192
#
#
# Mechanical properties :
#
#
# Convention : Reuss Voigt Hill
#
# Bulk Modulus (GPa) = 52.52534 57.50183 55.01359
# Shear Modulus (GPa) = 41.19915 18.91214 30.05564
#
# Velocity S-wave (km/s) = 4.76057 3.22541 4.06610
# Velocity P-wave (km/s) = 7.68835 6.74551 7.23231
#
# Compressibility (1/GPa) = 0.01903843
#
# Stress axis : x y z
#
# Youngs Moduli (GPa) = 79.53258 93.02022 67.68797
#
# Poissons Ratio (x) = 0.30743 0.05368
# Poissons Ratio (y) = 0.26285 0.36765
# Poissons Ratio (z) = 0.06308 0.50524
#
# Static dielectric constant tensor:
#      x y z
#    x 1.628170 0.000000 0.000000 
#    y 0.000000 1.737150 0.000000 
#    z 0.000000 0.000000 1.652290 
# 
# From -- ./inp_files/28035.got.cif
#   From: 2010.05.17/outbox.cif.g08.bks.cpg/sg47_15_cif.got.tgz:28035.got - 2010.06.03 20:15:42.
