data_PCOD9385963
_publ_section_title
;
Structure prediction by ZEFSAII (Michael W. Deem and Ramdas Pophale) SiO2 
 PCOD9385963
Probable space group: P M M M
;
_chemical_formula_sum "Si O2"
_cell_formula_units_Z 36
_cell_length_a 19.049099
_cell_length_b 11.272245
_cell_length_c 8.215474
_cell_angle_alpha 90.000000
_cell_angle_beta 90.000000
_cell_angle_gamma 90.000000
_cell_volume 1764.076782
_symmetry_space_group_name_H-M "P M M M"
_symmetry_group_IT_number 47
_symmetry_cell_setting 'orthorhombic'
loop_
_space_group_symop_operation_xyz
x,y,z
-x,-y,z
x,-y,-z
-x,y,-z
-x,-y,-z
x,y,-z
-x,y,z
x,-y,z
loop_
_atom_site_type_symbol
_atom_site_label
_atom_site_fract_x
_atom_site_fract_y
_atom_site_fract_z
Si Si1 0.577210 0.641442 0.188082
Si Si2 0.082736 0.632192 0.802016
Si Si3 0.836541 0.865774 0.807955
Si Si4 0.419759 0.000000 0.804752
Si Si5 0.314423 0.196952 0.312793
O O1 0.500000 0.682431 0.251056
O O2 0.574491 0.500000 0.185697
O O3 0.647526 0.679087 0.279601
O O4 0.582378 0.683390 0.000000
O O5 0.107368 0.500000 0.747095
O O6 0.121875 0.750720 0.740725
O O7 0.000000 0.640842 0.764661
O O8 0.089309 0.631783 0.000000
O O9 0.754452 0.835086 0.787965
O O10 0.849589 0.000000 0.741547
O O11 0.853249 0.871660 0.000000
O O12 0.377291 0.110574 0.737097
O O13 0.500000 0.000000 0.752603
O O14 0.417273 0.000000 0.000000
O O15 0.295424 0.181816 0.500000
#
# Coordination Sequence:
#
# PCOD9385963 Si02
#       5
#     8   8   8   4   8
#     4   9  19  37  59  80 104 139 184 232 282 339
#     4   8  15  30  54  85 116 143 180 235 291 338
#     4  10  20  34  54  79 111 151 192 233 280 339
#     4  11  23  39  59  79 102 139 188 237 283 336
#     4  12  24  36  53  79 112 147 183 229 284 338
#
# _framework density 20.407276
#
# number of rings (size 3 to 8) (size 9 to 14) (size 15 to 20)
#    0.000    2.111    1.111    4.333    0.000    5.778 
#    0.000    5.556    0.000    0.667    0.000    3.111 
#    0.000    0.000    0.000    0.000    0.000    0.000 
#
# Total GULP energy -200666.998249 kJ/mol
# GULP energy per Si atom -5574.083285 kJ/mol
# Density = 2.036083 g / cm^3
# Si number density = 20.407276 Si / 1000 Ang^3
#
#
#
# Elastic Constant Matrix: (Units=GPa)
#
#
# Indices 1 2 3 4 5 6 
#
# 1 72.8057 67.8164 -9.8915 0.0000 0.0000 0.0000
# 2 67.8164 150.9049 4.3020 0.0000 0.0000 0.0000
# 3 -9.8915 4.3020 12.1547 0.0000 0.0000 0.0000
# 4 0.0000 0.0000 0.0000 -34.3906 0.0000 0.0000
# 5 0.0000 0.0000 0.0000 0.0000 -18.0410 0.0000
# 6 0.0000 0.0000 0.0000 0.0000 0.0000-1423.8432
#
#
#
# Elastic Compliance Matrix: (Units=1/GPa)
#
#
# Indices 1 2 3 4 5 6 
#
# 1 0.032565 -0.015547 0.032004 0.000000 0.000000 0.000000
# 2 -0.015547 0.014117 -0.017648 0.000000 0.000000 0.000000
# 3 0.032004 -0.017648 0.114563 0.000000 0.000000 0.000000
# 4 0.000000 0.000000 0.000000 -0.029078 0.000000 0.000000
# 5 0.000000 0.000000 0.000000 0.000000 -0.055429 0.000000
# 6 0.000000 0.000000 0.000000 0.000000 0.000000 -0.000702
#
#
# Mechanical properties :
#
#
# Convention : Reuss Voigt Hill
#
# Bulk Modulus (GPa) = 6.29478 40.03546 23.16512
# Shear Modulus (GPa) = 38.05976 -283.67904 -122.80964
#
# Velocity S-wave (km/s) = 4.32326 -11.80299 -7.76595
# Velocity P-wave (km/s) = 5.29264 12.88746 8.30887
#
# Compressibility (1/GPa) = 0.15886174
#
# Stress axis : x y z
#
# Youngs Moduli (GPa) = 30.70802 70.83878 8.72879
#
# Poissons Ratio (x) = 1.10132 -0.27935
# Poissons Ratio (y) = 0.47741 0.15405
# Poissons Ratio (z) = -0.98277 1.25019
#
# Static dielectric constant tensor:
#      x y z
#    x 1.685070 0.000000 0.000000 
#    y 0.000000 1.802340 0.000000 
#    z 0.000000 0.000000 1.731320 
# 
# From -- ./inp_files/3737.got.cif
#   From: 2010.05.17/outbox.cif.g08.bks.cpg/sg47_2_cif.got.tgz:3737.got - 2010.06.03 20:15:42.
