data_PCOD9385542
_publ_section_title
;
Structure prediction by ZEFSAII (Michael W. Deem and Ramdas Pophale) SiO2 
 PCOD9385542
Probable space group: P M M M
;
_chemical_formula_sum "Si O2"
_cell_formula_units_Z 48
_cell_length_a 37.331307
_cell_length_b 7.640363
_cell_length_c 9.345942
_cell_angle_alpha 90.000000
_cell_angle_beta 90.000000
_cell_angle_gamma 90.000000
_cell_volume 2665.693847
_symmetry_space_group_name_H-M "P M M M"
_symmetry_group_IT_number 47
_symmetry_cell_setting 'orthorhombic'
loop_
_space_group_symop_operation_xyz
x,y,z
-x,-y,z
x,-y,-z
-x,y,-z
-x,-y,-z
x,y,-z
-x,y,z
x,-y,z
loop_
_atom_site_type_symbol
_atom_site_label
_atom_site_fract_x
_atom_site_fract_y
_atom_site_fract_z
Si Si1 0.238559 0.705547 0.329382
Si Si2 0.040771 0.500000 0.325866
Si Si3 0.166436 0.711759 0.835211
Si Si4 0.704351 0.000000 0.671443
Si Si5 0.428275 0.705802 0.170676
Si Si6 0.905195 0.199088 0.332251
Si Si7 0.500000 0.713050 0.663998
Si Si8 0.371089 0.000000 0.171366
O O1 0.232219 0.722129 0.500000
O O2 0.245506 0.500000 0.298858
O O3 0.202794 0.761700 0.246340
O O4 0.271693 0.829970 0.291958
O O5 0.039153 0.500000 0.500000
O O6 0.064124 0.667999 0.283192
O O7 0.000000 0.500000 0.273434
O O8 0.164852 0.500000 0.831631
O O9 0.131195 0.778268 0.755536
O O10 0.167241 0.768163 0.000000
O O11 0.666607 0.000000 0.749843
O O12 0.698931 0.000000 0.500000
O O13 0.421536 0.500000 0.201675
O O14 0.463927 0.764318 0.253657
O O15 0.395031 0.829773 0.207653
O O16 0.434641 0.721168 0.000000
O O17 0.897389 0.237006 0.500000
O O18 0.917769 0.000000 0.321802
O O19 0.500000 0.500000 0.664376
O O20 0.500000 0.772204 0.500000
O O21 0.365586 0.000000 0.000000
#
# Coordination Sequence:
#
# PCOD9385542 Si02
#       8
#     8   4   8   4   8   8   4   4
#     4   9  19  36  56  77 104 138 173 213 262 317
#     4   9  18  34  55  79 109 143 181 227 269 307
#     4  10  20  34  54  81 111 140 173 216 266 318
#     4  10  22  38  55  77 104 136 176 217 262 318
#     4   9  18  34  54  75 103 140 176 212 259 313
#     4  10  20  33  53  80 108 142 179 215 263 318
#     4   9  17  30  51  80 109 135 170 217 267 314
#     4  10  22  37  53  76 103 136 180 221 257 308
#
# _framework density 18.006568999999999
#
# number of rings (size 3 to 8) (size 9 to 14) (size 15 to 20)
#    0.000    2.500    0.833    0.750    1.167    4.667 
#    0.000    3.333    0.000    1.000    0.000    1.167 
#    0.000    0.000    0.000    0.000    0.000    0.000 
#
# Total GULP energy -267873.134040 kJ/mol
# GULP energy per Si atom -5580.690292 kJ/mol
# Density = 1.796559 g / cm^3
# Si number density = 18.006569 Si / 1000 Ang^3
#
#
#
# Elastic Constant Matrix: (Units=GPa)
#
#
# Indices 1 2 3 4 5 6 
#
# 1 198.9583 88.4525 75.7757 0.0000 0.0000 0.0000
# 2 88.4525 94.7191 49.0384 0.0000 0.0000 0.0000
# 3 75.7757 49.0384 53.1051 0.0000 0.0000 0.0000
# 4 0.0000 0.0000 0.0000 10.7824 0.0000 0.0000
# 5 0.0000 0.0000 0.0000 0.0000 -402.1348 0.0000
# 6 0.0000 0.0000 0.0000 0.0000 0.0000 15.0996
#
#
#
# Elastic Compliance Matrix: (Units=1/GPa)
#
#
# Indices 1 2 3 4 5 6 
#
# 1 0.011915 -0.004454 -0.012889 0.000000 0.000000 0.000000
# 2 -0.004454 0.021893 -0.013861 0.000000 0.000000 0.000000
# 3 -0.012889 -0.013861 0.050022 0.000000 0.000000 0.000000
# 4 0.000000 0.000000 0.000000 0.092744 0.000000 0.000000
# 5 0.000000 0.000000 0.000000 0.000000 -0.002487 0.000000
# 6 0.000000 0.000000 0.000000 0.000000 0.000000 0.066227
#
#
# Mechanical properties :
#
#
# Convention : Reuss Voigt Hill
#
# Bulk Modulus (GPa) = 46.68164 85.92397 66.30280
# Shear Modulus (GPa) = 16.13618 -66.34949 -25.10666
#
# Velocity S-wave (km/s) = 2.99679 -6.07679 -3.73809
# Velocity P-wave (km/s) = 6.16079 1.18945 4.27438
#
# Compressibility (1/GPa) = 0.02142170
#
# Stress axis : x y z
#
# Youngs Moduli (GPa) = 83.92596 45.67652 19.99136
#
# Poissons Ratio (x) = 0.20344 0.25767
# Poissons Ratio (y) = 0.37381 0.27710
# Poissons Ratio (z) = 1.08172 0.63313
#
# Static dielectric constant tensor:
#      x y z
#    x 1.566400 0.000000 0.000000 
#    y 0.000000 1.642000 0.000000 
#    z 0.000000 0.000000 1.604800 
# 
# From -- ./inp_files/14010.got.cif
#   From: 2010.05.17/outbox.cif.g08.bks.cpg/sg47_8_cif.got.tgz:14010.got - 2010.06.03 20:15:42.
