data_PCOD9385367
_publ_section_title
;
Structure prediction by ZEFSAII (Michael W. Deem and Ramdas Pophale) SiO2 
 PCOD9385367
Probable space group: P M M M
;
_chemical_formula_sum "Si O2"
_cell_formula_units_Z 48
_cell_length_a 31.687350
_cell_length_b 9.258199
_cell_length_c 9.389163
_cell_angle_alpha 90.000000
_cell_angle_beta 90.000000
_cell_angle_gamma 90.000000
_cell_volume 2754.478019
_symmetry_space_group_name_H-M "P M M M"
_symmetry_group_IT_number 47
_symmetry_cell_setting 'orthorhombic'
loop_
_space_group_symop_operation_xyz
x,y,z
-x,-y,z
x,-y,-z
-x,y,-z
-x,-y,-z
x,y,-z
-x,y,z
x,-y,z
loop_
_atom_site_type_symbol
_atom_site_label
_atom_site_fract_x
_atom_site_fract_y
_atom_site_fract_z
Si Si1 0.000000 0.175811 0.835960
Si Si2 0.584995 0.172434 0.831263
Si Si3 0.841293 0.326784 0.167628
Si Si4 0.915996 0.825905 0.666742
Si Si5 0.330177 0.826490 0.666637
Si Si6 0.500000 0.666297 0.173429
Si Si7 0.744422 0.673037 0.167359
O O1 0.042138 0.220379 0.752568
O O2 0.000000 0.000000 0.836901
O O3 0.000000 0.224443 0.000000
O O4 0.626680 0.216933 0.746133
O O5 0.542720 0.253035 0.782194
O O6 0.579135 0.000000 0.814549
O O7 0.591181 0.200689 0.000000
O O8 0.845277 0.500000 0.183533
O O9 0.875240 0.246243 0.263117
O O10 0.792835 0.287753 0.203443
O O11 0.848006 0.293403 0.000000
O O12 0.919796 0.789831 0.500000
O O13 0.912740 0.000000 0.678132
O O14 0.332465 0.791183 0.500000
O O15 0.290124 0.752516 0.739136
O O16 0.326444 0.000000 0.681052
O O17 0.500000 0.500000 0.218214
O O18 0.500000 0.670234 0.000000
O O19 0.740593 0.500000 0.183475
O O20 0.737937 0.706409 0.000000
#
# Coordination Sequence:
#
# PCOD9385367 Si02
#       7
#     4   8   8   8   8   4   8
#     4   9  17  31  52  75 100 133 172 212 254 299
#     4   9  17  31  51  72  96 129 166 202 245 297
#     4   9  19  36  55  75 101 133 170 211 253 299
#     4  10  20  33  51  77 107 136 167 206 253 304
#     4  10  21  35  51  75 106 136 168 208 253 301
#     4   9  17  29  48  75 100 122 158 209 254 291
#     4   9  19  36  56  76  99 131 171 212 254 300
#
# _framework density 17.426169999999999
#
# number of rings (size 3 to 8) (size 9 to 14) (size 15 to 20)
#    0.000    2.667    0.000    2.500    0.000    6.667 
#    0.000    7.500    0.000    5.000    0.000    0.000 
#    0.000    0.000    0.000    0.000    0.000    0.000 
#
# Total GULP energy -267762.320130 kJ/mol
# GULP energy per Si atom -5578.381669 kJ/mol
# Density = 1.738651 g / cm^3
# Si number density = 17.426170 Si / 1000 Ang^3
#
#
#
# Elastic Constant Matrix: (Units=GPa)
#
#
# Indices 1 2 3 4 5 6 
#
# 1 195.7988 61.8940 120.1954 0.0000 0.0000 0.0000
# 2 61.8940 26.6586 51.1996 0.0000 0.0000 0.0000
# 3 120.1954 51.1996 116.1319 0.0000 0.0000 0.0000
# 4 0.0000 0.0000 0.0000 23.4315 0.0000 0.0000
# 5 0.0000 0.0000 0.0000 0.0000 -8.1965 0.0000
# 6 0.0000 0.0000 0.0000 0.0000 0.0000 174.7524
#
#
#
# Elastic Compliance Matrix: (Units=1/GPa)
#
#
# Indices 1 2 3 4 5 6 
#
# 1 0.019231 -0.041903 -0.001430 0.000000 0.000000 0.000000
# 2 -0.041903 0.336044 -0.104784 0.000000 0.000000 0.000000
# 3 -0.001430 -0.104784 0.056288 0.000000 0.000000 0.000000
# 4 0.000000 0.000000 0.000000 0.042678 0.000000 0.000000
# 5 0.000000 0.000000 0.000000 0.000000 -0.122004 0.000000
# 6 0.000000 0.000000 0.000000 0.000000 0.000000 0.005722
#
#
# Mechanical properties :
#
#
# Convention : Reuss Voigt Hill
#
# Bulk Modulus (GPa) = 8.67090 89.46303 49.06696
# Shear Modulus (GPa) = 7.43344 45.01750 26.22547
#
# Velocity S-wave (km/s) = 2.06759 5.08816 3.88357
# Velocity P-wave (km/s) = 3.26902 9.27194 6.95181
#
# Compressibility (1/GPa) = 0.11532832
#
# Stress axis : x y z
#
# Youngs Moduli (GPa) = 51.99927 2.97580 17.76582
#
# Poissons Ratio (x) = 0.12469 0.02541
# Poissons Ratio (y) = 2.17891 1.86158
# Poissons Ratio (z) = 0.07437 0.31182
#
# Static dielectric constant tensor:
#      x y z
#    x 1.568320 0.000000 0.000000 
#    y 0.000000 1.578400 0.000000 
#    z 0.000000 0.000000 1.576300 
# 
# From -- ./inp_files/2786.got.cif
#   From: 2010.05.17/outbox.cif.g08.bks.cpg/sg47_2_cif.got.tgz:2786.got - 2010.06.03 20:15:42.
