data_PCOD9385523
_publ_section_title
;
Structure prediction by ZEFSAII (Michael W. Deem and Ramdas Pophale) SiO2 
 PCOD9385523
Probable space group: P M M M
;
_chemical_formula_sum "Si O2"
_cell_formula_units_Z 48
_cell_length_a 30.216395
_cell_length_b 8.693300
_cell_length_c 9.981040
_cell_angle_alpha 90.000000
_cell_angle_beta 90.000000
_cell_angle_gamma 90.000000
_cell_volume 2621.821450
_symmetry_space_group_name_H-M "P M M M"
_symmetry_group_IT_number 47
_symmetry_cell_setting 'orthorhombic'
loop_
_space_group_symop_operation_xyz
x,y,z
-x,-y,z
x,-y,-z
-x,y,-z
-x,-y,-z
x,y,-z
-x,y,z
x,-y,z
loop_
_atom_site_type_symbol
_atom_site_label
_atom_site_fract_x
_atom_site_fract_y
_atom_site_fract_z
Si Si1 0.552613 0.678087 0.000000
Si Si2 0.699777 0.685670 0.844555
Si Si3 0.781283 0.685977 0.343748
Si Si4 0.048598 0.320801 0.837762
Si Si5 0.448767 0.187635 0.500000
Si Si6 0.605401 0.183540 0.240881
Si Si7 0.142179 0.183170 0.156431
O O1 0.572448 0.765897 0.125059
O O2 0.567643 0.500000 0.000000
O O3 0.500000 0.680641 0.000000
O O4 0.699648 0.500000 0.846192
O O5 0.738511 0.736177 0.743188
O O6 0.652863 0.743370 0.789829
O O7 0.706265 0.736733 0.000000
O O8 0.780608 0.737070 0.500000
O O9 0.781558 0.500000 0.345275
O O10 0.823377 0.742674 0.259065
O O11 0.053548 0.500000 0.798951
O O12 0.092266 0.227791 0.801027
O O13 0.000000 0.266143 0.790857
O O14 0.047303 0.316828 0.000000
O O15 0.500000 0.240647 0.500000
O O16 0.419723 0.236355 0.626203
O O17 0.450635 0.000000 0.500000
O O18 0.610700 0.000000 0.245071
O O19 0.147190 0.000000 0.157750
O O20 0.148893 0.235269 0.000000
#
# Coordination Sequence:
#
# PCOD9385523 Si02
#       7
#     4   8   8   8   4   8   8
#     4  11  23  39  59  85 117 149 185 229 274 321
#     4  10  21  38  59  83 114 146 179 226 279 332
#     4  10  22  39  59  82 107 144 190 231 277 334
#     4   8  14  26  47  76 109 146 188 232 277 328
#     4   9  20  38  57  81 115 151 187 225 266 319
#     4  11  22  37  60  87 114 148 186 226 273 327
#     4  10  20  33  52  81 115 150 187 231 282 333
#
# _framework density 18.307883
#
# number of rings (size 3 to 8) (size 9 to 14) (size 15 to 20)
#    0.000    2.167    0.833    2.750    1.167    4.333 
#    0.000    2.917    0.000    3.500    0.000    3.500 
#    0.000    0.000    0.000    0.000    0.000    0.000 
#
# Total GULP energy -267678.175874 kJ/mol
# GULP energy per Si atom -5576.628664 kJ/mol
# Density = 1.826621 g / cm^3
# Si number density = 18.307883 Si / 1000 Ang^3
#
#
#
# Elastic Constant Matrix: (Units=GPa)
#
#
# Indices 1 2 3 4 5 6 
#
# 1 148.9372 22.3122 88.1133 0.0000 0.0000 0.0000
# 2 22.3122 6.9848 22.0440 0.0000 0.0000 0.0000
# 3 88.1133 22.0440 158.6088 0.0000 0.0000 0.0000
# 4 0.0000 0.0000 0.0000 18.1047 0.0000 0.0000
# 5 0.0000 0.0000 0.0000 0.0000 21.4814 0.0000
# 6 0.0000 0.0000 0.0000 0.0000 0.0000 -165.3965
#
#
#
# Elastic Compliance Matrix: (Units=1/GPa)
#
#
# Indices 1 2 3 4 5 6 
#
# 1 0.013487 -0.034623 -0.002680 0.000000 0.000000 0.000000
# 2 -0.034623 0.343921 -0.028565 0.000000 0.000000 0.000000
# 3 -0.002680 -0.028565 0.011764 0.000000 0.000000 0.000000
# 4 0.000000 0.000000 0.000000 0.055234 0.000000 0.000000
# 5 0.000000 0.000000 0.000000 0.000000 0.046552 0.000000
# 6 0.000000 0.000000 0.000000 0.000000 0.000000 -0.006046
#
#
# Mechanical properties :
#
#
# Convention : Reuss Voigt Hill
#
# Bulk Modulus (GPa) = 4.21168 64.38555 34.29862
# Shear Modulus (GPa) = 7.39870 -13.02468 -2.81299
#
# Velocity S-wave (km/s) = 2.01247 -2.67015 -1.24090
# Velocity P-wave (km/s) = 2.77588 5.07329 4.08924
#
# Compressibility (1/GPa) = 0.23743473
#
# Stress axis : x y z
#
# Youngs Moduli (GPa) = 74.14581 2.90764 85.00548
#
# Poissons Ratio (x) = 0.10067 0.22785
# Poissons Ratio (y) = 2.56718 2.42817
# Poissons Ratio (z) = 0.19874 0.08306
#
# Static dielectric constant tensor:
#      x y z
#    x 1.622220 0.000000 0.000000 
#    y 0.000000 1.628060 0.000000 
#    z 0.000000 0.000000 1.624680 
# 
# From -- ./inp_files/13833.got.cif
#   From: 2010.05.17/outbox.cif.g08.bks.cpg/sg47_7_cif.got.tgz:13833.got - 2010.06.03 20:15:42.
