data_PCOD9385681
_publ_section_title
;
Structure prediction by ZEFSAII (Michael W. Deem and Ramdas Pophale) SiO2 
 PCOD9385681
Probable space group: P M M M
;
_chemical_formula_sum "Si O2"
_cell_formula_units_Z 52
_cell_length_a 17.849551
_cell_length_b 18.815084
_cell_length_c 8.322853
_cell_angle_alpha 90.000000
_cell_angle_beta 90.000000
_cell_angle_gamma 90.000000
_cell_volume 2795.153622
_symmetry_space_group_name_H-M "P M M M"
_symmetry_group_IT_number 47
_symmetry_cell_setting 'orthorhombic'
loop_
_space_group_symop_operation_xyz
x,y,z
-x,-y,z
x,-y,-z
-x,y,-z
-x,-y,-z
x,y,-z
-x,y,z
x,-y,z
loop_
_atom_site_type_symbol
_atom_site_label
_atom_site_fract_x
_atom_site_fract_y
_atom_site_fract_z
Si Si1 0.086921 0.000000 0.308607
Si Si2 0.343610 0.776697 0.193103
Si Si3 0.744386 0.578765 0.693754
Si Si4 0.582832 0.370207 0.191856
Si Si5 0.413035 0.076629 0.195624
Si Si6 0.812519 0.722380 0.312419
Si Si7 0.085534 0.848854 0.808918
O O1 0.119283 0.924083 0.252447
O O2 0.086233 0.000000 0.500000
O O3 0.000000 0.000000 0.247995
O O4 0.404182 0.714246 0.217377
O O5 0.371269 0.853180 0.248170
O O6 0.269295 0.755900 0.286346
O O7 0.328001 0.778214 0.000000
O O8 0.748483 0.580318 0.500000
O O9 0.764915 0.500000 0.750743
O O10 0.657499 0.593885 0.738236
O O11 0.798339 0.642360 0.753850
O O12 0.500000 0.391539 0.252031
O O13 0.583963 0.382716 0.000000
O O14 0.500000 0.080537 0.242725
O O15 0.382404 0.000000 0.247958
O O16 0.411784 0.077573 0.000000
O O17 0.831135 0.717212 0.500000
O O18 0.869902 0.777765 0.235494
O O19 0.000000 0.843861 0.745694
O O20 0.083256 0.854115 0.000000
#
# Coordination Sequence:
#
# PCOD9385681 Si02
#       7
#     4   8   8   8   8   8   8
#     4   9  17  31  53  81 111 139 166 197 236 281
#     4   9  16  28  45  64  91 125 161 202 249 299
#     4   9  19  35  52  70  95 129 168 210 257 309
#     4   9  17  28  44  68  95 124 161 206 256 308
#     4   8  13  22  39  63  87 114 155 204 246 283
#     4  10  20  34  52  73  98 129 166 206 250 302
#     4  10  20  35  56  81 108 137 169 204 242 290
#
# _framework density 18.603629000000002
#
# number of rings (size 3 to 8) (size 9 to 14) (size 15 to 20)
#    0.000    2.846    0.000    2.077    0.000    5.231 
#    1.385    1.538    0.000    1.846    0.000    4.308 
#    0.000    0.000    0.000    0.000    0.000    0.000 
#
# Total GULP energy -289617.400611 kJ/mol
# GULP energy per Si atom -5569.565396 kJ/mol
# Density = 1.856129 g / cm^3
# Si number density = 18.603629 Si / 1000 Ang^3
#
#
#
# Elastic Constant Matrix: (Units=GPa)
#
#
# Indices 1 2 3 4 5 6 
#
# 1 43.6683 40.1653 8.1914 0.0000 0.0000 0.0000
# 2 40.1653 172.7802 20.3391 0.0000 0.0000 0.0000
# 3 8.1914 20.3391 17.4507 0.0000 0.0000 0.0000
# 4 0.0000 0.0000 0.0000 15.6585 0.0000 0.0000
# 5 0.0000 0.0000 0.0000 0.0000 -3.1977 0.0000
# 6 0.0000 0.0000 0.0000 0.0000 0.0000 15.2777
#
#
#
# Elastic Compliance Matrix: (Units=1/GPa)
#
#
# Indices 1 2 3 4 5 6 
#
# 1 0.029820 -0.006125 -0.006859 0.000000 0.000000 0.000000
# 2 -0.006125 0.007966 -0.006410 0.000000 0.000000 0.000000
# 3 -0.006859 -0.006410 0.067994 0.000000 0.000000 0.000000
# 4 0.000000 0.000000 0.000000 0.063863 0.000000 0.000000
# 5 0.000000 0.000000 0.000000 0.000000 -0.312721 0.000000
# 6 0.000000 0.000000 0.000000 0.000000 0.000000 0.065455
#
#
# Mechanical properties :
#
#
# Convention : Reuss Voigt Hill
#
# Bulk Modulus (GPa) = 14.92680 41.25454 28.09067
# Shear Modulus (GPa) = -302.94414 16.56125 -143.19145
#
# Velocity S-wave (km/s) = -12.77478 2.98689 -8.78275
# Velocity P-wave (km/s) = 14.47592 5.84115 9.36572
#
# Compressibility (1/GPa) = 0.06699358
#
# Stress axis : x y z
#
# Youngs Moduli (GPa) = 33.53472 125.53405 14.70709
#
# Poissons Ratio (x) = 0.76885 0.10088
# Poissons Ratio (y) = 0.20539 0.09427
# Poissons Ratio (z) = 0.23002 0.80462
#
# Static dielectric constant tensor:
#      x y z
#    x 1.628650 0.000000 0.000000 
#    y 0.000000 1.695290 0.000000 
#    z 0.000000 0.000000 1.648220 
# 
# From -- ./inp_files/9580.got.cif
#   From: 2010.05.17/outbox.cif.g08.bks.cpg/sg47_5_cif.got.tgz:9580.got - 2010.06.03 20:15:42.
