data_PCOD9385326
_publ_section_title
;
Structure prediction by ZEFSAII (Michael W. Deem and Ramdas Pophale) SiO2 
 PCOD9385326
Probable space group: P M M M
;
_chemical_formula_sum "Si O2"
_cell_formula_units_Z 44
_cell_length_a 9.229677
_cell_length_b 7.632314
_cell_length_c 30.888281
_cell_angle_alpha 90.000000
_cell_angle_beta 90.000000
_cell_angle_gamma 90.000000
_cell_volume 2175.887672
_symmetry_space_group_name_H-M "P M M M"
_symmetry_group_IT_number 47
_symmetry_cell_setting 'orthorhombic'
loop_
_space_group_symop_operation_xyz
x,y,z
-x,-y,z
x,-y,-z
-x,y,-z
-x,-y,-z
x,y,-z
-x,y,z
x,-y,z
loop_
_atom_site_type_symbol
_atom_site_label
_atom_site_fract_x
_atom_site_fract_y
_atom_site_fract_z
Si Si1 0.163680 0.708903 0.305644
Si Si2 0.336891 0.791727 0.781148
Si Si3 0.327311 0.709874 0.392662
Si Si4 0.162870 0.290142 0.132192
Si Si5 0.828915 0.000000 0.551725
Si Si6 0.331981 0.286113 0.951782
O O1 0.152735 0.500000 0.310046
O O2 0.241492 0.741651 0.260197
O O3 0.260475 0.766255 0.346299
O O4 0.000000 0.781300 0.306695
O O5 0.500000 0.717996 0.778406
O O6 0.259863 0.742094 0.825807
O O7 0.347248 0.000000 0.780696
O O8 0.500000 0.738560 0.393134
O O9 0.302601 0.500000 0.398730
O O10 0.248065 0.829109 0.428049
O O11 0.153624 0.500000 0.127516
O O12 0.236772 0.222724 0.088237
O O13 0.000000 0.221859 0.138217
O O14 0.814825 0.000000 0.500000
O O15 0.000000 0.000000 0.562774
O O16 0.500000 0.235099 0.946045
O O17 0.329318 0.500000 0.951428
O O18 0.284398 0.231473 0.000000
#
# Coordination Sequence:
#
# PCOD9385326 Si02
#       6
#     8   8   8   8   4   8
#     4  10  21  38  61  88 117 150 190 236 289 349
#     4  11  24  38  53  76 107 145 187 230 278 334
#     4  10  22  41  66  95 128 167 211 261 314 370
#     4  10  20  33  51  76 105 137 174 219 273 331
#     4  11  25  43  65  95 131 173 217 263 316 371
#     4   8  14  26  46  72 100 131 169 213 263 321
#
# _framework density 20.221630999999999
#
# number of rings (size 3 to 8) (size 9 to 14) (size 15 to 20)
#    0.000    2.091    0.000    3.545    1.273    8.364 
#    0.000    3.636    0.000    0.545    0.000    3.818 
#    0.000    0.000    0.000    0.000    0.000    0.000 
#
# Total GULP energy -245763.019764 kJ/mol
# GULP energy per Si atom -5585.523176 kJ/mol
# Density = 2.017561 g / cm^3
# Si number density = 20.221631 Si / 1000 Ang^3
#
#
#
# Elastic Constant Matrix: (Units=GPa)
#
#
# Indices 1 2 3 4 5 6 
#
# 1 180.8619 41.1347 104.9366 0.0000 0.0000 0.0000
# 2 41.1347 56.0466 30.8879 0.0000 0.0000 0.0000
# 3 104.9366 30.8879 161.4472 0.0000 0.0000 0.0000
# 4 0.0000 0.0000 0.0000 52.0024 0.0000 0.0000
# 5 0.0000 0.0000 0.0000 0.0000 40.7957 0.0000
# 6 0.0000 0.0000 0.0000 0.0000 0.0000 11.7708
#
#
#
# Elastic Compliance Matrix: (Units=1/GPa)
#
#
# Indices 1 2 3 4 5 6 
#
# 1 0.009633 -0.004046 -0.005487 0.000000 0.000000 0.000000
# 2 -0.004046 0.021645 -0.001511 0.000000 0.000000 0.000000
# 3 -0.005487 -0.001511 0.010050 0.000000 0.000000 0.000000
# 4 0.000000 0.000000 0.000000 0.019230 0.000000 0.000000
# 5 0.000000 0.000000 0.000000 0.000000 0.024512 0.000000
# 6 0.000000 0.000000 0.000000 0.000000 0.000000 0.084956
#
#
# Mechanical properties :
#
#
# Convention : Reuss Voigt Hill
#
# Bulk Modulus (GPa) = 51.97903 83.58600 67.78252
# Shear Modulus (GPa) = 25.18550 35.67353 30.42951
#
# Velocity S-wave (km/s) = 3.53295 4.20471 3.88338
# Velocity P-wave (km/s) = 6.51175 8.06210 7.32804
#
# Compressibility (1/GPa) = 0.01923853
#
# Stress axis : x y z
#
# Youngs Moduli (GPa) = 103.81092 46.20081 99.50678
#
# Poissons Ratio (x) = 0.18693 0.54600
# Poissons Ratio (y) = 0.42001 0.15038
# Poissons Ratio (z) = 0.56962 0.06982
#
# Static dielectric constant tensor:
#      x y z
#    x 1.717600 0.000000 0.000000 
#    y 0.000000 1.750690 0.000000 
#    z 0.000000 0.000000 1.691300 
# 
# From -- ./inp_files/13679.got.cif
#   From: 2010.05.17/outbox.cif.g08.bks.cpg/sg47_7_cif.got.tgz:13679.got - 2010.06.03 20:15:42.
