data_PCOD9385841
_publ_section_title
;
Structure prediction by ZEFSAII (Michael W. Deem and Ramdas Pophale) SiO2 
 PCOD9385841
Probable space group: P M M M
;
_chemical_formula_sum "Si O2"
_cell_formula_units_Z 48
_cell_length_a 33.939294
_cell_length_b 9.140005
_cell_length_c 8.191441
_cell_angle_alpha 90.000000
_cell_angle_beta 90.000000
_cell_angle_gamma 90.000000
_cell_volume 2541.028551
_symmetry_space_group_name_H-M "P M M M"
_symmetry_group_IT_number 47
_symmetry_cell_setting 'orthorhombic'
loop_
_space_group_symop_operation_xyz
x,y,z
-x,-y,z
x,-y,-z
-x,y,-z
-x,-y,-z
x,y,-z
-x,y,z
x,-y,z
loop_
_atom_site_type_symbol
_atom_site_label
_atom_site_fract_x
_atom_site_fract_y
_atom_site_fract_z
Si Si1 0.454738 0.178130 0.500000
Si Si2 0.161232 0.831183 0.194381
Si Si3 0.245171 0.831327 0.303621
Si Si4 0.000000 0.335010 0.194842
Si Si5 0.922277 0.167369 0.305476
Si Si6 0.403809 0.176479 0.815326
Si Si7 0.325015 0.672615 0.302998
O O1 0.500000 0.227242 0.500000
O O2 0.432151 0.223277 0.665799
O O3 0.454849 0.000000 0.500000
O O4 0.202896 0.767620 0.251242
O O5 0.119746 0.766356 0.251876
O O6 0.161282 0.000000 0.258237
O O7 0.161085 0.834516 0.000000
O O8 0.245588 0.834872 0.500000
O O9 0.283277 0.741034 0.250413
O O10 0.248039 0.000000 0.243967
O O11 0.039471 0.253267 0.249045
O O12 0.000000 0.500000 0.260357
O O13 0.000000 0.339629 0.000000
O O14 0.922557 0.161246 0.500000
O O15 0.924361 0.000000 0.240563
O O16 0.361334 0.246863 0.781869
O O17 0.400469 0.000000 0.806734
O O18 0.417331 0.213319 0.000000
O O19 0.328705 0.694061 0.500000
O O20 0.326050 0.500000 0.270768
#
# Coordination Sequence:
#
# PCOD9385841 Si02
#       7
#     4   8   8   4   8   8   8
#     4   9  18  34  57  85 117 147 179 229 285 332
#     4   9  17  30  50  76 104 134 171 217 266 314
#     4   9  17  30  50  75 104 139 179 224 271 320
#     4  11  24  39  54  76 106 137 170 209 258 314
#     4  10  20  35  57  82 105 132 171 215 258 309
#     4  10  20  34  56  84 112 146 187 228 276 334
#     4  10  20  34  53  77 108 147 188 230 276 324
#
# _framework density 18.889987999999999
#
# number of rings (size 3 to 8) (size 9 to 14) (size 15 to 20)
#    0.000    2.333    0.833    2.000    0.000    6.667 
#    0.000    4.167    0.000    4.000    0.000    1.167 
#    0.000    0.000    0.000    0.000    0.000    0.000 
#
# Total GULP energy -267732.378906 kJ/mol
# GULP energy per Si atom -5577.757894 kJ/mol
# Density = 1.884699 g / cm^3
# Si number density = 18.889988 Si / 1000 Ang^3
#
#
#
# Elastic Constant Matrix: (Units=GPa)
#
#
# Indices 1 2 3 4 5 6 
#
# 1 192.1537 41.7409 70.0610 0.0000 0.0000 0.0000
# 2 41.7409 33.4778 28.2988 0.0000 0.0000 0.0000
# 3 70.0610 28.2988 80.2398 0.0000 0.0000 0.0000
# 4 0.0000 0.0000 0.0000 13.9718 0.0000 0.0000
# 5 0.0000 0.0000 0.0000 0.0000 -7.6879 0.0000
# 6 0.0000 0.0000 0.0000 0.0000 0.0000 -7.9658
#
#
#
# Elastic Compliance Matrix: (Units=1/GPa)
#
#
# Indices 1 2 3 4 5 6 
#
# 1 0.008429 -0.006110 -0.005205 0.000000 0.000000 0.000000
# 2 -0.006110 0.046986 -0.011236 0.000000 0.000000 0.000000
# 3 -0.005205 -0.011236 0.020970 0.000000 0.000000 0.000000
# 4 0.000000 0.000000 0.000000 0.071573 0.000000 0.000000
# 5 0.000000 0.000000 0.000000 0.000000 -0.130074 0.000000
# 6 0.000000 0.000000 0.000000 0.000000 0.000000 -0.125536
#
#
# Mechanical properties :
#
#
# Convention : Reuss Voigt Hill
#
# Bulk Modulus (GPa) = 31.96585 65.11920 48.54252
# Shear Modulus (GPa) = -95.92911 10.71500 -42.60706
#
# Velocity S-wave (km/s) = -7.13395 2.38425 -4.75440
# Velocity P-wave (km/s) = 7.13434 6.49055 2.09424
#
# Compressibility (1/GPa) = 0.03128339
#
# Stress axis : x y z
#
# Youngs Moduli (GPa) = 118.63475 21.28275 47.68663
#
# Poissons Ratio (x) = 0.13003 0.24822
# Poissons Ratio (y) = 0.72484 0.53582
# Poissons Ratio (z) = 0.61751 0.23914
#
# Static dielectric constant tensor:
#      x y z
#    x 1.651560 0.000000 0.000000 
#    y 0.000000 1.643120 0.000000 
#    z 0.000000 0.000000 1.661760 
# 
# From -- ./inp_files/13869.got.cif
#   From: 2010.05.17/outbox.cif.g08.bks.cpg/sg47_7_cif.got.tgz:13869.got - 2010.06.03 20:15:42.
