data_PCOD9385417
_publ_section_title
;
Structure prediction by ZEFSAII (Michael W. Deem and Ramdas Pophale) SiO2 
 PCOD9385417
Probable space group: P M M M
;
_chemical_formula_sum "Si O2"
_cell_formula_units_Z 48
_cell_length_a 29.944170
_cell_length_b 10.229891
_cell_length_c 8.154831
_cell_angle_alpha 90.000000
_cell_angle_beta 90.000000
_cell_angle_gamma 90.000000
_cell_volume 2498.033460
_symmetry_space_group_name_H-M "P M M M"
_symmetry_group_IT_number 47
_symmetry_cell_setting 'orthorhombic'
loop_
_space_group_symop_operation_xyz
x,y,z
-x,-y,z
x,-y,-z
-x,y,-z
-x,-y,-z
x,y,-z
-x,y,z
x,-y,z
loop_
_atom_site_type_symbol
_atom_site_label
_atom_site_fract_x
_atom_site_fract_y
_atom_site_fract_z
Si Si1 0.550654 0.000000 0.304774
Si Si2 0.605955 0.248968 0.804875
Si Si3 0.948050 0.353388 0.801994
Si Si4 0.201703 0.350031 0.299724
Si Si5 0.696758 0.351914 0.302900
Si Si6 0.125833 0.849532 0.697231
Si Si7 0.448492 0.500000 0.799131
O O1 0.578657 0.875710 0.249972
O O2 0.500000 0.000000 0.237484
O O3 0.547778 0.000000 0.500000
O O4 0.657138 0.257602 0.749342
O O5 0.578639 0.374162 0.741579
O O6 0.605980 0.254580 0.000000
O O7 0.933255 0.500000 0.747556
O O8 0.917773 0.236030 0.738249
O O9 0.000000 0.338324 0.754377
O O10 0.946197 0.352349 0.000000
O O11 0.200704 0.350207 0.500000
O O12 0.190759 0.500000 0.249110
O O13 0.252753 0.320982 0.248891
O O14 0.167193 0.239995 0.242165
O O15 0.697635 0.354949 0.500000
O O16 0.686278 0.500000 0.244245
O O17 0.129468 0.856397 0.500000
O O18 0.125019 0.000000 0.758102
O O19 0.500000 0.500000 0.746655
O O20 0.448764 0.500000 0.000000
#
# Coordination Sequence:
#
# PCOD9385417 Si02
#       7
#     4   8   8   8   8   8   4
#     4  11  25  43  59  79 109 145 185 225 268 321
#     4  11  21  36  58  83 113 145 179 221 270 325
#     4   9  19  36  56  77 103 139 184 229 274 327
#     4   8  15  30  52  75 102 142 185 223 264 313
#     4   9  17  32  55  81 110 142 180 225 271 319
#     4  10  20  33  51  79 113 144 180 225 271 321
#     4   9  18  32  53  81 109 139 175 213 260 319
#
# _framework density 19.215115000000001
#
# number of rings (size 3 to 8) (size 9 to 14) (size 15 to 20)
#    0.000    2.500    0.833    3.250    0.000    3.333 
#    1.500    3.333    0.000    3.000    0.000    0.000 
#    0.000    0.000    0.000    0.000    0.000    0.000 
#
# Total GULP energy -267755.011683 kJ/mol
# GULP energy per Si atom -5578.229410 kJ/mol
# Density = 1.917138 g / cm^3
# Si number density = 19.215115 Si / 1000 Ang^3
#
#
#
# Elastic Constant Matrix: (Units=GPa)
#
#
# Indices 1 2 3 4 5 6 
#
# 1 152.3859 109.7173 12.2505 0.0000 0.0000 0.0000
# 2 109.7173 184.2303 12.9511 0.0000 0.0000 0.0000
# 3 12.2505 12.9511 10.8820 0.0000 0.0000 0.0000
# 4 0.0000 0.0000 0.0000 69.5842 0.0000 0.0000
# 5 0.0000 0.0000 0.0000 0.0000 -169.4767 0.0000
# 6 0.0000 0.0000 0.0000 0.0000 0.0000 31.9141
#
#
#
# Elastic Compliance Matrix: (Units=1/GPa)
#
#
# Indices 1 2 3 4 5 6 
#
# 1 0.011768 -0.006632 -0.005355 0.000000 0.000000 0.000000
# 2 -0.006632 0.009661 -0.004032 0.000000 0.000000 0.000000
# 3 -0.005355 -0.004032 0.102722 0.000000 0.000000 0.000000
# 4 0.000000 0.000000 0.000000 0.014371 0.000000 0.000000
# 5 0.000000 0.000000 0.000000 0.000000 -0.005901 0.000000
# 6 0.000000 0.000000 0.000000 0.000000 0.000000 0.031334
#
#
# Mechanical properties :
#
#
# Convention : Reuss Voigt Hill
#
# Bulk Modulus (GPa) = 10.85622 68.59288 39.72455
# Shear Modulus (GPa) = 22.05592 0.57627 11.31609
#
# Velocity S-wave (km/s) = 3.39166 0.54823 2.42939
# Velocity P-wave (km/s) = 4.58256 6.01461 5.34675
#
# Compressibility (1/GPa) = 0.09211308
#
# Stress axis : x y z
#
# Youngs Moduli (GPa) = 84.97954 103.51007 9.73503
#
# Poissons Ratio (x) = 0.68644 0.05213
# Poissons Ratio (y) = 0.56356 0.03925
# Poissons Ratio (z) = 0.45505 0.41737
#
# Static dielectric constant tensor:
#      x y z
#    x 1.672220 0.000000 0.000000 
#    y 0.000000 1.633280 0.000000 
#    z 0.000000 0.000000 1.678500 
# 
# From -- ./inp_files/13826.got.cif
#   From: 2010.05.17/outbox.cif.g08.bks.cpg/sg47_7_cif.got.tgz:13826.got - 2010.06.03 20:15:42.
