data_PCOD9385217
_publ_section_title
;
Structure prediction by ZEFSAII (Michael W. Deem and Ramdas Pophale) SiO2 
 PCOD9385217
Probable space group: P M M M
;
_chemical_formula_sum "Si O2"
_cell_formula_units_Z 52
_cell_length_a 29.104077
_cell_length_b 8.104154
_cell_length_c 12.199611
_cell_angle_alpha 90.000000
_cell_angle_beta 90.000000
_cell_angle_gamma 90.000000
_cell_volume 2877.448098
_symmetry_space_group_name_H-M "P M M M"
_symmetry_group_IT_number 47
_symmetry_cell_setting 'orthorhombic'
loop_
_space_group_symop_operation_xyz
x,y,z
-x,-y,z
x,-y,-z
-x,y,-z
-x,-y,-z
x,y,-z
-x,y,z
x,-y,z
loop_
_atom_site_type_symbol
_atom_site_label
_atom_site_fract_x
_atom_site_fract_y
_atom_site_fract_z
Si Si1 0.721046 0.800327 0.500000
Si Si2 0.500000 0.310038 0.133083
Si Si3 0.052357 0.198908 0.875945
Si Si4 0.775373 0.699594 0.125039
Si Si5 0.137583 0.301291 0.734244
Si Si6 0.600085 0.300703 0.125794
Si Si7 0.172064 0.300291 0.500000
Si Si8 0.687173 0.197019 0.735071
O O1 0.774494 0.749587 0.500000
O O2 0.696813 0.740926 0.388374
O O3 0.719759 0.000000 0.500000
O O4 0.500000 0.500000 0.172791
O O5 0.549639 0.236271 0.161920
O O6 0.500000 0.315135 0.000000
O O7 0.089430 0.254372 0.787928
O O8 0.000000 0.253941 0.853419
O O9 0.052039 0.000000 0.877419
O O10 0.064742 0.254852 0.000000
O O11 0.776591 0.500000 0.123006
O O12 0.820765 0.758377 0.188453
O O13 0.730231 0.750806 0.190564
O O14 0.774351 0.758877 0.000000
O O15 0.139951 0.500000 0.731885
O O16 0.147438 0.241505 0.611034
O O17 0.596820 0.500000 0.121279
O O18 0.640683 0.256189 0.207497
O O19 0.609574 0.245013 0.000000
O O20 0.170833 0.500000 0.500000
O O21 0.685760 0.000000 0.730862
#
# Coordination Sequence:
#
# PCOD9385217 Si02
#       8
#     4   4   8   8   8   8   4   8
#     4  10  22  38  52  68  96 136 179 215 247 292
#     4   7  12  26  49  74  99 130 166 201 244 301
#     4   9  19  36  56  78 105 137 172 208 248 299
#     4  10  20  33  50  74 103 132 163 202 250 305
#     4  10  20  34  54  79 103 131 168 211 256 300
#     4   9  17  31  52  77 104 133 165 204 252 304
#     4  10  20  36  57  77  99 130 172 216 252 294
#     4  11  22  34  49  71 100 133 171 211 251 297
#
# _framework density 18.071569
#
# number of rings (size 3 to 8) (size 9 to 14) (size 15 to 20)
#    0.000    2.385    1.538    2.769    0.000    5.538 
#    0.000    1.538    0.000    4.154    0.000    3.231 
#    0.000    0.000    0.000    0.000    0.000    0.000 
#
# Total GULP energy -290033.160449 kJ/mol
# GULP energy per Si atom -5577.560778 kJ/mol
# Density = 1.803044 g / cm^3
# Si number density = 18.071569 Si / 1000 Ang^3
#
#
#
# Elastic Constant Matrix: (Units=GPa)
#
#
# Indices 1 2 3 4 5 6 
#
# 1 167.0435 7.7408 111.9236 0.0000 0.0000 0.0000
# 2 7.7408 8.8385 16.9858 0.0000 0.0000 0.0000
# 3 111.9236 16.9858 178.0378 0.0000 0.0000 0.0000
# 4 0.0000 0.0000 0.0000 19.5389 0.0000 0.0000
# 5 0.0000 0.0000 0.0000 0.0000 6.4385 0.0000
# 6 0.0000 0.0000 0.0000 0.0000 0.0000 52.3704
#
#
#
# Elastic Compliance Matrix: (Units=1/GPa)
#
#
# Indices 1 2 3 4 5 6 
#
# 1 0.010473 0.004262 -0.006990 0.000000 0.000000 0.000000
# 2 0.004262 0.140277 -0.016062 0.000000 0.000000 0.000000
# 3 -0.006990 -0.016062 0.011544 0.000000 0.000000 0.000000
# 4 0.000000 0.000000 0.000000 0.051180 0.000000 0.000000
# 5 0.000000 0.000000 0.000000 0.000000 0.155316 0.000000
# 6 0.000000 0.000000 0.000000 0.000000 0.000000 0.019095
#
#
# Mechanical properties :
#
#
# Convention : Reuss Voigt Hill
#
# Bulk Modulus (GPa) = 8.01849 69.69114 38.85482
# Shear Modulus (GPa) = 10.70580 30.15419 20.43000
#
# Velocity S-wave (km/s) = 2.43659 4.08928 3.36595
# Velocity P-wave (km/s) = 3.51606 7.80666 6.05420
#
# Compressibility (1/GPa) = 0.12471178
#
# Stress axis : x y z
#
# Youngs Moduli (GPa) = 95.48726 7.12874 86.62771
#
# Poissons Ratio (x) = -0.03038 0.60555
# Poissons Ratio (y) = -0.40696 1.39146
# Poissons Ratio (z) = 0.66748 0.11451
#
# Static dielectric constant tensor:
#      x y z
#    x 1.612650 0.000000 0.000000 
#    y 0.000000 1.647540 0.000000 
#    z 0.000000 0.000000 1.619320 
# 
# From -- ./inp_files/19916.got.cif
#   From: 2010.05.17/outbox.cif.g08.bks.cpg/sg47_10_cif.got.tgz:19916.got - 2010.06.03 20:15:42.
