data_PCOD9385550
_publ_section_title
;
Structure prediction by ZEFSAII (Michael W. Deem and Ramdas Pophale) SiO2 
 PCOD9385550
Probable space group: P M M M
;
_chemical_formula_sum "Si O2"
_cell_formula_units_Z 64
_cell_length_a 16.098842
_cell_length_b 23.395311
_cell_length_c 9.246314
_cell_angle_alpha 90.000000
_cell_angle_beta 90.000000
_cell_angle_gamma 90.000000
_cell_volume 3482.507806
_symmetry_space_group_name_H-M "P M M M"
_symmetry_group_IT_number 47
_symmetry_cell_setting 'orthorhombic'
loop_
_space_group_symop_operation_xyz
x,y,z
-x,-y,z
x,-y,-z
-x,y,-z
-x,-y,-z
x,y,-z
-x,y,z
x,-y,z
loop_
_atom_site_type_symbol
_atom_site_label
_atom_site_fract_x
_atom_site_fract_y
_atom_site_fract_z
Si Si1 0.242773 0.130345 0.672030
Si Si2 0.906815 0.568504 0.334626
Si Si3 0.408126 0.114760 0.834611
Si Si4 0.596546 0.431249 0.327460
Si Si5 0.094463 0.931584 0.830002
Si Si6 0.243497 0.623438 0.171731
Si Si7 0.744212 0.264066 0.667855
Si Si8 0.592635 0.747021 0.158990
O O1 0.247259 0.125765 0.500000
O O2 0.326880 0.103832 0.740079
O O3 0.163337 0.099059 0.736011
O O4 0.235866 0.198322 0.706782
O O5 0.890310 0.588311 0.500000
O O6 0.909394 0.500000 0.338585
O O7 0.832493 0.586083 0.231356
O O8 0.000000 0.588435 0.293060
O O9 0.500000 0.095599 0.783133
O O10 0.411667 0.184027 0.841115
O O11 0.397068 0.094409 0.000000
O O12 0.606672 0.420700 0.500000
O O13 0.500000 0.417042 0.289165
O O14 0.606172 0.500000 0.305341
O O15 0.669337 0.398601 0.241341
O O16 0.000000 0.915030 0.791507
O O17 0.100765 0.000000 0.813860
O O18 0.107146 0.918616 0.000000
O O19 0.220820 0.686894 0.229950
O O20 0.249254 0.621119 0.000000
O O21 0.762625 0.273704 0.500000
O O22 0.646444 0.269319 0.704125
O O23 0.500000 0.724306 0.167744
O O24 0.627844 0.730518 0.000000
#
# Coordination Sequence:
#
# PCOD9385550 Si02
#       8
#     8   8   8   8   8   8   8   8
#     4  10  20  33  53  81 110 142 179 222 272 316
#     4   9  19  38  63  85 103 128 164 207 259 319
#     4   8  14  26  46  71 100 138 179 214 252 302
#     4   9  19  37  59  80 105 143 189 232 277 333
#     4   9  19  37  61  87 112 140 176 216 261 319
#     4  12  24  35  52  79 110 143 178 221 272 320
#     4  10  21  35  49  69 102 144 185 219 257 315
#     4   8  14  26  44  66  93 126 168 218 264 301
#
# _framework density 18.377559999999999
#
# number of rings (size 3 to 8) (size 9 to 14) (size 15 to 20)
#    0.000    2.625    0.000    4.125    0.000    5.500 
#    0.000    5.000    0.000    1.125    0.000    2.625 
#    0.000    0.000    0.000    0.000    0.000    0.000 
#
# Total GULP energy -356576.506750 kJ/mol
# GULP energy per Si atom -5571.507918 kJ/mol
# Density = 1.833573 g / cm^3
# Si number density = 18.377560 Si / 1000 Ang^3
#
#
#
# Elastic Constant Matrix: (Units=GPa)
#
#
# Indices 1 2 3 4 5 6 
#
# 1 125.3236 38.9995 66.6013 0.0000 0.0000 0.0000
# 2 38.9995 19.6930 30.3081 0.0000 0.0000 0.0000
# 3 66.6013 30.3081 76.9923 0.0000 0.0000 0.0000
# 4 0.0000 0.0000 0.0000 20.3464 0.0000 0.0000
# 5 0.0000 0.0000 0.0000 0.0000 10.6545 0.0000
# 6 0.0000 0.0000 0.0000 0.0000 0.0000 5.6798
#
#
#
# Elastic Compliance Matrix: (Units=1/GPa)
#
#
# Indices 1 2 3 4 5 6 
#
# 1 0.021430 -0.035288 -0.004647 0.000000 0.000000 0.000000
# 2 -0.035288 0.186938 -0.043063 0.000000 0.000000 0.000000
# 3 -0.004647 -0.043063 0.033959 0.000000 0.000000 0.000000
# 4 0.000000 0.000000 0.000000 0.049149 0.000000 0.000000
# 5 0.000000 0.000000 0.000000 0.000000 0.093857 0.000000
# 6 0.000000 0.000000 0.000000 0.000000 0.000000 0.176063
#
#
# Mechanical properties :
#
#
# Convention : Reuss Voigt Hill
#
# Bulk Modulus (GPa) = 13.10058 54.86964 33.98511
# Shear Modulus (GPa) = 6.64156 13.07614 9.85885
#
# Velocity S-wave (km/s) = 1.90310 2.67034 2.31868
# Velocity P-wave (km/s) = 3.46022 6.27928 5.06964
#
# Compressibility (1/GPa) = 0.07633250
#
# Stress axis : x y z
#
# Youngs Moduli (GPa) = 46.66340 5.34937 29.44700
#
# Poissons Ratio (x) = 0.18877 0.13683
# Poissons Ratio (y) = 1.64668 1.26806
# Poissons Ratio (z) = 0.21682 0.23036
#
# Static dielectric constant tensor:
#      x y z
#    x 1.649330 0.000000 0.000000 
#    y 0.000000 1.662230 0.000000 
#    z 0.000000 0.000000 1.624820 
# 
# From -- ./inp_files/7875.got.cif
#   From: 2010.05.17/outbox.cif.g08.bks.cpg/sg47_4_cif.got.tgz:7875.got - 2010.06.03 20:15:42.
