data_PCOD9385992
_publ_section_title
;
Structure prediction by ZEFSAII (Michael W. Deem and Ramdas Pophale) SiO2 
 PCOD9385992
Probable space group: P M M M
;
_chemical_formula_sum "Si O2"
_cell_formula_units_Z 48
_cell_length_a 7.827079
_cell_length_b 9.390842
_cell_length_c 31.920280
_cell_angle_alpha 90.000000
_cell_angle_beta 90.000000
_cell_angle_gamma 90.000000
_cell_volume 2346.231943
_symmetry_space_group_name_H-M "P M M M"
_symmetry_group_IT_number 47
_symmetry_cell_setting 'orthorhombic'
loop_
_space_group_symop_operation_xyz
x,y,z
-x,-y,z
x,-y,-z
-x,y,-z
-x,-y,-z
x,y,-z
-x,y,z
x,-y,z
loop_
_atom_site_type_symbol
_atom_site_label
_atom_site_fract_x
_atom_site_fract_y
_atom_site_fract_z
Si Si1 0.796655 0.337339 0.173716
Si Si2 0.705145 0.162358 0.582869
Si Si3 0.703892 0.160964 0.254939
Si Si4 0.705631 0.337351 0.919234
Si Si5 0.709526 0.664236 0.664400
Si Si6 0.203905 0.662431 0.500000
Si Si7 0.290440 0.163149 0.000000
O O1 0.728386 0.500000 0.177931
O O2 0.733903 0.237929 0.210892
O O3 0.750872 0.284744 0.127170
O O4 0.000000 0.344023 0.176623
O O5 0.500000 0.153610 0.586599
O O6 0.766703 0.247343 0.623777
O O7 0.742836 0.251166 0.541190
O O8 0.770794 0.000000 0.580666
O O9 0.500000 0.151292 0.260744
O O10 0.768218 0.257280 0.293335
O O11 0.773053 0.000000 0.255641
O O12 0.500000 0.341726 0.921782
O O13 0.769573 0.500000 0.922823
O O14 0.766786 0.243548 0.958003
O O15 0.500000 0.663286 0.664347
O O16 0.764376 0.500000 0.662860
O O17 0.271974 0.500000 0.500000
O O18 0.000000 0.654532 0.500000
O O19 0.500000 0.165247 0.000000
O O20 0.236363 0.000000 0.000000
#
# Coordination Sequence:
#
# PCOD9385992 Si02
#       7
#     8   8   8   8   8   4   4
#     4  10  21  36  53  75 104 138 176 217 260 307
#     4  10  20  35  57  84 111 139 174 217 265 316
#     4  10  20  34  54  80 108 138 173 214 260 310
#     4   9  17  31  52  75  99 130 168 209 255 307
#     4   9  17  31  54  82 109 137 171 214 262 310
#     4  11  24  39  54  76 108 145 184 223 262 308
#     4   9  17  29  48  75 102 126 160 209 258 303
#
# _framework density 20.458335999999999
#
# number of rings (size 3 to 8) (size 9 to 14) (size 15 to 20)
#    0.000    2.333    0.000    2.750    0.000    8.333 
#    0.000    2.917    0.000    7.500    0.000    0.000 
#    0.000    0.000    0.000    0.000    0.000    0.000 
#
# Total GULP energy -268079.743007 kJ/mol
# GULP energy per Si atom -5584.994646 kJ/mol
# Density = 2.041177 g / cm^3
# Si number density = 20.458336 Si / 1000 Ang^3
#
#
#
# Elastic Constant Matrix: (Units=GPa)
#
#
# Indices 1 2 3 4 5 6 
#
# 1 23.2064 8.3896 -0.9157 0.0000 0.0000 0.0000
# 2 8.3896 193.2475 141.2901 0.0000 0.0000 0.0000
# 3 -0.9157 141.2901 221.7216 0.0000 0.0000 0.0000
# 4 0.0000 0.0000 0.0000 58.4931 0.0000 0.0000
# 5 0.0000 0.0000 0.0000 0.0000 -68.0354 0.0000
# 6 0.0000 0.0000 0.0000 0.0000 0.0000 8.9004
#
#
#
# Elastic Compliance Matrix: (Units=1/GPa)
#
#
# Indices 1 2 3 4 5 6 
#
# 1 0.044598 -0.003877 0.002655 0.000000 0.000000 0.000000
# 2 -0.003877 0.010026 -0.006405 0.000000 0.000000 0.000000
# 3 0.002655 -0.006405 0.008603 0.000000 0.000000 0.000000
# 4 0.000000 0.000000 0.000000 0.017096 0.000000 0.000000
# 5 0.000000 0.000000 0.000000 0.000000 -0.014698 0.000000
# 6 0.000000 0.000000 0.000000 0.000000 0.000000 0.112354
#
#
# Mechanical properties :
#
#
# Convention : Reuss Voigt Hill
#
# Bulk Modulus (GPa) = 20.84549 81.74482 51.29515
# Shear Modulus (GPa) = 23.89789 19.16574 21.53181
#
# Velocity S-wave (km/s) = 3.42149 3.06407 3.24770
# Velocity P-wave (km/s) = 5.08136 7.24993 6.26026
#
# Compressibility (1/GPa) = 0.04797201
#
# Stress axis : x y z
#
# Youngs Moduli (GPa) = 22.42251 99.74153 116.24376
#
# Poissons Ratio (x) = 0.38673 -0.30863
# Poissons Ratio (y) = 0.08694 0.74453
# Poissons Ratio (z) = -0.05953 0.63884
#
# Static dielectric constant tensor:
#      x y z
#    x 1.738360 0.000000 0.000000 
#    y 0.000000 1.723580 0.000000 
#    z 0.000000 0.000000 1.688160 
# 
# From -- ./inp_files/34079.got.cif
#   From: 2010.05.17/outbox.cif.g08.bks.cpg/sg47_18_cif.got.tgz:34079.got - 2010.06.03 20:15:42.
