data_PCOD9385576
_publ_section_title
;
Structure prediction by ZEFSAII (Michael W. Deem and Ramdas Pophale) SiO2 
 PCOD9385576
Probable space group: P M M M
;
_chemical_formula_sum "Si O2"
_cell_formula_units_Z 64
_cell_length_a 24.592985
_cell_length_b 9.645545
_cell_length_c 14.880656
_cell_angle_alpha 90.000000
_cell_angle_beta 90.000000
_cell_angle_gamma 90.000000
_cell_volume 3529.881235
_symmetry_space_group_name_H-M "P M M M"
_symmetry_group_IT_number 47
_symmetry_cell_setting 'orthorhombic'
loop_
_space_group_symop_operation_xyz
x,y,z
-x,-y,z
x,-y,-z
-x,y,-z
-x,-y,-z
x,y,-z
-x,y,z
x,-y,z
loop_
_atom_site_type_symbol
_atom_site_label
_atom_site_fract_x
_atom_site_fract_y
_atom_site_fract_z
Si Si1 0.359869 0.339093 0.770162
Si Si2 0.159117 0.847158 0.104407
Si Si3 0.940615 0.835357 0.337085
Si Si4 0.182043 0.155288 0.606761
Si Si5 0.565119 0.835672 0.102216
Si Si6 0.714192 0.334011 0.606335
Si Si7 0.060143 0.663393 0.845391
Si Si8 0.253545 0.343870 0.892915
O O1 0.377603 0.500000 0.762589
O O2 0.405168 0.246843 0.818690
O O3 0.334956 0.294238 0.673617
O O4 0.308808 0.334675 0.838274
O O5 0.106883 0.750115 0.108076
O O6 0.210228 0.766081 0.143792
O O7 0.149346 0.000000 0.143170
O O8 0.172310 0.862872 0.000000
O O9 0.881508 0.806833 0.379613
O O10 0.942136 0.733842 0.252341
O O11 0.000000 0.815926 0.384663
O O12 0.939653 0.000000 0.313414
O O13 0.188825 0.147427 0.500000
O O14 0.229645 0.259603 0.635812
O O15 0.190553 0.000000 0.644417
O O16 0.500000 0.818636 0.108032
O O17 0.576976 0.000000 0.109256
O O18 0.581522 0.791438 0.000000
O O19 0.703824 0.305006 0.500000
O O20 0.721169 0.500000 0.615512
O O21 0.071990 0.500000 0.841470
O O22 0.000000 0.680128 0.886273
O O23 0.231062 0.500000 0.882159
O O24 0.263112 0.324486 0.000000
#
# Coordination Sequence:
#
# PCOD9385576 Si02
#       8
#     8   8   8   8   8   8   8   8
#     4  10  20  33  54  83 109 143 188 227 265 309
#     4  10  21  35  50  69  93 122 157 200 252 308
#     4   9  18  32  49  70  96 124 157 203 258 317
#     4   9  18  32  50  73  99 128 166 211 261 320
#     4   9  19  36  57  84 120 156 185 217 262 316
#     4   9  19  35  52  74 108 146 183 227 276 320
#     4  10  21  35  50  67  88 118 157 201 249 304
#     4   9  18  32  48  71 105 136 165 209 260 310
#
# _framework density 18.130922000000002
#
# number of rings (size 3 to 8) (size 9 to 14) (size 15 to 20)
#    0.000    2.625    0.000    1.500    1.750    4.500 
#    0.000    4.375    0.000    0.375    0.000    6.125 
#    0.000    0.000    0.000    0.000    0.000    0.000 
#
# Total GULP energy -356336.842864 kJ/mol
# GULP energy per Si atom -5567.763170 kJ/mol
# Density = 1.808966 g / cm^3
# Si number density = 18.130922 Si / 1000 Ang^3
#
#
#
# Elastic Constant Matrix: (Units=GPa)
#
#
# Indices 1 2 3 4 5 6 
#
# 1 74.5779 44.4191 39.0393 0.0000 0.0000 0.0000
# 2 44.4191 68.6502 34.8604 0.0000 0.0000 0.0000
# 3 39.0393 34.8604 77.3129 0.0000 0.0000 0.0000
# 4 0.0000 0.0000 0.0000 18.1995 0.0000 0.0000
# 5 0.0000 0.0000 0.0000 0.0000 30.5010 0.0000
# 6 0.0000 0.0000 0.0000 0.0000 0.0000 28.9609
#
#
#
# Elastic Compliance Matrix: (Units=1/GPa)
#
#
# Indices 1 2 3 4 5 6 
#
# 1 0.024225 -0.012273 -0.006699 0.000000 0.000000 0.000000
# 2 -0.012273 0.025110 -0.005125 0.000000 0.000000 0.000000
# 3 -0.006699 -0.005125 0.018628 0.000000 0.000000 0.000000
# 4 0.000000 0.000000 0.000000 0.054947 0.000000 0.000000
# 5 0.000000 0.000000 0.000000 0.000000 0.032786 0.000000
# 6 0.000000 0.000000 0.000000 0.000000 0.000000 0.034529
#
#
# Mechanical properties :
#
#
# Convention : Reuss Voigt Hill
#
# Bulk Modulus (GPa) = 50.58177 50.79764 50.68971
# Shear Modulus (GPa) = 20.40751 22.34709 21.37730
#
# Velocity S-wave (km/s) = 3.35858 3.51456 3.43746
# Velocity P-wave (km/s) = 6.55734 6.67439 6.61613
#
# Compressibility (1/GPa) = 0.01976997
#
# Stress axis : x y z
#
# Youngs Moduli (GPa) = 41.27924 39.82462 53.68335
#
# Poissons Ratio (x) = 0.48877 0.35961
# Poissons Ratio (y) = 0.50662 0.27512
# Poissons Ratio (z) = 0.27652 0.20410
#
# Static dielectric constant tensor:
#      x y z
#    x 1.624550 0.000000 0.000000 
#    y 0.000000 1.643420 0.000000 
#    z 0.000000 0.000000 1.661920 
# 
# From -- ./inp_files/21880.got.cif
#   From: 2010.05.17/outbox.cif.g08.bks.cpg/sg47_11_cif.got.tgz:21880.got - 2010.06.03 20:15:42.
