data_PCOD9385862
_publ_section_title
;
Structure prediction by ZEFSAII (Michael W. Deem and Ramdas Pophale) SiO2 
 PCOD9385862
Probable space group: P M M M
;
_chemical_formula_sum "Si O2"
_cell_formula_units_Z 48
_cell_length_a 29.974694
_cell_length_b 7.849153
_cell_length_c 10.332358
_cell_angle_alpha 90.000000
_cell_angle_beta 90.000000
_cell_angle_gamma 90.000000
_cell_volume 2430.955441
_symmetry_space_group_name_H-M "P M M M"
_symmetry_group_IT_number 47
_symmetry_cell_setting 'orthorhombic'
loop_
_space_group_symop_operation_xyz
x,y,z
-x,-y,z
x,-y,-z
-x,y,-z
-x,-y,-z
x,y,-z
-x,y,z
x,-y,z
loop_
_atom_site_type_symbol
_atom_site_label
_atom_site_fract_x
_atom_site_fract_y
_atom_site_fract_z
Si Si1 0.123949 0.295425 0.355173
Si Si2 0.393359 0.800744 0.749246
Si Si3 0.297875 0.298252 0.852434
Si Si4 0.050130 0.795159 0.146288
Si Si5 0.448123 0.704759 0.000000
Si Si6 0.225534 0.708498 0.647936
Si Si7 0.551845 0.209055 0.500000
O O1 0.112175 0.233345 0.500000
O O2 0.125942 0.500000 0.360734
O O3 0.087569 0.250713 0.249017
O O4 0.174503 0.237633 0.325410
O O5 0.345720 0.722271 0.784289
O O6 0.420612 0.733627 0.625874
O O7 0.385319 0.000000 0.726515
O O8 0.424326 0.776054 0.873703
O O9 0.289614 0.500000 0.864023
O O10 0.259775 0.228890 0.756686
O O11 0.298708 0.228392 0.000000
O O12 0.000000 0.734911 0.180933
O O13 0.048455 0.000000 0.141522
O O14 0.060213 0.734401 0.000000
O O15 0.443328 0.500000 0.000000
O O16 0.500000 0.748491 0.000000
O O17 0.237031 0.759254 0.500000
O O18 0.226509 0.500000 0.649021
O O19 0.500000 0.264025 0.500000
O O20 0.550802 0.000000 0.500000
#
# Coordination Sequence:
#
# PCOD9385862 Si02
#       7
#     8   8   8   8   4   8   4
#     4   9  18  33  53  79 109 137 175 225 270 317
#     4  11  22  37  58  82 110 143 178 217 264 317
#     4  10  20  34  53  78 109 140 175 218 261 309
#     4   9  19  35  52  72 103 143 184 224 269 322
#     4  11  23  39  59  83 111 141 177 221 264 311
#     4   8  16  32  53  76 103 140 180 218 264 317
#     4   9  20  38  57  79 107 139 177 217 258 311
#
# _framework density 19.745322999999999
#
# number of rings (size 3 to 8) (size 9 to 14) (size 15 to 20)
#    0.000    2.500    0.833    2.750    1.167    3.333 
#    0.000    6.250    0.000    4.000    0.000    0.000 
#    0.000    0.000    0.000    0.000    0.000    0.000 
#
# Total GULP energy -267802.349700 kJ/mol
# GULP energy per Si atom -5579.215619 kJ/mol
# Density = 1.970038 g / cm^3
# Si number density = 19.745323 Si / 1000 Ang^3
#
#
#
# Elastic Constant Matrix: (Units=GPa)
#
#
# Indices 1 2 3 4 5 6 
#
# 1 164.2943 5.4961 130.2532 0.0000 0.0000 0.0000
# 2 5.4961 17.9471 3.6590 0.0000 0.0000 0.0000
# 3 130.2532 3.6590 191.1355 0.0000 0.0000 0.0000
# 4 0.0000 0.0000 0.0000 34.9483 0.0000 0.0000
# 5 0.0000 0.0000 0.0000 0.0000 62.9304 0.0000
# 6 0.0000 0.0000 0.0000 0.0000 0.0000 43.8597
#
#
#
# Elastic Compliance Matrix: (Units=1/GPa)
#
#
# Indices 1 2 3 4 5 6 
#
# 1 0.013329 -0.002239 -0.009040 0.000000 0.000000 0.000000
# 2 -0.002239 0.056314 0.000448 0.000000 0.000000 0.000000
# 3 -0.009040 0.000448 0.011384 0.000000 0.000000 0.000000
# 4 0.000000 0.000000 0.000000 0.028614 0.000000 0.000000
# 5 0.000000 0.000000 0.000000 0.000000 0.015891 0.000000
# 6 0.000000 0.000000 0.000000 0.000000 0.000000 0.022800
#
#
# Mechanical properties :
#
#
# Convention : Reuss Voigt Hill
#
# Bulk Modulus (GPa) = 16.84531 72.46595 44.65563
# Shear Modulus (GPa) = 26.34611 43.94557 35.14584
#
# Velocity S-wave (km/s) = 3.65676 4.72277 4.22353
# Velocity P-wave (km/s) = 5.13605 8.15594 6.81536
#
# Compressibility (1/GPa) = 0.05936370
#
# Stress axis : x y z
#
# Youngs Moduli (GPa) = 75.02626 17.75765 87.84275
#
# Poissons Ratio (x) = 0.03975 0.79412
# Poissons Ratio (y) = 0.16796 -0.03931
# Poissons Ratio (z) = 0.67826 -0.00795
#
# Static dielectric constant tensor:
#      x y z
#    x 1.667850 0.000000 0.000000 
#    y 0.000000 1.740180 0.000000 
#    z 0.000000 0.000000 1.683420 
# 
# From -- ./inp_files/13906.got.cif
#   From: 2010.05.17/outbox.cif.g08.bks.cpg/sg47_7_cif.got.tgz:13906.got - 2010.06.03 20:15:42.
