data_PCOD9385062
_publ_section_title
;
Structure prediction by ZEFSAII (Michael W. Deem and Ramdas Pophale) SiO2 
 PCOD9385062
Probable space group: P M M M
;
_chemical_formula_sum "Si O2"
_cell_formula_units_Z 48
_cell_length_a 9.190948
_cell_length_b 9.019225
_cell_length_c 31.987968
_cell_angle_alpha 90.000000
_cell_angle_beta 90.000000
_cell_angle_gamma 90.000000
_cell_volume 2651.649900
_symmetry_space_group_name_H-M "P M M M"
_symmetry_group_IT_number 47
_symmetry_cell_setting 'orthorhombic'
loop_
_space_group_symop_operation_xyz
x,y,z
-x,-y,z
x,-y,-z
-x,y,-z
-x,-y,-z
x,y,-z
-x,y,z
x,-y,z
loop_
_atom_site_type_symbol
_atom_site_label
_atom_site_fract_x
_atom_site_fract_y
_atom_site_fract_z
Si Si1 0.167930 0.318870 0.000000
Si Si2 0.827293 0.676255 0.500000
Si Si3 0.323007 0.329271 0.665650
Si Si4 0.674274 0.824137 0.420766
Si Si5 0.326731 0.176271 0.752018
Si Si6 0.171354 0.678226 0.169059
Si Si7 0.667616 0.680767 0.084002
O O1 0.250097 0.270731 0.957972
O O2 0.169223 0.500000 0.000000
O O3 0.000000 0.272533 0.000000
O O4 0.801721 0.500000 0.500000
O O5 0.755351 0.747582 0.459068
O O6 0.000000 0.702870 0.500000
O O7 0.500000 0.327397 0.665771
O O8 0.275655 0.500000 0.664873
O O9 0.278434 0.244839 0.623573
O O10 0.277588 0.249677 0.708401
O O11 0.500000 0.800028 0.425163
O O12 0.699505 0.000000 0.421004
O O13 0.500000 0.205631 0.756877
O O14 0.243062 0.244765 0.791112
O O15 0.306659 0.000000 0.749988
O O16 0.189283 0.500000 0.172998
O O17 0.250233 0.725803 0.126231
O O18 0.000000 0.709681 0.166592
O O19 0.500000 0.728692 0.084183
O O20 0.668395 0.500000 0.083511
#
# Coordination Sequence:
#
# PCOD9385062 Si02
#       7
#     4   4   8   8   8   8   8
#     4   9  15  23  37  61  96 133 166 205 256 311
#     4  11  24  39  54  76 108 145 184 225 268 314
#     4   9  17  31  54  82 109 137 170 211 259 309
#     4  10  20  35  57  84 111 140 177 220 265 315
#     4  10  20  34  53  77 104 134 169 210 256 307
#     4  10  20  33  49  71 100 134 172 214 260 309
#     4   9  16  26  42  65  94 129 169 212 258 308
#
# _framework density 18.101935999999998
#
# number of rings (size 3 to 8) (size 9 to 14) (size 15 to 20)
#    0.000    2.333    0.000    3.250    0.000    9.667 
#    0.000    0.833    0.000    5.000    0.000    0.583 
#    0.000    4.667    0.000    0.000    0.000    0.000 
#
# Total GULP energy -267937.601709 kJ/mol
# GULP energy per Si atom -5582.033369 kJ/mol
# Density = 1.806073 g / cm^3
# Si number density = 18.101936 Si / 1000 Ang^3
#
#
#
# Elastic Constant Matrix: (Units=GPa)
#
#
# Indices 1 2 3 4 5 6 
#
# 1 99.8162 66.0986 104.4538 0.0000 0.0000 0.0000
# 2 66.0986 67.7860 83.7846 0.0000 0.0000 0.0000
# 3 104.4538 83.7846 238.8592 0.0000 0.0000 0.0000
# 4 0.0000 0.0000 0.0000 -23.0425 0.0000 0.0000
# 5 0.0000 0.0000 0.0000 0.0000 -15.2876 0.0000
# 6 0.0000 0.0000 0.0000 0.0000 0.0000 17.6598
#
#
#
# Elastic Compliance Matrix: (Units=1/GPa)
#
#
# Indices 1 2 3 4 5 6 
#
# 1 0.031710 -0.024329 -0.005333 0.000000 0.000000 0.000000
# 2 -0.024329 0.044710 -0.005044 0.000000 0.000000 0.000000
# 3 -0.005333 -0.005044 0.008288 0.000000 0.000000 0.000000
# 4 0.000000 0.000000 0.000000 -0.043398 0.000000 0.000000
# 5 0.000000 0.000000 0.000000 0.000000 -0.065412 0.000000
# 6 0.000000 0.000000 0.000000 0.000000 0.000000 0.056626
#
#
# Mechanical properties :
#
#
# Convention : Reuss Voigt Hill
#
# Bulk Modulus (GPa) = 65.37535 101.68171 83.52853
# Shear Modulus (GPa) = 46.71483 6.00755 26.36119
#
# Velocity S-wave (km/s) = 5.08552 1.82372 3.82024
# Velocity P-wave (km/s) = 8.40696 7.79283 8.10571
#
# Compressibility (1/GPa) = 0.01529629
#
# Stress axis : x y z
#
# Youngs Moduli (GPa) = 31.53602 22.36654 120.65808
#
# Poissons Ratio (x) = 0.54415 0.64347
# Poissons Ratio (y) = 0.76723 0.60857
# Poissons Ratio (z) = 0.16818 0.11281
#
# Static dielectric constant tensor:
#      x y z
#    x 1.603330 0.000000 0.000000 
#    y 0.000000 1.601930 0.000000 
#    z 0.000000 0.000000 1.590680 
# 
# From -- ./inp_files/34182.got.cif
#   From: 2010.05.17/outbox.cif.g08.bks.cpg/sg47_18_cif.got.tgz:34182.got - 2010.06.03 20:15:42.
