data_PCOD9385160
_publ_section_title
;
Structure prediction by ZEFSAII (Michael W. Deem and Ramdas Pophale) SiO2 
 PCOD9385160
Probable space group: P M M M
;
_chemical_formula_sum "Si O2"
_cell_formula_units_Z 56
_cell_length_a 22.328259
_cell_length_b 7.654218
_cell_length_c 15.665684
_cell_angle_alpha 90.000000
_cell_angle_beta 90.000000
_cell_angle_gamma 90.000000
_cell_volume 2677.349394
_symmetry_space_group_name_H-M "P M M M"
_symmetry_group_IT_number 47
_symmetry_cell_setting 'orthorhombic'
loop_
_space_group_symop_operation_xyz
x,y,z
-x,-y,z
x,-y,-z
-x,y,-z
-x,-y,-z
x,y,-z
-x,y,z
x,-y,z
loop_
_atom_site_type_symbol
_atom_site_label
_atom_site_fract_x
_atom_site_fract_y
_atom_site_fract_z
Si Si1 0.803770 0.706661 0.408767
Si Si2 0.803973 0.706587 0.908917
Si Si3 0.065304 0.789315 0.650075
Si Si4 0.500000 0.792840 0.099666
Si Si5 0.727567 0.284636 0.750302
Si Si6 0.590753 0.290521 0.748542
Si Si7 0.065253 0.789314 0.149795
Si Si8 0.500000 0.286406 0.600800
O O1 0.787851 0.784173 0.500000
O O2 0.791690 0.500000 0.411072
O O3 0.874650 0.726197 0.393827
O O4 0.764625 0.777028 0.331647
O O5 0.791817 0.500000 0.911152
O O6 0.765183 0.777491 0.831616
O O7 0.874851 0.725956 0.894321
O O8 0.787775 0.784295 0.000000
O O9 0.068860 0.740390 0.750143
O O10 0.000000 0.730143 0.617372
O O11 0.065693 0.000000 0.645584
O O12 0.555750 0.746552 0.162620
O O13 0.500000 0.000000 0.091550
O O14 0.500000 0.723906 0.000000
O O15 0.727789 0.500000 0.750405
O O16 0.658893 0.227479 0.750987
O O17 0.591900 0.500000 0.741830
O O18 0.555535 0.231059 0.662609
O O19 0.000000 0.730135 0.117090
O O20 0.065689 0.000000 0.145351
O O21 0.500000 0.500000 0.597957
O O22 0.500000 0.230567 0.500000
#
# Coordination Sequence:
#
# PCOD9385160 Si02
#       8
#     8   8   8   4   8   8   8   4
#     4  10  20  33  51  76 104 135 171 211 260 315
#     4  10  20  33  50  72  98 130 167 207 256 311
#     4   9  18  33  52  72  95 128 172 219 266 314
#     4  10  21  37  56  81 114 143 169 212 264 302
#     4   9  18  34  52  74 106 137 168 210 251 290
#     4   9  18  33  56  82 106 141 183 212 244 299
#     4   9  18  33  52  72  94 124 165 213 263 311
#     4   8  14  26  48  81 112 131 159 208 252 284
#
# _framework density 20.91621
#
# number of rings (size 3 to 8) (size 9 to 14) (size 15 to 20)
#    0.000    2.714    1.429    1.500    0.000    3.429 
#    0.000   10.000    0.000    3.429    0.000    0.000 
#    0.000    0.000    0.000    0.000    0.000    0.000 
#
# Total GULP energy -312228.065961 kJ/mol
# GULP energy per Si atom -5575.501178 kJ/mol
# Density = 2.086860 g / cm^3
# Si number density = 20.916210 Si / 1000 Ang^3
#
#
#
# Elastic Constant Matrix: (Units=GPa)
#
#
# Indices 1 2 3 4 5 6 
#
# 1 172.6927 -0.4708 113.9700 0.0000 0.0000 0.0000
# 2 -0.4708 35.7486 9.8621 0.0000 0.0000 0.0000
# 3 113.9700 9.8621 206.6107 0.0000 0.0000 0.0000
# 4 0.0000 0.0000 0.0000 -0.3431 0.0000 0.0000
# 5 0.0000 0.0000 0.0000 0.0000 -151.6944 0.0000
# 6 0.0000 0.0000 0.0000 0.0000 0.0000 32.9312
#
#
#
# Elastic Compliance Matrix: (Units=1/GPa)
#
#
# Indices 1 2 3 4 5 6 
#
# 1 0.009188 0.001540 -0.005142 0.000000 0.000000 0.000000
# 2 0.001540 0.028604 -0.002215 0.000000 0.000000 0.000000
# 3 -0.005142 -0.002215 0.007782 0.000000 0.000000 0.000000
# 4 0.000000 0.000000 0.000000 -2.914823 0.000000 0.000000
# 5 0.000000 0.000000 0.000000 0.000000 -0.006592 0.000000
# 6 0.000000 0.000000 0.000000 0.000000 0.000000 0.030366
#
#
# Mechanical properties :
#
#
# Convention : Reuss Voigt Hill
#
# Bulk Modulus (GPa) = 29.46309 73.53051 51.49680
# Shear Modulus (GPa) = -1.77146 -4.37520 -3.07333
#
# Velocity S-wave (km/s) = -0.92129 -1.44787 -1.21348
# Velocity P-wave (km/s) = 3.60349 5.69526 4.76556
#
# Compressibility (1/GPa) = 0.03394077
#
# Stress axis : x y z
#
# Youngs Moduli (GPa) = 108.83459 34.95972 128.50038
#
# Poissons Ratio (x) = -0.05382 0.66073
# Poissons Ratio (y) = -0.16755 0.28457
# Poissons Ratio (z) = 0.55961 0.07742
#
# Static dielectric constant tensor:
#      x y z
#    x 1.729760 0.000000 0.000000 
#    y 0.000000 1.768260 0.000000 
#    z 0.000000 0.000000 1.771530 
# 
# From -- ./inp_files/25251.got.cif
#   From: 2010.05.17/outbox.cif.g08.bks.cpg/sg47_13_cif.got.tgz:25251.got - 2010.06.03 20:15:42.
