data_PCOD9385655
_publ_section_title
;
Structure prediction by ZEFSAII (Michael W. Deem and Ramdas Pophale) SiO2 
 PCOD9385655
Probable space group: P M M M
;
_chemical_formula_sum "Si O2"
_cell_formula_units_Z 64
_cell_length_a 7.667121
_cell_length_b 21.055024
_cell_length_c 20.706893
_cell_angle_alpha 90.000000
_cell_angle_beta 90.000000
_cell_angle_gamma 90.000000
_cell_volume 3342.743072
_symmetry_space_group_name_H-M "P M M M"
_symmetry_group_IT_number 47
_symmetry_cell_setting 'orthorhombic'
loop_
_space_group_symop_operation_xyz
x,y,z
-x,-y,z
x,-y,-z
-x,y,-z
-x,-y,-z
x,y,-z
-x,y,z
x,-y,z
loop_
_atom_site_type_symbol
_atom_site_label
_atom_site_fract_x
_atom_site_fract_y
_atom_site_fract_z
Si Si1 0.214128 0.753619 0.791575
Si Si2 0.295097 0.697522 0.426392
Si Si3 0.787146 0.395159 0.210711
Si Si4 0.800499 0.186328 0.337239
Si Si5 0.292200 0.070929 0.427896
Si Si6 0.791653 0.403199 0.929837
Si Si7 0.788766 0.431063 0.647076
Si Si8 0.208656 0.249770 0.931121
O O1 0.260752 0.679329 0.784157
O O2 0.281363 0.793863 0.731273
O O3 0.274402 0.775077 0.862579
O O4 0.000000 0.754158 0.791379
O O5 0.229028 0.697231 0.500000
O O6 0.500000 0.712871 0.428062
O O7 0.210292 0.751730 0.382699
O O8 0.272723 0.628992 0.393621
O O9 0.725755 0.422380 0.141358
O O10 0.731919 0.425806 0.278007
O O11 0.000000 0.398565 0.208556
O O12 0.737356 0.125652 0.376341
O O13 0.000000 0.172523 0.322706
O O14 0.225332 0.088050 0.500000
O O15 0.500000 0.066033 0.433092
O O16 0.225764 0.000000 0.411428
O O17 0.771616 0.326462 0.929475
O O18 0.000000 0.416671 0.930673
O O19 0.722376 0.425254 0.000000
O O20 0.734956 0.500000 0.621168
O O21 0.000000 0.428443 0.647138
O O22 0.000000 0.238667 0.932057
O O23 0.280802 0.227241 0.000000
#
# Coordination Sequence:
#
# PCOD9385655 Si02
#       8
#     8   8   8   8   8   8   8   8
#     4   8  13  21  36  60  91 122 149 184 230 274
#     4  11  24  39  53  69  91 120 154 193 238 288
#     4   8  12  22  38  57  86 118 147 182 227 277
#     4  11  20  31  51  78 105 128 154 193 237 279
#     4   9  19  36  54  71  97 134 169 197 228 271
#     4   7   9  13  26  50  79 113 147 175 210 262
#     4  10  20  34  52  71  90 116 152 195 244 294
#     4   7   9  14  26  48  81 119 152 178 212 265
#
# _framework density 19.145952000000001
#
# number of rings (size 3 to 8) (size 9 to 14) (size 15 to 20)
#    0.000    3.125    1.250    3.750    0.000    3.500 
#    0.000    1.875    0.000    0.375    0.000    2.625 
#    0.000    4.000    0.000    7.375    0.000    2.500 
#
# Total GULP energy -356519.658365 kJ/mol
# GULP energy per Si atom -5570.619662 kJ/mol
# Density = 1.910237 g / cm^3
# Si number density = 19.145952 Si / 1000 Ang^3
#
#
#
# Elastic Constant Matrix: (Units=GPa)
#
#
# Indices 1 2 3 4 5 6 
#
# 1 29.5470 0.2030 -0.3644 0.0000 0.0000 0.0000
# 2 0.2030 86.4938 61.8300 0.0000 0.0000 0.0000
# 3 -0.3644 61.8300 165.7855 0.0000 0.0000 0.0000
# 4 0.0000 0.0000 0.0000 38.7903 0.0000 0.0000
# 5 0.0000 0.0000 0.0000 0.0000 37.1204 0.0000
# 6 0.0000 0.0000 0.0000 0.0000 0.0000 20.0692
#
#
#
# Elastic Compliance Matrix: (Units=1/GPa)
#
#
# Indices 1 2 3 4 5 6 
#
# 1 0.033847 -0.000181 0.000142 0.000000 0.000000 0.000000
# 2 -0.000181 0.015765 -0.005880 0.000000 0.000000 0.000000
# 3 0.000142 -0.005880 0.008225 0.000000 0.000000 0.000000
# 4 0.000000 0.000000 0.000000 0.025780 0.000000 0.000000
# 5 0.000000 0.000000 0.000000 0.000000 0.026939 0.000000
# 6 0.000000 0.000000 0.000000 0.000000 0.000000 0.049828
#
#
# Mechanical properties :
#
#
# Convention : Reuss Voigt Hill
#
# Bulk Modulus (GPa) = 21.73928 45.01818 33.37873
# Shear Modulus (GPa) = 26.65871 33.87316 30.26593
#
# Velocity S-wave (km/s) = 3.73553 4.21076 3.98024
# Velocity P-wave (km/s) = 5.47583 6.87058 6.21247
#
# Compressibility (1/GPa) = 0.04599968
#
# Stress axis : x y z
#
# Youngs Moduli (GPa) = 29.54440 63.43026 121.57758
#
# Poissons Ratio (x) = 0.01147 -0.01724
# Poissons Ratio (y) = 0.00534 0.71489
# Poissons Ratio (z) = -0.00419 0.37298
#
# Static dielectric constant tensor:
#      x y z
#    x 1.732570 0.000000 0.000000 
#    y 0.000000 1.643670 0.000000 
#    z 0.000000 0.000000 1.741800 
# 
# From -- ./inp_files/30165.got.cif
#   From: 2010.05.17/outbox.cif.g08.bks.cpg/sg47_16_cif.got.tgz:30165.got - 2010.06.03 20:15:42.
