data_PCOD9385045
_publ_section_title
;
Structure prediction by ZEFSAII (Michael W. Deem and Ramdas Pophale) SiO2 
 PCOD9385045
Probable space group: P M M M
;
_chemical_formula_sum "Si O2"
_cell_formula_units_Z 48
_cell_length_a 8.148177
_cell_length_b 21.422936
_cell_length_c 14.860752
_cell_angle_alpha 90.000000
_cell_angle_beta 90.000000
_cell_angle_gamma 90.000000
_cell_volume 2594.061281
_symmetry_space_group_name_H-M "P M M M"
_symmetry_group_IT_number 47
_symmetry_cell_setting 'orthorhombic'
loop_
_space_group_symop_operation_xyz
x,y,z
-x,-y,z
x,-y,-z
-x,y,-z
-x,-y,-z
x,y,-z
-x,y,z
x,-y,z
loop_
_atom_site_type_symbol
_atom_site_label
_atom_site_fract_x
_atom_site_fract_y
_atom_site_fract_z
Si Si1 0.803478 0.068079 0.710060
Si Si2 0.302424 0.570371 0.602210
Si Si3 0.194849 0.688339 0.285980
Si Si4 0.697653 0.261459 0.900243
Si Si5 0.301575 0.883749 0.100868
Si Si6 0.798943 0.809501 0.395756
O O1 0.766527 0.078600 0.815226
O O2 0.741189 0.127605 0.654160
O O3 0.000000 0.067529 0.698525
O O4 0.739537 0.000000 0.681746
O O5 0.245424 0.584631 0.500000
O O6 0.500000 0.569018 0.600148
O O7 0.246060 0.500000 0.625170
O O8 0.251352 0.624044 0.670065
O O9 0.243491 0.697809 0.182654
O O10 0.259223 0.748091 0.342506
O O11 0.000000 0.690472 0.292109
O O12 0.500000 0.261617 0.900277
O O13 0.748519 0.188986 0.887578
O O14 0.753402 0.281266 0.000000
O O15 0.500000 0.886337 0.103795
O O16 0.251237 0.903729 0.000000
O O17 0.750034 0.807925 0.500000
O O18 0.000000 0.809521 0.393488
#
# Coordination Sequence:
#
# PCOD9385045 Si02
#       6
#     8   8   8   8   8   8
#     4  10  20  33  49  70  97 131 171 214 259 306
#     4   9  19  36  56  79 110 147 182 213 249 299
#     4  11  20  31  53  82 110 138 168 212 265 310
#     4   9  18  33  53  76 102 134 173 214 256 309
#     4   9  18  33  52  72  96 128 165 208 259 312
#     4   9  18  32  48  70 100 131 167 210 254 302
#
# _framework density 18.503803999999999
#
# number of rings (size 3 to 8) (size 9 to 14) (size 15 to 20)
#    0.000    2.500    1.667    2.500    0.000    3.000 
#    0.000    5.833    0.000    2.000    0.000    4.667 
#    0.000    0.000    0.000    0.000    0.000    0.000 
#
# Total GULP energy -267779.172906 kJ/mol
# GULP energy per Si atom -5578.732769 kJ/mol
# Density = 1.846169 g / cm^3
# Si number density = 18.503804 Si / 1000 Ang^3
#
#
#
# Elastic Constant Matrix: (Units=GPa)
#
#
# Indices 1 2 3 4 5 6 
#
# 1 8.5639 15.2831 7.0823 0.0000 0.0000 0.0000
# 2 15.2831 134.1679 86.7439 0.0000 0.0000 0.0000
# 3 7.0823 86.7439 129.9394 0.0000 0.0000 0.0000
# 4 0.0000 0.0000 0.0000 17.1033 0.0000 0.0000
# 5 0.0000 0.0000 0.0000 0.0000 19.0512 0.0000
# 6 0.0000 0.0000 0.0000 0.0000 0.0000 17.6608
#
#
#
# Elastic Compliance Matrix: (Units=1/GPa)
#
#
# Indices 1 2 3 4 5 6 
#
# 1 0.148878 -0.020606 0.005642 0.000000 0.000000 0.000000
# 2 -0.020606 0.015965 -0.009535 0.000000 0.000000 0.000000
# 3 0.005642 -0.009535 0.013754 0.000000 0.000000 0.000000
# 4 0.000000 0.000000 0.000000 0.058468 0.000000 0.000000
# 5 0.000000 0.000000 0.000000 0.000000 0.052490 0.000000
# 6 0.000000 0.000000 0.000000 0.000000 0.000000 0.056622
#
#
# Mechanical properties :
#
#
# Convention : Reuss Voigt Hill
#
# Bulk Modulus (GPa) = 7.71616 54.54332 31.12974
# Shear Modulus (GPa) = 11.40573 21.66719 16.53646
#
# Velocity S-wave (km/s) = 2.48543 3.42564 2.99269
# Velocity P-wave (km/s) = 3.52358 6.72216 5.36671
#
# Compressibility (1/GPa) = 0.12959815
#
# Stress axis : x y z
#
# Youngs Moduli (GPa) = 6.71689 62.63652 72.70861
#
# Poissons Ratio (x) = 1.29070 -0.41019
# Poissons Ratio (y) = 0.13841 0.69326
# Poissons Ratio (z) = -0.03789 0.59722
#
# Static dielectric constant tensor:
#      x y z
#    x 1.656390 0.000000 0.000000 
#    y 0.000000 1.643000 0.000000 
#    z 0.000000 0.000000 1.633160 
# 
# From -- ./inp_files/6339.got.cif
#   From: 2010.05.17/outbox.cif.g08.bks.cpg/sg47_4_cif.got.tgz:6339.got - 2010.06.03 20:15:42.
