data_PCOD9385879
_publ_section_title
;
Structure prediction by ZEFSAII (Michael W. Deem and Ramdas Pophale) SiO2 
 PCOD9385879
Probable space group: P M M M
;
_chemical_formula_sum "Si O2"
_cell_formula_units_Z 40
_cell_length_a 8.412532
_cell_length_b 15.219018
_cell_length_c 15.243197
_cell_angle_alpha 90.000000
_cell_angle_beta 90.000000
_cell_angle_gamma 90.000000
_cell_volume 1951.593767
_symmetry_space_group_name_H-M "P M M M"
_symmetry_group_IT_number 47
_symmetry_cell_setting 'orthorhombic'
loop_
_space_group_symop_operation_xyz
x,y,z
-x,-y,z
x,-y,-z
-x,y,-z
-x,-y,-z
x,y,-z
-x,y,z
x,-y,z
loop_
_atom_site_type_symbol
_atom_site_label
_atom_site_fract_x
_atom_site_fract_y
_atom_site_fract_z
Si Si1 0.313804 0.903050 0.137445
Si Si2 0.808112 0.500000 0.395945
Si Si3 0.677064 0.103738 0.500000
Si Si4 0.687627 0.661947 0.279521
Si Si5 0.182136 0.851033 0.314897
Si Si6 0.810688 0.291095 0.098166
O O1 0.500000 0.896631 0.115441
O O2 0.290884 0.897963 0.242594
O O3 0.230184 0.813522 0.105674
O O4 0.256291 0.000000 0.108070
O O5 0.763664 0.500000 0.500000
O O6 0.741459 0.583220 0.342079
O O7 0.000000 0.500000 0.391923
O O8 0.500000 0.144546 0.500000
O O9 0.770472 0.127222 0.412884
O O10 0.660177 0.000000 0.500000
O O11 0.500000 0.678165 0.290716
O O12 0.787954 0.747743 0.304429
O O13 0.724255 0.655272 0.175415
O O14 0.000000 0.873839 0.296170
O O15 0.000000 0.300365 0.109425
O O16 0.766319 0.319367 0.000000
#
# Coordination Sequence:
#
# PCOD9385879 Si02
#       6
#     8   4   4   8   8   8
#     4  10  20  34  53  79 114 156 202 252 304 356
#     4  11  25  45  70  97 128 159 195 242 293 354
#     4  11  23  37  53  76 109 150 199 251 299 351
#     4  11  23  41  65  92 124 158 196 244 297 358
#     4  11  22  36  56  80 112 153 198 245 299 358
#     4  10  21  38  61  88 120 160 205 252 303 360
#
# _framework density 20.496068999999999
#
# number of rings (size 3 to 8) (size 9 to 14) (size 15 to 20)
#    0.000    1.400    0.000    8.400    1.400    7.600 
#    0.000    2.500    0.000    3.000    0.000    0.000 
#    0.000    0.000    0.000    0.000    0.000    0.000 
#
# Total GULP energy -223432.808790 kJ/mol
# GULP energy per Si atom -5585.820220 kJ/mol
# Density = 2.044942 g / cm^3
# Si number density = 20.496069 Si / 1000 Ang^3
#
#
#
# Elastic Constant Matrix: (Units=GPa)
#
#
# Indices 1 2 3 4 5 6 
#
# 1 64.2720 -3.8616 12.9733 0.0000 0.0000 0.0000
# 2 -3.8616 62.1421 28.1688 0.0000 0.0000 0.0000
# 3 12.9733 28.1688 144.7100 0.0000 0.0000 0.0000
# 4 0.0000 0.0000 0.0000 9.7785 0.0000 0.0000
# 5 0.0000 0.0000 0.0000 0.0000 -923.9709 0.0000
# 6 0.0000 0.0000 0.0000 0.0000 0.0000 29.4587
#
#
#
# Elastic Compliance Matrix: (Units=1/GPa)
#
#
# Indices 1 2 3 4 5 6 
#
# 1 0.016028 0.001807 -0.001789 0.000000 0.000000 0.000000
# 2 0.001807 0.017853 -0.003637 0.000000 0.000000 0.000000
# 3 -0.001789 -0.003637 0.007779 0.000000 0.000000 0.000000
# 4 0.000000 0.000000 0.000000 0.102265 0.000000 0.000000
# 5 0.000000 0.000000 0.000000 0.000000 -0.001082 0.000000
# 6 0.000000 0.000000 0.000000 0.000000 0.000000 0.033946
#
#
# Mechanical properties :
#
#
# Convention : Reuss Voigt Hill
#
# Bulk Modulus (GPa) = 29.05100 38.40947 33.73023
# Shear Modulus (GPa) = 25.57530 -161.35717 -67.89094
#
# Velocity S-wave (km/s) = 3.53627 -8.88239 -5.76158
# Velocity P-wave (km/s) = 5.55683 9.29598 5.26957
#
# Compressibility (1/GPa) = 0.03442223
#
# Stress axis : x y z
#
# Youngs Moduli (GPa) = 62.38899 56.01245 128.55548
#
# Poissons Ratio (x) = -0.10120 0.22994
# Poissons Ratio (y) = -0.11273 0.46759
# Poissons Ratio (z) = 0.11159 0.20373
#
# Static dielectric constant tensor:
#      x y z
#    x 1.707100 0.000000 0.000000 
#    y 0.000000 1.727060 0.000000 
#    z 0.000000 0.000000 1.641950 
# 
# From -- ./inp_files/20713.got.cif
#   From: 2010.05.17/outbox.cif.g08.bks.cpg/sg47_11_cif.got.tgz:20713.got - 2010.06.03 20:15:42.
