data_PCOD9385757
_publ_section_title
;
Structure prediction by ZEFSAII (Michael W. Deem and Ramdas Pophale) SiO2 
 PCOD9385757
Probable space group: P M M M
;
_chemical_formula_sum "Si O2"
_cell_formula_units_Z 44
_cell_length_a 7.619185
_cell_length_b 17.770932
_cell_length_c 16.076902
_cell_angle_alpha 90.000000
_cell_angle_beta 90.000000
_cell_angle_gamma 90.000000
_cell_volume 2176.812829
_symmetry_space_group_name_H-M "P M M M"
_symmetry_group_IT_number 47
_symmetry_cell_setting 'orthorhombic'
loop_
_space_group_symop_operation_xyz
x,y,z
-x,-y,z
x,-y,-z
-x,y,-z
-x,-y,-z
x,y,-z
-x,y,z
x,-y,z
loop_
_atom_site_type_symbol
_atom_site_label
_atom_site_fract_x
_atom_site_fract_y
_atom_site_fract_z
Si Si1 0.786650 0.213816 0.911061
Si Si2 0.785436 0.085394 0.405294
Si Si3 0.705638 0.390673 0.909856
Si Si4 0.791846 0.500000 0.594506
Si Si5 0.791509 0.799576 0.731263
Si Si6 0.708238 0.624125 0.729655
O O1 0.721864 0.299988 0.910599
O O2 0.724540 0.180441 0.823770
O O3 0.000000 0.216151 0.909445
O O4 0.733647 0.179790 0.000000
O O5 0.729425 0.100138 0.500000
O O6 0.719969 0.147820 0.341239
O O7 0.000000 0.087003 0.405834
O O8 0.734896 0.000000 0.382679
O O9 0.500000 0.411827 0.911011
O O10 0.779467 0.409085 0.818009
O O11 0.780664 0.415212 0.000000
O O12 0.718808 0.500000 0.500000
O O13 0.744494 0.572113 0.650668
O O14 0.000000 0.500000 0.587161
O O15 0.767184 0.710266 0.717755
O O16 0.000000 0.812449 0.732751
O O17 0.500000 0.626783 0.740717
#
# Coordination Sequence:
#
# PCOD9385757 Si02
#       6
#     8   8   8   4   8   8
#     4   8  13  21  35  58  88 120 152 186 224 265
#     4   8  14  25  42  65  91 118 151 192 235 278
#     4   8  14  26  45  69  96 124 152 182 221 273
#     4  11  25  43  58  69  88 124 165 201 238 281
#     4   9  16  27  46  70  94 122 157 194 230 274
#     4  10  20  34  53  76 100 125 156 196 239 281
#
# _framework density 20.213038000000001
#
# number of rings (size 3 to 8) (size 9 to 14) (size 15 to 20)
#    0.000    3.182    0.000    1.364    0.000    2.182 
#    0.000    2.273    0.000    3.818    0.000    5.091 
#    0.000    0.000    0.000   29.455    0.000   13.818 
#
# Total GULP energy -245002.523757 kJ/mol
# GULP energy per Si atom -5568.239176 kJ/mol
# Density = 2.016703 g / cm^3
# Si number density = 20.213038 Si / 1000 Ang^3
#
#
#
# Elastic Constant Matrix: (Units=GPa)
#
#
# Indices 1 2 3 4 5 6 
#
# 1 41.1042 -2.3140 2.8252 0.0000 0.0000 0.0000
# 2 -2.3140 92.8097 101.8065 0.0000 0.0000 0.0000
# 3 2.8252 101.8065 229.6445 0.0000 0.0000 0.0000
# 4 0.0000 0.0000 0.0000 544.1976 0.0000 0.0000
# 5 0.0000 0.0000 0.0000 0.0000 8.9799 0.0000
# 6 0.0000 0.0000 0.0000 0.0000 0.0000 35.9795
#
#
#
# Elastic Compliance Matrix: (Units=1/GPa)
#
#
# Indices 1 2 3 4 5 6 
#
# 1 0.024508 0.001833 -0.001114 0.000000 0.000000 0.000000
# 2 0.001833 0.021112 -0.009382 0.000000 0.000000 0.000000
# 3 -0.001114 -0.009382 0.008527 0.000000 0.000000 0.000000
# 4 0.000000 0.000000 0.000000 0.001838 0.000000 0.000000
# 5 0.000000 0.000000 0.000000 0.000000 0.111360 0.000000
# 6 0.000000 0.000000 0.000000 0.000000 0.000000 0.027794
#
#
# Mechanical properties :
#
#
# Convention : Reuss Voigt Hill
#
# Bulk Modulus (GPa) = 27.15780 63.13266 45.14523
# Shear Modulus (GPa) = 22.24809 135.24745 78.74777
#
# Velocity S-wave (km/s) = 3.32125 8.18879 6.24848
# Velocity P-wave (km/s) = 5.30778 10.98680 8.62793
#
# Compressibility (1/GPa) = 0.03682184
#
# Stress axis : x y z
#
# Youngs Moduli (GPa) = 40.80266 47.36696 117.26832
#
# Poissons Ratio (x) = -0.08684 0.13067
# Poissons Ratio (y) = -0.07481 1.10020
# Poissons Ratio (z) = 0.04547 0.44439
#
# Static dielectric constant tensor:
#      x y z
#    x 1.752780 0.000000 0.000000 
#    y 0.000000 1.657500 0.000000 
#    z 0.000000 0.000000 1.803140 
# 
# From -- ./inp_files/20910.got.cif
#   From: 2010.05.17/outbox.cif.g08.bks.cpg/sg47_11_cif.got.tgz:20910.got - 2010.06.03 20:15:42.
