data_PCOD9385713
_publ_section_title
;
Structure prediction by ZEFSAII (Michael W. Deem and Ramdas Pophale) SiO2 
 PCOD9385713
Probable space group: P M M M
;
_chemical_formula_sum "Si O2"
_cell_formula_units_Z 64
_cell_length_a 8.587929
_cell_length_b 14.627683
_cell_length_c 27.163119
_cell_angle_alpha 90.000000
_cell_angle_beta 90.000000
_cell_angle_gamma 90.000000
_cell_volume 3412.271836
_symmetry_space_group_name_H-M "P M M M"
_symmetry_group_IT_number 47
_symmetry_cell_setting 'orthorhombic'
loop_
_space_group_symop_operation_xyz
x,y,z
-x,-y,z
x,-y,-z
-x,y,-z
-x,-y,-z
x,y,-z
-x,y,z
x,-y,z
loop_
_atom_site_type_symbol
_atom_site_label
_atom_site_fract_x
_atom_site_fract_y
_atom_site_fract_z
Si Si1 0.187740 0.393694 0.443992
Si Si2 0.812763 0.709965 0.839606
Si Si3 0.817028 0.293716 0.054837
Si Si4 0.686045 0.103965 0.799024
Si Si5 0.676377 0.899382 0.058822
Si Si6 0.686082 0.718667 0.352931
Si Si7 0.311897 0.606068 0.255904
Si Si8 0.814610 0.103988 0.310352
O O1 0.233271 0.369137 0.500000
O O2 0.230985 0.500000 0.435929
O O3 0.260837 0.331533 0.402194
O O4 0.000000 0.388157 0.441181
O O5 0.756451 0.669720 0.892595
O O6 0.755265 0.814081 0.831028
O O7 0.753444 0.652395 0.793250
O O8 0.000000 0.710029 0.840043
O O9 0.791611 0.185210 0.063367
O O10 0.000000 0.314651 0.052307
O O11 0.750286 0.315871 0.000000
O O12 0.500000 0.106874 0.802356
O O13 0.735355 0.121097 0.742555
O O14 0.737960 0.000000 0.810736
O O15 0.500000 0.879394 0.077591
O O16 0.723500 0.000000 0.077316
O O17 0.661815 0.907531 0.000000
O O18 0.500000 0.724069 0.351434
O O19 0.738335 0.660664 0.304819
O O20 0.756670 0.819261 0.347389
O O21 0.500000 0.610479 0.253824
O O22 0.265677 0.500000 0.259202
O O23 0.000000 0.110624 0.303866
O O24 0.776442 0.000000 0.325213
#
# Coordination Sequence:
#
# PCOD9385713 Si02
#       8
#     8   8   8   8   8   8   8   8
#     4   9  19  36  57  83 118 160 203 245 288 333
#     4  11  22  35  54  78 104 137 176 219 271 328
#     4   9  19  34  49  67  93 126 166 212 261 316
#     4  10  20  34  52  75 106 144 182 220 267 322
#     4   8  14  25  41  62  88 118 155 198 242 293
#     4  11  21  34  57  87 118 153 190 228 277 334
#     4  10  22  39  57  80 111 143 174 215 271 331
#     4  10  20  34  54  81 113 149 190 233 275 323
#
# _framework density 18.755832999999999
#
# number of rings (size 3 to 8) (size 9 to 14) (size 15 to 20)
#    0.000    2.250    1.250    2.625    0.000    5.000 
#    0.000    4.375    0.000    0.750    0.000    5.250 
#    0.000    0.000    0.000    0.000    0.000    0.000 
#
# Total GULP energy -356915.112729 kJ/mol
# GULP energy per Si atom -5576.798636 kJ/mol
# Density = 1.871314 g / cm^3
# Si number density = 18.755833 Si / 1000 Ang^3
#
#
#
# Elastic Constant Matrix: (Units=GPa)
#
#
# Indices 1 2 3 4 5 6 
#
# 1 20.5643 19.8430 22.9776 0.0000 0.0000 0.0000
# 2 19.8430 75.7517 60.8016 0.0000 0.0000 0.0000
# 3 22.9776 60.8016 141.0589 0.0000 0.0000 0.0000
# 4 0.0000 0.0000 0.0000 -1.6734 0.0000 0.0000
# 5 0.0000 0.0000 0.0000 0.0000 -32.9664 0.0000
# 6 0.0000 0.0000 0.0000 0.0000 0.0000 21.8092
#
#
#
# Elastic Compliance Matrix: (Units=1/GPa)
#
#
# Indices 1 2 3 4 5 6 
#
# 1 0.067442 -0.013529 -0.005154 0.000000 0.000000 0.000000
# 2 -0.013529 0.022898 -0.007666 0.000000 0.000000 0.000000
# 3 -0.005154 -0.007666 0.011233 0.000000 0.000000 0.000000
# 4 0.000000 0.000000 0.000000 -0.597588 0.000000 0.000000
# 5 0.000000 0.000000 0.000000 0.000000 -0.030334 0.000000
# 6 0.000000 0.000000 0.000000 0.000000 0.000000 0.045852
#
#
# Mechanical properties :
#
#
# Convention : Reuss Voigt Hill
#
# Bulk Modulus (GPa) = 20.46082 49.40214 34.93148
# Shear Modulus (GPa) = -12.15050 6.35072 -2.89989
#
# Velocity S-wave (km/s) = -2.54800 1.84210 -1.24478
# Velocity P-wave (km/s) = 1.50874 5.56069 4.07416
#
# Compressibility (1/GPa) = 0.04887388
#
# Stress axis : x y z
#
# Youngs Moduli (GPa) = 14.82763 43.67162 89.02179
#
# Poissons Ratio (x) = 0.59084 0.45884
# Poissons Ratio (y) = 0.20061 0.68245
# Poissons Ratio (z) = 0.07642 0.33479
#
# Static dielectric constant tensor:
#      x y z
#    x 1.644160 0.000000 0.000000 
#    y 0.000000 1.660530 0.000000 
#    z 0.000000 0.000000 1.679600 
# 
# From -- ./inp_files/32107.got.cif
#   From: 2010.05.17/outbox.cif.g08.bks.cpg/sg47_17_cif.got.tgz:32107.got - 2010.06.03 20:15:42.
