data_PCOD9385230
_publ_section_title
;
Structure prediction by ZEFSAII (Michael W. Deem and Ramdas Pophale) SiO2 
 PCOD9385230
Probable space group: P M M M
;
_chemical_formula_sum "Si O2"
_cell_formula_units_Z 48
_cell_length_a 9.022568
_cell_length_b 9.292246
_cell_length_c 32.047525
_cell_angle_alpha 90.000000
_cell_angle_beta 90.000000
_cell_angle_gamma 90.000000
_cell_volume 2686.861977
_symmetry_space_group_name_H-M "P M M M"
_symmetry_group_IT_number 47
_symmetry_cell_setting 'orthorhombic'
loop_
_space_group_symop_operation_xyz
x,y,z
-x,-y,z
x,-y,-z
-x,y,-z
-x,-y,-z
x,y,-z
-x,y,z
x,-y,z
loop_
_atom_site_type_symbol
_atom_site_label
_atom_site_fract_x
_atom_site_fract_y
_atom_site_fract_z
Si Si1 0.180413 0.834086 0.755709
Si Si2 0.828950 0.675149 0.500000
Si Si3 0.678965 0.168469 0.916076
Si Si4 0.825741 0.173157 0.337403
Si Si5 0.675911 0.329677 0.585668
Si Si6 0.820870 0.332394 0.161558
Si Si7 0.680445 0.334186 0.000000
O O1 0.226706 0.786082 0.709337
O O2 0.226478 0.735042 0.794087
O O3 0.000000 0.834838 0.754764
O O4 0.226998 0.000000 0.762466
O O5 0.822317 0.500000 0.500000
O O6 0.750141 0.722194 0.457424
O O7 0.000000 0.718491 0.500000
O O8 0.500000 0.178641 0.913216
O O9 0.750649 0.243388 0.876110
O O10 0.717844 0.000000 0.918197
O O11 0.726250 0.250678 0.958229
O O12 0.737762 0.247091 0.374420
O O13 0.000000 0.210421 0.341249
O O14 0.814337 0.000000 0.339887
O O15 0.500000 0.313441 0.582447
O O16 0.709371 0.500000 0.590208
O O17 0.780097 0.500000 0.158702
O O18 0.000000 0.322041 0.159298
O O19 0.730082 0.500000 0.000000
O O20 0.500000 0.334932 0.000000
#
# Coordination Sequence:
#
# PCOD9385230 Si02
#       7
#     8   4   8   8   8   8   4
#     4   8  15  30  51  72  96 129 167 205 246 294
#     4   9  17  31  52  75  98 129 170 212 252 295
#     4  10  20  34  53  76 101 132 171 210 249 300
#     4   9  18  33  53  76 100 128 166 209 249 293
#     4  10  20  33  50  74 104 135 166 203 250 302
#     4  10  20  33  51  77 106 134 166 207 255 303
#     4   9  17  31  52  75 100 131 166 208 258 305
#
# _framework density 17.864706000000002
#
# number of rings (size 3 to 8) (size 9 to 14) (size 15 to 20)
#    0.000    2.667    0.000    3.000    0.000    6.000 
#    0.000    3.333    0.000    6.000    0.000    0.000 
#    0.000    0.000    0.000    0.000    0.000    0.000 
#
# Total GULP energy -267727.899878 kJ/mol
# GULP energy per Si atom -5577.664581 kJ/mol
# Density = 1.782405 g / cm^3
# Si number density = 17.864706 Si / 1000 Ang^3
#
#
#
# Elastic Constant Matrix: (Units=GPa)
#
#
# Indices 1 2 3 4 5 6 
#
# 1 20.6388 34.6070 46.9519 0.0000 0.0000 0.0000
# 2 34.6070 101.3991 94.5638 0.0000 0.0000 0.0000
# 3 46.9519 94.5638 204.9065 0.0000 0.0000 0.0000
# 4 0.0000 0.0000 0.0000 37.6927 0.0000 0.0000
# 5 0.0000 0.0000 0.0000 0.0000 57.7945 0.0000
# 6 0.0000 0.0000 0.0000 0.0000 0.0000 22.7813
#
#
#
# Elastic Compliance Matrix: (Units=1/GPa)
#
#
# Indices 1 2 3 4 5 6 
#
# 1 0.143230 -0.032086 -0.018012 0.000000 0.000000 0.000000
# 2 -0.032086 0.024501 -0.003955 0.000000 0.000000 0.000000
# 3 -0.018012 -0.003955 0.010833 0.000000 0.000000 0.000000
# 4 0.000000 0.000000 0.000000 0.026530 0.000000 0.000000
# 5 0.000000 0.000000 0.000000 0.000000 0.017303 0.000000
# 6 0.000000 0.000000 0.000000 0.000000 0.000000 0.043896
#
#
# Mechanical properties :
#
#
# Convention : Reuss Voigt Hill
#
# Bulk Modulus (GPa) = 14.19283 75.46553 44.82918
# Shear Modulus (GPa) = 12.56645 33.70850 23.13748
#
# Velocity S-wave (km/s) = 2.65509 4.34853 3.60272
# Velocity P-wave (km/s) = 4.16668 8.21873 6.51570
#
# Compressibility (1/GPa) = 0.07045811
#
# Stress axis : x y z
#
# Youngs Moduli (GPa) = 6.98178 40.81407 92.31234
#
# Poissons Ratio (x) = 1.30956 1.66272
# Poissons Ratio (y) = 0.22402 0.36511
# Poissons Ratio (z) = 0.12575 0.16143
#
# Static dielectric constant tensor:
#      x y z
#    x 1.601990 0.000000 0.000000 
#    y 0.000000 1.598890 0.000000 
#    z 0.000000 0.000000 1.594750 
# 
# From -- ./inp_files/34127.got.cif
#   From: 2010.05.17/outbox.cif.g08.bks.cpg/sg47_18_cif.got.tgz:34127.got - 2010.06.03 20:15:42.
