data_PCOD9385499
_publ_section_title
;
Structure prediction by ZEFSAII (Michael W. Deem and Ramdas Pophale) SiO2 
 PCOD9385499
Probable space group: P M M M
;
_chemical_formula_sum "Si O2"
_cell_formula_units_Z 44
_cell_length_a 31.521616
_cell_length_b 7.782743
_cell_length_c 9.761196
_cell_angle_alpha 90.000000
_cell_angle_beta 90.000000
_cell_angle_gamma 90.000000
_cell_volume 2394.661858
_symmetry_space_group_name_H-M "P M M M"
_symmetry_group_IT_number 47
_symmetry_cell_setting 'orthorhombic'
loop_
_space_group_symop_operation_xyz
x,y,z
-x,-y,z
x,-y,-z
-x,y,-z
-x,-y,-z
x,y,-z
-x,y,z
x,-y,z
loop_
_atom_site_type_symbol
_atom_site_label
_atom_site_fract_x
_atom_site_fract_y
_atom_site_fract_z
Si Si1 0.110182 0.194455 0.838142
Si Si2 0.637701 0.294627 0.843947
Si Si3 0.951653 0.500000 0.166570
Si Si4 0.285504 0.710044 0.342290
Si Si5 0.190134 0.707785 0.660124
Si Si6 0.454310 0.793219 0.160141
O O1 0.075340 0.333006 0.792693
O O2 0.153273 0.218348 0.753769
O O3 0.094511 0.000000 0.822275
O O4 0.118725 0.223733 0.000000
O O5 0.642527 0.500000 0.852349
O O6 0.676567 0.228102 0.753743
O O7 0.590945 0.262500 0.781982
O O8 0.638768 0.225633 0.000000
O O9 0.000000 0.500000 0.216457
O O10 0.953365 0.500000 0.000000
O O11 0.291888 0.762265 0.500000
O O12 0.285863 0.500000 0.341004
O O13 0.237921 0.761432 0.299441
O O14 0.184251 0.753321 0.500000
O O15 0.188157 0.500000 0.669357
O O16 0.500000 0.734807 0.218348
O O17 0.454578 0.000000 0.161649
O O18 0.453834 0.737652 0.000000
#
# Coordination Sequence:
#
# PCOD9385499 Si02
#       6
#     8   8   4   8   8   8
#     4  10  20  33  52  80 109 137 173 215 257 301
#     4   9  16  25  40  65  90 110 141 186 231 271
#     4   9  18  34  55  79 109 143 175 211 258 305
#     4   8  15  28  45  65  90 122 156 186 225 283
#     4   9  17  31  52  74  97 132 174 209 248 300
#     4   8  14  25  40  57  79 109 142 176 221 276
#
# _framework density 18.374202
#
# number of rings (size 3 to 8) (size 9 to 14) (size 15 to 20)
#    0.000    3.182    0.909    1.636    0.000    1.818 
#    0.000    6.364    0.000    5.455    0.000    5.091 
#    0.000    0.000    0.000    0.000    0.000    0.000 
#
# Total GULP energy -245061.841958 kJ/mol
# GULP energy per Si atom -5569.587317 kJ/mol
# Density = 1.833238 g / cm^3
# Si number density = 18.374202 Si / 1000 Ang^3
#
#
#
# Elastic Constant Matrix: (Units=GPa)
#
#
# Indices 1 2 3 4 5 6 
#
# 1 195.9651 48.2964 63.7407 0.0000 0.0000 0.0000
# 2 48.2964 51.3156 23.6815 0.0000 0.0000 0.0000
# 3 63.7407 23.6815 35.2824 0.0000 0.0000 0.0000
# 4 0.0000 0.0000 0.0000 9.3968 0.0000 0.0000
# 5 0.0000 0.0000 0.0000 0.0000 -14.3150 0.0000
# 6 0.0000 0.0000 0.0000 0.0000 0.0000 -66.6211
#
#
#
# Elastic Compliance Matrix: (Units=1/GPa)
#
#
# Indices 1 2 3 4 5 6 
#
# 1 0.012507 -0.001947 -0.021289 0.000000 0.000000 0.000000
# 2 -0.001947 0.028535 -0.015636 0.000000 0.000000 0.000000
# 3 -0.021289 -0.015636 0.077297 0.000000 0.000000 0.000000
# 4 0.000000 0.000000 0.000000 0.106419 0.000000 0.000000
# 5 0.000000 0.000000 0.000000 0.000000 -0.069857 0.000000
# 6 0.000000 0.000000 0.000000 0.000000 0.000000 -0.015010
#
#
# Mechanical properties :
#
#
# Convention : Reuss Voigt Hill
#
# Bulk Modulus (GPa) = 24.63212 61.55559 43.09385
# Shear Modulus (GPa) = 21.62940 -4.51823 8.55559
#
# Velocity S-wave (km/s) = 3.43470 -1.56982 2.16019
# Velocity P-wave (km/s) = 5.40041 5.50346 5.45218
#
# Compressibility (1/GPa) = 0.04059740
#
# Stress axis : x y z
#
# Youngs Moduli (GPa) = 79.95365 35.04441 12.93707
#
# Poissons Ratio (x) = 0.06823 0.27541
# Poissons Ratio (y) = 0.15566 0.20228
# Poissons Ratio (z) = 1.70211 0.54794
#
# Static dielectric constant tensor:
#      x y z
#    x 1.641910 0.000000 0.000000 
#    y 0.000000 1.670990 0.000000 
#    z 0.000000 0.000000 1.612100 
# 
# From -- ./inp_files/13581.got.cif
#   From: 2010.05.17/outbox.cif.g08.bks.cpg/sg47_7_cif.got.tgz:13581.got - 2010.06.03 20:15:42.
