data_PCOD9385342
_publ_section_title
;
Structure prediction by ZEFSAII (Michael W. Deem and Ramdas Pophale) SiO2 
 PCOD9385342
Probable space group: P M M M
;
_chemical_formula_sum "Si O2"
_cell_formula_units_Z 52
_cell_length_a 23.828897
_cell_length_b 14.608112
_cell_length_c 8.637451
_cell_angle_alpha 90.000000
_cell_angle_beta 90.000000
_cell_angle_gamma 90.000000
_cell_volume 3006.655201
_symmetry_space_group_name_H-M "P M M M"
_symmetry_group_IT_number 47
_symmetry_cell_setting 'orthorhombic'
loop_
_space_group_symop_operation_xyz
x,y,z
-x,-y,z
x,-y,-z
-x,y,-z
-x,-y,-z
x,y,-z
-x,y,z
x,-y,z
loop_
_atom_site_type_symbol
_atom_site_label
_atom_site_fract_x
_atom_site_fract_y
_atom_site_fract_z
Si Si1 0.718882 0.395787 0.185103
Si Si2 0.327840 0.785460 0.314182
Si Si3 0.109331 0.794141 0.685516
Si Si4 0.220099 0.892129 0.185331
Si Si5 0.000000 0.894133 0.185434
Si Si6 0.155474 0.397154 0.686781
Si Si7 0.436969 0.894350 0.311516
O O1 0.703064 0.500000 0.226792
O O2 0.680687 0.318370 0.260126
O O3 0.782798 0.381945 0.242668
O O4 0.717865 0.386918 0.000000
O O5 0.325358 0.789853 0.500000
O O6 0.275911 0.843267 0.247065
O O7 0.386467 0.829660 0.260446
O O8 0.105900 0.798266 0.500000
O O9 0.165518 0.845530 0.740527
O O10 0.055248 0.842631 0.755812
O O11 0.116187 0.687423 0.732224
O O12 0.221302 0.000000 0.222224
O O13 0.217169 0.881681 0.000000
O O14 0.000000 0.000000 0.238985
O O15 0.000000 0.894476 0.000000
O O16 0.160936 0.394823 0.500000
O O17 0.136821 0.500000 0.730758
O O18 0.437101 0.893155 0.500000
O O19 0.500000 0.868421 0.261151
O O20 0.426717 0.000000 0.265437
#
# Coordination Sequence:
#
# PCOD9385342 Si02
#       7
#     8   8   8   8   4   8   8
#     4  10  20  33  51  76 107 143 179 216 264 323
#     4  11  20  31  52  81 108 137 176 223 273 322
#     4  11  22  37  59  84 107 138 179 225 270 316
#     4  11  23  36  51  75 110 146 176 215 269 323
#     4  11  25  43  60  77 104 146 187 223 268 323
#     4   9  18  34  56  82 110 138 171 215 268 321
#     4   8  15  29  49  74 105 140 178 221 268 318
#
# _framework density 17.294967
#
# number of rings (size 3 to 8) (size 9 to 14) (size 15 to 20)
#    0.000    1.923    1.538    3.462    0.000    5.846 
#    0.000    0.385    0.000    4.615    0.000    8.615 
#    0.000    0.000    0.000    0.000    0.000    0.000 
#
# Total GULP energy -290285.626285 kJ/mol
# GULP energy per Si atom -5582.415890 kJ/mol
# Density = 1.725560 g / cm^3
# Si number density = 17.294967 Si / 1000 Ang^3
#
#
#
# Elastic Constant Matrix: (Units=GPa)
#
#
# Indices 1 2 3 4 5 6 
#
# 1 142.9323 97.7439 28.3909 0.0000 0.0000 0.0000
# 2 97.7439 158.3318 41.8716 0.0000 0.0000 0.0000
# 3 28.3909 41.8716 29.7670 0.0000 0.0000 0.0000
# 4 0.0000 0.0000 0.0000 25.8965 0.0000 0.0000
# 5 0.0000 0.0000 0.0000 0.0000 -117.8924 0.0000
# 6 0.0000 0.0000 0.0000 0.0000 0.0000 30.2521
#
#
#
# Elastic Compliance Matrix: (Units=1/GPa)
#
#
# Indices 1 2 3 4 5 6 
#
# 1 0.012159 -0.007069 -0.001653 0.000000 0.000000 0.000000
# 2 -0.007069 0.014167 -0.013185 0.000000 0.000000 0.000000
# 3 -0.001653 -0.013185 0.053718 0.000000 0.000000 0.000000
# 4 0.000000 0.000000 0.000000 0.038615 0.000000 0.000000
# 5 0.000000 0.000000 0.000000 0.000000 -0.008482 0.000000
# 6 0.000000 0.000000 0.000000 0.000000 0.000000 0.033056
#
#
# Mechanical properties :
#
#
# Convention : Reuss Voigt Hill
#
# Bulk Modulus (GPa) = 27.60251 74.11599 50.85925
# Shear Modulus (GPa) = 25.11006 -1.48045 11.81481
#
# Velocity S-wave (km/s) = 3.81448 -0.92621 2.61652
# Velocity P-wave (km/s) = 5.94935 6.46555 6.21281
#
# Compressibility (1/GPa) = 0.03622859
#
# Stress axis : x y z
#
# Youngs Moduli (GPa) = 82.24578 70.58866 18.61561
#
# Poissons Ratio (x) = 0.49897 0.03078
# Poissons Ratio (y) = 0.58137 0.24545
# Poissons Ratio (z) = 0.13598 0.93074
#
# Static dielectric constant tensor:
#      x y z
#    x 1.552710 0.000000 0.000000 
#    y 0.000000 1.603350 0.000000 
#    z 0.000000 0.000000 1.583960 
# 
# From -- ./inp_files/11038.got.cif
#   From: 2010.05.17/outbox.cif.g08.bks.cpg/sg47_6_cif.got.tgz:11038.got - 2010.06.03 20:15:42.
