data_PCOD9385205
_publ_section_title
;
Structure prediction by ZEFSAII (Michael W. Deem and Ramdas Pophale) SiO2 
 PCOD9385205
Probable space group: P M M M
;
_chemical_formula_sum "Si O2"
_cell_formula_units_Z 36
_cell_length_a 23.897942
_cell_length_b 10.139341
_cell_length_c 8.497600
_cell_angle_alpha 90.000000
_cell_angle_beta 90.000000
_cell_angle_gamma 90.000000
_cell_volume 2059.048214
_symmetry_space_group_name_H-M "P M M M"
_symmetry_group_IT_number 47
_symmetry_cell_setting 'orthorhombic'
loop_
_space_group_symop_operation_xyz
x,y,z
-x,-y,z
x,-y,-z
-x,y,-z
-x,-y,-z
x,y,-z
-x,y,z
x,-y,z
loop_
_atom_site_type_symbol
_atom_site_label
_atom_site_fract_x
_atom_site_fract_y
_atom_site_fract_z
Si Si1 0.936842 0.151854 0.307988
Si Si2 0.500000 0.840270 0.681930
Si Si3 0.159329 0.651227 0.308005
Si Si4 0.713623 0.651857 0.689938
Si Si5 0.380445 0.848147 0.187662
O O1 0.936241 0.154253 0.500000
O O2 0.888353 0.249200 0.252268
O O3 0.000000 0.189713 0.259825
O O4 0.927024 0.000000 0.261268
O O5 0.500000 0.802069 0.500000
O O6 0.558240 0.798592 0.759663
O O7 0.500000 0.000000 0.692775
O O8 0.158828 0.653620 0.500000
O O9 0.148147 0.500000 0.261152
O O10 0.222768 0.685797 0.260002
O O11 0.712544 0.654355 0.500000
O O12 0.702483 0.500000 0.738663
O O13 0.668086 0.753444 0.751506
O O14 0.373338 0.000000 0.245660
O O15 0.379120 0.851363 0.000000
#
# Coordination Sequence:
#
# PCOD9385205 Si02
#       5
#     8   4   8   8   8
#     4   8  13  20  30  48  77 111 145 182 225 272
#     4   9  17  31  52  75  98 125 156 190 230 275
#     4   8  14  24  37  54  78 110 148 188 228 270
#     4   9  18  32  48  67  93 124 159 199 239 279
#     4  10  20  33  50  73  99 125 155 192 233 278
#
# _framework density 17.483806999999999
#
# number of rings (size 3 to 8) (size 9 to 14) (size 15 to 20)
#    0.000    3.222    0.000    3.000    0.000    4.444 
#    0.000    5.000    0.000    3.333    0.000    0.000 
#    0.000    0.889    0.000    9.778    0.000   16.000 
#
# Total GULP energy -200513.135740 kJ/mol
# GULP energy per Si atom -5569.809326 kJ/mol
# Density = 1.744401 g / cm^3
# Si number density = 17.483807 Si / 1000 Ang^3
#
#
#
# Elastic Constant Matrix: (Units=GPa)
#
#
# Indices 1 2 3 4 5 6 
#
# 1 202.4467 124.0880 26.8591 0.0000 0.0000 0.0000
# 2 124.0880 98.2651 17.9860 0.0000 0.0000 0.0000
# 3 26.8591 17.9860 10.2565 0.0000 0.0000 0.0000
# 4 0.0000 0.0000 0.0000 13.0020 0.0000 0.0000
# 5 0.0000 0.0000 0.0000 0.0000 -14.7450 0.0000
# 6 0.0000 0.0000 0.0000 0.0000 0.0000 -115.5161
#
#
#
# Elastic Compliance Matrix: (Units=1/GPa)
#
#
# Indices 1 2 3 4 5 6 
#
# 1 0.023105 -0.026658 -0.013756 0.000000 0.000000 0.000000
# 2 -0.026658 0.045746 -0.010409 0.000000 0.000000 0.000000
# 3 -0.013756 -0.010409 0.151778 0.000000 0.000000 0.000000
# 4 0.000000 0.000000 0.000000 0.076911 0.000000 0.000000
# 5 0.000000 0.000000 0.000000 0.000000 -0.067819 0.000000
# 6 0.000000 0.000000 0.000000 0.000000 0.000000 -0.008657
#
#
# Mechanical properties :
#
#
# Convention : Reuss Voigt Hill
#
# Bulk Modulus (GPa) = 8.40479 72.09272 40.24875
# Shear Modulus (GPa) = 13.79801 -13.98281 -0.09240
#
# Velocity S-wave (km/s) = 2.81230 -2.83107 -0.23014
# Velocity P-wave (km/s) = 3.91956 5.53506 4.79583
#
# Compressibility (1/GPa) = 0.11897984
#
# Stress axis : x y z
#
# Youngs Moduli (GPa) = 43.28119 21.85994 6.58859
#
# Poissons Ratio (x) = 0.58275 0.09064
# Poissons Ratio (y) = 1.15381 0.06858
# Poissons Ratio (z) = 0.59539 0.22755
#
# Static dielectric constant tensor:
#      x y z
#    x 1.589610 0.000000 0.000000 
#    y 0.000000 1.585290 0.000000 
#    z 0.000000 0.000000 1.593100 
# 
# From -- ./inp_files/1418.got.cif
#   From: 2010.05.17/outbox.cif.g08.bks.cpg/sg47_1_cif.got.tgz:1418.got - 2010.06.03 20:15:42.
