data_PCOD9385060
_publ_section_title
;
Structure prediction by ZEFSAII (Michael W. Deem and Ramdas Pophale) SiO2 
 PCOD9385060
Probable space group: P M M M
;
_chemical_formula_sum "Si O2"
_cell_formula_units_Z 48
_cell_length_a 8.059060
_cell_length_b 34.379848
_cell_length_c 9.149739
_cell_angle_alpha 90.000000
_cell_angle_beta 90.000000
_cell_angle_gamma 90.000000
_cell_volume 2535.111394
_symmetry_space_group_name_H-M "P M M M"
_symmetry_group_IT_number 47
_symmetry_cell_setting 'orthorhombic'
loop_
_space_group_symop_operation_xyz
x,y,z
-x,-y,z
x,-y,-z
-x,y,-z
-x,-y,-z
x,y,-z
-x,y,z
x,-y,z
loop_
_atom_site_type_symbol
_atom_site_label
_atom_site_fract_x
_atom_site_fract_y
_atom_site_fract_z
Si Si1 0.802493 0.255915 0.664447
Si Si2 0.198139 0.500000 0.822440
Si Si3 0.699200 0.178817 0.834719
Si Si4 0.799857 0.583676 0.170715
Si Si5 0.302541 0.332979 0.832794
Si Si6 0.693973 0.901009 0.323773
Si Si7 0.000000 0.955418 0.322071
O O1 0.732942 0.254317 0.500000
O O2 0.746986 0.218535 0.755571
O O3 0.755361 0.296092 0.741931
O O4 0.000000 0.254512 0.656219
O O5 0.261970 0.541994 0.768902
O O6 0.000000 0.500000 0.794506
O O7 0.216358 0.500000 0.000000
O O8 0.500000 0.178188 0.841904
O O9 0.745712 0.140284 0.745131
O O10 0.765383 0.177698 0.000000
O O11 0.745928 0.625057 0.233372
O O12 0.000000 0.582627 0.173010
O O13 0.746499 0.584702 0.000000
O O14 0.500000 0.331698 0.841017
O O15 0.235278 0.330591 0.000000
O O16 0.697803 0.897944 0.500000
O O17 0.500000 0.909484 0.283386
O O18 0.831503 0.932758 0.278780
O O19 0.000000 0.955828 0.500000
O O20 0.000000 0.000000 0.271630
#
# Coordination Sequence:
#
# PCOD9385060 Si02
#       7
#     8   4   8   8   8   8   4
#     4  11  24  38  53  75 101 131 170 214 258 308
#     4   7  10  18  35  61  90 121 158 197 240 290
#     4  10  21  37  57  81 108 138 173 215 264 318
#     4   8  13  23  41  64  92 126 162 201 244 292
#     4  10  20  33  49  71 100 133 168 206 251 304
#     4   9  18  33  54  80 112 149 186 228 277 323
#     4   9  18  32  53  83 115 147 189 237 277 320
#
# _framework density 18.934078
#
# number of rings (size 3 to 8) (size 9 to 14) (size 15 to 20)
#    0.000    2.667    0.000    3.000    1.167    5.667 
#    0.000    2.083    0.000    3.500    0.000    2.917 
#    0.000    4.667    0.000    0.000    0.000    0.000 
#
# Total GULP energy -267460.943752 kJ/mol
# GULP energy per Si atom -5572.102995 kJ/mol
# Density = 1.889098 g / cm^3
# Si number density = 18.934078 Si / 1000 Ang^3
#
#
#
# Elastic Constant Matrix: (Units=GPa)
#
#
# Indices 1 2 3 4 5 6 
#
# 1 40.5205 51.2979 20.0001 0.0000 0.0000 0.0000
# 2 51.2979 211.2123 52.8015 0.0000 0.0000 0.0000
# 3 20.0001 52.8015 45.8224 0.0000 0.0000 0.0000
# 4 0.0000 0.0000 0.0000 24.4143 0.0000 0.0000
# 5 0.0000 0.0000 0.0000 0.0000 12.8838 0.0000
# 6 0.0000 0.0000 0.0000 0.0000 0.0000 81.9246
#
#
#
# Elastic Compliance Matrix: (Units=1/GPa)
#
#
# Indices 1 2 3 4 5 6 
#
# 1 0.037760 -0.007094 -0.008306 0.000000 0.000000 0.000000
# 2 -0.007094 0.007983 -0.006103 0.000000 0.000000 0.000000
# 3 -0.008306 -0.006103 0.032481 0.000000 0.000000 0.000000
# 4 0.000000 0.000000 0.000000 0.040960 0.000000 0.000000
# 5 0.000000 0.000000 0.000000 0.000000 0.077617 0.000000
# 6 0.000000 0.000000 0.000000 0.000000 0.000000 0.012206
#
#
# Mechanical properties :
#
#
# Convention : Reuss Voigt Hill
#
# Bulk Modulus (GPa) = 28.39481 60.63937 44.51709
# Shear Modulus (GPa) = 18.95716 35.40826 27.18271
#
# Velocity S-wave (km/s) = 3.16764 4.32913 3.79311
# Velocity P-wave (km/s) = 5.32990 7.55544 6.53806
#
# Compressibility (1/GPa) = 0.03521770
#
# Stress axis : x y z
#
# Youngs Moduli (GPa) = 26.48303 125.26232 30.78737
#
# Poissons Ratio (x) = 0.88867 0.25572
# Poissons Ratio (y) = 0.18788 0.18788
# Poissons Ratio (z) = 0.21997 0.76443
#
# Static dielectric constant tensor:
#      x y z
#    x 1.674190 0.000000 0.000000 
#    y 0.000000 1.676720 0.000000 
#    z 0.000000 0.000000 1.667410 
# 
# From -- ./inp_files/2635.got.cif
#   From: 2010.05.17/outbox.cif.g08.bks.cpg/sg47_2_cif.got.tgz:2635.got - 2010.06.03 20:15:42.
