data_PCOD9385118
_publ_section_title
;
Structure prediction by ZEFSAII (Michael W. Deem and Ramdas Pophale) SiO2 
 PCOD9385118
Probable space group: P M M M
;
_chemical_formula_sum "Si O2"
_cell_formula_units_Z 52
_cell_length_a 22.239335
_cell_length_b 15.262987
_cell_length_c 8.191010
_cell_angle_alpha 90.000000
_cell_angle_beta 90.000000
_cell_angle_gamma 90.000000
_cell_volume 2780.345630
_symmetry_space_group_name_H-M "P M M M"
_symmetry_group_IT_number 47
_symmetry_cell_setting 'orthorhombic'
loop_
_space_group_symop_operation_xyz
x,y,z
-x,-y,z
x,-y,-z
-x,y,-z
-x,-y,-z
x,y,-z
-x,y,z
x,-y,z
loop_
_atom_site_type_symbol
_atom_site_label
_atom_site_fract_x
_atom_site_fract_y
_atom_site_fract_z
Si Si1 0.066613 0.663425 0.698170
Si Si2 0.368560 0.101036 0.804991
Si Si3 0.197685 0.596853 0.696132
Si Si4 0.500000 0.894268 0.686032
Si Si5 0.271311 0.761733 0.185648
Si Si6 0.933549 0.135797 0.192195
Si Si7 0.808738 0.095902 0.312427
O O1 0.068746 0.670989 0.500000
O O2 0.128730 0.617190 0.750215
O O3 0.068077 0.760107 0.774525
O O4 0.000000 0.624792 0.737664
O O5 0.437342 0.128410 0.771578
O O6 0.324233 0.176993 0.739036
O O7 0.360005 0.000000 0.742156
O O8 0.358647 0.096575 0.000000
O O9 0.195265 0.595112 0.500000
O O10 0.215004 0.500000 0.755666
O O11 0.245112 0.672527 0.740532
O O12 0.500000 0.862162 0.500000
O O13 0.500000 0.000000 0.682866
O O14 0.216000 0.829440 0.196518
O O15 0.288295 0.742395 0.000000
O O16 0.879991 0.095622 0.294156
O O17 0.000000 0.105257 0.238193
O O18 0.924598 0.118444 0.000000
O O19 0.792846 0.115925 0.500000
O O20 0.784726 0.000000 0.268745
#
# Coordination Sequence:
#
# PCOD9385118 Si02
#       7
#     8   8   8   4   8   8   8
#     4   9  17  31  52  74  97 127 164 210 267 330
#     4   9  18  33  53  78 111 149 183 214 252 299
#     4  10  21  36  54  77 105 137 174 218 271 329
#     4   9  17  29  49  81 116 147 180 215 249 290
#     4  11  22  36  55  78 105 140 179 219 261 308
#     4  10  20  33  50  71  95 125 163 210 263 315
#     4  11  23  36  51  72  99 133 172 213 259 313
#
# _framework density 18.702711999999998
#
# number of rings (size 3 to 8) (size 9 to 14) (size 15 to 20)
#    0.000    2.077    1.538    2.077    0.000    5.846 
#    0.000    4.615    0.000    0.000    0.000    3.769 
#    0.000    4.308    0.000    0.000    0.000    0.000 
#
# Total GULP energy -289850.772509 kJ/mol
# GULP energy per Si atom -5574.053317 kJ/mol
# Density = 1.866014 g / cm^3
# Si number density = 18.702712 Si / 1000 Ang^3
#
#
#
# Elastic Constant Matrix: (Units=GPa)
#
#
# Indices 1 2 3 4 5 6 
#
# 1 121.5957 57.0243 7.6290 0.0000 0.0000 0.0000
# 2 57.0243 113.3709 16.1699 0.0000 0.0000 0.0000
# 3 7.6290 16.1699 14.1487 0.0000 0.0000 0.0000
# 4 0.0000 0.0000 0.0000 51.4460 0.0000 0.0000
# 5 0.0000 0.0000 0.0000 0.0000 19.5511 0.0000
# 6 0.0000 0.0000 0.0000 0.0000 0.0000 16.3139
#
#
#
# Elastic Compliance Matrix: (Units=1/GPa)
#
#
# Indices 1 2 3 4 5 6 
#
# 1 0.010765 -0.005480 0.000458 0.000000 0.000000 0.000000
# 2 -0.005480 0.013328 -0.012277 0.000000 0.000000 0.000000
# 3 0.000458 -0.012277 0.084462 0.000000 0.000000 0.000000
# 4 0.000000 0.000000 0.000000 0.019438 0.000000 0.000000
# 5 0.000000 0.000000 0.000000 0.000000 0.051148 0.000000
# 6 0.000000 0.000000 0.000000 0.000000 0.000000 0.061297
#
#
# Mechanical properties :
#
#
# Convention : Reuss Voigt Hill
#
# Bulk Modulus (GPa) = 13.52135 45.64020 29.58077
# Shear Modulus (GPa) = 16.68400 28.68169 22.68285
#
# Velocity S-wave (km/s) = 2.98998 3.92032 3.48632
# Velocity P-wave (km/s) = 4.37782 6.70431 5.66185
#
# Compressibility (1/GPa) = 0.07395710
#
# Stress axis : x y z
#
# Youngs Moduli (GPa) = 92.89172 75.02933 11.83969
#
# Poissons Ratio (x) = 0.41117 -0.00543
# Poissons Ratio (y) = 0.50906 0.14536
# Poissons Ratio (z) = -0.04258 0.92115
#
# Static dielectric constant tensor:
#      x y z
#    x 1.683250 0.000000 0.000000 
#    y 0.000000 1.660400 0.000000 
#    z 0.000000 0.000000 1.659830 
# 
# From -- ./inp_files/11053.got.cif
#   From: 2010.05.17/outbox.cif.g08.bks.cpg/sg47_6_cif.got.tgz:11053.got - 2010.06.03 20:15:42.
