data_PCOD9385986
_publ_section_title
;
Structure prediction by ZEFSAII (Michael W. Deem and Ramdas Pophale) SiO2 
 PCOD9385986
Probable space group: P M M M
;
_chemical_formula_sum "Si O2"
_cell_formula_units_Z 48
_cell_length_a 31.983362
_cell_length_b 9.593137
_cell_length_c 7.767361
_cell_angle_alpha 90.000000
_cell_angle_beta 90.000000
_cell_angle_gamma 90.000000
_cell_volume 2383.187709
_symmetry_space_group_name_H-M "P M M M"
_symmetry_group_IT_number 47
_symmetry_cell_setting 'orthorhombic'
loop_
_space_group_symop_operation_xyz
x,y,z
-x,-y,z
x,-y,-z
-x,y,-z
-x,-y,-z
x,y,-z
-x,y,z
x,-y,z
loop_
_atom_site_type_symbol
_atom_site_label
_atom_site_fract_x
_atom_site_fract_y
_atom_site_fract_z
Si Si1 0.000000 0.339717 0.788797
Si Si2 0.500000 0.661041 0.288675
Si Si3 0.751274 0.341297 0.292479
Si Si4 0.921157 0.159676 0.206747
Si Si5 0.171462 0.158846 0.707324
Si Si6 0.657905 0.340523 0.795330
Si Si7 0.578718 0.158046 0.295273
O O1 0.958664 0.256945 0.731440
O O2 0.000000 0.500000 0.733632
O O3 0.000000 0.339491 0.000000
O O4 0.500000 0.500000 0.232921
O O5 0.500000 0.658695 0.500000
O O6 0.459025 0.745209 0.229676
O O7 0.753853 0.344569 0.500000
O O8 0.754755 0.500000 0.228203
O O9 0.789678 0.248946 0.228020
O O10 0.704771 0.291130 0.247650
O O11 0.874745 0.213043 0.248997
O O12 0.924803 0.000000 0.272321
O O13 0.924515 0.153263 0.000000
O O14 0.174270 0.154615 0.500000
O O15 0.173905 0.000000 0.772414
O O16 0.653080 0.500000 0.726587
O O17 0.622284 0.237417 0.730980
O O18 0.654103 0.347497 0.000000
O O19 0.572062 0.147020 0.500000
O O20 0.578690 0.000000 0.225287
#
# Coordination Sequence:
#
# PCOD9385986 Si02
#       7
#     4   4   8   8   8   8   8
#     4   9  17  29  46  69  94 120 154 195 234 274
#     4   9  17  31  54  81 106 135 172 212 252 297
#     4   9  18  33  52  72  96 129 166 203 246 296
#     4   9  17  30  48  68  91 122 158 193 232 281
#     4   9  18  32  49  70  96 124 156 196 241 289
#     4  10  21  36  53  75 104 137 173 212 254 302
#     4  10  20  34  54  80 108 137 171 212 256 301
#
# _framework density 20.141090999999999
#
# number of rings (size 3 to 8) (size 9 to 14) (size 15 to 20)
#    0.000    2.667    0.000    1.500    0.000    6.000 
#    0.000    2.500    0.000    5.000    0.000    0.000 
#    0.000    0.000    0.000    0.000    0.000    0.000 
#
# Total GULP energy -267857.711214 kJ/mol
# GULP energy per Si atom -5580.368984 kJ/mol
# Density = 2.009525 g / cm^3
# Si number density = 20.141091 Si / 1000 Ang^3
#
#
#
# Elastic Constant Matrix: (Units=GPa)
#
#
# Indices 1 2 3 4 5 6 
#
# 1 219.1420 128.4004 -2.7260 0.0000 0.0000 0.0000
# 2 128.4004 133.7158 6.1469 0.0000 0.0000 0.0000
# 3 -2.7260 6.1469 25.9567 0.0000 0.0000 0.0000
# 4 0.0000 0.0000 0.0000 8.5916 0.0000 0.0000
# 5 0.0000 0.0000 0.0000 0.0000 26.7449 0.0000
# 6 0.0000 0.0000 0.0000 0.0000 0.0000 39.0549
#
#
#
# Elastic Compliance Matrix: (Units=1/GPa)
#
#
# Indices 1 2 3 4 5 6 
#
# 1 0.010759 -0.010497 0.003616 0.000000 0.000000 0.000000
# 2 -0.010497 0.017803 -0.005318 0.000000 0.000000 0.000000
# 3 0.003616 -0.005318 0.040165 0.000000 0.000000 0.000000
# 4 0.000000 0.000000 0.000000 0.116393 0.000000 0.000000
# 5 0.000000 0.000000 0.000000 0.000000 0.037390 0.000000
# 6 0.000000 0.000000 0.000000 0.000000 0.000000 0.025605
#
#
# Mechanical properties :
#
#
# Convention : Reuss Voigt Hill
#
# Bulk Modulus (GPa) = 22.55968 71.38411 46.97190
# Shear Modulus (GPa) = 17.40394 31.34451 24.37423
#
# Velocity S-wave (km/s) = 2.94275 3.94921 3.48253
# Velocity P-wave (km/s) = 4.77195 7.50426 6.28830
#
# Compressibility (1/GPa) = 0.04432687
#
# Stress axis : x y z
#
# Youngs Moduli (GPa) = 92.94583 56.16955 24.89735
#
# Poissons Ratio (x) = 0.58964 -0.09003
# Poissons Ratio (y) = 0.97570 0.13242
# Poissons Ratio (z) = -0.33608 0.29874
#
# Static dielectric constant tensor:
#      x y z
#    x 1.686370 0.000000 0.000000 
#    y 0.000000 1.724100 0.000000 
#    z 0.000000 0.000000 1.740060 
# 
# From -- ./inp_files/13819.got.cif
#   From: 2010.05.17/outbox.cif.g08.bks.cpg/sg47_7_cif.got.tgz:13819.got - 2010.06.03 20:15:42.
