data_PCOD9385166
_publ_section_title
;
Structure prediction by ZEFSAII (Michael W. Deem and Ramdas Pophale) SiO2 
 PCOD9385166
Probable space group: P M M M
;
_chemical_formula_sum "Si O2"
_cell_formula_units_Z 64
_cell_length_a 9.331896
_cell_length_b 21.745191
_cell_length_c 15.156826
_cell_angle_alpha 90.000000
_cell_angle_beta 90.000000
_cell_angle_gamma 90.000000
_cell_volume 3075.681651
_symmetry_space_group_name_H-M "P M M M"
_symmetry_group_IT_number 47
_symmetry_cell_setting 'orthorhombic'
loop_
_space_group_symop_operation_xyz
x,y,z
-x,-y,z
x,-y,-z
-x,y,-z
-x,-y,-z
x,y,-z
-x,y,z
x,-y,z
loop_
_atom_site_type_symbol
_atom_site_label
_atom_site_fract_x
_atom_site_fract_y
_atom_site_fract_z
Si Si1 0.160742 0.808662 0.603320
Si Si2 0.668590 0.314676 0.106801
Si Si3 0.671419 0.931828 0.644213
Si Si4 0.662062 0.819772 0.104882
Si Si5 0.664373 0.690382 0.608234
Si Si6 0.833796 0.568835 0.607519
Si Si7 0.832898 0.566882 0.892405
Si Si8 0.831283 0.933206 0.170091
O O1 0.144526 0.795013 0.500000
O O2 0.248655 0.872154 0.607384
O O3 0.248532 0.750447 0.639519
O O4 0.000000 0.815127 0.641484
O O5 0.500000 0.320752 0.123427
O O6 0.712279 0.246861 0.138986
O O7 0.751821 0.373510 0.141789
O O8 0.687725 0.315353 0.000000
O O9 0.500000 0.923377 0.641945
O O10 0.734748 0.934923 0.742505
O O11 0.701776 0.000000 0.604665
O O12 0.500000 0.832931 0.139357
O O13 0.771757 0.874301 0.120715
O O14 0.648147 0.813221 0.000000
O O15 0.663324 0.690955 0.500000
O O16 0.500000 0.693576 0.637563
O O17 0.738951 0.626632 0.635645
O O18 0.831527 0.568836 0.500000
O O19 0.787720 0.500000 0.635413
O O20 0.000000 0.577267 0.633682
O O21 0.776628 0.500000 0.863673
O O22 0.000000 0.570477 0.869515
O O23 0.825023 0.567233 0.000000
O O24 0.000000 0.927297 0.190696
O O25 0.812845 0.000000 0.124670
#
# Coordination Sequence:
#
# PCOD9385166 Si02
#       8
#     8   8   8   8   8   8   8   8
#     4  10  20  33  50  72  99 130 161 195 237 284
#     4   8  14  24  37  55  81 113 149 188 228 270
#     4  10  21  37  56  75  96 124 157 194 237 284
#     4   9  18  32  49  70  97 128 161 197 238 284
#     4   9  16  25  38  58  86 119 155 195 236 278
#     4   8  13  21  33  50  76 113 154 192 232 280
#     4   8  13  20  30  47  74 109 147 184 223 269
#     4  10  21  36  53  73  97 124 156 195 237 283
#
# _framework density 20.808395999999998
#
# number of rings (size 3 to 8) (size 9 to 14) (size 15 to 20)
#    0.000    3.000    0.000    3.000    0.000    5.500 
#    0.000    6.250    0.000    0.000    0.000    0.000 
#    0.000    1.000    0.000    7.250    0.000   13.750 
#
# Total GULP energy -356720.281344 kJ/mol
# GULP energy per Si atom -5573.754396 kJ/mol
# Density = 2.076103 g / cm^3
# Si number density = 20.808396 Si / 1000 Ang^3
#
#
#
# Elastic Constant Matrix: (Units=GPa)
#
#
# Indices 1 2 3 4 5 6 
#
# 1 121.8444 119.4897 3.4321 0.0000 0.0000 0.0000
# 2 119.4897 231.2077 11.6056 0.0000 0.0000 0.0000
# 3 3.4321 11.6056 30.3481 0.0000 0.0000 0.0000
# 4 0.0000 0.0000 0.0000 39.8722 0.0000 0.0000
# 5 0.0000 0.0000 0.0000 0.0000 10.0935 0.0000
# 6 0.0000 0.0000 0.0000 0.0000 0.0000 45.8855
#
#
#
# Elastic Compliance Matrix: (Units=1/GPa)
#
#
# Indices 1 2 3 4 5 6 
#
# 1 0.016703 -0.008704 0.001440 0.000000 0.000000 0.000000
# 2 -0.008704 0.008946 -0.002437 0.000000 0.000000 0.000000
# 3 0.001440 -0.002437 0.033720 0.000000 0.000000 0.000000
# 4 0.000000 0.000000 0.000000 0.025080 0.000000 0.000000
# 5 0.000000 0.000000 0.000000 0.000000 0.099073 0.000000
# 6 0.000000 0.000000 0.000000 0.000000 0.000000 0.021793
#
#
# Mechanical properties :
#
#
# Convention : Reuss Voigt Hill
#
# Bulk Modulus (GPa) = 25.02120 72.49500 48.75810
# Shear Modulus (GPa) = 21.00485 35.76177 28.38331
#
# Velocity S-wave (km/s) = 3.18062 4.15012 3.69729
# Velocity P-wave (km/s) = 5.05362 7.60787 6.45828
#
# Compressibility (1/GPa) = 0.03996612
#
# Stress axis : x y z
#
# Youngs Moduli (GPa) = 59.87019 111.78290 29.65598
#
# Poissons Ratio (x) = 0.97300 -0.04270
# Poissons Ratio (y) = 0.52113 0.07226
# Poissons Ratio (z) = -0.08620 0.27238
#
# Static dielectric constant tensor:
#      x y z
#    x 1.708100 0.000000 0.000000 
#    y 0.000000 1.781930 0.000000 
#    z 0.000000 0.000000 1.822780 
# 
# From -- ./inp_files/26992.got.cif
#   From: 2010.05.17/outbox.cif.g08.bks.cpg/sg47_14_cif.got.tgz:26992.got - 2010.06.03 20:15:42.
