data_PCOD9385355
_publ_section_title
;
Structure prediction by ZEFSAII (Michael W. Deem and Ramdas Pophale) SiO2 
 PCOD9385355
Probable space group: P M M M
;
_chemical_formula_sum "Si O2"
_cell_formula_units_Z 40
_cell_length_a 16.794999
_cell_length_b 9.444130
_cell_length_c 13.459121
_cell_angle_alpha 90.000000
_cell_angle_beta 90.000000
_cell_angle_gamma 90.000000
_cell_volume 2134.807090
_symmetry_space_group_name_H-M "P M M M"
_symmetry_group_IT_number 47
_symmetry_cell_setting 'orthorhombic'
loop_
_space_group_symop_operation_xyz
x,y,z
-x,-y,z
x,-y,-z
-x,y,-z
-x,-y,-z
x,y,-z
-x,y,z
x,-y,z
loop_
_atom_site_type_symbol
_atom_site_label
_atom_site_fract_x
_atom_site_fract_y
_atom_site_fract_z
Si Si1 0.096921 0.165967 0.500000
Si Si2 0.824554 0.336572 0.889450
Si Si3 0.402456 0.664056 0.500000
Si Si4 0.632672 0.336303 0.887766
Si Si5 0.405175 0.160236 0.692367
Si Si6 0.094270 0.170093 0.285181
O O1 0.122479 0.224964 0.393633
O O2 0.000000 0.169817 0.500000
O O3 0.118760 0.000000 0.500000
O O4 0.849174 0.500000 0.875509
O O5 0.728727 0.334118 0.887768
O O6 0.859256 0.240624 0.803846
O O7 0.850190 0.290913 0.000000
O O8 0.377490 0.500000 0.500000
O O9 0.500000 0.663681 0.500000
O O10 0.375306 0.746296 0.400590
O O11 0.607434 0.500000 0.871132
O O12 0.606697 0.237181 0.797715
O O13 0.606587 0.295229 0.000000
O O14 0.500000 0.149495 0.677556
O O15 0.372095 0.000000 0.692166
O O16 0.000000 0.199660 0.275822
O O17 0.103284 0.000000 0.283533
#
# Coordination Sequence:
#
# PCOD9385355 Si02
#       6
#     4   8   4   8   8   8
#     4   7  12  26  46  67  94 125 153 187 234 281
#     4   9  19  35  51  68  95 130 164 200 244 289
#     4   9  17  31  52  75 100 133 169 201 238 287
#     4   9  19  36  54  70  93 130 173 209 243 293
#     4  10  20  33  51  77 106 131 159 201 251 299
#     4   9  17  30  50  74  97 124 161 201 240 289
#
# _framework density 18.737055999999999
#
# number of rings (size 3 to 8) (size 9 to 14) (size 15 to 20)
#    0.000    3.000    0.000    3.300    0.000    5.200 
#    0.000    7.500    0.000    6.600    0.000    0.000 
#    0.000    0.000    0.000    0.000    0.000    0.000 
#
# Total GULP energy -222883.867148 kJ/mol
# GULP energy per Si atom -5572.096679 kJ/mol
# Density = 1.869441 g / cm^3
# Si number density = 18.737056 Si / 1000 Ang^3
#
#
#
# Elastic Constant Matrix: (Units=GPa)
#
#
# Indices 1 2 3 4 5 6 
#
# 1 11.1712 12.1557 19.4006 0.0000 0.0000 0.0000
# 2 12.1557 92.5274 78.1920 0.0000 0.0000 0.0000
# 3 19.4006 78.1920 155.4721 0.0000 0.0000 0.0000
# 4 0.0000 0.0000 0.0000 17.7153 0.0000 0.0000
# 5 0.0000 0.0000 0.0000 0.0000 46.6591 0.0000
# 6 0.0000 0.0000 0.0000 0.0000 0.0000 23.7670
#
#
#
# Elastic Compliance Matrix: (Units=1/GPa)
#
#
# Indices 1 2 3 4 5 6 
#
# 1 0.115712 -0.005217 -0.011816 0.000000 0.000000 0.000000
# 2 -0.005217 0.019031 -0.008921 0.000000 0.000000 0.000000
# 3 -0.011816 -0.008921 0.012393 0.000000 0.000000 0.000000
# 4 0.000000 0.000000 0.000000 0.056448 0.000000 0.000000
# 5 0.000000 0.000000 0.000000 0.000000 0.021432 0.000000
# 6 0.000000 0.000000 0.000000 0.000000 0.000000 0.042075
#
#
# Mechanical properties :
#
#
# Convention : Reuss Voigt Hill
#
# Bulk Modulus (GPa) = 10.50079 53.18526 31.84302
# Shear Modulus (GPa) = 14.25554 27.58979 20.92266
#
# Velocity S-wave (km/s) = 2.76129 3.84144 3.34525
# Velocity P-wave (km/s) = 3.97275 6.93702 5.65266
#
# Compressibility (1/GPa) = 0.09523091
#
# Stress axis : x y z
#
# Youngs Moduli (GPa) = 8.64214 52.54459 80.69153
#
# Poissons Ratio (x) = 0.27411 0.95341
# Poissons Ratio (y) = 0.04508 0.71982
# Poissons Ratio (z) = 0.10211 0.46873
#
# Static dielectric constant tensor:
#      x y z
#    x 1.653680 0.000000 0.000000 
#    y 0.000000 1.639650 0.000000 
#    z 0.000000 0.000000 1.660550 
# 
# From -- ./inp_files/4072.got.cif
#   From: 2010.05.17/outbox.cif.g08.bks.cpg/sg47_3_cif.got.tgz:4072.got - 2010.06.03 20:15:42.
