data_PCOD9385490
_publ_section_title
;
Structure prediction by ZEFSAII (Michael W. Deem and Ramdas Pophale) SiO2 
 PCOD9385490
Probable space group: P M M M
;
_chemical_formula_sum "Si O2"
_cell_formula_units_Z 48
_cell_length_a 34.018289
_cell_length_b 9.113486
_cell_length_c 7.916457
_cell_angle_alpha 90.000000
_cell_angle_beta 90.000000
_cell_angle_gamma 90.000000
_cell_volume 2454.301169
_symmetry_space_group_name_H-M "P M M M"
_symmetry_group_IT_number 47
_symmetry_cell_setting 'orthorhombic'
loop_
_space_group_symop_operation_xyz
x,y,z
-x,-y,z
x,-y,-z
-x,y,-z
-x,-y,-z
x,y,-z
-x,y,z
x,-y,z
loop_
_atom_site_type_symbol
_atom_site_label
_atom_site_fract_x
_atom_site_fract_y
_atom_site_fract_z
Si Si1 0.405682 0.175801 0.799300
Si Si2 0.547000 0.673177 0.500000
Si Si3 0.162124 0.832049 0.799328
Si Si4 0.674754 0.665431 0.797893
Si Si5 0.921921 0.167488 0.297443
Si Si6 0.000000 0.668129 0.707183
Si Si7 0.753362 0.832828 0.299478
O O1 0.435391 0.251270 0.668331
O O2 0.362457 0.235456 0.748900
O O3 0.407158 0.000000 0.783022
O O4 0.412516 0.210877 0.000000
O O5 0.557097 0.500000 0.500000
O O6 0.500000 0.687597 0.500000
O O7 0.120753 0.765004 0.742475
O O8 0.204142 0.767265 0.748956
O O9 0.162492 0.000000 0.728511
O O10 0.161187 0.839422 0.000000
O O11 0.671668 0.500000 0.728529
O O12 0.716094 0.739180 0.754830
O O13 0.672947 0.656240 0.000000
O O14 0.924911 0.160631 0.500000
O O15 0.960157 0.252711 0.235324
O O16 0.922419 0.000000 0.231270
O O17 0.000000 0.500000 0.759188
O O18 0.000000 0.672048 0.500000
O O19 0.752425 0.843064 0.500000
O O20 0.750828 0.000000 0.228290
#
# Coordination Sequence:
#
# PCOD9385490 Si02
#       7
#     8   4   8   8   8   4   8
#     4  10  22  41  66  94 125 164 211 262 313 364
#     4  11  25  43  65  95 131 171 211 255 311 374
#     4   9  17  30  49  72  98 130 169 214 262 312
#     4  10  21  37  57  82 114 152 192 236 289 347
#     4   9  16  28  48  71  93 119 157 204 251 303
#     4   9  17  29  46  69  94 120 152 193 246 306
#     4  10  20  33  52  79 109 142 181 225 273 328
#
# _framework density 19.557503000000001
#
# number of rings (size 3 to 8) (size 9 to 14) (size 15 to 20)
#    0.000    2.333    0.000    2.500    1.167    7.000 
#    0.000    2.917    0.000    6.000    0.000    0.000 
#    0.000    0.000    0.000    0.000    0.000    0.000 
#
# Total GULP energy -267734.579528 kJ/mol
# GULP energy per Si atom -5577.803740 kJ/mol
# Density = 1.951299 g / cm^3
# Si number density = 19.557503 Si / 1000 Ang^3
#
#
#
# Elastic Constant Matrix: (Units=GPa)
#
#
# Indices 1 2 3 4 5 6 
#
# 1 174.4263 76.2598 44.9855 0.0000 0.0000 0.0000
# 2 76.2598 94.7034 37.5433 0.0000 0.0000 0.0000
# 3 44.9855 37.5433 50.1651 0.0000 0.0000 0.0000
# 4 0.0000 0.0000 0.0000 17.8116 0.0000 0.0000
# 5 0.0000 0.0000 0.0000 0.0000 56.7107 0.0000
# 6 0.0000 0.0000 0.0000 0.0000 0.0000 0.1165
#
#
#
# Elastic Compliance Matrix: (Units=1/GPa)
#
#
# Indices 1 2 3 4 5 6 
#
# 1 0.009359 -0.005985 -0.003914 0.000000 0.000000 0.000000
# 2 -0.005985 0.018841 -0.008733 0.000000 0.000000 0.000000
# 3 -0.003914 -0.008733 0.029980 0.000000 0.000000 0.000000
# 4 0.000000 0.000000 0.000000 0.056143 0.000000 0.000000
# 5 0.000000 0.000000 0.000000 0.000000 0.017633 0.000000
# 6 0.000000 0.000000 0.000000 0.000000 0.000000 8.580916
#
#
# Mechanical properties :
#
#
# Convention : Reuss Voigt Hill
#
# Bulk Modulus (GPa) = 47.81095 70.76354 59.28725
# Shear Modulus (GPa) = 0.57096 25.62818 13.09957
#
# Velocity S-wave (km/s) = 0.54090 3.62387 2.59085
# Velocity P-wave (km/s) = 4.98894 7.33286 6.27138
#
# Compressibility (1/GPa) = 0.02091571
#
# Stress axis : x y z
#
# Youngs Moduli (GPa) = 106.84868 53.07636 33.35581
#
# Poissons Ratio (x) = 0.31765 0.13054
# Poissons Ratio (y) = 0.63947 0.29131
# Poissons Ratio (z) = 0.41817 0.46354
#
# Static dielectric constant tensor:
#      x y z
#    x 1.691080 0.000000 0.000000 
#    y 0.000000 1.679130 0.000000 
#    z 0.000000 0.000000 1.694010 
# 
# From -- ./inp_files/13830.got.cif
#   From: 2010.05.17/outbox.cif.g08.bks.cpg/sg47_7_cif.got.tgz:13830.got - 2010.06.03 20:15:42.
