data_PCOD9385065
_publ_section_title
;
Structure prediction by ZEFSAII (Michael W. Deem and Ramdas Pophale) SiO2 
 PCOD9385065
Probable space group: P M M M
;
_chemical_formula_sum "Si O2"
_cell_formula_units_Z 48
_cell_length_a 8.223260
_cell_length_b 8.955381
_cell_length_c 33.988070
_cell_angle_alpha 90.000000
_cell_angle_beta 90.000000
_cell_angle_gamma 90.000000
_cell_volume 2502.963942
_symmetry_space_group_name_H-M "P M M M"
_symmetry_group_IT_number 47
_symmetry_cell_setting 'orthorhombic'
loop_
_space_group_symop_operation_xyz
x,y,z
-x,-y,z
x,-y,-z
-x,y,-z
-x,-y,-z
x,y,-z
-x,y,z
x,-y,z
loop_
_atom_site_type_symbol
_atom_site_label
_atom_site_fract_x
_atom_site_fract_y
_atom_site_fract_z
Si Si1 0.306637 0.172368 0.500000
Si Si2 0.196156 0.670356 0.745200
Si Si3 0.000000 0.317908 0.045359
Si Si4 0.693796 0.828876 0.665963
Si Si5 0.682700 0.319711 0.094631
Si Si6 0.806476 0.827625 0.417370
Si Si7 0.194924 0.823162 0.826099
O O1 0.500000 0.166347 0.500000
O O2 0.250863 0.241234 0.458625
O O3 0.240769 0.000000 0.500000
O O4 0.252792 0.500000 0.748430
O O5 0.251077 0.741222 0.704317
O O6 0.248805 0.762102 0.783639
O O7 0.000000 0.671049 0.745350
O O8 0.834628 0.269817 0.067542
O O9 0.000000 0.500000 0.045867
O O10 0.000000 0.270270 0.000000
O O11 0.500000 0.834156 0.665350
O O12 0.750816 0.761842 0.624221
O O13 0.757716 0.000000 0.668557
O O14 0.500000 0.276117 0.081421
O O15 0.687506 0.500000 0.095715
O O16 0.715934 0.257600 0.138129
O O17 0.000000 0.832189 0.417779
O O18 0.741836 0.000000 0.417080
O O19 0.000000 0.794399 0.829975
O O20 0.220377 0.000000 0.828178
#
# Coordination Sequence:
#
# PCOD9385065 Si02
#       7
#     4   8   4   8   8   8   8
#     4   9  15  23  37  61  94 127 160 201 252 307
#     4  10  21  36  55  78 104 137 177 220 266 318
#     4   9  18  34  57  85 119 155 191 237 285 328
#     4  10  20  33  49  71 101 136 173 215 264 315
#     4  10  20  34  56  85 116 152 192 234 282 333
#     4   9  16  26  42  64  92 127 166 208 254 306
#     4  10  20  35  57  82 109 144 184 227 277 330
#
# _framework density 19.177263
#
# number of rings (size 3 to 8) (size 9 to 14) (size 15 to 20)
#    0.000    2.333    0.833    2.250    0.000    7.000 
#    0.000    1.667    0.000    1.000    0.000    1.750 
#    0.000    4.667    0.000    0.000    0.000    0.000 
#
# Total GULP energy -267730.158796 kJ/mol
# GULP energy per Si atom -5577.711642 kJ/mol
# Density = 1.913361 g / cm^3
# Si number density = 19.177263 Si / 1000 Ang^3
#
#
#
# Elastic Constant Matrix: (Units=GPa)
#
#
# Indices 1 2 3 4 5 6 
#
# 1 83.1368 26.5573 68.8963 0.0000 0.0000 0.0000
# 2 26.5573 16.0167 19.7797 0.0000 0.0000 0.0000
# 3 68.8963 19.7797 174.6757 0.0000 0.0000 0.0000
# 4 0.0000 0.0000 0.0000 14.6985 0.0000 0.0000
# 5 0.0000 0.0000 0.0000 0.0000 -4.6552 0.0000
# 6 0.0000 0.0000 0.0000 0.0000 0.0000 13.9773
#
#
#
# Elastic Compliance Matrix: (Units=1/GPa)
#
#
# Indices 1 2 3 4 5 6 
#
# 1 0.032864 -0.044740 -0.007896 0.000000 0.000000 0.000000
# 2 -0.044740 0.133493 0.002530 0.000000 0.000000 0.000000
# 3 -0.007896 0.002530 0.008553 0.000000 0.000000 0.000000
# 4 0.000000 0.000000 0.000000 0.068034 0.000000 0.000000
# 5 0.000000 0.000000 0.000000 0.000000 -0.214812 0.000000
# 6 0.000000 0.000000 0.000000 0.000000 0.000000 0.071545
#
#
# Mechanical properties :
#
#
# Convention : Reuss Voigt Hill
#
# Bulk Modulus (GPa) = 13.38723 56.03286 34.71004
# Shear Modulus (GPa) = 22.24325 15.37718 18.81021
#
# Velocity S-wave (km/s) = 3.40939 2.83476 3.13527
# Velocity P-wave (km/s) = 4.74284 6.32426 5.58976
#
# Compressibility (1/GPa) = 0.07469804
#
# Stress axis : x y z
#
# Youngs Moduli (GPa) = 30.42881 7.49102 116.92142
#
# Poissons Ratio (x) = 0.33515 0.92321
# Poissons Ratio (y) = 1.36138 -0.29583
# Poissons Ratio (z) = 0.24027 -0.01895
#
# Static dielectric constant tensor:
#      x y z
#    x 1.673510 0.000000 0.000000 
#    y 0.000000 1.668540 0.000000 
#    z 0.000000 0.000000 1.666180 
# 
# From -- ./inp_files/13965.got.cif
#   From: 2010.05.17/outbox.cif.g08.bks.cpg/sg47_7_cif.got.tgz:13965.got - 2010.06.03 20:15:42.
