data_PCOD9385128
_publ_section_title
;
Structure prediction by ZEFSAII (Michael W. Deem and Ramdas Pophale) SiO2 
 PCOD9385128
Probable space group: P M M M
;
_chemical_formula_sum "Si O2"
_cell_formula_units_Z 52
_cell_length_a 7.493756
_cell_length_b 19.768278
_cell_length_c 16.490493
_cell_angle_alpha 90.000000
_cell_angle_beta 90.000000
_cell_angle_gamma 90.000000
_cell_volume 2442.879402
_symmetry_space_group_name_H-M "P M M M"
_symmetry_group_IT_number 47
_symmetry_cell_setting 'orthorhombic'
loop_
_space_group_symop_operation_xyz
x,y,z
-x,-y,z
x,-y,-z
-x,y,-z
-x,-y,-z
x,y,-z
-x,y,z
x,-y,z
loop_
_atom_site_type_symbol
_atom_site_label
_atom_site_fract_x
_atom_site_fract_y
_atom_site_fract_z
Si Si1 0.208719 0.575333 0.137601
Si Si2 0.293056 0.722806 0.087583
Si Si3 0.783960 0.077112 0.176269
Si Si4 0.206359 0.082481 0.000000
Si Si5 0.290478 0.787755 0.251608
Si Si6 0.715656 0.425455 0.671652
Si Si7 0.281575 0.288036 0.590295
O O1 0.280428 0.500000 0.117840
O O2 0.289157 0.641515 0.096961
O O3 0.227854 0.584067 0.234880
O O4 0.000000 0.575359 0.117036
O O5 0.500000 0.743667 0.085538
O O6 0.212081 0.754029 0.169719
O O7 0.213416 0.741795 0.000000
O O8 0.715899 0.100953 0.087238
O O9 0.728720 0.132246 0.241218
O O10 0.000000 0.075966 0.172023
O O11 0.725465 0.000000 0.190825
O O12 0.000000 0.104066 0.000000
O O13 0.206556 0.000000 0.000000
O O14 0.500000 0.769429 0.251525
O O15 0.219354 0.759402 0.336078
O O16 0.500000 0.424974 0.672231
O O17 0.775463 0.500000 0.645366
O O18 0.772942 0.363826 0.615716
O O19 0.221220 0.270370 0.500000
O O20 0.500000 0.286425 0.588795
#
# Coordination Sequence:
#
# PCOD9385128 Si02
#       7
#     8   8   8   4   8   8   8
#     4  10  20  33  50  72 100 134 174 219 260 297
#     4  10  21  36  52  72 101 137 175 212 254 303
#     4   9  18  33  53  76 103 136 171 205 244 293
#     4   7  12  26  47  71  99 129 162 197 232 279
#     4  10  20  34  52  76 105 133 164 205 252 301
#     4   9  16  29  51  75 100 131 167 207 255 309
#     4   9  17  31  52  77 103 130 164 210 259 302
#
# _framework density 21.286355
#
# number of rings (size 3 to 8) (size 9 to 14) (size 15 to 20)
#    0.000    2.692    1.538    1.385    1.077    2.769 
#    0.000    3.077    0.000    3.692    0.000    5.385 
#    0.000    0.000    0.000    0.000    0.000    0.000 
#
# Total GULP energy -290268.011803 kJ/mol
# GULP energy per Si atom -5582.077150 kJ/mol
# Density = 2.123791 g / cm^3
# Si number density = 21.286355 Si / 1000 Ang^3
#
#
#
# Elastic Constant Matrix: (Units=GPa)
#
#
# Indices 1 2 3 4 5 6 
#
# 1 61.1635 -1.3817 7.9736 0.0000 0.0000 0.0000
# 2 -1.3817 113.0667 85.8348 0.0000 0.0000 0.0000
# 3 7.9736 85.8348 167.5452 0.0000 0.0000 0.0000
# 4 0.0000 0.0000 0.0000 16.5043 0.0000 0.0000
# 5 0.0000 0.0000 0.0000 0.0000 -14.8830 0.0000
# 6 0.0000 0.0000 0.0000 0.0000 0.0000 26.6410
#
#
#
# Elastic Compliance Matrix: (Units=1/GPa)
#
#
# Indices 1 2 3 4 5 6 
#
# 1 0.016570 0.001311 -0.001460 0.000000 0.000000 0.000000
# 2 0.001311 0.014577 -0.007530 0.000000 0.000000 0.000000
# 3 -0.001460 -0.007530 0.009896 0.000000 0.000000 0.000000
# 4 0.000000 0.000000 0.000000 0.060590 0.000000 0.000000
# 5 0.000000 0.000000 0.000000 0.000000 -0.067191 0.000000
# 6 0.000000 0.000000 0.000000 0.000000 0.000000 0.037536
#
#
# Mechanical properties :
#
#
# Convention : Reuss Voigt Hill
#
# Bulk Modulus (GPa) = 38.93558 58.51432 48.72495
# Shear Modulus (GPa) = 52.13869 22.27572 37.20720
#
# Velocity S-wave (km/s) = 4.95451 3.23844 4.18537
# Velocity P-wave (km/s) = 7.14567 6.44454 6.80414
#
# Compressibility (1/GPa) = 0.02568345
#
# Stress axis : x y z
#
# Youngs Moduli (GPa) = 60.35149 68.60121 101.05229
#
# Poissons Ratio (x) = -0.08994 0.14756
# Poissons Ratio (y) = -0.07912 0.76095
# Poissons Ratio (z) = 0.08812 0.51659
#
# Static dielectric constant tensor:
#      x y z
#    x 1.803550 0.000000 0.000000 
#    y 0.000000 1.776200 0.000000 
#    z 0.000000 0.000000 1.770690 
# 
# From -- ./inp_files/11061.got.cif
#   From: 2010.05.17/outbox.cif.g08.bks.cpg/sg47_6_cif.got.tgz:11061.got - 2010.06.03 20:15:42.
