data_PCOD9385971
_publ_section_title
;
Structure prediction by ZEFSAII (Michael W. Deem and Ramdas Pophale) SiO2 
 PCOD9385971
Probable space group: P M M M
;
_chemical_formula_sum "Si O2"
_cell_formula_units_Z 36
_cell_length_a 9.601510
_cell_length_b 7.688025
_cell_length_c 24.003174
_cell_angle_alpha 90.000000
_cell_angle_beta 90.000000
_cell_angle_gamma 90.000000
_cell_volume 1771.833868
_symmetry_space_group_name_H-M "P M M M"
_symmetry_group_IT_number 47
_symmetry_cell_setting 'orthorhombic'
loop_
_space_group_symop_operation_xyz
x,y,z
-x,-y,z
x,-y,-z
-x,y,-z
-x,-y,-z
x,y,-z
-x,y,z
x,-y,z
loop_
_atom_site_type_symbol
_atom_site_label
_atom_site_fract_x
_atom_site_fract_y
_atom_site_fract_z
Si Si1 0.660813 0.286437 0.500000
Si Si2 0.161348 0.712384 0.061643
Si Si3 0.341398 0.290480 0.834561
Si Si4 0.659180 0.793591 0.709874
Si Si5 0.842351 0.293878 0.395550
O O1 0.658112 0.500000 0.500000
O O2 0.500000 0.230042 0.500000
O O3 0.744961 0.226583 0.445437
O O4 0.164443 0.500000 0.062221
O O5 0.249831 0.774482 0.114078
O O6 0.000000 0.763396 0.067006
O O7 0.211661 0.766132 0.000000
O O8 0.500000 0.225715 0.838918
O O9 0.344487 0.500000 0.838253
O O10 0.291147 0.246574 0.772515
O O11 0.500000 0.723280 0.703787
O O12 0.762861 0.728570 0.662662
O O13 0.651461 0.000000 0.704006
O O14 0.854258 0.500000 0.405466
O O15 0.000000 0.222325 0.395166
#
# Coordination Sequence:
#
# PCOD9385971 Si02
#       5
#     4   8   8   8   8
#     4   9  17  31  54  81 106 133 164 200 244 293
#     4   8  14  25  42  66  95 123 152 192 243 295
#     4   9  17  29  47  71  96 123 159 203 247 292
#     4  10  21  36  52  71  99 135 172 209 250 296
#     4  10  20  34  54  80 107 133 164 204 248 294
#
# _framework density 20.317931000000002
#
# number of rings (size 3 to 8) (size 9 to 14) (size 15 to 20)
#    0.000    2.778    0.000    2.333    0.000    5.333 
#    0.000    5.000    0.000    4.000    0.000    4.667 
#    0.000    0.000    0.000    0.000    0.000    0.000 
#
# Total GULP energy -200856.513109 kJ/mol
# GULP energy per Si atom -5579.347586 kJ/mol
# Density = 2.027169 g / cm^3
# Si number density = 20.317931 Si / 1000 Ang^3
#
#
#
# Elastic Constant Matrix: (Units=GPa)
#
#
# Indices 1 2 3 4 5 6 
#
# 1 139.1492 5.5758 129.9517 0.0000 0.0000 0.0000
# 2 5.5758 33.5538 -4.9309 0.0000 0.0000 0.0000
# 3 129.9517 -4.9309 213.9067 0.0000 0.0000 0.0000
# 4 0.0000 0.0000 0.0000 -61.5522 0.0000 0.0000
# 5 0.0000 0.0000 0.0000 0.0000 45.6294 0.0000
# 6 0.0000 0.0000 0.0000 0.0000 0.0000 4.7126
#
#
#
# Elastic Compliance Matrix: (Units=1/GPa)
#
#
# Indices 1 2 3 4 5 6 
#
# 1 0.017240 -0.004419 -0.010575 0.000000 0.000000 0.000000
# 2 -0.004419 0.031037 0.003400 0.000000 0.000000 0.000000
# 3 -0.010575 0.003400 0.011178 0.000000 0.000000 0.000000
# 4 0.000000 0.000000 0.000000 -0.016246 0.000000 0.000000
# 5 0.000000 0.000000 0.000000 0.000000 0.021916 0.000000
# 6 0.000000 0.000000 0.000000 0.000000 0.000000 0.212198
#
#
# Mechanical properties :
#
#
# Convention : Reuss Voigt Hill
#
# Bulk Modulus (GPa) = 27.57387 71.97809 49.77598
# Shear Modulus (GPa) = 15.99488 14.82549 15.41019
#
# Velocity S-wave (km/s) = 2.80881 2.70418 2.75699
# Velocity P-wave (km/s) = 4.91120 6.72703 5.88951
#
# Compressibility (1/GPa) = 0.03626622
#
# Stress axis : x y z
#
# Youngs Moduli (GPa) = 58.00446 32.21971 89.46083
#
# Poissons Ratio (x) = 0.14238 0.94609
# Poissons Ratio (y) = 0.25632 -0.30417
# Poissons Ratio (z) = 0.61342 -0.10955
#
# Static dielectric constant tensor:
#      x y z
#    x 1.726270 0.000000 0.000000 
#    y 0.000000 1.744330 0.000000 
#    z 0.000000 0.000000 1.699380 
# 
# From -- ./inp_files/31648.got.cif
#   From: 2010.05.17/outbox.cif.g08.bks.cpg/sg47_16_cif.got.tgz:31648.got - 2010.06.03 20:15:42.
