data_PCOD9385642
_publ_section_title
;
Structure prediction by ZEFSAII (Michael W. Deem and Ramdas Pophale) SiO2 
 PCOD9385642
Probable space group: P M M M
;
_chemical_formula_sum "Si O2"
_cell_formula_units_Z 48
_cell_length_a 8.817184
_cell_length_b 10.237628
_cell_length_c 30.706614
_cell_angle_alpha 90.000000
_cell_angle_beta 90.000000
_cell_angle_gamma 90.000000
_cell_volume 2771.795455
_symmetry_space_group_name_H-M "P M M M"
_symmetry_group_IT_number 47
_symmetry_cell_setting 'orthorhombic'
loop_
_space_group_symop_operation_xyz
x,y,z
-x,-y,z
x,-y,-z
-x,y,-z
-x,-y,-z
x,y,-z
-x,y,z
x,-y,z
loop_
_atom_site_type_symbol
_atom_site_label
_atom_site_fract_x
_atom_site_fract_y
_atom_site_fract_z
Si Si1 0.319136 0.347782 0.728371
Si Si2 0.185124 0.000000 0.049272
Si Si3 0.814481 0.500000 0.949133
Si Si4 0.678175 0.341336 0.547868
Si Si5 0.184792 0.247454 0.104984
Si Si6 0.183656 0.153738 0.799723
Si Si7 0.172087 0.658407 0.636926
O O1 0.500000 0.344754 0.732554
O O2 0.269399 0.500000 0.736043
O O3 0.232793 0.219015 0.845613
O O4 0.245959 0.244891 0.761395
O O5 0.232474 0.126245 0.075607
O O6 0.000000 0.000000 0.048388
O O7 0.238598 0.000000 0.000000
O O8 0.765669 0.375724 0.920746
O O9 0.000000 0.500000 0.950493
O O10 0.766019 0.500000 0.000000
O O11 0.733692 0.297849 0.500000
O O12 0.500000 0.309595 0.551354
O O13 0.688032 0.500000 0.547912
O O14 0.764285 0.293588 0.590675
O O15 0.000000 0.250831 0.106048
O O16 0.272028 0.311265 0.679094
O O17 0.000000 0.155156 0.798479
O O18 0.229234 0.000000 0.797636
O O19 0.170975 0.500000 0.634279
O O20 0.000000 0.702565 0.643835
#
# Coordination Sequence:
#
# PCOD9385642 Si02
#       7
#     8   4   4   8   8   8   8
#     4  10  21  35  51  71  95 126 166 209 254 305
#     4   9  14  22  38  58  87 127 161 187 226 285
#     4   9  16  24  36  60  95 131 163 193 230 281
#     4   8  13  21  34  54  85 127 168 203 243 292
#     4   9  16  26  39  61  92 126 159 193 237 287
#     4  10  20  34  51  72  99 129 164 205 251 302
#     4   9  16  26  41  63  91 123 161 205 253 301
#
# _framework density 17.317294
#
# number of rings (size 3 to 8) (size 9 to 14) (size 15 to 20)
#    0.000    2.833    0.833    2.000    1.167    5.667 
#    0.000    1.667    0.000    0.000    0.000    0.000 
#    0.000    4.667    0.000    7.000    0.000    9.667 
#
# Total GULP energy -267265.769864 kJ/mol
# GULP energy per Si atom -5568.036872 kJ/mol
# Density = 1.727788 g / cm^3
# Si number density = 17.317294 Si / 1000 Ang^3
#
#
#
# Elastic Constant Matrix: (Units=GPa)
#
#
# Indices 1 2 3 4 5 6 
#
# 1 19.4405 18.8776 29.0406 0.0000 0.0000 0.0000
# 2 18.8776 103.5794 71.6682 0.0000 0.0000 0.0000
# 3 29.0406 71.6682 168.8193 0.0000 0.0000 0.0000
# 4 0.0000 0.0000 0.0000 13.9116 0.0000 0.0000
# 5 0.0000 0.0000 0.0000 0.0000 -33.7771 0.0000
# 6 0.0000 0.0000 0.0000 0.0000 0.0000 9.6734
#
#
#
# Elastic Compliance Matrix: (Units=1/GPa)
#
#
# Indices 1 2 3 4 5 6 
#
# 1 0.072158 -0.006460 -0.009670 0.000000 0.000000 0.000000
# 2 -0.006460 0.014248 -0.004937 0.000000 0.000000 0.000000
# 3 -0.009670 -0.004937 0.009683 0.000000 0.000000 0.000000
# 4 0.000000 0.000000 0.000000 0.071882 0.000000 0.000000
# 5 0.000000 0.000000 0.000000 0.000000 -0.029606 0.000000
# 6 0.000000 0.000000 0.000000 0.000000 0.000000 0.103376
#
#
# Mechanical properties :
#
#
# Convention : Reuss Voigt Hill
#
# Bulk Modulus (GPa) = 18.53447 59.00133 38.76790
# Shear Modulus (GPa) = 16.56393 9.44512 13.00452
#
# Velocity S-wave (km/s) = 3.09608 2.33795 2.74333
# Velocity P-wave (km/s) = 4.84841 6.43683 5.69824
#
# Compressibility (1/GPa) = 0.05395352
#
# Stress axis : x y z
#
# Youngs Moduli (GPa) = 13.85855 70.18513 103.27320
#
# Poissons Ratio (x) = 0.45339 0.99868
# Poissons Ratio (y) = 0.08952 0.50990
# Poissons Ratio (z) = 0.13402 0.34653
#
# Static dielectric constant tensor:
#      x y z
#    x 1.591410 0.000000 0.000000 
#    y 0.000000 1.538670 0.000000 
#    z 0.000000 0.000000 1.594390 
# 
# From -- ./inp_files/34140.got.cif
#   From: 2010.05.17/outbox.cif.g08.bks.cpg/sg47_18_cif.got.tgz:34140.got - 2010.06.03 20:15:42.
