data_PCOD9385423
_publ_section_title
;
Structure prediction by ZEFSAII (Michael W. Deem and Ramdas Pophale) SiO2 
 PCOD9385423
Probable space group: P M M M
;
_chemical_formula_sum "Si O2"
_cell_formula_units_Z 52
_cell_length_a 14.630986
_cell_length_b 8.060037
_cell_length_c 25.147436
_cell_angle_alpha 90.000000
_cell_angle_beta 90.000000
_cell_angle_gamma 90.000000
_cell_volume 2965.543793
_symmetry_space_group_name_H-M "P M M M"
_symmetry_group_IT_number 47
_symmetry_cell_setting 'orthorhombic'
loop_
_space_group_symop_operation_xyz
x,y,z
-x,-y,z
x,-y,-z
-x,y,-z
-x,-y,-z
x,y,-z
-x,y,z
x,-y,z
loop_
_atom_site_type_symbol
_atom_site_label
_atom_site_fract_x
_atom_site_fract_y
_atom_site_fract_z
Si Si1 0.605431 0.305446 0.335916
Si Si2 0.286417 0.806369 0.234451
Si Si3 0.897590 0.695814 0.408667
Si Si4 0.610910 0.000000 0.060733
Si Si5 0.608947 0.313041 0.132792
Si Si6 0.897557 0.799622 0.286592
Si Si7 0.703210 0.194692 0.441761
O O1 0.500000 0.252405 0.339274
O O2 0.608188 0.500000 0.322156
O O3 0.658060 0.210608 0.289418
O O4 0.654723 0.280733 0.392243
O O5 0.337122 0.710294 0.187721
O O6 0.184133 0.746806 0.248216
O O7 0.283132 0.000000 0.219244
O O8 0.892651 0.500000 0.420245
O O9 0.886979 0.722725 0.345194
O O10 0.812221 0.783042 0.435762
O O11 0.000000 0.755057 0.422963
O O12 0.636954 0.166542 0.092596
O O13 0.500000 0.000000 0.059090
O O14 0.643912 0.000000 0.000000
O O15 0.500000 0.293811 0.143233
O O16 0.623068 0.500000 0.111981
O O17 0.000000 0.760802 0.267612
O O18 0.890456 0.000000 0.292937
O O19 0.675228 0.258105 0.500000
O O20 0.681673 0.000000 0.438692
#
# Coordination Sequence:
#
# PCOD9385423 Si02
#       7
#     8   8   8   4   8   8   8
#     4  11  24  39  55  76 100 130 168 211 266 325
#     4  11  20  32  54  80 109 143 176 217 268 317
#     4  10  20  34  54  78 101 126 159 202 255 316
#     4   9  18  34  54  78 113 155 196 234 270 311
#     4  10  20  33  51  79 114 151 191 232 272 314
#     4   9  18  32  51  76 105 136 169 206 256 319
#     4  11  24  40  56  74  96 126 167 213 261 317
#
# _framework density 17.534728000000001
#
# number of rings (size 3 to 8) (size 9 to 14) (size 15 to 20)
#    0.000    1.769    2.308    2.308    0.000    6.769 
#    0.000    4.615    0.000    0.000    0.000    0.000 
#    0.000    1.231    0.000    1.385    0.000    0.154 
#
# Total GULP energy -290347.733600 kJ/mol
# GULP energy per Si atom -5583.610262 kJ/mol
# Density = 1.749482 g / cm^3
# Si number density = 17.534728 Si / 1000 Ang^3
#
#
#
# Elastic Constant Matrix: (Units=GPa)
#
#
# Indices 1 2 3 4 5 6 
#
# 1 77.2801 16.6226 30.6999 0.0000 0.0000 0.0000
# 2 16.6226 53.8363 24.7557 0.0000 0.0000 0.0000
# 3 30.6999 24.7557 89.4379 0.0000 0.0000 0.0000
# 4 0.0000 0.0000 0.0000 0.0061 0.0000 0.0000
# 5 0.0000 0.0000 0.0000 0.0000 19.6406 0.0000
# 6 0.0000 0.0000 0.0000 0.0000 0.0000 20.0205
#
#
#
# Elastic Compliance Matrix: (Units=1/GPa)
#
#
# Indices 1 2 3 4 5 6 
#
# 1 0.015305 -0.002647 -0.004521 0.000000 0.000000 0.000000
# 2 -0.002647 0.021742 -0.005109 0.000000 0.000000 0.000000
# 3 -0.004521 -0.005109 0.014147 0.000000 0.000000 0.000000
# 4 0.000000 0.000000 0.000000163.281519 0.000000 0.000000
# 5 0.000000 0.000000 0.000000 0.000000 0.050915 0.000000
# 6 0.000000 0.000000 0.000000 0.000000 0.000000 0.049949
#
#
# Mechanical properties :
#
#
# Convention : Reuss Voigt Hill
#
# Bulk Modulus (GPa) = 37.53821 40.52341 39.03081
# Shear Modulus (GPa) = 0.03059 17.83184 8.93121
#
# Velocity S-wave (km/s) = 0.13222 3.19242 2.25931
# Velocity P-wave (km/s) = 4.63440 6.06212 5.39569
#
# Compressibility (1/GPa) = 0.02663952
#
# Stress axis : x y z
#
# Youngs Moduli (GPa) = 65.33713 45.99496 70.68629
#
# Poissons Ratio (x) = 0.12174 0.31957
# Poissons Ratio (y) = 0.17293 0.36116
# Poissons Ratio (z) = 0.29539 0.23501
#
# Static dielectric constant tensor:
#      x y z
#    x 1.604960 0.000000 0.000000 
#    y 0.000000 1.619410 0.000000 
#    z 0.000000 0.000000 1.568640 
# 
# From -- ./inp_files/30829.got.cif
#   From: 2010.05.17/outbox.cif.g08.bks.cpg/sg47_16_cif.got.tgz:30829.got - 2010.06.03 20:15:42.
