data_PCOD9385176
_publ_section_title
;
Structure prediction by ZEFSAII (Michael W. Deem and Ramdas Pophale) SiO2 
 PCOD9385176
Probable space group: P M M M
;
_chemical_formula_sum "Si O2"
_cell_formula_units_Z 40
_cell_length_a 9.319418
_cell_length_b 7.606260
_cell_length_c 26.825888
_cell_angle_alpha 90.000000
_cell_angle_beta 90.000000
_cell_angle_gamma 90.000000
_cell_volume 1901.577653
_symmetry_space_group_name_H-M "P M M M"
_symmetry_group_IT_number 47
_symmetry_cell_setting 'orthorhombic'
loop_
_space_group_symop_operation_xyz
x,y,z
-x,-y,z
x,-y,-z
-x,y,-z
-x,-y,-z
x,y,-z
-x,y,z
x,-y,z
loop_
_atom_site_type_symbol
_atom_site_label
_atom_site_fract_x
_atom_site_fract_y
_atom_site_fract_z
Si Si1 0.834480 0.784838 0.400938
Si Si2 0.663195 0.211160 0.303462
Si Si3 0.162440 0.711430 0.203510
Si Si4 0.336396 0.791192 0.000000
Si Si5 0.663887 0.290605 0.891592
Si Si6 0.665491 0.214840 0.500000
O O1 0.752790 0.725151 0.351176
O O2 0.749261 0.729744 0.450342
O O3 0.000000 0.728644 0.401635
O O4 0.834894 0.000000 0.400738
O O5 0.500000 0.278508 0.302854
O O6 0.744893 0.250137 0.252356
O O7 0.655736 0.000000 0.308072
O O8 0.154326 0.500000 0.199183
O O9 0.241585 0.779040 0.153832
O O10 0.000000 0.778655 0.208299
O O11 0.272635 0.738694 0.946797
O O12 0.500000 0.716923 0.000000
O O13 0.344438 0.000000 0.000000
O O14 0.500000 0.219552 0.890423
O O15 0.653508 0.500000 0.885007
O O16 0.500000 0.271632 0.500000
O O17 0.664716 0.000000 0.500000
#
# Coordination Sequence:
#
# PCOD9385176 Si02
#       6
#     8   8   8   4   8   4
#     4   9  16  26  41  63  93 128 164 203 250 301
#     4  10  20  33  50  73 100 130 165 206 253 303
#     4  10  21  36  53  74 100 131 168 208 250 297
#     4   9  17  29  48  75 102 126 158 201 244 287
#     4   9  17  31  51  72  95 126 163 201 242 289
#     4   9  15  23  37  59  90 127 166 207 248 293
#
# _framework density 21.035164000000002
#
# number of rings (size 3 to 8) (size 9 to 14) (size 15 to 20)
#    0.000    2.600    0.000    2.400    0.000    8.000 
#    0.000    2.500    0.000    3.000    0.000    0.700 
#    0.000    5.600    0.000    0.000    0.000    0.000 
#
# Total GULP energy -223331.020710 kJ/mol
# GULP energy per Si atom -5583.275518 kJ/mol
# Density = 2.098729 g / cm^3
# Si number density = 21.035164 Si / 1000 Ang^3
#
#
#
# Elastic Constant Matrix: (Units=GPa)
#
#
# Indices 1 2 3 4 5 6 
#
# 1 196.5504 6.6723 137.4608 0.0000 0.0000 0.0000
# 2 6.6723 44.1897 -1.2715 0.0000 0.0000 0.0000
# 3 137.4608 -1.2715 248.7455 0.0000 0.0000 0.0000
# 4 0.0000 0.0000 0.0000 24.1790 0.0000 0.0000
# 5 0.0000 0.0000 0.0000 0.0000 65.4017 0.0000
# 6 0.0000 0.0000 0.0000 0.0000 0.0000 7.8283
#
#
#
# Elastic Compliance Matrix: (Units=1/GPa)
#
#
# Indices 1 2 3 4 5 6 
#
# 1 0.008378 -0.001398 -0.004637 0.000000 0.000000 0.000000
# 2 -0.001398 0.022866 0.000890 0.000000 0.000000 0.000000
# 3 -0.004637 0.000890 0.006587 0.000000 0.000000 0.000000
# 4 0.000000 0.000000 0.000000 0.041358 0.000000 0.000000
# 5 0.000000 0.000000 0.000000 0.000000 0.015290 0.000000
# 6 0.000000 0.000000 0.000000 0.000000 0.000000 0.127742
#
#
# Mechanical properties :
#
#
# Convention : Reuss Voigt Hill
#
# Bulk Modulus (GPa) = 36.31053 86.13432 61.22243
# Shear Modulus (GPa) = 20.68731 42.59006 31.63869
#
# Velocity S-wave (km/s) = 3.13942 4.50456 3.88246
# Velocity P-wave (km/s) = 5.51730 8.25175 7.01897
#
# Compressibility (1/GPa) = 0.02754022
#
# Stress axis : x y z
#
# Youngs Moduli (GPa) = 119.35628 43.73218 151.80792
#
# Poissons Ratio (x) = 0.06116 0.70395
# Poissons Ratio (y) = 0.16692 -0.13507
# Poissons Ratio (z) = 0.55347 -0.03891
#
# Static dielectric constant tensor:
#      x y z
#    x 1.737800 0.000000 0.000000 
#    y 0.000000 1.803040 0.000000 
#    z 0.000000 0.000000 1.728260 
# 
# From -- ./inp_files/33008.got.cif
#   From: 2010.05.17/outbox.cif.g08.bks.cpg/sg47_17_cif.got.tgz:33008.got - 2010.06.03 20:15:42.
