data_PCOD9385035
_publ_section_title
;
Structure prediction by ZEFSAII (Michael W. Deem and Ramdas Pophale) SiO2 
 PCOD9385035
Probable space group: P M M M
;
_chemical_formula_sum "Si O2"
_cell_formula_units_Z 44
_cell_length_a 9.545716
_cell_length_b 7.374361
_cell_length_c 29.955753
_cell_angle_alpha 90.000000
_cell_angle_beta 90.000000
_cell_angle_gamma 90.000000
_cell_volume 2108.691970
_symmetry_space_group_name_H-M "P M M M"
_symmetry_group_IT_number 47
_symmetry_cell_setting 'orthorhombic'
loop_
_space_group_symop_operation_xyz
x,y,z
-x,-y,z
x,-y,-z
-x,y,-z
-x,-y,-z
x,y,-z
-x,y,z
x,-y,z
loop_
_atom_site_type_symbol
_atom_site_label
_atom_site_fract_x
_atom_site_fract_y
_atom_site_fract_z
Si Si1 0.158490 0.284833 0.415703
Si Si2 0.339911 0.781795 0.671411
Si Si3 0.337611 0.221987 0.134361
Si Si4 0.329457 0.789231 0.231373
Si Si5 0.661445 0.722053 0.500000
Si Si6 0.837488 0.220795 0.950722
O O1 0.147645 0.500000 0.422955
O O2 0.236928 0.259665 0.368874
O O3 0.255035 0.216398 0.456078
O O4 0.000000 0.211996 0.415706
O O5 0.500000 0.718711 0.662634
O O6 0.290955 0.712639 0.720161
O O7 0.347191 0.000000 0.675051
O O8 0.500000 0.273374 0.129445
O O9 0.285400 0.285411 0.183193
O O10 0.250055 0.282654 0.091765
O O11 0.334074 0.000000 0.135422
O O12 0.500000 0.785294 0.230850
O O13 0.285752 0.000000 0.231463
O O14 0.659255 0.500000 0.500000
O O15 0.500000 0.780350 0.500000
O O16 0.000000 0.273078 0.946690
O O17 0.833494 0.000000 0.950358
O O18 0.786417 0.277416 0.000000
#
# Coordination Sequence:
#
# PCOD9385035 Si02
#       6
#     8   8   8   8   4   8
#     4  10  20  33  49  70  96 122 146 176 216 258
#     4   9  17  30  48  68  90 117 149 184 220 258
#     4   8  12  18  29  43  58  80 114 154 193 235
#     4   7  11  21  36  53  73  97 126 163 206 246
#     4   9  17  31  52  73  90 113 148 184 214 251
#     4   8  13  19  24  32  51  79 110 148 194 237
#
# _framework density 20.866018
#
# number of rings (size 3 to 8) (size 9 to 14) (size 15 to 20)
#    0.000    3.545    0.000    3.545    0.000    2.909 
#    0.000    3.182    0.000    6.000    0.000    0.000 
#    0.000    0.000    0.000    0.000    0.000    0.909 
#
# Total GULP energy -245237.239710 kJ/mol
# GULP energy per Si atom -5573.573630 kJ/mol
# Density = 2.081853 g / cm^3
# Si number density = 20.866018 Si / 1000 Ang^3
#
#
#
# Elastic Constant Matrix: (Units=GPa)
#
#
# Indices 1 2 3 4 5 6 
#
# 1 117.4137 5.5755 121.9631 0.0000 0.0000 0.0000
# 2 5.5755 73.2535 4.9727 0.0000 0.0000 0.0000
# 3 121.9631 4.9727 263.5746 0.0000 0.0000 0.0000
# 4 0.0000 0.0000 0.0000 16.2506 0.0000 0.0000
# 5 0.0000 0.0000 0.0000 0.0000 -31.1893 0.0000
# 6 0.0000 0.0000 0.0000 0.0000 0.0000 -0.1940
#
#
#
# Elastic Compliance Matrix: (Units=1/GPa)
#
#
# Indices 1 2 3 4 5 6 
#
# 1 0.016439 -0.000736 -0.007593 0.000000 0.000000 0.000000
# 2 -0.000736 0.013702 0.000082 0.000000 0.000000 0.000000
# 3 -0.007593 0.000082 0.007306 0.000000 0.000000 0.000000
# 4 0.000000 0.000000 0.000000 0.061536 0.000000 0.000000
# 5 0.000000 0.000000 0.000000 0.000000 -0.032062 0.000000
# 6 0.000000 0.000000 0.000000 0.000000 0.000000 -5.154448
#
#
# Mechanical properties :
#
#
# Convention : Reuss Voigt Hill
#
# Bulk Modulus (GPa) = 47.72566 79.91828 63.82197
# Shear Modulus (GPa) = -0.98735 18.42216 8.71740
#
# Velocity S-wave (km/s) = -0.68863 2.97455 2.04618
# Velocity P-wave (km/s) = 4.72121 7.08386 6.01959
#
# Compressibility (1/GPa) = 0.02095309
#
# Stress axis : x y z
#
# Youngs Moduli (GPa) = 60.83146 72.98387 136.87656
#
# Poissons Ratio (x) = 0.05370 1.03928
# Poissons Ratio (y) = 0.04476 -0.01122
# Poissons Ratio (z) = 0.46188 -0.00598
#
# Static dielectric constant tensor:
#      x y z
#    x 1.696870 0.000000 0.000000 
#    y 0.000000 1.864590 0.000000 
#    z 0.000000 0.000000 1.767840 
# 
# From -- ./inp_files/33951.got.cif
#   From: 2010.05.17/outbox.cif.g08.bks.cpg/sg47_17_cif.got.tgz:33951.got - 2010.06.03 20:15:42.
