data_PCOD9385356
_publ_section_title
;
Structure prediction by ZEFSAII (Michael W. Deem and Ramdas Pophale) SiO2 
 PCOD9385356
Probable space group: P M M M
;
_chemical_formula_sum "Si O2"
_cell_formula_units_Z 48
_cell_length_a 32.020271
_cell_length_b 9.091553
_cell_length_c 9.581814
_cell_angle_alpha 90.000000
_cell_angle_beta 90.000000
_cell_angle_gamma 90.000000
_cell_volume 2789.400113
_symmetry_space_group_name_H-M "P M M M"
_symmetry_group_IT_number 47
_symmetry_cell_setting 'orthorhombic'
loop_
_space_group_symop_operation_xyz
x,y,z
-x,-y,z
x,-y,-z
-x,y,-z
-x,-y,-z
x,y,-z
-x,y,z
x,-y,z
loop_
_atom_site_type_symbol
_atom_site_label
_atom_site_fract_x
_atom_site_fract_y
_atom_site_fract_z
Si Si1 0.626160 0.179605 0.839496
Si Si2 0.206978 0.669331 0.669757
Si Si3 0.707279 0.823295 0.335714
Si Si4 0.878526 0.174646 0.665802
Si Si5 0.453004 0.820860 0.338612
Si Si6 0.952386 0.324212 0.834619
O O1 0.667335 0.223616 0.754010
O O2 0.584143 0.229395 0.761091
O O3 0.625626 0.000000 0.838331
O O4 0.627446 0.226887 0.000000
O O5 0.207003 0.672933 0.500000
O O6 0.206251 0.500000 0.714164
O O7 0.249774 0.748481 0.712347
O O8 0.164893 0.751887 0.714020
O O9 0.700512 0.789395 0.500000
O O10 0.711667 0.000000 0.324975
O O11 0.883142 0.204391 0.500000
O O12 0.917580 0.241079 0.747311
O O13 0.876145 0.000000 0.684720
O O14 0.445560 0.778592 0.500000
O O15 0.500000 0.774389 0.298586
O O16 0.452830 0.000000 0.335906
O O17 0.948240 0.500000 0.814001
O O18 0.000000 0.282996 0.795828
O O19 0.947445 0.295898 0.000000
#
# Coordination Sequence:
#
# PCOD9385356 Si02
#       6
#     8   8   8   8   8   8
#     4   9  16  24  35  54  81 112 145 182 224 268
#     4   9  17  30  49  71  93 119 154 195 236 278
#     4   9  16  27  44  63  84 113 148 184 224 272
#     4  10  20  33  51  77 106 132 161 200 245 292
#     4   8  13  21  33  50  75 109 147 183 219 263
#     4   9  19  36  55  74  99 133 171 207 243 286
#
# _framework density 17.207999999999998
#
# number of rings (size 3 to 8) (size 9 to 14) (size 15 to 20)
#    0.000    3.000    0.000    2.500    0.000    6.333 
#    0.000    5.000    0.000    3.500    0.000    0.000 
#    0.000    0.667    0.000    7.667    0.000    9.833 
#
# Total GULP energy -267491.719840 kJ/mol
# GULP energy per Si atom -5572.744163 kJ/mol
# Density = 1.716883 g / cm^3
# Si number density = 17.208000 Si / 1000 Ang^3
#
#
#
# Elastic Constant Matrix: (Units=GPa)
#
#
# Indices 1 2 3 4 5 6 
#
# 1 214.2156 62.8606 99.0670 0.0000 0.0000 0.0000
# 2 62.8606 31.7500 39.0523 0.0000 0.0000 0.0000
# 3 99.0670 39.0523 73.0929 0.0000 0.0000 0.0000
# 4 0.0000 0.0000 0.0000 14.1203 0.0000 0.0000
# 5 0.0000 0.0000 0.0000 0.0000 -7.8440 0.0000
# 6 0.0000 0.0000 0.0000 0.0000 0.0000 -19.6898
#
#
#
# Elastic Compliance Matrix: (Units=1/GPa)
#
#
# Indices 1 2 3 4 5 6 
#
# 1 0.014108 -0.012871 -0.012244 0.000000 0.000000 0.000000
# 2 -0.012871 0.103612 -0.037914 0.000000 0.000000 0.000000
# 3 -0.012244 -0.037914 0.050533 0.000000 0.000000 0.000000
# 4 0.000000 0.000000 0.000000 0.070820 0.000000 0.000000
# 5 0.000000 0.000000 0.000000 0.000000 -0.127486 0.000000
# 6 0.000000 0.000000 0.000000 0.000000 0.000000 -0.050788
#
#
# Mechanical properties :
#
#
# Convention : Reuss Voigt Hill
#
# Bulk Modulus (GPa) = 23.69926 80.11314 51.90620
# Shear Modulus (GPa) = 24.88546 5.18921 15.03734
#
# Velocity S-wave (km/s) = 3.80696 1.73843 2.95931
# Velocity P-wave (km/s) = 5.75553 7.11943 6.47350
#
# Compressibility (1/GPa) = 0.04219542
#
# Stress axis : x y z
#
# Youngs Moduli (GPa) = 70.88425 9.65141 19.78908
#
# Poissons Ratio (x) = 0.12422 0.24230
# Poissons Ratio (y) = 0.91233 0.75027
# Poissons Ratio (z) = 0.86791 0.36592
#
# Static dielectric constant tensor:
#      x y z
#    x 1.573280 0.000000 0.000000 
#    y 0.000000 1.571810 0.000000 
#    z 0.000000 0.000000 1.568950 
# 
# From -- ./inp_files/2479.got.cif
#   From: 2010.05.17/outbox.cif.g08.bks.cpg/sg47_2_cif.got.tgz:2479.got - 2010.06.03 20:15:42.
