data_PCOD9385173
_publ_section_title
;
Structure prediction by ZEFSAII (Michael W. Deem and Ramdas Pophale) SiO2 
 PCOD9385173
Probable space group: P M M M
;
_chemical_formula_sum "Si O2"
_cell_formula_units_Z 40
_cell_length_a 9.166250
_cell_length_b 9.313870
_cell_length_c 26.907440
_cell_angle_alpha 90.000000
_cell_angle_beta 90.000000
_cell_angle_gamma 90.000000
_cell_volume 2297.175895
_symmetry_space_group_name_H-M "P M M M"
_symmetry_group_IT_number 47
_symmetry_cell_setting 'orthorhombic'
loop_
_space_group_symop_operation_xyz
x,y,z
-x,-y,z
x,-y,-z
-x,y,-z
-x,-y,-z
x,y,-z
-x,y,z
x,-y,z
loop_
_atom_site_type_symbol
_atom_site_label
_atom_site_fract_x
_atom_site_fract_y
_atom_site_fract_z
Si Si1 0.167885 0.674664 0.500000
Si Si2 0.322031 0.165869 0.097733
Si Si3 0.321792 0.664805 0.000000
Si Si4 0.672198 0.672364 0.601342
Si Si5 0.171456 0.827403 0.692387
Si Si6 0.331461 0.174788 0.207124
O O1 0.168382 0.500000 0.500000
O O2 0.250300 0.718961 0.449858
O O3 0.000000 0.722366 0.500000
O O4 0.500000 0.166468 0.098557
O O5 0.273894 0.256109 0.050288
O O6 0.278163 0.221050 0.152422
O O7 0.276882 0.000000 0.091992
O O8 0.276964 0.500000 0.000000
O O9 0.500000 0.669265 0.000000
O O10 0.500000 0.701573 0.598843
O O11 0.691376 0.500000 0.606177
O O12 0.743826 0.750433 0.648065
O O13 0.235956 0.782067 0.745834
O O14 0.000000 0.795772 0.689455
O O15 0.190480 0.000000 0.688401
O O16 0.500000 0.219806 0.214191
O O17 0.331688 0.000000 0.205204
#
# Coordination Sequence:
#
# PCOD9385173 Si02
#       6
#     4   8   4   8   8   8
#     4   9  17  31  52  75 100 131 164 200 242 285
#     4   8  13  22  37  55  76 108 149 185 218 266
#     4   9  15  21  31  53  86 115 136 172 230 281
#     4  10  20  34  53  76 100 128 164 203 241 284
#     4  10  20  33  50  73 100 129 160 197 244 294
#     4   8  14  26  44  64  87 118 155 192 230 276
#
# _framework density 17.412685
#
# number of rings (size 3 to 8) (size 9 to 14) (size 15 to 20)
#    0.000    3.000    0.000    3.000    0.000    4.800 
#    0.000    1.500    0.000    6.600    0.000    0.700 
#    0.000    5.600    0.000    0.000    0.000    0.000 
#
# Total GULP energy -222885.430211 kJ/mol
# GULP energy per Si atom -5572.135755 kJ/mol
# Density = 1.737305 g / cm^3
# Si number density = 17.412685 Si / 1000 Ang^3
#
#
#
# Elastic Constant Matrix: (Units=GPa)
#
#
# Indices 1 2 3 4 5 6 
#
# 1 86.0167 36.6481 85.5584 0.0000 0.0000 0.0000
# 2 36.6481 33.9270 60.8578 0.0000 0.0000 0.0000
# 3 85.5584 60.8578 219.1293 0.0000 0.0000 0.0000
# 4 0.0000 0.0000 0.0000 175.2539 0.0000 0.0000
# 5 0.0000 0.0000 0.0000 0.0000 -7.4815 0.0000
# 6 0.0000 0.0000 0.0000 0.0000 0.0000 14.7576
#
#
#
# Elastic Compliance Matrix: (Units=1/GPa)
#
#
# Indices 1 2 3 4 5 6 
#
# 1 0.023333 -0.017661 -0.004206 0.000000 0.000000 0.000000
# 2 -0.017661 0.072104 -0.013129 0.000000 0.000000 0.000000
# 3 -0.004206 -0.013129 0.009852 0.000000 0.000000 0.000000
# 4 0.000000 0.000000 0.000000 0.005706 0.000000 0.000000
# 5 0.000000 0.000000 0.000000 0.000000 -0.133662 0.000000
# 6 0.000000 0.000000 0.000000 0.000000 0.000000 0.067762
#
#
# Mechanical properties :
#
#
# Convention : Reuss Voigt Hill
#
# Bulk Modulus (GPa) = 28.33073 78.35572 53.34323
# Shear Modulus (GPa) = 39.41594 46.90657 43.16126
#
# Velocity S-wave (km/s) = 4.76293 5.19583 4.98408
# Velocity P-wave (km/s) = 6.82296 9.00513 7.98891
#
# Compressibility (1/GPa) = 0.03529736
#
# Stress axis : x y z
#
# Youngs Moduli (GPa) = 42.85704 13.86887 101.50274
#
# Poissons Ratio (x) = 0.24494 0.42688
# Poissons Ratio (y) = 0.75690 1.33268
# Poissons Ratio (z) = 0.18024 0.18209
#
# Static dielectric constant tensor:
#      x y z
#    x 1.575350 0.000000 0.000000 
#    y 0.000000 1.583150 0.000000 
#    z 0.000000 0.000000 1.593770 
# 
# From -- ./inp_files/13083.got.cif
#   From: 2010.05.17/outbox.cif.g08.bks.cpg/sg47_7_cif.got.tgz:13083.got - 2010.06.03 20:15:42.
