data_PCOD9385013
_publ_section_title
;
Structure prediction by ZEFSAII (Michael W. Deem and Ramdas Pophale) SiO2 
 PCOD9385013
Probable space group: P M M M
;
_chemical_formula_sum "Si O2"
_cell_formula_units_Z 64
_cell_length_a 14.891505
_cell_length_b 7.968597
_cell_length_c 32.252952
_cell_angle_alpha 90.000000
_cell_angle_beta 90.000000
_cell_angle_gamma 90.000000
_cell_volume 3827.277264
_symmetry_space_group_name_H-M "P M M M"
_symmetry_group_IT_number 47
_symmetry_cell_setting 'orthorhombic'
loop_
_space_group_symop_operation_xyz
x,y,z
-x,-y,z
x,-y,-z
-x,y,-z
-x,-y,-z
x,y,-z
-x,y,z
x,-y,z
loop_
_atom_site_type_symbol
_atom_site_label
_atom_site_fract_x
_atom_site_fract_y
_atom_site_fract_z
Si Si1 0.399794 0.301578 0.161607
Si Si2 0.219043 0.199112 0.875420
Si Si3 0.897007 0.799058 0.365513
Si Si4 0.211705 0.206007 0.714400
Si Si5 0.896524 0.205101 0.203217
Si Si6 0.898115 0.297544 0.952910
Si Si7 0.400154 0.801627 0.255261
Si Si8 0.105288 0.297992 0.544736
O O1 0.500000 0.248455 0.148067
O O2 0.401535 0.500000 0.169047
O O3 0.319843 0.263876 0.130290
O O4 0.381196 0.217714 0.206162
O O5 0.158195 0.264124 0.837107
O O6 0.171617 0.241187 0.918476
O O7 0.222828 0.000000 0.871105
O O8 0.836535 0.737055 0.327614
O O9 0.858360 0.761845 0.411204
O O10 0.000000 0.733369 0.362931
O O11 0.902393 0.000000 0.361473
O O12 0.153834 0.255660 0.754671
O O13 0.313999 0.265839 0.720366
O O14 0.213223 0.000000 0.714218
O O15 0.000000 0.259944 0.202421
O O16 0.897000 0.000000 0.202634
O O17 0.899034 0.500000 0.953158
O O18 0.000000 0.240910 0.942608
O O19 0.877799 0.241869 0.000000
O O20 0.500000 0.729529 0.263063
O O21 0.404704 0.000000 0.264039
O O22 0.143152 0.241054 0.500000
O O23 0.107873 0.500000 0.544959
O O24 0.000000 0.246843 0.544913
#
# Coordination Sequence:
#
# PCOD9385013 Si02
#       8
#     8   8   8   8   8   8   8   8
#     4  10  20  33  49  69  93 121 154 192 235 281
#     4  11  20  31  50  75  98 122 156 196 232 268
#     4   9  16  24  37  57  80 110 145 177 209 251
#     4   9  15  25  39  59  87 117 146 177 216 261
#     4   9  16  25  39  62  91 121 150 179 212 253
#     4   9  19  36  55  74 100 133 161 187 226 273
#     4   9  16  28  46  65  85 112 150 192 229 265
#     4   8  14  25  39  53  73 104 139 175 216 258
#
# _framework density 16.722069999999999
#
# number of rings (size 3 to 8) (size 9 to 14) (size 15 to 20)
#    0.000    2.750    1.250    2.250    0.000    3.500 
#    0.000    2.500    0.000    0.375    0.000    2.625 
#    0.000    0.500    0.000    6.250    0.000    1.250 
#
# Total GULP energy -356609.325176 kJ/mol
# GULP energy per Si atom -5572.020706 kJ/mol
# Density = 1.668401 g / cm^3
# Si number density = 16.722070 Si / 1000 Ang^3
#
#
#
# Elastic Constant Matrix: (Units=GPa)
#
#
# Indices 1 2 3 4 5 6 
#
# 1 122.0531 6.8325 74.8431 0.0000 0.0000 0.0000
# 2 6.8325 12.7538 3.2271 0.0000 0.0000 0.0000
# 3 74.8431 3.2271 119.5903 0.0000 0.0000 0.0000
# 4 0.0000 0.0000 0.0000 34.8134 0.0000 0.0000
# 5 0.0000 0.0000 0.0000 0.0000 9.5311 0.0000
# 6 0.0000 0.0000 0.0000 0.0000 0.0000 10.4456
#
#
#
# Elastic Compliance Matrix: (Units=1/GPa)
#
#
# Indices 1 2 3 4 5 6 
#
# 1 0.013627 -0.005178 -0.008388 0.000000 0.000000 0.000000
# 2 -0.005178 0.080915 0.001057 0.000000 0.000000 0.000000
# 3 -0.008388 0.001057 0.013583 0.000000 0.000000 0.000000
# 4 0.000000 0.000000 0.000000 0.028725 0.000000 0.000000
# 5 0.000000 0.000000 0.000000 0.000000 0.104919 0.000000
# 6 0.000000 0.000000 0.000000 0.000000 0.000000 0.095734
#
#
# Mechanical properties :
#
#
# Convention : Reuss Voigt Hill
#
# Bulk Modulus (GPa) = 12.03281 47.13364 29.58322
# Shear Modulus (GPa) = 12.81322 22.25765 17.53543
#
# Velocity S-wave (km/s) = 2.77112 3.65229 3.24178
# Velocity P-wave (km/s) = 4.17734 6.78479 5.63398
#
# Compressibility (1/GPa) = 0.08310613
#
# Stress axis : x y z
#
# Youngs Moduli (GPa) = 73.38530 12.35871 73.62148
#
# Poissons Ratio (x) = 0.06399 0.61756
# Poissons Ratio (y) = 0.37997 -0.07781
# Poissons Ratio (z) = 0.61558 -0.01306
#
# Static dielectric constant tensor:
#      x y z
#    x 1.575170 0.000000 0.000000 
#    y 0.000000 1.609000 0.000000 
#    z 0.000000 0.000000 1.563500 
# 
# From -- ./inp_files/14275.got.cif
#   From: 2010.05.17/outbox.cif.g08.bks.cpg/sg47_8_cif.got.tgz:14275.got - 2010.06.03 20:15:42.
