data_PCOD9385033
_publ_section_title
;
Structure prediction by ZEFSAII (Michael W. Deem and Ramdas Pophale) SiO2 
 PCOD9385033
Probable space group: P M M M
;
_chemical_formula_sum "Si O2"
_cell_formula_units_Z 52
_cell_length_a 15.822489
_cell_length_b 20.854598
_cell_length_c 8.193343
_cell_angle_alpha 90.000000
_cell_angle_beta 90.000000
_cell_angle_gamma 90.000000
_cell_volume 2703.570888
_symmetry_space_group_name_H-M "P M M M"
_symmetry_group_IT_number 47
_symmetry_cell_setting 'orthorhombic'
loop_
_space_group_symop_operation_xyz
x,y,z
-x,-y,z
x,-y,-z
-x,y,-z
-x,-y,-z
x,y,-z
-x,y,z
x,-y,z
loop_
_atom_site_type_symbol
_atom_site_label
_atom_site_fract_x
_atom_site_fract_y
_atom_site_fract_z
Si Si1 0.864667 0.000000 0.689483
Si Si2 0.780379 0.249895 0.194008
Si Si3 0.593769 0.254600 0.188014
Si Si4 0.593526 0.882629 0.684455
Si Si5 0.688066 0.000000 0.182204
Si Si6 0.097814 0.360801 0.693613
Si Si7 0.906814 0.860457 0.802658
Si Si8 0.102218 0.500000 0.810696
O O1 0.906803 0.068707 0.724904
O O2 0.838140 0.000000 0.500000
O O3 0.787530 0.000000 0.814193
O O4 0.686952 0.268506 0.261463
O O5 0.843851 0.308340 0.222595
O O6 0.829624 0.185579 0.254318
O O7 0.768461 0.239925 0.000000
O O8 0.500000 0.272302 0.258928
O O9 0.596024 0.177257 0.196167
O O10 0.592904 0.276803 0.000000
O O11 0.605070 0.858134 0.500000
O O12 0.500000 0.912085 0.693963
O O13 0.658904 0.936742 0.726386
O O14 0.652782 0.000000 0.000000
O O15 0.099240 0.350186 0.500000
O O16 0.128572 0.433168 0.729978
O O17 0.000000 0.355606 0.750025
O O18 0.000000 0.830919 0.768517
O O19 0.899937 0.866800 0.000000
O O20 0.000000 0.500000 0.800192
O O21 0.126563 0.500000 0.000000
#
# Coordination Sequence:
#
# PCOD9385033 Si02
#       8
#     4   8   8   8   4   8   8   4
#     4  12  25  38  53  71  93 125 168 217 268 320
#     4  10  20  34  54  79 105 137 178 220 261 308
#     4   9  18  33  52  74 101 134 172 212 254 304
#     4  10  20  33  49  70  95 120 151 199 258 315
#     4  12  23  34  49  67  89 119 157 199 248 311
#     4  10  20  33  51  79 115 149 179 215 259 306
#     4  10  21  37  55  74  99 133 174 219 265 317
#     4   9  17  31  53  79 110 149 186 215 247 298
#
# _framework density 19.233822
#
# number of rings (size 3 to 8) (size 9 to 14) (size 15 to 20)
#    0.000    1.923    0.000    4.385    0.000    8.000 
#    0.000    0.000    0.000    0.000    0.000    0.538 
#    0.000    4.308    0.000    0.000    0.000    0.000 
#
# Total GULP energy -289778.373508 kJ/mol
# GULP energy per Si atom -5572.661029 kJ/mol
# Density = 1.919004 g / cm^3
# Si number density = 19.233822 Si / 1000 Ang^3
#
#
#
# Elastic Constant Matrix: (Units=GPa)
#
#
# Indices 1 2 3 4 5 6 
#
# 1 120.1636 41.2332 6.2877 0.0000 0.0000 0.0000
# 2 41.2332 67.1327 -3.6833 0.0000 0.0000 0.0000
# 3 6.2877 -3.6833 31.1071 0.0000 0.0000 0.0000
# 4 0.0000 0.0000 0.0000 62.3860 0.0000 0.0000
# 5 0.0000 0.0000 0.0000 0.0000 13.2817 0.0000
# 6 0.0000 0.0000 0.0000 0.0000 0.0000 8.6853
#
#
#
# Elastic Compliance Matrix: (Units=1/GPa)
#
#
# Indices 1 2 3 4 5 6 
#
# 1 0.010814 -0.006806 -0.002992 0.000000 0.000000 0.000000
# 2 -0.006806 0.019277 0.003658 0.000000 0.000000 0.000000
# 3 -0.002992 0.003658 0.033185 0.000000 0.000000 0.000000
# 4 0.000000 0.000000 0.000000 0.016029 0.000000 0.000000
# 5 0.000000 0.000000 0.000000 0.000000 0.075291 0.000000
# 6 0.000000 0.000000 0.000000 0.000000 0.000000 0.115137
#
#
# Mechanical properties :
#
#
# Convention : Reuss Voigt Hill
#
# Bulk Modulus (GPa) = 19.60916 34.00874 26.80895
# Shear Modulus (GPa) = 16.72176 28.50833 22.61504
#
# Velocity S-wave (km/s) = 2.95175 3.85411 3.43271
# Velocity P-wave (km/s) = 4.67273 6.12582 5.44794
#
# Compressibility (1/GPa) = 0.05099656
#
# Stress axis : x y z
#
# Youngs Moduli (GPa) = 92.47252 51.87534 30.13423
#
# Poissons Ratio (x) = 0.35307 0.09015
# Poissons Ratio (y) = 0.62938 -0.11024
# Poissons Ratio (z) = 0.27666 -0.18977
#
# Static dielectric constant tensor:
#      x y z
#    x 1.749890 0.000000 0.000000 
#    y 0.000000 1.627250 0.000000 
#    z 0.000000 0.000000 1.683260 
# 
# From -- ./inp_files/7155.got.cif
#   From: 2010.05.17/outbox.cif.g08.bks.cpg/sg47_4_cif.got.tgz:7155.got - 2010.06.03 20:15:42.
