data_PCOD9385111
_publ_section_title
;
Structure prediction by ZEFSAII (Michael W. Deem and Ramdas Pophale) SiO2 
 PCOD9385111
Probable space group: P M M M
;
_chemical_formula_sum "Si O2"
_cell_formula_units_Z 48
_cell_length_a 31.783555
_cell_length_b 9.703469
_cell_length_c 7.516260
_cell_angle_alpha 90.000000
_cell_angle_beta 90.000000
_cell_angle_gamma 90.000000
_cell_volume 2318.095314
_symmetry_space_group_name_H-M "P M M M"
_symmetry_group_IT_number 47
_symmetry_cell_setting 'orthorhombic'
loop_
_space_group_symop_operation_xyz
x,y,z
-x,-y,z
x,-y,-z
-x,y,-z
-x,-y,-z
x,y,-z
-x,y,z
x,-y,z
loop_
_atom_site_type_symbol
_atom_site_label
_atom_site_fract_x
_atom_site_fract_y
_atom_site_fract_z
Si Si1 0.702753 0.655432 0.709251
Si Si2 0.046687 0.340634 0.282865
Si Si3 0.876282 0.156522 0.286192
Si Si4 0.547778 0.657521 0.283269
Si Si5 0.374284 0.841586 0.718115
Si Si6 0.781262 0.157088 0.210385
O O1 0.693665 0.641871 0.500000
O O2 0.704459 0.500000 0.783370
O O3 0.665374 0.751422 0.781074
O O4 0.746463 0.737092 0.723693
O O5 0.047153 0.338402 0.500000
O O6 0.051175 0.500000 0.229892
O O7 0.085766 0.250559 0.219558
O O8 0.000000 0.292003 0.228544
O O9 0.879799 0.152316 0.500000
O O10 0.828990 0.204406 0.245934
O O11 0.879906 0.000000 0.218782
O O12 0.547798 0.658307 0.500000
O O13 0.500000 0.689169 0.226769
O O14 0.557877 0.500000 0.229748
O O15 0.582964 0.765149 0.225807
O O16 0.373886 0.843261 0.500000
O O17 0.371805 0.000000 0.775731
O O18 0.776522 0.000000 0.283285
O O19 0.775789 0.148501 0.000000
#
# Coordination Sequence:
#
# PCOD9385111 Si02
#       6
#     8   8   8   8   8   8
#     4  10  20  33  50  71  94 122 158 199 241 286
#     4   8  14  25  42  66  95 123 151 187 230 272
#     4   9  17  29  47  71  96 122 154 192 232 276
#     4   8  13  21  33  51  80 118 154 187 227 276
#     4   9  16  25  39  60  86 117 153 193 235 279
#     4  10  21  36  52  70  95 126 158 195 241 290
#
# _framework density 20.706654
#
# number of rings (size 3 to 8) (size 9 to 14) (size 15 to 20)
#    0.000    3.000    0.000    2.500    0.000    5.333 
#    0.000    5.000    0.000    0.500    0.000    3.500 
#    0.000    0.667    0.000    7.000    0.000    9.667 
#
# Total GULP energy -267833.274048 kJ/mol
# GULP energy per Si atom -5579.859876 kJ/mol
# Density = 2.065952 g / cm^3
# Si number density = 20.706654 Si / 1000 Ang^3
#
#
#
# Elastic Constant Matrix: (Units=GPa)
#
#
# Indices 1 2 3 4 5 6 
#
# 1 198.9378 144.4722 -3.6541 0.0000 0.0000 0.0000
# 2 144.4722 162.8862 5.6526 0.0000 0.0000 0.0000
# 3 -3.6541 5.6526 52.8820 0.0000 0.0000 0.0000
# 4 0.0000 0.0000 0.0000 -3.1523 0.0000 0.0000
# 5 0.0000 0.0000 0.0000 0.0000 -47.9868 0.0000
# 6 0.0000 0.0000 0.0000 0.0000 0.0000 41.6249
#
#
#
# Elastic Compliance Matrix: (Units=1/GPa)
#
#
# Indices 1 2 3 4 5 6 
#
# 1 0.014415 -0.012868 0.002372 0.000000 0.000000 0.000000
# 2 -0.012868 0.017649 -0.002776 0.000000 0.000000 0.000000
# 3 0.002372 -0.002776 0.019371 0.000000 0.000000 0.000000
# 4 0.000000 0.000000 0.000000 -0.317231 0.000000 0.000000
# 5 0.000000 0.000000 0.000000 0.000000 -0.020839 0.000000
# 6 0.000000 0.000000 0.000000 0.000000 0.000000 0.024024
#
#
# Mechanical properties :
#
#
# Convention : Reuss Voigt Hill
#
# Bulk Modulus (GPa) = 40.17588 78.62749 59.40169
# Shear Modulus (GPa) = -21.95188 15.97953 -2.98618
#
# Velocity S-wave (km/s) = -3.25951 2.78098 -1.20219
# Velocity P-wave (km/s) = 2.29754 6.95459 5.17904
#
# Compressibility (1/GPa) = 0.02489055
#
# Stress axis : x y z
#
# Youngs Moduli (GPa) = 69.37189 56.66150 51.62465
#
# Poissons Ratio (x) = 0.72911 -0.12243
# Poissons Ratio (y) = 0.89266 0.14329
# Poissons Ratio (z) = -0.16452 0.15727
#
# Static dielectric constant tensor:
#      x y z
#    x 1.713100 0.000000 0.000000 
#    y 0.000000 1.660320 0.000000 
#    z 0.000000 0.000000 1.778530 
# 
# From -- ./inp_files/4467.got.cif
#   From: 2010.05.17/outbox.cif.g08.bks.cpg/sg47_3_cif.got.tgz:4467.got - 2010.06.03 20:15:42.
