data_PCOD9385983
_publ_section_title
;
Structure prediction by ZEFSAII (Michael W. Deem and Ramdas Pophale) SiO2 
 PCOD9385983
Probable space group: P M M M
;
_chemical_formula_sum "Si O2"
_cell_formula_units_Z 48
_cell_length_a 31.825872
_cell_length_b 7.493599
_cell_length_c 9.450774
_cell_angle_alpha 90.000000
_cell_angle_beta 90.000000
_cell_angle_gamma 90.000000
_cell_volume 2253.918140
_symmetry_space_group_name_H-M "P M M M"
_symmetry_group_IT_number 47
_symmetry_cell_setting 'orthorhombic'
loop_
_space_group_symop_operation_xyz
x,y,z
-x,-y,z
x,-y,-z
-x,y,-z
-x,-y,-z
x,y,-z
-x,y,z
x,-y,z
loop_
_atom_site_type_symbol
_atom_site_label
_atom_site_fract_x
_atom_site_fract_y
_atom_site_fract_z
Si Si1 0.500000 0.718487 0.336263
Si Si2 0.174649 0.714922 0.661729
Si Si3 0.080738 0.282578 0.663473
Si Si4 0.000000 0.281475 0.162178
Si Si5 0.418674 0.713900 0.161505
Si Si6 0.335028 0.213922 0.660547
Si Si7 0.743391 0.788271 0.840523
O O1 0.500000 0.500000 0.337484
O O2 0.500000 0.775268 0.500000
O O3 0.458598 0.778009 0.251786
O O4 0.182685 0.776543 0.500000
O O5 0.173560 0.500000 0.657397
O O6 0.127800 0.775056 0.705142
O O7 0.211796 0.765584 0.765987
O O8 0.074159 0.231607 0.500000
O O9 0.080614 0.500000 0.667489
O O10 0.042219 0.221851 0.758779
O O11 0.000000 0.500000 0.165774
O O12 0.000000 0.226523 0.000000
O O13 0.422886 0.500000 0.152851
O O14 0.376019 0.751050 0.245736
O O15 0.417726 0.782058 0.000000
O O16 0.339019 0.282852 0.500000
O O17 0.293753 0.284175 0.741104
O O18 0.330799 0.000000 0.650184
O O19 0.736002 0.000000 0.851407
O O20 0.742607 0.715059 0.000000
#
# Coordination Sequence:
#
# PCOD9385983 Si02
#       7
#     4   8   8   4   8   8   8
#     4   9  17  31  52  77 106 139 172 206 244 287
#     4   9  18  32  50  73  99 127 162 204 247 290
#     4   8  14  25  40  59  87 122 156 191 234 283
#     4   9  15  21  33  57  88 121 156 191 230 280
#     4  10  20  34  54  80 108 137 169 205 247 295
#     4  10  21  37  56  76  99 130 168 209 251 294
#     4  10  21  36  53  73  98 130 166 202 245 299
#
# _framework density 21.296249
#
# number of rings (size 3 to 8) (size 9 to 14) (size 15 to 20)
#    0.000    2.667    0.000    3.000    0.000    6.667 
#    0.000    2.083    0.000    2.500    0.000    0.583 
#    0.000    4.667    0.000    0.000    0.000    0.000 
#
# Total GULP energy -268076.730522 kJ/mol
# GULP energy per Si atom -5584.931886 kJ/mol
# Density = 2.124778 g / cm^3
# Si number density = 21.296249 Si / 1000 Ang^3
#
#
#
# Elastic Constant Matrix: (Units=GPa)
#
#
# Indices 1 2 3 4 5 6 
#
# 1 218.1103 -1.7884 153.7840 0.0000 0.0000 0.0000
# 2 -1.7884 57.7364 7.3829 0.0000 0.0000 0.0000
# 3 153.7840 7.3829 219.7183 0.0000 0.0000 0.0000
# 4 0.0000 0.0000 0.0000 11.0104 0.0000 0.0000
# 5 0.0000 0.0000 0.0000 0.0000 40.3262 0.0000
# 6 0.0000 0.0000 0.0000 0.0000 0.0000 29.4972
#
#
#
# Elastic Compliance Matrix: (Units=1/GPa)
#
#
# Indices 1 2 3 4 5 6 
#
# 1 0.009121 0.001104 -0.006421 0.000000 0.000000 0.000000
# 2 0.001104 0.017528 -0.001361 0.000000 0.000000 0.000000
# 3 -0.006421 -0.001361 0.009091 0.000000 0.000000 0.000000
# 4 0.000000 0.000000 0.000000 0.090824 0.000000 0.000000
# 5 0.000000 0.000000 0.000000 0.000000 0.024798 0.000000
# 6 0.000000 0.000000 0.000000 0.000000 0.000000 0.033902
#
#
# Mechanical properties :
#
#
# Convention : Reuss Voigt Hill
#
# Bulk Modulus (GPa) = 44.67677 90.48020 67.57849
# Shear Modulus (GPa) = 24.26206 38.57917 31.42062
#
# Velocity S-wave (km/s) = 3.37896 4.26085 3.84527
# Velocity P-wave (km/s) = 6.02058 8.17221 7.17748
#
# Compressibility (1/GPa) = 0.02238300
#
# Stress axis : x y z
#
# Youngs Moduli (GPa) = 109.63309 57.05034 109.99473
#
# Poissons Ratio (x) = -0.06296 0.70630
# Poissons Ratio (y) = -0.12100 0.14975
# Poissons Ratio (z) = 0.70398 0.07767
#
# Static dielectric constant tensor:
#      x y z
#    x 1.728020 0.000000 0.000000 
#    y 0.000000 1.824460 0.000000 
#    z 0.000000 0.000000 1.740710 
# 
# From -- ./inp_files/13967.got.cif
#   From: 2010.05.17/outbox.cif.g08.bks.cpg/sg47_7_cif.got.tgz:13967.got - 2010.06.03 20:15:42.
