data_PCOD9385785
_publ_section_title
;
Structure prediction by ZEFSAII (Michael W. Deem and Ramdas Pophale) SiO2 
 PCOD9385785
Probable space group: P M M M
;
_chemical_formula_sum "Si O2"
_cell_formula_units_Z 40
_cell_length_a 9.547422
_cell_length_b 7.698878
_cell_length_c 28.424839
_cell_angle_alpha 90.000000
_cell_angle_beta 90.000000
_cell_angle_gamma 90.000000
_cell_volume 2089.351793
_symmetry_space_group_name_H-M "P M M M"
_symmetry_group_IT_number 47
_symmetry_cell_setting 'orthorhombic'
loop_
_space_group_symop_operation_xyz
x,y,z
-x,-y,z
x,-y,-z
-x,y,-z
-x,-y,-z
x,y,-z
-x,y,z
x,-y,z
loop_
_atom_site_type_symbol
_atom_site_label
_atom_site_fract_x
_atom_site_fract_y
_atom_site_fract_z
Si Si1 0.161425 0.711070 0.717006
Si Si2 0.160652 0.213105 0.000000
Si Si3 0.340224 0.791468 0.911207
Si Si4 0.664730 0.800804 0.375479
Si Si5 0.329954 0.500000 0.553461
Si Si6 0.660021 0.291434 0.194060
O O1 0.163244 0.500000 0.716682
O O2 0.245464 0.772022 0.671288
O O3 0.240895 0.771354 0.764142
O O4 0.000000 0.767043 0.716174
O O5 0.242420 0.271264 0.953285
O O6 0.000000 0.268752 0.000000
O O7 0.161272 0.000000 0.000000
O O8 0.500000 0.724930 0.915725
O O9 0.290059 0.750456 0.858571
O O10 0.346385 0.000000 0.915204
O O11 0.500000 0.765833 0.364795
O O12 0.710133 0.668311 0.416147
O O13 0.676344 0.000000 0.390930
O O14 0.500000 0.500000 0.551127
O O15 0.277473 0.500000 0.500000
O O16 0.500000 0.225099 0.198882
O O17 0.654203 0.500000 0.197794
#
# Coordination Sequence:
#
# PCOD9385785 Si02
#       6
#     8   4   8   8   4   8
#     4  10  20  34  53  76 105 143 181 219 268 324
#     4   9  17  29  46  67  90 120 158 201 252 306
#     4   9  17  30  48  68  90 119 159 205 251 305
#     4  10  20  34  56  84 112 146 187 228 273 327
#     4   9  18  34  57  85 117 149 183 230 281 322
#     4   9  18  32  50  72 100 133 168 210 261 316
#
# _framework density 19.144694000000001
#
# number of rings (size 3 to 8) (size 9 to 14) (size 15 to 20)
#    0.000    2.600    1.000    0.900    0.000    4.400 
#    0.000    4.500    0.000    4.200    0.000    1.400 
#    0.000    0.000    0.000    0.000    0.000    0.000 
#
# Total GULP energy -223229.778075 kJ/mol
# GULP energy per Si atom -5580.744452 kJ/mol
# Density = 1.910112 g / cm^3
# Si number density = 19.144694 Si / 1000 Ang^3
#
#
#
# Elastic Constant Matrix: (Units=GPa)
#
#
# Indices 1 2 3 4 5 6 
#
# 1 90.7672 33.6727 100.2294 0.0000 0.0000 0.0000
# 2 33.6727 55.6644 44.6584 0.0000 0.0000 0.0000
# 3 100.2294 44.6584 211.6257 0.0000 0.0000 0.0000
# 4 0.0000 0.0000 0.0000 27.7149 0.0000 0.0000
# 5 0.0000 0.0000 0.0000 0.0000 -8.7215 0.0000
# 6 0.0000 0.0000 0.0000 0.0000 0.0000 11.6356
#
#
#
# Elastic Compliance Matrix: (Units=1/GPa)
#
#
# Indices 1 2 3 4 5 6 
#
# 1 0.025059 -0.006786 -0.010436 0.000000 0.000000 0.000000
# 2 -0.006786 0.023464 -0.001738 0.000000 0.000000 0.000000
# 3 -0.010436 -0.001738 0.010035 0.000000 0.000000 0.000000
# 4 0.000000 0.000000 0.000000 0.036082 0.000000 0.000000
# 5 0.000000 0.000000 0.000000 0.000000 -0.114659 0.000000
# 6 0.000000 0.000000 0.000000 0.000000 0.000000 0.085943
#
#
# Mechanical properties :
#
#
# Convention : Reuss Voigt Hill
#
# Bulk Modulus (GPa) = 48.45434 79.46425 63.95930
# Shear Modulus (GPa) = 45.15819 18.09225 31.62522
#
# Velocity S-wave (km/s) = 4.86200 3.07746 4.06877
# Velocity P-wave (km/s) = 7.54210 7.36376 7.45346
#
# Compressibility (1/GPa) = 0.02063798
#
# Stress axis : x y z
#
# Youngs Moduli (GPa) = 39.90611 42.61896 99.65334
#
# Poissons Ratio (x) = 0.28921 1.04001
# Poissons Ratio (y) = 0.27080 0.17315
# Poissons Ratio (z) = 0.41647 0.07405
#
# Static dielectric constant tensor:
#      x y z
#    x 1.647890 0.000000 0.000000 
#    y 0.000000 1.699900 0.000000 
#    z 0.000000 0.000000 1.631290 
# 
# From -- ./inp_files/13024.got.cif
#   From: 2010.05.17/outbox.cif.g08.bks.cpg/sg47_7_cif.got.tgz:13024.got - 2010.06.03 20:15:42.
