data_PCOD9385127
_publ_section_title
;
Structure prediction by ZEFSAII (Michael W. Deem and Ramdas Pophale) SiO2 
 PCOD9385127
Probable space group: P M M M
;
_chemical_formula_sum "Si O2"
_cell_formula_units_Z 56
_cell_length_a 24.255399
_cell_length_b 13.917933
_cell_length_c 9.310181
_cell_angle_alpha 90.000000
_cell_angle_beta 90.000000
_cell_angle_gamma 90.000000
_cell_volume 3142.977622
_symmetry_space_group_name_H-M "P M M M"
_symmetry_group_IT_number 47
_symmetry_cell_setting 'orthorhombic'
loop_
_space_group_symop_operation_xyz
x,y,z
-x,-y,z
x,-y,-z
-x,y,-z
-x,-y,-z
x,y,-z
-x,y,z
x,-y,z
loop_
_atom_site_type_symbol
_atom_site_label
_atom_site_fract_x
_atom_site_fract_y
_atom_site_fract_z
Si Si1 0.500000 0.383294 0.334401
Si Si2 0.715128 0.294852 0.671543
Si Si3 0.388700 0.615559 0.169580
Si Si4 0.778915 0.889406 0.670183
Si Si5 0.890213 0.117010 0.834732
Si Si6 0.059996 0.383180 0.831837
Si Si7 0.168149 0.615881 0.665794
Si Si8 0.000000 0.882175 0.665742
O O1 0.500000 0.500000 0.335624
O O2 0.500000 0.351019 0.500000
O O3 0.555264 0.354468 0.250534
O O4 0.706931 0.310752 0.500000
O O5 0.663688 0.334217 0.758483
O O6 0.728876 0.183004 0.696566
O O7 0.772134 0.347716 0.714325
O O8 0.382864 0.500000 0.186551
O O9 0.392308 0.635639 0.000000
O O10 0.791736 0.884575 0.500000
O O11 0.833287 0.858001 0.756100
O O12 0.766473 0.000000 0.706140
O O13 0.944799 0.147749 0.749553
O O14 0.891561 0.000000 0.835001
O O15 0.891202 0.148466 0.000000
O O16 0.060641 0.500000 0.822907
O O17 0.115135 0.349753 0.753776
O O18 0.000000 0.352951 0.772871
O O19 0.061939 0.359200 0.000000
O O20 0.161640 0.645918 0.500000
O O21 0.168944 0.500000 0.670796
O O22 0.000000 0.850953 0.500000
O O23 0.000000 0.000000 0.664600
#
# Coordination Sequence:
#
# PCOD9385127 Si02
#       8
#     4   8   8   8   8   8   8   4
#     4   9  17  31  53  79 110 149 184 209 237 278
#     4  10  20  33  50  72 100 133 170 208 251 302
#     4  10  20  33  51  79 114 147 177 208 242 284
#     4   9  18  33  51  69  91 123 166 214 260 306
#     4   9  16  26  42  64  88 113 145 191 248 308
#     4   8  14  25  41  60  82 111 148 188 232 285
#     4   9  17  28  43  65  92 120 151 190 236 288
#     4   9  15  23  39  63  87 111 142 183 238 307
#
# _framework density 17.817499000000002
#
# number of rings (size 3 to 8) (size 9 to 14) (size 15 to 20)
#    0.000    2.857    0.000    2.143    0.000    6.286 
#    0.000    2.857    1.571    0.000    0.000    0.500 
#    0.000    4.000    0.000    0.000    0.000    0.000 
#
# Total GULP energy -312582.846684 kJ/mol
# GULP energy per Si atom -5581.836548 kJ/mol
# Density = 1.777695 g / cm^3
# Si number density = 17.817499 Si / 1000 Ang^3
#
#
#
# Elastic Constant Matrix: (Units=GPa)
#
#
# Indices 1 2 3 4 5 6 
#
# 1 188.7629 47.6340 103.2191 0.0000 0.0000 0.0000
# 2 47.6340 56.5101 30.4902 0.0000 0.0000 0.0000
# 3 103.2191 30.4902 108.9246 0.0000 0.0000 0.0000
# 4 0.0000 0.0000 0.0000 8.3780 0.0000 0.0000
# 5 0.0000 0.0000 0.0000 0.0000 51.4449 0.0000
# 6 0.0000 0.0000 0.0000 0.0000 0.0000 22.7974
#
#
#
# Elastic Compliance Matrix: (Units=1/GPa)
#
#
# Indices 1 2 3 4 5 6 
#
# 1 0.011957 -0.004671 -0.010024 0.000000 0.000000 0.000000
# 2 -0.004671 0.022669 -0.001919 0.000000 0.000000 0.000000
# 3 -0.010024 -0.001919 0.019216 0.000000 0.000000 0.000000
# 4 0.000000 0.000000 0.000000 0.119360 0.000000 0.000000
# 5 0.000000 0.000000 0.000000 0.000000 0.019438 0.000000
# 6 0.000000 0.000000 0.000000 0.000000 0.000000 0.043865
#
#
# Mechanical properties :
#
#
# Convention : Reuss Voigt Hill
#
# Bulk Modulus (GPa) = 48.50794 79.65380 64.08087
# Shear Modulus (GPa) = 18.07636 28.04770 23.06203
#
# Velocity S-wave (km/s) = 3.18862 3.97188 3.60161
# Velocity P-wave (km/s) = 6.39065 8.11399 7.30333
#
# Compressibility (1/GPa) = 0.02061518
#
# Stress axis : x y z
#
# Youngs Moduli (GPa) = 83.62971 44.11356 52.03883
#
# Poissons Ratio (x) = 0.20606 0.52162
# Poissons Ratio (y) = 0.39064 0.09987
# Poissons Ratio (z) = 0.83827 0.08466
#
# Static dielectric constant tensor:
#      x y z
#    x 1.570950 0.000000 0.000000 
#    y 0.000000 1.658090 0.000000 
#    z 0.000000 0.000000 1.601200 
# 
# From -- ./inp_files/11288.got.cif
#   From: 2010.05.17/outbox.cif.g08.bks.cpg/sg47_6_cif.got.tgz:11288.got - 2010.06.03 20:15:42.
