data_PCOD9385734
_publ_section_title
;
Structure prediction by ZEFSAII (Michael W. Deem and Ramdas Pophale) SiO2 
 PCOD9385734
Probable space group: P M M M
;
_chemical_formula_sum "Si O2"
_cell_formula_units_Z 48
_cell_length_a 9.466084
_cell_length_b 32.211738
_cell_length_c 7.568401
_cell_angle_alpha 90.000000
_cell_angle_beta 90.000000
_cell_angle_gamma 90.000000
_cell_volume 2307.749398
_symmetry_space_group_name_H-M "P M M M"
_symmetry_group_IT_number 47
_symmetry_cell_setting 'orthorhombic'
loop_
_space_group_symop_operation_xyz
x,y,z
-x,-y,z
x,-y,-z
-x,y,-z
-x,-y,-z
x,y,-z
-x,y,z
x,-y,z
loop_
_atom_site_type_symbol
_atom_site_label
_atom_site_fract_x
_atom_site_fract_y
_atom_site_fract_z
Si Si1 0.337733 0.284153 0.216632
Si Si2 0.841599 0.793993 0.792077
Si Si3 0.839102 0.953109 0.786805
Si Si4 0.341158 0.126780 0.292461
Si Si5 0.164315 0.635217 0.216045
Si Si6 0.829863 0.544620 0.788173
O O1 0.500000 0.282842 0.273418
O O2 0.251929 0.243816 0.279551
O O3 0.258566 0.326138 0.272093
O O4 0.338427 0.283920 0.000000
O O5 0.759985 0.837340 0.778681
O O6 0.000000 0.796325 0.717165
O O7 0.855699 0.785208 0.000000
O O8 0.730232 0.917951 0.732626
O O9 0.000000 0.943528 0.728016
O O10 0.804069 0.000000 0.727734
O O11 0.841320 0.953547 0.000000
O O12 0.350737 0.134521 0.500000
O O13 0.500000 0.128313 0.217426
O O14 0.217981 0.589785 0.276704
O O15 0.000000 0.640573 0.268227
O O16 0.164818 0.634526 0.000000
O O17 0.777255 0.500000 0.718368
O O18 0.000000 0.544942 0.763626
O O19 0.805836 0.544122 0.000000
#
# Coordination Sequence:
#
# PCOD9385734 Si02
#       6
#     8   8   8   8   8   8
#     4   9  16  25  38  57  81 108 139 180 232 284
#     4  10  20  34  53  74  94 120 159 204 245 287
#     4   9  19  37  60  84 108 135 170 209 244 279
#     4  11  24  38  52  75 107 138 166 198 239 288
#     4   8  12  18  29  45  66  93 129 175 222 268
#     4   7   9  13  22  37  57  84 122 168 215 261
#
# _framework density 20.799486000000002
#
# number of rings (size 3 to 8) (size 9 to 14) (size 15 to 20)
#    0.000    3.000    0.000    4.000    0.000    7.333 
#    0.000    2.500    0.000    0.500    0.000    3.500 
#    0.000    0.000    0.000    0.000    0.000    0.833 
#
# Total GULP energy -267686.243388 kJ/mol
# GULP energy per Si atom -5576.796737 kJ/mol
# Density = 2.075215 g / cm^3
# Si number density = 20.799486 Si / 1000 Ang^3
#
#
#
# Elastic Constant Matrix: (Units=GPa)
#
#
# Indices 1 2 3 4 5 6 
#
# 1 153.9877 110.4764 3.6091 0.0000 0.0000 0.0000
# 2 110.4764 179.0761 -5.1652 0.0000 0.0000 0.0000
# 3 3.6091 -5.1652 43.9350 0.0000 0.0000 0.0000
# 4 0.0000 0.0000 0.0000 -47.7762 0.0000 0.0000
# 5 0.0000 0.0000 0.0000 0.0000 18.2595 0.0000
# 6 0.0000 0.0000 0.0000 0.0000 0.0000 -327.2285
#
#
#
# Elastic Compliance Matrix: (Units=1/GPa)
#
#
# Indices 1 2 3 4 5 6 
#
# 1 0.011796 -0.007330 -0.001831 0.000000 0.000000 0.000000
# 2 -0.007330 0.010158 0.001796 0.000000 0.000000 0.000000
# 3 -0.001831 0.001796 0.023122 0.000000 0.000000 0.000000
# 4 0.000000 0.000000 0.000000 -0.020931 0.000000 0.000000
# 5 0.000000 0.000000 0.000000 0.000000 0.054766 0.000000
# 6 0.000000 0.000000 0.000000 0.000000 0.000000 -0.003056
#
#
# Mechanical properties :
#
#
# Convention : Reuss Voigt Hill
#
# Bulk Modulus (GPa) = 32.95142 66.09327 49.52235
# Shear Modulus (GPa) = 49.65276 -53.47713 -1.91218
#
# Velocity S-wave (km/s) = 4.89121 -5.07608 -0.95986
# Velocity P-wave (km/s) = 6.91197 1.58433 4.75738
#
# Compressibility (1/GPa) = 0.03034770
#
# Stress axis : x y z
#
# Youngs Moduli (GPa) = 84.77742 98.44499 43.24801
#
# Poissons Ratio (x) = 0.72158 0.07917
# Poissons Ratio (y) = 0.62140 -0.07769
# Poissons Ratio (z) = 0.15520 -0.17684
#
# Static dielectric constant tensor:
#      x y z
#    x 1.720230 0.000000 0.000000 
#    y 0.000000 1.746260 0.000000 
#    z 0.000000 0.000000 1.813690 
# 
# From -- ./inp_files/2455.got.cif
#   From: 2010.05.17/outbox.cif.g08.bks.cpg/sg47_2_cif.got.tgz:2455.got - 2010.06.03 20:15:42.
