data_PCOD9385615
_publ_section_title
;
Structure prediction by ZEFSAII (Michael W. Deem and Ramdas Pophale) SiO2 
 PCOD9385615
Probable space group: P M M M
;
_chemical_formula_sum "Si O2"
_cell_formula_units_Z 52
_cell_length_a 14.892865
_cell_length_b 21.933611
_cell_length_c 7.470812
_cell_angle_alpha 90.000000
_cell_angle_beta 90.000000
_cell_angle_gamma 90.000000
_cell_volume 2440.372921
_symmetry_space_group_name_H-M "P M M M"
_symmetry_group_IT_number 47
_symmetry_cell_setting 'orthorhombic'
loop_
_space_group_symop_operation_xyz
x,y,z
-x,-y,z
x,-y,-z
-x,y,-z
-x,-y,-z
x,y,-z
-x,y,z
x,-y,z
loop_
_atom_site_type_symbol
_atom_site_label
_atom_site_fract_x
_atom_site_fract_y
_atom_site_fract_z
Si Si1 0.096004 0.245393 0.290629
Si Si2 0.603064 0.259526 0.711550
Si Si3 0.101815 0.928740 0.217895
Si Si4 0.292748 0.618884 0.280177
Si Si5 0.747976 0.837050 0.802029
Si Si6 0.096058 0.391770 0.709042
Si Si7 0.600020 0.500000 0.282104
O O1 0.103466 0.228538 0.500000
O O2 0.179932 0.217748 0.193231
O O3 0.094450 0.318071 0.286633
O O4 0.000000 0.223783 0.219377
O O5 0.595643 0.270504 0.500000
O O6 0.500000 0.257645 0.781697
O O7 0.663378 0.316836 0.779640
O O8 0.658770 0.196281 0.730484
O O9 0.187311 0.889183 0.282911
O O10 0.000000 0.911730 0.278773
O O11 0.113788 0.000000 0.260070
O O12 0.100916 0.922722 0.000000
O O13 0.285027 0.623228 0.500000
O O14 0.194245 0.598001 0.214211
O O15 0.355106 0.563009 0.229939
O O16 0.724527 0.859091 0.000000
O O17 0.096518 0.411197 0.500000
O O18 0.000000 0.413116 0.785272
O O19 0.500000 0.500000 0.217476
O O20 0.601363 0.500000 0.500000
#
# Coordination Sequence:
#
# PCOD9385615 Si02
#       7
#     8   8   8   8   8   8   4
#     4   9  16  27  44  66  95 130 161 188 224 278
#     4  10  20  34  51  68  91 128 168 202 245 303
#     4   8  15  29  48  71 101 134 162 188 226 281
#     4   9  15  26  43  63  89 119 154 197 244 292
#     4  11  20  29  47  75 102 125 156 202 249 286
#     4   8  13  22  38  59  84 116 150 181 220 277
#     4   9  16  24  37  61  88 114 152 205 254 287
#
# _framework density 21.308219000000001
#
# number of rings (size 3 to 8) (size 9 to 14) (size 15 to 20)
#    0.000    2.846    1.538    2.769    0.000    3.077 
#    0.000    0.385    0.000    4.615    0.000    9.154 
#    0.000    1.846    0.000    3.385    0.000    3.385 
#
# Total GULP energy -289514.256460 kJ/mol
# GULP energy per Si atom -5567.581855 kJ/mol
# Density = 2.125972 g / cm^3
# Si number density = 21.308219 Si / 1000 Ang^3
#
#
#
# Elastic Constant Matrix: (Units=GPa)
#
#
# Indices 1 2 3 4 5 6 
#
# 1 208.0936 62.5346 8.4679 0.0000 0.0000 0.0000
# 2 62.5346 86.2168 0.4001 0.0000 0.0000 0.0000
# 3 8.4679 0.4001 55.0480 0.0000 0.0000 0.0000
# 4 0.0000 0.0000 0.0000 7.5503 0.0000 0.0000
# 5 0.0000 0.0000 0.0000 0.0000 -23.9760 0.0000
# 6 0.0000 0.0000 0.0000 0.0000 0.0000 659.6093
#
#
#
# Elastic Compliance Matrix: (Units=1/GPa)
#
#
# Indices 1 2 3 4 5 6 
#
# 1 0.006191 -0.004486 -0.000920 0.000000 0.000000 0.000000
# 2 -0.004486 0.014850 0.000582 0.000000 0.000000 0.000000
# 3 -0.000920 0.000582 0.018303 0.000000 0.000000 0.000000
# 4 0.000000 0.000000 0.000000 0.132446 0.000000 0.000000
# 5 0.000000 0.000000 0.000000 0.000000 -0.041708 0.000000
# 6 0.000000 0.000000 0.000000 0.000000 0.000000 0.001516
#
#
# Mechanical properties :
#
#
# Convention : Reuss Voigt Hill
#
# Bulk Modulus (GPa) = 33.67390 54.68486 44.17938
# Shear Modulus (GPa) = 33.08093 147.16709 90.12401
#
# Velocity S-wave (km/s) = 3.94445 8.31960 6.51055
# Velocity P-wave (km/s) = 6.04834 10.86311 8.79175
#
# Compressibility (1/GPa) = 0.02969659
#
# Stress axis : x y z
#
# Youngs Moduli (GPa) = 161.52126 67.34036 54.63515
#
# Poissons Ratio (x) = 0.30211 0.05025
# Poissons Ratio (y) = 0.72463 -0.03181
# Poissons Ratio (z) = 0.14856 -0.03920
#
# Static dielectric constant tensor:
#      x y z
#    x 1.831660 0.000000 0.000000 
#    y 0.000000 1.763510 0.000000 
#    z 0.000000 0.000000 1.832560 
# 
# From -- ./inp_files/6999.got.cif
#   From: 2010.05.17/outbox.cif.g08.bks.cpg/sg47_4_cif.got.tgz:6999.got - 2010.06.03 20:15:42.
