data_PCOD9385431
_publ_section_title
;
Structure prediction by ZEFSAII (Michael W. Deem and Ramdas Pophale) SiO2 
 PCOD9385431
Probable space group: P M M M
;
_chemical_formula_sum "Si O2"
_cell_formula_units_Z 56
_cell_length_a 15.164697
_cell_length_b 8.151089
_cell_length_c 21.855790
_cell_angle_alpha 90.000000
_cell_angle_beta 90.000000
_cell_angle_gamma 90.000000
_cell_volume 2701.567864
_symmetry_space_group_name_H-M "P M M M"
_symmetry_group_IT_number 47
_symmetry_cell_setting 'orthorhombic'
loop_
_space_group_symop_operation_xyz
x,y,z
-x,-y,z
x,-y,-z
-x,y,-z
-x,-y,-z
x,y,-z
-x,y,z
x,-y,z
loop_
_atom_site_type_symbol
_atom_site_label
_atom_site_fract_x
_atom_site_fract_y
_atom_site_fract_z
Si Si1 0.599585 0.000000 0.200744
Si Si2 0.596205 0.305951 0.596344
Si Si3 0.100280 0.696491 0.815440
Si Si4 0.787902 0.301705 0.433744
Si Si5 0.352605 0.000000 0.933527
Si Si6 0.604252 0.322897 0.257060
Si Si7 0.899047 0.195355 0.316736
Si Si8 0.779623 0.307297 0.069008
O O1 0.643942 0.833910 0.224073
O O2 0.500000 0.000000 0.227813
O O3 0.593604 0.000000 0.128440
O O4 0.500000 0.235761 0.579617
O O5 0.593200 0.500000 0.580254
O O6 0.687037 0.238427 0.570327
O O7 0.605410 0.299412 0.670000
O O8 0.095941 0.500000 0.814294
O O9 0.136736 0.750393 0.749465
O O10 0.155415 0.738139 0.875682
O O11 0.000000 0.762288 0.819744
O O12 0.825676 0.252047 0.500000
O O13 0.784063 0.500000 0.432408
O O14 0.842085 0.249860 0.374550
O O15 0.295060 0.167456 0.930673
O O16 0.396981 0.000000 0.000000
O O17 0.500000 0.331821 0.239838
O O18 0.644732 0.500000 0.242037
O O19 0.000000 0.259702 0.321939
O O20 0.902193 0.000000 0.317008
O O21 0.751122 0.500000 0.077436
O O22 0.819308 0.300606 0.000000
#
# Coordination Sequence:
#
# PCOD9385431 Si02
#       8
#     4   8   8   8   4   8   8   8
#     4  10  20  33  52  77 100 130 181 235 279 327
#     4   8  15  31  54  79 111 145 172 212 276 342
#     4   9  18  34  58  86 113 141 177 223 272 325
#     4  10  21  36  56  83 110 140 186 236 281 338
#     4  10  22  37  51  72 104 144 189 229 273 331
#     4   8  15  30  51  75 105 137 170 216 275 336
#     4  10  22  39  57  77 107 147 187 233 286 337
#     4   9  19  36  56  80 114 152 185 221 269 329
#
# _framework density 20.728702999999999
#
# number of rings (size 3 to 8) (size 9 to 14) (size 15 to 20)
#    0.000    2.857    0.000    1.286    1.000    3.857 
#    1.286    7.143    0.000    1.286    0.000    5.000 
#    0.000    0.000    0.000    0.000    0.000    0.000 
#
# Total GULP energy -312124.713112 kJ/mol
# GULP energy per Si atom -5573.655591 kJ/mol
# Density = 2.068152 g / cm^3
# Si number density = 20.728703 Si / 1000 Ang^3
#
#
#
# Elastic Constant Matrix: (Units=GPa)
#
#
# Indices 1 2 3 4 5 6 
#
# 1 67.3844 18.1505 55.0910 0.0000 0.0000 0.0000
# 2 18.1505 73.5133 44.5411 0.0000 0.0000 0.0000
# 3 55.0910 44.5411 140.2017 0.0000 0.0000 0.0000
# 4 0.0000 0.0000 0.0000 10.1601 0.0000 0.0000
# 5 0.0000 0.0000 0.0000 0.0000 -8.9763 0.0000
# 6 0.0000 0.0000 0.0000 0.0000 0.0000 -4.1656
#
#
#
# Elastic Compliance Matrix: (Units=1/GPa)
#
#
# Indices 1 2 3 4 5 6 
#
# 1 0.021868 -0.000239 -0.008517 0.000000 0.000000 0.000000
# 2 -0.000239 0.016848 -0.005259 0.000000 0.000000 0.000000
# 3 -0.008517 -0.005259 0.012150 0.000000 0.000000 0.000000
# 4 0.000000 0.000000 0.000000 0.098424 0.000000 0.000000
# 5 0.000000 0.000000 0.000000 0.000000 -0.111405 0.000000
# 6 0.000000 0.000000 0.000000 0.000000 0.000000 -0.240060
#
#
# Mechanical properties :
#
#
# Convention : Reuss Voigt Hill
#
# Bulk Modulus (GPa) = 43.78885 57.40719 50.59802
# Shear Modulus (GPa) = -30.02376 10.29144 -9.86616
#
# Velocity S-wave (km/s) = -3.80993 2.23061 -2.18403
# Velocity P-wave (km/s) = 1.34777 5.86420 4.25472
#
# Compressibility (1/GPa) = 0.02283686
#
# Stress axis : x y z
#
# Youngs Moduli (GPa) = 45.72981 59.35374 82.30581
#
# Poissons Ratio (x) = 0.01418 0.70098
# Poissons Ratio (y) = 0.01092 0.43282
# Poissons Ratio (z) = 0.38947 0.31212
#
# Static dielectric constant tensor:
#      x y z
#    x 1.769790 0.000000 0.000000 
#    y 0.000000 1.760560 0.000000 
#    z 0.000000 0.000000 1.735160 
# 
# From -- ./inp_files/31042.got.cif
#   From: 2010.05.17/outbox.cif.g08.bks.cpg/sg47_16_cif.got.tgz:31042.got - 2010.06.03 20:15:42.
