data_PCOD9385320
_publ_section_title
;
Structure prediction by ZEFSAII (Michael W. Deem and Ramdas Pophale) SiO2 
 PCOD9385320
Probable space group: P M M M
;
_chemical_formula_sum "Si O2"
_cell_formula_units_Z 64
_cell_length_a 21.433151
_cell_length_b 20.311374
_cell_length_c 7.926259
_cell_angle_alpha 90.000000
_cell_angle_beta 90.000000
_cell_angle_gamma 90.000000
_cell_volume 3450.591801
_symmetry_space_group_name_H-M "P M M M"
_symmetry_group_IT_number 47
_symmetry_cell_setting 'orthorhombic'
loop_
_space_group_symop_operation_xyz
x,y,z
-x,-y,z
x,-y,-z
-x,y,-z
-x,-y,-z
x,y,-z
-x,y,z
x,-y,z
loop_
_atom_site_type_symbol
_atom_site_label
_atom_site_fract_x
_atom_site_fract_y
_atom_site_fract_z
Si Si1 0.568179 0.213906 0.706683
Si Si2 0.187131 0.793785 0.197638
Si Si3 0.263958 0.426791 0.797514
Si Si4 0.068294 0.289726 0.702057
Si Si5 0.608424 0.072124 0.701103
Si Si6 0.753400 0.926705 0.204794
Si Si7 0.118908 0.427511 0.702219
Si Si8 0.692027 0.712046 0.300309
O O1 0.569688 0.213760 0.500000
O O2 0.500000 0.238888 0.757848
O O3 0.576209 0.138271 0.764669
O O4 0.627889 0.255678 0.763542
O O5 0.125350 0.759042 0.264721
O O6 0.205630 0.865628 0.267901
O O7 0.247235 0.747124 0.223434
O O8 0.177055 0.802019 0.000000
O O9 0.285022 0.500000 0.744330
O O10 0.192635 0.419055 0.735796
O O11 0.303456 0.365589 0.732360
O O12 0.263219 0.424496 0.000000
O O13 0.065012 0.295674 0.500000
O O14 0.084519 0.362898 0.769430
O O15 0.000000 0.268332 0.764070
O O16 0.597360 0.070237 0.500000
O O17 0.682482 0.080271 0.731320
O O18 0.590175 0.000000 0.770009
O O19 0.775443 0.000000 0.253028
O O20 0.750894 0.924022 0.000000
O O21 0.109826 0.429037 0.500000
O O22 0.100481 0.500000 0.768468
O O23 0.695721 0.723936 0.500000
#
# Coordination Sequence:
#
# PCOD9385320 Si02
#       8
#     8   8   8   8   8   8   8   8
#     4   9  18  31  47  72 105 137 170 211 256 299
#     4  11  21  33  53  77 101 133 172 213 257 302
#     4  10  20  33  51  76 104 131 164 210 258 301
#     4  10  21  35  51  74 105 139 172 208 252 302
#     4   9  16  27  46  72 101 134 171 206 244 296
#     4   9  18  32  50  73 101 131 166 211 258 302
#     4   9  17  30  49  73 102 136 170 201 239 292
#     4  11  20  32  53  77 102 134 171 211 254 302
#
# _framework density 18.547542
#
# number of rings (size 3 to 8) (size 9 to 14) (size 15 to 20)
#    0.000    2.250    2.500    1.125    0.000    2.000 
#    0.000    2.500    0.000    4.125    0.000    9.625 
#    0.000    0.000    0.000    0.000    0.000    0.000 
#
# Total GULP energy -356953.775944 kJ/mol
# GULP energy per Si atom -5577.402749 kJ/mol
# Density = 1.850533 g / cm^3
# Si number density = 18.547542 Si / 1000 Ang^3
#
#
#
# Elastic Constant Matrix: (Units=GPa)
#
#
# Indices 1 2 3 4 5 6 
#
# 1 111.1741 58.6054 -5.3701 0.0000 0.0000 0.0000
# 2 58.6054 107.0181 -7.1509 0.0000 0.0000 0.0000
# 3 -5.3701 -7.1509 13.1470 0.0000 0.0000 0.0000
# 4 0.0000 0.0000 0.0000 16.3756 0.0000 0.0000
# 5 0.0000 0.0000 0.0000 0.0000 171.9948 0.0000
# 6 0.0000 0.0000 0.0000 0.0000 0.0000 20.9033
#
#
#
# Elastic Compliance Matrix: (Units=1/GPa)
#
#
# Indices 1 2 3 4 5 6 
#
# 1 0.012672 -0.006842 0.001454 0.000000 0.000000 0.000000
# 2 -0.006842 0.013391 0.004489 0.000000 0.000000 0.000000
# 3 0.001454 0.004489 0.079099 0.000000 0.000000 0.000000
# 4 0.000000 0.000000 0.000000 0.061066 0.000000 0.000000
# 5 0.000000 0.000000 0.000000 0.000000 0.005814 0.000000
# 6 0.000000 0.000000 0.000000 0.000000 0.000000 0.047839
#
#
# Mechanical properties :
#
#
# Convention : Reuss Voigt Hill
#
# Bulk Modulus (GPa) = 9.67454 35.94530 22.80992
# Shear Modulus (GPa) = 19.52099 54.20506 36.86302
#
# Velocity S-wave (km/s) = 3.24772 5.41187 4.46296
# Velocity P-wave (km/s) = 4.39215 7.64679 6.23556
#
# Compressibility (1/GPa) = 0.10336412
#
# Stress axis : x y z
#
# Youngs Moduli (GPa) = 78.91362 74.67614 12.64242
#
# Poissons Ratio (x) = 0.51096 -0.01839
# Poissons Ratio (y) = 0.53995 -0.05675
# Poissons Ratio (z) = -0.11478 -0.33521
#
# Static dielectric constant tensor:
#      x y z
#    x 1.629120 0.000000 0.000000 
#    y 0.000000 1.676640 0.000000 
#    z 0.000000 0.000000 1.678640 
# 
# From -- ./inp_files/11805.got.cif
#   From: 2010.05.17/outbox.cif.g08.bks.cpg/sg47_6_cif.got.tgz:11805.got - 2010.06.03 20:15:42.
