data_PCOD9385799
_publ_section_title
;
Structure prediction by ZEFSAII (Michael W. Deem and Ramdas Pophale) SiO2 
 PCOD9385799
Probable space group: P M M M
;
_chemical_formula_sum "Si O2"
_cell_formula_units_Z 52
_cell_length_a 8.608886
_cell_length_b 14.665514
_cell_length_c 24.194318
_cell_angle_alpha 90.000000
_cell_angle_beta 90.000000
_cell_angle_gamma 90.000000
_cell_volume 3054.623090
_symmetry_space_group_name_H-M "P M M M"
_symmetry_group_IT_number 47
_symmetry_cell_setting 'orthorhombic'
loop_
_space_group_symop_operation_xyz
x,y,z
-x,-y,z
x,-y,-z
-x,y,-z
-x,-y,-z
x,y,-z
-x,y,z
x,-y,z
loop_
_atom_site_type_symbol
_atom_site_label
_atom_site_fract_x
_atom_site_fract_y
_atom_site_fract_z
Si Si1 0.315043 0.896139 0.727627
Si Si2 0.814166 0.102761 0.396346
Si Si3 0.184794 0.282845 0.224623
Si Si4 0.679812 0.610690 0.000000
Si Si5 0.687078 0.288346 0.560508
Si Si6 0.688081 0.393434 0.670433
Si Si7 0.688631 0.606549 0.121123
O O1 0.500000 0.884792 0.720761
O O2 0.237120 0.884982 0.667427
O O3 0.251094 0.818723 0.767588
O O4 0.284567 0.000000 0.746064
O O5 0.739561 0.184500 0.430308
O O6 0.000000 0.108450 0.400064
O O7 0.766454 0.000000 0.413131
O O8 0.242096 0.339850 0.277876
O O9 0.247558 0.331959 0.169972
O O10 0.000000 0.280440 0.223974
O O11 0.746010 0.636199 0.940118
O O12 0.677700 0.500000 0.000000
O O13 0.500000 0.641024 0.000000
O O14 0.740208 0.320632 0.500000
O O15 0.500000 0.291449 0.561131
O O16 0.740421 0.347741 0.612835
O O17 0.500000 0.386158 0.673563
O O18 0.728487 0.500000 0.672323
O O19 0.500000 0.610021 0.120950
O O20 0.731043 0.500000 0.129830
#
# Coordination Sequence:
#
# PCOD9385799 Si02
#       7
#     8   8   8   4   8   8   8
#     4  10  20  35  56  78 100 129 166 209 256 306
#     4  10  20  34  53  77 103 130 159 197 253 315
#     4  12  23  33  50  78 110 140 170 207 254 308
#     4   7  12  26  49  75 102 137 182 225 257 288
#     4  10  21  36  54  75  98 129 171 214 256 306
#     4  10  21  37  55  73  97 132 173 216 260 303
#     4   9  17  31  52  77 107 144 184 221 255 294
#
# _framework density 17.023377
#
# number of rings (size 3 to 8) (size 9 to 14) (size 15 to 20)
#    0.000    2.077    1.538    3.692    0.000    5.231 
#    0.000    3.462    0.000    1.385    0.000    2.692 
#    0.000    4.308    0.000    0.000    0.000    0.000 
#
# Total GULP energy -290150.060404 kJ/mol
# GULP energy per Si atom -5579.808854 kJ/mol
# Density = 1.698463 g / cm^3
# Si number density = 17.023377 Si / 1000 Ang^3
#
#
#
# Elastic Constant Matrix: (Units=GPa)
#
#
# Indices 1 2 3 4 5 6 
#
# 1 14.0653 14.1709 16.5050 0.0000 0.0000 0.0000
# 2 14.1709 79.6517 52.4154 0.0000 0.0000 0.0000
# 3 16.5050 52.4154 131.4496 0.0000 0.0000 0.0000
# 4 0.0000 0.0000 0.0000 24.1048 0.0000 0.0000
# 5 0.0000 0.0000 0.0000 0.0000 -18.3600 0.0000
# 6 0.0000 0.0000 0.0000 0.0000 0.0000 7.4162
#
#
#
# Elastic Compliance Matrix: (Units=1/GPa)
#
#
# Indices 1 2 3 4 5 6 
#
# 1 0.090806 -0.011730 -0.006724 0.000000 0.000000 0.000000
# 2 -0.011730 0.018536 -0.005918 0.000000 0.000000 0.000000
# 3 -0.006724 -0.005918 0.010812 0.000000 0.000000 0.000000
# 4 0.000000 0.000000 0.000000 0.041485 0.000000 0.000000
# 5 0.000000 0.000000 0.000000 0.000000 -0.054466 0.000000
# 6 0.000000 0.000000 0.000000 0.000000 0.000000 0.134840
#
#
# Mechanical properties :
#
#
# Convention : Reuss Voigt Hill
#
# Bulk Modulus (GPa) = 14.00410 43.48326 28.74368
# Shear Modulus (GPa) = 15.89513 12.10390 13.99951
#
# Velocity S-wave (km/s) = 3.05900 2.66938 2.87081
# Velocity P-wave (km/s) = 4.55202 5.92448 5.28301
#
# Compressibility (1/GPa) = 0.07140767
#
# Stress axis : x y z
#
# Youngs Moduli (GPa) = 11.01251 53.94811 92.49194
#
# Poissons Ratio (x) = 0.63284 0.62193
# Poissons Ratio (y) = 0.12918 0.54741
# Poissons Ratio (z) = 0.07405 0.31929
#
# Static dielectric constant tensor:
#      x y z
#    x 1.569870 0.000000 0.000000 
#    y 0.000000 1.567920 0.000000 
#    z 0.000000 0.000000 1.582440 
# 
# From -- ./inp_files/6937.got.cif
#   From: 2010.05.17/outbox.cif.g08.bks.cpg/sg47_4_cif.got.tgz:6937.got - 2010.06.03 20:15:42.
