data_PCOD9385572
_publ_section_title
;
Structure prediction by ZEFSAII (Michael W. Deem and Ramdas Pophale) SiO2 
 PCOD9385572
Probable space group: P M M M
;
_chemical_formula_sum "Si O2"
_cell_formula_units_Z 64
_cell_length_a 24.756602
_cell_length_b 7.553793
_cell_length_c 16.021492
_cell_angle_alpha 90.000000
_cell_angle_beta 90.000000
_cell_angle_gamma 90.000000
_cell_volume 2996.119089
_symmetry_space_group_name_H-M "P M M M"
_symmetry_group_IT_number 47
_symmetry_cell_setting 'orthorhombic'
loop_
_space_group_symop_operation_xyz
x,y,z
-x,-y,z
x,-y,-z
-x,y,-z
-x,-y,-z
x,y,-z
-x,y,z
x,-y,z
loop_
_atom_site_type_symbol
_atom_site_label
_atom_site_fract_x
_atom_site_fract_y
_atom_site_fract_z
Si Si1 0.676319 0.708879 0.090068
Si Si2 0.325682 0.213485 0.408925
Si Si3 0.938236 0.213484 0.094267
Si Si4 0.743817 0.711244 0.246256
Si Si5 0.937750 0.283895 0.405875
Si Si6 0.440779 0.215586 0.345898
Si Si7 0.559085 0.213459 0.150389
Si Si8 0.865305 0.289917 0.746781
O O1 0.688129 0.500000 0.087355
O O2 0.708025 0.783760 0.169676
O O3 0.612216 0.725562 0.103669
O O4 0.691314 0.785753 0.000000
O O5 0.307089 0.274965 0.500000
O O6 0.287228 0.261757 0.332832
O O7 0.386964 0.276784 0.391834
O O8 0.327824 0.000000 0.410165
O O9 0.898036 0.267401 0.167378
O O10 0.000000 0.272900 0.111328
O O11 0.938981 0.000000 0.093060
O O12 0.923548 0.272490 0.000000
O O13 0.747597 0.500000 0.234350
O O14 0.804666 0.782950 0.247729
O O15 0.921774 0.230423 0.500000
O O16 0.937502 0.500000 0.404795
O O17 0.899517 0.219290 0.331718
O O18 0.000000 0.230049 0.391879
O O19 0.500000 0.273816 0.376576
O O20 0.436291 0.264140 0.248090
O O21 0.440918 0.000000 0.349482
O O22 0.500000 0.273525 0.119827
O O23 0.559187 0.000000 0.147342
O O24 0.860400 0.500000 0.732137
#
# Coordination Sequence:
#
# PCOD9385572 Si02
#       8
#     8   8   8   8   8   8   8   8
#     4  10  21  36  52  70  97 135 175 213 259 316
#     4  10  20  34  55  80 104 135 176 219 261 311
#     4   9  19  36  56  80 113 148 176 207 258 321
#     4  10  22  38  53  73 104 141 178 220 267 308
#     4   8  14  26  46  74 106 133 159 201 255 303
#     4   8  14  27  49  76 103 128 158 206 265 316
#     4   9  17  31  53  78 101 126 160 208 264 317
#     4  10  20  33  54  81 104 135 183 228 261 298
#
# _framework density 21.360966000000001
#
# number of rings (size 3 to 8) (size 9 to 14) (size 15 to 20)
#    0.000    2.750    1.250    1.875    0.000    3.750 
#    0.000    5.625    0.000    0.750    0.000    2.625 
#    0.000    0.000    0.000    0.000    0.000    0.000 
#
# Total GULP energy -357205.841450 kJ/mol
# GULP energy per Si atom -5581.341273 kJ/mol
# Density = 2.131235 g / cm^3
# Si number density = 21.360966 Si / 1000 Ang^3
#
#
#
# Elastic Constant Matrix: (Units=GPa)
#
#
# Indices 1 2 3 4 5 6 
#
# 1 166.6068 1.7641 122.7978 0.0000 0.0000 0.0000
# 2 1.7641 48.6897 1.3835 0.0000 0.0000 0.0000
# 3 122.7978 1.3835 182.2584 0.0000 0.0000 0.0000
# 4 0.0000 0.0000 0.0000 406.1995 0.0000 0.0000
# 5 0.0000 0.0000 0.0000 0.0000 348.9303 0.0000
# 6 0.0000 0.0000 0.0000 0.0000 0.0000 0.2872
#
#
#
# Elastic Compliance Matrix: (Units=1/GPa)
#
#
# Indices 1 2 3 4 5 6 
#
# 1 0.011925 -0.000204 -0.008033 0.000000 0.000000 0.000000
# 2 -0.000204 0.020546 -0.000019 0.000000 0.000000 0.000000
# 3 -0.008033 -0.000019 0.010899 0.000000 0.000000 0.000000
# 4 0.000000 0.000000 0.000000 0.002462 0.000000 0.000000
# 5 0.000000 0.000000 0.000000 0.000000 0.002866 0.000000
# 6 0.000000 0.000000 0.000000 0.000000 0.000000 3.481436
#
#
# Mechanical properties :
#
#
# Convention : Reuss Voigt Hill
#
# Bulk Modulus (GPa) = 37.23093 72.16062 54.69578
# Shear Modulus (GPa) = 1.40623 169.19071 85.29847
#
# Velocity S-wave (km/s) = 0.81225 8.90941 6.32603
# Velocity P-wave (km/s) = 4.28333 11.81912 8.88928
#
# Compressibility (1/GPa) = 0.02685939
#
# Stress axis : x y z
#
# Youngs Moduli (GPa) = 83.85680 48.67095 91.75002
#
# Poissons Ratio (x) = 0.00992 0.73703
# Poissons Ratio (y) = 0.01709 0.00171
# Poissons Ratio (z) = 0.67363 0.00091
#
# Static dielectric constant tensor:
#      x y z
#    x 1.751940 0.000000 0.000000 
#    y 0.000000 1.819880 0.000000 
#    z 0.000000 0.000000 1.768260 
# 
# From -- ./inp_files/25603.got.cif
#   From: 2010.05.17/outbox.cif.g08.bks.cpg/sg47_13_cif.got.tgz:25603.got - 2010.06.03 20:15:42.
