data_PCOD9385143
_publ_section_title
;
Structure prediction by ZEFSAII (Michael W. Deem and Ramdas Pophale) SiO2 
 PCOD9385143
Probable space group: P M M M
;
_chemical_formula_sum "Si O2"
_cell_formula_units_Z 64
_cell_length_a 30.255093
_cell_length_b 14.990819
_cell_length_c 8.871819
_cell_angle_alpha 90.000000
_cell_angle_beta 90.000000
_cell_angle_gamma 90.000000
_cell_volume 4023.801291
_symmetry_space_group_name_H-M "P M M M"
_symmetry_group_IT_number 47
_symmetry_cell_setting 'orthorhombic'
loop_
_space_group_symop_operation_xyz
x,y,z
-x,-y,z
x,-y,-z
-x,y,-z
-x,-y,-z
x,y,-z
-x,y,z
x,-y,z
loop_
_atom_site_type_symbol
_atom_site_label
_atom_site_fract_x
_atom_site_fract_y
_atom_site_fract_z
Si Si1 0.647493 0.100357 0.181091
Si Si2 0.450791 0.165587 0.179983
Si Si3 0.695972 0.267845 0.675906
Si Si4 0.951259 0.608334 0.176883
Si Si5 0.549977 0.640818 0.674845
Si Si6 0.138606 0.392009 0.670894
Si Si7 0.365240 0.599457 0.829876
Si Si8 0.768884 0.603889 0.820298
O O1 0.595027 0.115199 0.215033
O O2 0.678964 0.175167 0.253181
O O3 0.659551 0.000000 0.227568
O O4 0.651414 0.107276 0.000000
O O5 0.500000 0.123520 0.203688
O O6 0.449754 0.255070 0.278826
O O7 0.448812 0.187126 0.000000
O O8 0.704270 0.256666 0.500000
O O9 0.655824 0.335456 0.709348
O O10 0.736427 0.322066 0.751205
O O11 0.951187 0.500000 0.185657
O O12 0.908274 0.640866 0.265307
O O13 0.000000 0.637715 0.230840
O O14 0.947232 0.630475 0.000000
O O15 0.562883 0.628486 0.500000
O O16 0.500000 0.608759 0.691428
O O17 0.583588 0.596387 0.789377
O O18 0.146041 0.361440 0.500000
O O19 0.135611 0.500000 0.668100
O O20 0.181021 0.372629 0.773128
O O21 0.346263 0.500000 0.821750
O O22 0.358104 0.633679 0.000000
O O23 0.760780 0.500000 0.768931
O O24 0.763969 0.604229 0.000000
#
# Coordination Sequence:
#
# PCOD9385143 Si02
#       8
#     8   8   8   8   8   8   8   8
#     4  10  21  37  57  79 102 127 154 184 221 272
#     4   9  17  31  53  77 100 125 150 178 214 261
#     4  12  24  37  54  74  97 123 151 191 238 280
#     4   8  13  21  33  50  76 114 159 203 245 287
#     4  10  20  33  50  72  97 123 149 180 221 265
#     4   9  16  25  38  59  87 117 154 201 247 289
#     4  11  23  37  53  72  94 122 156 189 223 269
#     4  10  20  34  52  71  93 124 161 201 244 290
#
# _framework density 15.905359000000001
#
# number of rings (size 3 to 8) (size 9 to 14) (size 15 to 20)
#    0.000    2.125    1.250    3.375    0.000    6.500 
#    0.000    3.750    0.000    0.000    0.000    2.625 
#    0.000    0.000    0.000    0.000    0.000    0.625 
#
# Total GULP energy -356629.793081 kJ/mol
# GULP energy per Si atom -5572.340517 kJ/mol
# Density = 1.586916 g / cm^3
# Si number density = 15.905359 Si / 1000 Ang^3
#
#
#
# Elastic Constant Matrix: (Units=GPa)
#
#
# Indices 1 2 3 4 5 6 
#
# 1 105.9428 37.7961 35.9110 0.0000 0.0000 0.0000
# 2 37.7961 72.0841 25.8133 0.0000 0.0000 0.0000
# 3 35.9110 25.8133 50.6408 0.0000 0.0000 0.0000
# 4 0.0000 0.0000 0.0000 -35.6223 0.0000 0.0000
# 5 0.0000 0.0000 0.0000 0.0000 23.0573 0.0000
# 6 0.0000 0.0000 0.0000 0.0000 0.0000 11.8685
#
#
#
# Elastic Compliance Matrix: (Units=1/GPa)
#
#
# Indices 1 2 3 4 5 6 
#
# 1 0.013508 -0.004468 -0.007301 0.000000 0.000000 0.000000
# 2 -0.004468 0.018448 -0.006235 0.000000 0.000000 0.000000
# 3 -0.007301 -0.006235 0.028103 0.000000 0.000000 0.000000
# 4 0.000000 0.000000 0.000000 -0.028072 0.000000 0.000000
# 5 0.000000 0.000000 0.000000 0.000000 0.043370 0.000000
# 6 0.000000 0.000000 0.000000 0.000000 0.000000 0.084257
#
#
# Mechanical properties :
#
#
# Convention : Reuss Voigt Hill
#
# Bulk Modulus (GPa) = 41.58057 47.52318 44.55187
# Shear Modulus (GPa) = 24.55314 8.47051 16.51183
#
# Velocity S-wave (km/s) = 3.93326 2.31022 3.22550
# Velocity P-wave (km/s) = 6.84300 6.08767 6.47636
#
# Compressibility (1/GPa) = 0.02404970
#
# Stress axis : x y z
#
# Youngs Moduli (GPa) = 74.03001 54.20563 35.58349
#
# Poissons Ratio (x) = 0.24219 0.25981
# Poissons Ratio (y) = 0.33077 0.22187
# Poissons Ratio (z) = 0.54053 0.33798
#
# Static dielectric constant tensor:
#      x y z
#    x 1.567240 0.000000 0.000000 
#    y 0.000000 1.530440 0.000000 
#    z 0.000000 0.000000 1.533360 
# 
# From -- ./inp_files/14329.got.cif
#   From: 2010.05.17/outbox.cif.g08.bks.cpg/sg47_8_cif.got.tgz:14329.got - 2010.06.03 20:15:42.
