data_PCOD9385507
_publ_section_title
;
Structure prediction by ZEFSAII (Michael W. Deem and Ramdas Pophale) SiO2 
 PCOD9385507
Probable space group: P M M M
;
_chemical_formula_sum "Si O2"
_cell_formula_units_Z 36
_cell_length_a 23.861317
_cell_length_b 9.276342
_cell_length_c 8.451314
_cell_angle_alpha 90.000000
_cell_angle_beta 90.000000
_cell_angle_gamma 90.000000
_cell_volume 1870.662326
_symmetry_space_group_name_H-M "P M M M"
_symmetry_group_IT_number 47
_symmetry_cell_setting 'orthorhombic'
loop_
_space_group_symop_operation_xyz
x,y,z
-x,-y,z
x,-y,-z
-x,y,-z
-x,-y,-z
x,y,-z
-x,y,z
x,-y,z
loop_
_atom_site_type_symbol
_atom_site_label
_atom_site_fract_x
_atom_site_fract_y
_atom_site_fract_z
Si Si1 0.000000 0.166516 0.810227
Si Si2 0.437352 0.167099 0.692730
Si Si3 0.672932 0.666127 0.691818
Si Si4 0.890799 0.666547 0.689780
Si Si5 0.781701 0.166502 0.810249
O O1 0.944882 0.248538 0.751280
O O2 0.000000 0.000000 0.755727
O O3 0.000000 0.166462 0.000000
O O4 0.437487 0.170235 0.500000
O O5 0.500000 0.211185 0.744068
O O6 0.386091 0.265726 0.745647
O O7 0.428486 0.000000 0.738633
O O8 0.673774 0.669588 0.500000
O O9 0.678266 0.500000 0.741627
O O10 0.724644 0.759563 0.752818
O O11 0.891831 0.666846 0.500000
O O12 0.891770 0.500000 0.743966
O O13 0.834674 0.745248 0.746617
O O14 0.784283 0.000000 0.756844
O O15 0.783344 0.168329 0.000000
#
# Coordination Sequence:
#
# PCOD9385507 Si02
#       5
#     4   8   8   8   8
#     4  11  24  41  62  90 122 155 192 229 268 320
#     4   8  14  26  46  73 105 141 180 222 270 324
#     4  10  20  33  52  80 111 143 181 225 275 331
#     4  11  24  41  62  89 118 148 186 230 276 327
#     4  11  24  40  58  81 109 144 187 231 277 331
#
# _framework density 19.244522
#
# number of rings (size 3 to 8) (size 9 to 14) (size 15 to 20)
#    0.000    1.889    0.000    4.667    0.000   12.889 
#    0.000    2.222    0.000    0.667    0.000    4.667 
#    0.000    0.000    0.000    0.000    0.000    0.000 
#
# Total GULP energy -201161.381156 kJ/mol
# GULP energy per Si atom -5587.816143 kJ/mol
# Density = 1.920072 g / cm^3
# Si number density = 19.244522 Si / 1000 Ang^3
#
#
#
# Elastic Constant Matrix: (Units=GPa)
#
#
# Indices 1 2 3 4 5 6 
#
# 1 197.5122 126.5483 28.6714 0.0000 0.0000 0.0000
# 2 126.5483 200.3667 36.6218 0.0000 0.0000 0.0000
# 3 28.6714 36.6218 24.7656 0.0000 0.0000 0.0000
# 4 0.0000 0.0000 0.0000 34.5304 0.0000 0.0000
# 5 0.0000 0.0000 0.0000 0.0000 720.4082 0.0000
# 6 0.0000 0.0000 0.0000 0.0000 0.0000 92.1479
#
#
#
# Elastic Compliance Matrix: (Units=1/GPa)
#
#
# Indices 1 2 3 4 5 6 
#
# 1 0.008629 -0.004966 -0.002646 0.000000 0.000000 0.000000
# 2 -0.004966 0.009698 -0.008591 0.000000 0.000000 0.000000
# 3 -0.002646 -0.008591 0.056145 0.000000 0.000000 0.000000
# 4 0.000000 0.000000 0.000000 0.028960 0.000000 0.000000
# 5 0.000000 0.000000 0.000000 0.000000 0.001388 0.000000
# 6 0.000000 0.000000 0.000000 0.000000 0.000000 0.010852
#
#
# Mechanical properties :
#
#
# Convention : Reuss Voigt Hill
#
# Bulk Modulus (GPa) = 23.77219 89.59195 56.68207
# Shear Modulus (GPa) = 30.84501 184.80416 107.82459
#
# Velocity S-wave (km/s) = 4.00783 9.81009 7.49335
# Velocity P-wave (km/s) = 5.81348 13.22773 10.21688
#
# Compressibility (1/GPa) = 0.04206596
#
# Stress axis : x y z
#
# Youngs Moduli (GPa) = 115.88712 103.11742 17.81087
#
# Poissons Ratio (x) = 0.51212 0.04713
# Poissons Ratio (y) = 0.57554 0.15301
# Poissons Ratio (z) = 0.30664 0.88585
#
# Static dielectric constant tensor:
#      x y z
#    x 1.632590 0.000000 0.000000 
#    y 0.000000 1.657020 0.000000 
#    z 0.000000 0.000000 1.664590 
# 
# From -- ./inp_files/12073.got.cif
#   From: 2010.05.17/outbox.cif.g08.bks.cpg/sg47_7_cif.got.tgz:12073.got - 2010.06.03 20:15:42.
