data_PCOD9385294
_publ_section_title
;
Structure prediction by ZEFSAII (Michael W. Deem and Ramdas Pophale) SiO2 
 PCOD9385294
Probable space group: P M M M
;
_chemical_formula_sum "Si O2"
_cell_formula_units_Z 52
_cell_length_a 14.694099
_cell_length_b 8.009418
_cell_length_c 25.724694
_cell_angle_alpha 90.000000
_cell_angle_beta 90.000000
_cell_angle_gamma 90.000000
_cell_volume 3027.569618
_symmetry_space_group_name_H-M "P M M M"
_symmetry_group_IT_number 47
_symmetry_cell_setting 'orthorhombic'
loop_
_space_group_symop_operation_xyz
x,y,z
-x,-y,z
x,-y,-z
-x,y,-z
-x,-y,-z
x,y,-z
-x,y,z
x,-y,z
loop_
_atom_site_type_symbol
_atom_site_label
_atom_site_fract_x
_atom_site_fract_y
_atom_site_fract_z
Si Si1 0.610221 0.000000 0.440767
Si Si2 0.603779 0.201738 0.841880
Si Si3 0.291966 0.197510 0.943330
Si Si4 0.609219 0.697377 0.634775
Si Si5 0.102117 0.695507 0.903288
Si Si6 0.285236 0.698578 0.739647
Si Si7 0.898171 0.802660 0.785663
O O1 0.634870 0.830808 0.409659
O O2 0.500000 0.000000 0.442690
O O3 0.644076 0.000000 0.500000
O O4 0.500000 0.261346 0.838863
O O5 0.653746 0.266658 0.893756
O O6 0.659030 0.246319 0.790381
O O7 0.602581 0.000000 0.844677
O O8 0.184882 0.218644 0.932457
O O9 0.311613 0.000000 0.944973
O O10 0.315158 0.268996 0.000000
O O11 0.500000 0.710303 0.643464
O O12 0.627524 0.500000 0.622995
O O13 0.662417 0.747319 0.687184
O O14 0.104029 0.500000 0.916291
O O15 0.117537 0.715333 0.841285
O O16 0.000000 0.760413 0.914144
O O17 0.281490 0.500000 0.739798
O O18 0.182760 0.763557 0.746402
O O19 0.000000 0.756784 0.767582
O O20 0.896664 0.000000 0.796471
#
# Coordination Sequence:
#
# PCOD9385294 Si02
#       7
#     4   8   8   8   8   8   8
#     4   9  18  32  52  78 109 151 194 228 264 301
#     4  10  21  35  52  73  95 127 168 208 257 312
#     4  10  21  36  52  70  93 123 162 207 254 308
#     4   9  19  33  49  76 112 148 186 225 264 308
#     4  10  20  34  52  73  96 123 156 197 250 311
#     4  11  21  33  52  77 106 138 170 209 259 310
#     4  10  20  33  51  75 102 132 165 203 252 312
#
# _framework density 17.175491999999998
#
# number of rings (size 3 to 8) (size 9 to 14) (size 15 to 20)
#    0.000    2.077    1.538    1.846    2.154    4.000 
#    0.000    4.615    0.000    0.000    0.000    2.154 
#    0.000    1.231    0.000    3.385    0.000    0.154 
#
# Total GULP energy -290086.074197 kJ/mol
# GULP energy per Si atom -5578.578350 kJ/mol
# Density = 1.713640 g / cm^3
# Si number density = 17.175492 Si / 1000 Ang^3
#
#
#
# Elastic Constant Matrix: (Units=GPa)
#
#
# Indices 1 2 3 4 5 6 
#
# 1 82.1309 16.2294 51.0301 0.0000 0.0000 0.0000
# 2 16.2294 38.1624 37.3067 0.0000 0.0000 0.0000
# 3 51.0301 37.3067 126.1440 0.0000 0.0000 0.0000
# 4 0.0000 0.0000 0.0000 111.9827 0.0000 0.0000
# 5 0.0000 0.0000 0.0000 0.0000 16.0202 0.0000
# 6 0.0000 0.0000 0.0000 0.0000 0.0000 13.1380
#
#
#
# Elastic Compliance Matrix: (Units=1/GPa)
#
#
# Indices 1 2 3 4 5 6 
#
# 1 0.016276 -0.000682 -0.006383 0.000000 0.000000 0.000000
# 2 -0.000682 0.036889 -0.010634 0.000000 0.000000 0.000000
# 3 -0.006383 -0.010634 0.013654 0.000000 0.000000 0.000000
# 4 0.000000 0.000000 0.000000 0.008930 0.000000 0.000000
# 5 0.000000 0.000000 0.000000 0.000000 0.062421 0.000000
# 6 0.000000 0.000000 0.000000 0.000000 0.000000 0.076115
#
#
# Mechanical properties :
#
#
# Convention : Reuss Voigt Hill
#
# Bulk Modulus (GPa) = 31.82445 50.61886 41.22166
# Shear Modulus (GPa) = 19.21907 37.68625 28.45266
#
# Velocity S-wave (km/s) = 3.34875 4.68930 4.07453
# Velocity P-wave (km/s) = 5.78976 7.67169 6.79618
#
# Compressibility (1/GPa) = 0.03142238
#
# Stress axis : x y z
#
# Youngs Moduli (GPa) = 61.43958 27.10800 73.23665
#
# Poissons Ratio (x) = 0.01850 0.46743
# Poissons Ratio (y) = 0.04193 0.77879
# Poissons Ratio (z) = 0.39214 0.28826
#
# Static dielectric constant tensor:
#      x y z
#    x 1.632830 0.000000 0.000000 
#    y 0.000000 1.615350 0.000000 
#    z 0.000000 0.000000 1.572120 
# 
# From -- ./inp_files/6960.got.cif
#   From: 2010.05.17/outbox.cif.g08.bks.cpg/sg47_4_cif.got.tgz:6960.got - 2010.06.03 20:15:42.
