data_PCOD9385239
_publ_section_title
;
Structure prediction by ZEFSAII (Michael W. Deem and Ramdas Pophale) SiO2 
 PCOD9385239
Probable space group: P M M M
;
_chemical_formula_sum "Si O2"
_cell_formula_units_Z 40
_cell_length_a 9.386334
_cell_length_b 8.426075
_cell_length_c 26.553913
_cell_angle_alpha 90.000000
_cell_angle_beta 90.000000
_cell_angle_gamma 90.000000
_cell_volume 2100.147765
_symmetry_space_group_name_H-M "P M M M"
_symmetry_group_IT_number 47
_symmetry_cell_setting 'orthorhombic'
loop_
_space_group_symop_operation_xyz
x,y,z
-x,-y,z
x,-y,-z
-x,y,-z
-x,-y,-z
x,y,-z
-x,y,z
x,-y,z
loop_
_atom_site_type_symbol
_atom_site_label
_atom_site_fract_x
_atom_site_fract_y
_atom_site_fract_z
Si Si1 0.335361 0.193943 0.000000
Si Si2 0.835500 0.193945 0.900424
Si Si3 0.835257 0.810021 0.404045
Si Si4 0.164820 0.310109 0.705487
Si Si5 0.663824 0.808211 0.198528
Si Si6 0.662988 0.310024 0.500000
O O1 0.251192 0.244074 0.050055
O O2 0.500000 0.245225 0.000000
O O3 0.336412 0.000000 0.000000
O O4 0.754834 0.245665 0.849825
O O5 0.000000 0.245375 0.901499
O O6 0.836101 0.000000 0.900466
O O7 0.787040 0.748317 0.349495
O O8 0.742774 0.748845 0.450183
O O9 0.000000 0.757674 0.410710
O O10 0.832623 0.000000 0.403674
O O11 0.166264 0.500000 0.706086
O O12 0.261388 0.246493 0.750364
O O13 0.000000 0.255994 0.712375
O O14 0.500000 0.754248 0.195436
O O15 0.663186 0.000000 0.197726
O O16 0.663860 0.500000 0.500000
O O17 0.500000 0.253504 0.500000
#
# Coordination Sequence:
#
# PCOD9385239 Si02
#       6
#     4   8   8   8   8   4
#     4   9  15  23  37  61  96 133 168 211 264 319
#     4   9  16  26  42  65  95 132 173 216 262 313
#     4  10  21  38  61  86 110 140 180 223 267 316
#     4  10  21  37  57  80 105 136 175 218 265 317
#     4  10  20  33  50  74 104 138 175 216 265 318
#     4  11  24  39  56  82 116 151 184 219 262 312
#
# _framework density 19.046279999999999
#
# number of rings (size 3 to 8) (size 9 to 14) (size 15 to 20)
#    0.000    2.200    0.000    3.300    0.000   10.000 
#    0.000    0.000    0.000    0.000    0.000    0.700 
#    0.000    5.600    0.000    0.000    0.000    0.000 
#
# Total GULP energy -223408.690488 kJ/mol
# GULP energy per Si atom -5585.217262 kJ/mol
# Density = 1.900293 g / cm^3
# Si number density = 19.046280 Si / 1000 Ang^3
#
#
#
# Elastic Constant Matrix: (Units=GPa)
#
#
# Indices 1 2 3 4 5 6 
#
# 1 170.0459 21.9059 139.0937 0.0000 0.0000 0.0000
# 2 21.9059 13.1842 23.4852 0.0000 0.0000 0.0000
# 3 139.0937 23.4852 224.3323 0.0000 0.0000 0.0000
# 4 0.0000 0.0000 0.0000 -52.4608 0.0000 0.0000
# 5 0.0000 0.0000 0.0000 0.0000 -4.5518 0.0000
# 6 0.0000 0.0000 0.0000 0.0000 0.0000 18.1351
#
#
#
# Elastic Compliance Matrix: (Units=1/GPa)
#
#
# Indices 1 2 3 4 5 6 
#
# 1 0.012695 -0.008692 -0.006961 0.000000 0.000000 0.000000
# 2 -0.008692 0.099187 -0.004994 0.000000 0.000000 0.000000
# 3 -0.006961 -0.004994 0.009297 0.000000 0.000000 0.000000
# 4 0.000000 0.000000 0.000000 -0.019062 0.000000 0.000000
# 5 0.000000 0.000000 0.000000 0.000000 -0.219692 0.000000
# 6 0.000000 0.000000 0.000000 0.000000 0.000000 0.055142
#
#
# Mechanical properties :
#
#
# Convention : Reuss Voigt Hill
#
# Bulk Modulus (GPa) = 12.51834 86.28132 49.39983
# Shear Modulus (GPa) = 911.00705 7.09635 459.05170
#
# Velocity S-wave (km/s) = 21.89408 1.93234 15.54163
# Velocity P-wave (km/s) = 25.41104 7.09773 18.65608
#
# Compressibility (1/GPa) = 0.07988282
#
# Stress axis : x y z
#
# Youngs Moduli (GPa) = 78.77414 10.08196 107.56632
#
# Poissons Ratio (x) = 0.08764 0.74877
# Poissons Ratio (y) = 0.68474 0.53721
# Poissons Ratio (z) = 0.54835 0.05035
#
# Static dielectric constant tensor:
#      x y z
#    x 1.652260 0.000000 0.000000 
#    y 0.000000 1.649970 0.000000 
#    z 0.000000 0.000000 1.622370 
# 
# From -- ./inp_files/1868.got.cif
#   From: 2010.05.17/outbox.cif.g08.bks.cpg/sg47_1_cif.got.tgz:1868.got - 2010.06.03 20:15:42.
