data_PCOD9385970
_publ_section_title
;
Structure prediction by ZEFSAII (Michael W. Deem and Ramdas Pophale) SiO2 
 PCOD9385970
Probable space group: P M M M
;
_chemical_formula_sum "Si O2"
_cell_formula_units_Z 40
_cell_length_a 9.577448
_cell_length_b 7.637507
_cell_length_c 26.913310
_cell_angle_alpha 90.000000
_cell_angle_beta 90.000000
_cell_angle_gamma 90.000000
_cell_volume 1968.650121
_symmetry_space_group_name_H-M "P M M M"
_symmetry_group_IT_number 47
_symmetry_cell_setting 'orthorhombic'
loop_
_space_group_symop_operation_xyz
x,y,z
-x,-y,z
x,-y,-z
-x,y,-z
-x,-y,-z
x,y,-z
-x,y,z
x,-y,z
loop_
_atom_site_type_symbol
_atom_site_label
_atom_site_fract_x
_atom_site_fract_y
_atom_site_fract_z
Si Si1 0.330135 0.794472 0.500000
Si Si2 0.841150 0.789382 0.298770
Si Si3 0.159436 0.707586 0.187561
Si Si4 0.838962 0.214991 0.000000
Si Si5 0.661862 0.214807 0.608046
Si Si6 0.342247 0.207095 0.906804
O O1 0.500000 0.786018 0.500000
O O2 0.285757 0.723381 0.553726
O O3 0.292088 0.000000 0.500000
O O4 0.789990 0.746706 0.243418
O O5 0.749576 0.725239 0.344719
O O6 0.000000 0.723315 0.302288
O O7 0.844740 0.000000 0.302361
O O8 0.151224 0.500000 0.182157
O O9 0.262747 0.772483 0.145219
O O10 0.000000 0.778885 0.182460
O O11 0.755092 0.275391 0.951263
O O12 0.000000 0.271798 0.000000
O O13 0.841730 0.000000 0.000000
O O14 0.500000 0.264699 0.613438
O O15 0.665123 0.000000 0.606956
O O16 0.500000 0.279656 0.906203
O O17 0.354571 0.000000 0.916102
#
# Coordination Sequence:
#
# PCOD9385970 Si02
#       6
#     4   8   8   4   8   8
#     4   7  10  18  33  55  84 115 144 178 224 277
#     4   9  17  29  45  66  92 120 152 194 241 285
#     4  10  21  36  52  70  95 130 169 205 243 289
#     4   9  17  31  54  81 106 133 164 196 232 279
#     4   8  13  22  38  60  86 116 149 184 226 280
#     4  10  20  34  54  80 107 132 160 198 242 285
#
# _framework density 20.318491000000002
#
# number of rings (size 3 to 8) (size 9 to 14) (size 15 to 20)
#    0.000    3.000    0.000    2.700    0.000    4.400 
#    0.000    3.000    0.000    6.000    0.000    0.700 
#    0.000    5.600    0.000    0.000    0.000    0.000 
#
# Total GULP energy -223036.060550 kJ/mol
# GULP energy per Si atom -5575.901514 kJ/mol
# Density = 2.027225 g / cm^3
# Si number density = 20.318491 Si / 1000 Ang^3
#
#
#
# Elastic Constant Matrix: (Units=GPa)
#
#
# Indices 1 2 3 4 5 6 
#
# 1 119.2750 5.3414 121.1846 0.0000 0.0000 0.0000
# 2 5.3414 38.1965 -3.8748 0.0000 0.0000 0.0000
# 3 121.1846 -3.8748 224.4590 0.0000 0.0000 0.0000
# 4 0.0000 0.0000 0.0000 -58.2135 0.0000 0.0000
# 5 0.0000 0.0000 0.0000 0.0000 38.5686 0.0000
# 6 0.0000 0.0000 0.0000 0.0000 0.0000 2.2262
#
#
#
# Elastic Compliance Matrix: (Units=1/GPa)
#
#
# Indices 1 2 3 4 5 6 
#
# 1 0.019084 -0.003721 -0.010368 0.000000 0.000000 0.000000
# 2 -0.003721 0.026952 0.002474 0.000000 0.000000 0.000000
# 3 -0.010368 0.002474 0.010095 0.000000 0.000000 0.000000
# 4 0.000000 0.000000 0.000000 -0.017178 0.000000 0.000000
# 5 0.000000 0.000000 0.000000 0.000000 0.025928 0.000000
# 6 0.000000 0.000000 0.000000 0.000000 0.000000 0.449197
#
#
# Mechanical properties :
#
#
# Convention : Reuss Voigt Hill
#
# Bulk Modulus (GPa) = 30.39267 69.69254 50.04260
# Shear Modulus (GPa) = 9.11952 13.80154 11.46053
#
# Velocity S-wave (km/s) = 2.12086 2.60909 2.37754
# Velocity P-wave (km/s) = 4.58126 6.59174 5.67622
#
# Compressibility (1/GPa) = 0.03290267
#
# Stress axis : x y z
#
# Youngs Moduli (GPa) = 52.39881 37.10351 99.05490
#
# Poissons Ratio (x) = 0.13804 1.02698
# Poissons Ratio (y) = 0.19495 -0.24506
# Poissons Ratio (z) = 0.54326 -0.09179
#
# Static dielectric constant tensor:
#      x y z
#    x 1.759820 0.000000 0.000000 
#    y 0.000000 1.746220 0.000000 
#    z 0.000000 0.000000 1.719360 
# 
# From -- ./inp_files/33001.got.cif
#   From: 2010.05.17/outbox.cif.g08.bks.cpg/sg47_17_cif.got.tgz:33001.got - 2010.06.03 20:15:42.
