data_PCOD9385424
_publ_section_title
;
Structure prediction by ZEFSAII (Michael W. Deem and Ramdas Pophale) SiO2 
 PCOD9385424
Probable space group: P M M M
;
_chemical_formula_sum "Si O2"
_cell_formula_units_Z 64
_cell_length_a 8.911839
_cell_length_b 20.109004
_cell_length_c 20.082489
_cell_angle_alpha 90.000000
_cell_angle_beta 90.000000
_cell_angle_gamma 90.000000
_cell_volume 3598.946828
_symmetry_space_group_name_H-M "P M M M"
_symmetry_group_IT_number 47
_symmetry_cell_setting 'orthorhombic'
loop_
_space_group_symop_operation_xyz
x,y,z
-x,-y,z
x,-y,-z
-x,y,-z
-x,-y,-z
x,y,-z
-x,y,z
x,-y,z
loop_
_atom_site_type_symbol
_atom_site_label
_atom_site_fract_x
_atom_site_fract_y
_atom_site_fract_z
Si Si1 0.665654 0.756864 0.424705
Si Si2 0.679785 0.782587 0.074095
Si Si3 0.179997 0.925208 0.894834
Si Si4 0.672336 0.925007 0.749857
Si Si5 0.320232 0.700292 0.794753
Si Si6 0.178694 0.424473 0.718508
Si Si7 0.673645 0.597148 0.574642
Si Si8 0.827685 0.803936 0.694752
O O1 0.500000 0.776048 0.397402
O O2 0.733076 0.755266 0.258129
O O3 0.670320 0.677149 0.425852
O O4 0.800098 0.780564 0.379680
O O5 0.500000 0.791454 0.081093
O O6 0.752093 0.856485 0.077322
O O7 0.726535 0.732126 0.133489
O O8 0.710749 0.755386 0.000000
O O9 0.238024 0.924148 0.819089
O O10 0.000000 0.921584 0.899150
O O11 0.223527 0.000000 0.920778
O O12 0.500000 0.903900 0.761997
O O13 0.757595 0.876082 0.701852
O O14 0.670533 0.000000 0.724769
O O15 0.500000 0.693843 0.794846
O O16 0.251702 0.631255 0.766551
O O17 0.207965 0.500000 0.742203
O O18 0.238998 0.421059 0.642044
O O19 0.000000 0.413065 0.716945
O O20 0.728480 0.576845 0.500000
O O21 0.500000 0.575291 0.580486
O O22 0.675424 0.781016 0.500000
O O23 0.000000 0.801952 0.714886
#
# Coordination Sequence:
#
# PCOD9385424 Si02
#       8
#     8   8   8   8   8   8   8   8
#     4   9  18  33  53  78 109 145 186 229 272 323
#     4  10  22  39  59  83 111 146 186 230 280 332
#     4  10  20  33  51  79 115 152 188 226 270 323
#     4  10  20  34  53  77 107 146 190 232 275 325
#     4  11  22  38  60  83 109 142 185 230 270 326
#     4  11  24  39  56  82 115 148 183 227 279 331
#     4   9  18  33  54  80 111 149 189 225 264 319
#     4  12  22  32  54  84 113 144 181 230 283 331
#
# _framework density 17.782979999999998
#
# number of rings (size 3 to 8) (size 9 to 14) (size 15 to 20)
#    0.000    1.750    2.500    3.375    0.000    4.250 
#    0.000    3.750    0.000    0.750    0.000    5.250 
#    0.000    0.000    0.000    0.000    0.000    0.000 
#
# Total GULP energy -356757.967556 kJ/mol
# GULP energy per Si atom -5574.343243 kJ/mol
# Density = 1.774251 g / cm^3
# Si number density = 17.782980 Si / 1000 Ang^3
#
#
#
# Elastic Constant Matrix: (Units=GPa)
#
#
# Indices 1 2 3 4 5 6 
#
# 1 57.7587 45.5121 37.2631 0.0000 0.0000 0.0000
# 2 45.5121 96.8063 59.4250 0.0000 0.0000 0.0000
# 3 37.2631 59.4250 97.1032 0.0000 0.0000 0.0000
# 4 0.0000 0.0000 0.0000 -21.2588 0.0000 0.0000
# 5 0.0000 0.0000 0.0000 0.0000 -15.4196 0.0000
# 6 0.0000 0.0000 0.0000 0.0000 0.0000 29.1676
#
#
#
# Elastic Compliance Matrix: (Units=1/GPa)
#
#
# Indices 1 2 3 4 5 6 
#
# 1 0.028631 -0.010757 -0.004404 0.000000 0.000000 0.000000
# 2 -0.010757 0.020587 -0.008471 0.000000 0.000000 0.000000
# 3 -0.004404 -0.008471 0.017172 0.000000 0.000000 0.000000
# 4 0.000000 0.000000 0.000000 -0.047039 0.000000 0.000000
# 5 0.000000 0.000000 0.000000 0.000000 -0.064852 0.000000
# 6 0.000000 0.000000 0.000000 0.000000 0.000000 0.034285
#
#
# Mechanical properties :
#
#
# Convention : Reuss Voigt Hill
#
# Bulk Modulus (GPa) = 52.28330 59.56317 55.92324
# Shear Modulus (GPa) = 117.86317 5.79570 61.82943
#
# Velocity S-wave (km/s) = 8.15000 1.80726 5.90291
# Velocity P-wave (km/s) = 10.86407 6.15810 8.83035
#
# Compressibility (1/GPa) = 0.01912657
#
# Stress axis : x y z
#
# Youngs Moduli (GPa) = 34.92740 48.57435 58.23338
#
# Poissons Ratio (x) = 0.52251 0.25646
# Poissons Ratio (y) = 0.37571 0.49328
# Poissons Ratio (z) = 0.15382 0.41146
#
# Static dielectric constant tensor:
#      x y z
#    x 1.612790 0.000000 0.000000 
#    y 0.000000 1.638480 0.000000 
#    z 0.000000 0.000000 1.635550 
# 
# From -- ./inp_files/27030.got.cif
#   From: 2010.05.17/outbox.cif.g08.bks.cpg/sg47_14_cif.got.tgz:27030.got - 2010.06.03 20:15:42.
