data_PCOD9385358
_publ_section_title
;
Structure prediction by ZEFSAII (Michael W. Deem and Ramdas Pophale) SiO2 
 PCOD9385358
Probable space group: P M M M
;
_chemical_formula_sum "Si O2"
_cell_formula_units_Z 36
_cell_length_a 7.725937
_cell_length_b 9.533037
_cell_length_c 24.044198
_cell_angle_alpha 90.000000
_cell_angle_beta 90.000000
_cell_angle_gamma 90.000000
_cell_volume 1770.894694
_symmetry_space_group_name_H-M "P M M M"
_symmetry_group_IT_number 47
_symmetry_cell_setting 'orthorhombic'
loop_
_space_group_symop_operation_xyz
x,y,z
-x,-y,z
x,-y,-z
-x,y,-z
-x,-y,-z
x,y,-z
-x,y,z
x,-y,z
loop_
_atom_site_type_symbol
_atom_site_label
_atom_site_fract_x
_atom_site_fract_y
_atom_site_fract_z
Si Si1 0.791202 0.840350 0.062780
Si Si2 0.706500 0.339428 0.620862
Si Si3 0.205924 0.339840 0.500000
Si Si4 0.287551 0.161340 0.273721
Si Si5 0.293527 0.341757 0.831280
O O1 0.736418 0.733438 0.110069
O O2 0.000000 0.842319 0.062047
O O3 0.732723 0.000000 0.075355
O O4 0.733013 0.804768 0.000000
O O5 0.500000 0.349121 0.627414
O O6 0.775887 0.500000 0.623385
O O7 0.739841 0.278699 0.559297
O O8 0.770610 0.243361 0.671020
O O9 0.277790 0.500000 0.500000
O O10 0.000000 0.346188 0.500000
O O11 0.500000 0.160532 0.273696
O O12 0.228177 0.245435 0.219164
O O13 0.231768 0.000000 0.272853
O O14 0.500000 0.351227 0.823414
O O15 0.223238 0.500000 0.829964
#
# Coordination Sequence:
#
# PCOD9385358 Si02
#       5
#     8   8   4   8   8
#     4   9  19  36  55  74  99 133 171 208 247 294
#     4   9  16  28  48  71  93 120 157 197 235 280
#     4   9  17  29  46  69  96 124 154 191 236 284
#     4   9  17  30  49  72  97 126 161 201 244 289
#     4  10  20  33  51  77 106 133 164 205 251 297
#
# _framework density 20.328707000000001
#
# number of rings (size 3 to 8) (size 9 to 14) (size 15 to 20)
#    0.000    2.778    0.000    2.333    0.000    6.667 
#    0.000    5.000    0.000    8.000    0.000    0.000 
#    0.000    0.000    0.000    0.000    0.000    0.000 
#
# Total GULP energy -200842.617372 kJ/mol
# GULP energy per Si atom -5578.961594 kJ/mol
# Density = 2.028244 g / cm^3
# Si number density = 20.328707 Si / 1000 Ang^3
#
#
#
# Elastic Constant Matrix: (Units=GPa)
#
#
# Indices 1 2 3 4 5 6 
#
# 1 29.1068 7.6937 0.2411 0.0000 0.0000 0.0000
# 2 7.6937 158.5424 128.1234 0.0000 0.0000 0.0000
# 3 0.2411 128.1234 197.4684 0.0000 0.0000 0.0000
# 4 0.0000 0.0000 0.0000 33.4568 0.0000 0.0000
# 5 0.0000 0.0000 0.0000 0.0000 72.4920 0.0000
# 6 0.0000 0.0000 0.0000 0.0000 0.0000 9.2593
#
#
#
# Elastic Compliance Matrix: (Units=1/GPa)
#
#
# Indices 1 2 3 4 5 6 
#
# 1 0.035269 -0.003525 0.002244 0.000000 0.000000 0.000000
# 2 -0.003525 0.013613 -0.008828 0.000000 0.000000 0.000000
# 3 0.002244 -0.008828 0.010789 0.000000 0.000000 0.000000
# 4 0.000000 0.000000 0.000000 0.029889 0.000000 0.000000
# 5 0.000000 0.000000 0.000000 0.000000 0.013795 0.000000
# 6 0.000000 0.000000 0.000000 0.000000 0.000000 0.108000
#
#
# Mechanical properties :
#
#
# Convention : Reuss Voigt Hill
#
# Bulk Modulus (GPa) = 25.34633 73.02598 49.18615
# Shear Modulus (GPa) = 20.43113 39.64558 30.03835
#
# Velocity S-wave (km/s) = 3.17367 4.42093 3.84817
# Velocity P-wave (km/s) = 5.09165 7.87782 6.63268
#
# Compressibility (1/GPa) = 0.03945345
#
# Stress axis : x y z
#
# Youngs Moduli (GPa) = 28.35314 73.46042 92.68467
#
# Poissons Ratio (x) = 0.25895 -0.20799
# Poissons Ratio (y) = 0.09995 0.81823
# Poissons Ratio (z) = -0.06363 0.64851
#
# Static dielectric constant tensor:
#      x y z
#    x 1.746920 0.000000 0.000000 
#    y 0.000000 1.705800 0.000000 
#    z 0.000000 0.000000 1.712060 
# 
# From -- ./inp_files/1444.got.cif
#   From: 2010.05.17/outbox.cif.g08.bks.cpg/sg47_1_cif.got.tgz:1444.got - 2010.06.03 20:15:42.
