data_PCOD9385481
_publ_section_title
;
Structure prediction by ZEFSAII (Michael W. Deem and Ramdas Pophale) SiO2 
 PCOD9385481
Probable space group: P M M M
;
_chemical_formula_sum "Si O2"
_cell_formula_units_Z 44
_cell_length_a 9.595125
_cell_length_b 8.029098
_cell_length_c 29.022923
_cell_angle_alpha 90.000000
_cell_angle_beta 90.000000
_cell_angle_gamma 90.000000
_cell_volume 2235.931762
_symmetry_space_group_name_H-M "P M M M"
_symmetry_group_IT_number 47
_symmetry_cell_setting 'orthorhombic'
loop_
_space_group_symop_operation_xyz
x,y,z
-x,-y,z
x,-y,-z
-x,y,-z
-x,-y,-z
x,y,-z
-x,y,z
x,-y,z
loop_
_atom_site_type_symbol
_atom_site_label
_atom_site_fract_x
_atom_site_fract_y
_atom_site_fract_z
Si Si1 0.842448 0.300319 0.362650
Si Si2 0.659940 0.204052 0.000000
Si Si3 0.840207 0.301544 0.809819
Si Si4 0.339695 0.296606 0.447881
Si Si5 0.341752 0.197403 0.723881
Si Si6 0.159923 0.798737 0.087087
O O1 0.851495 0.500000 0.367463
O O2 0.763093 0.236414 0.408122
O O3 0.750580 0.266659 0.317731
O O4 0.000000 0.235086 0.358063
O O5 0.741312 0.258501 0.045842
O O6 0.500000 0.257544 0.000000
O O7 0.661401 0.000000 0.000000
O O8 0.843329 0.500000 0.804820
O O9 0.736148 0.232463 0.771782
O O10 0.797750 0.258147 0.861966
O O11 0.000000 0.238892 0.803247
O O12 0.302741 0.245137 0.500000
O O13 0.500000 0.246970 0.438643
O O14 0.337917 0.500000 0.447459
O O15 0.500000 0.264670 0.723563
O O16 0.348982 0.000000 0.717657
O O17 0.000000 0.743490 0.079362
O O18 0.160236 0.000000 0.086826
#
# Coordination Sequence:
#
# PCOD9385481 Si02
#       6
#     8   4   8   8   8   8
#     4  10  20  33  52  79 108 138 173 214 260 308
#     4   9  17  29  48  75 104 134 172 217 256 293
#     4  10  21  37  57  81 107 135 170 213 262 314
#     4   8  14  26  46  73 105 140 175 210 251 301
#     4  11  24  39  55  76 102 135 175 216 260 312
#     4   9  17  31  52  76 103 137 174 210 252 303
#
# _framework density 19.678597
#
# number of rings (size 3 to 8) (size 9 to 14) (size 15 to 20)
#    0.000    2.455    0.000    3.000    0.000    8.000 
#    0.000    4.091    0.000    3.273    0.000    3.818 
#    0.000    0.000    0.000    0.000    0.000    0.000 
#
# Total GULP energy -245624.864488 kJ/mol
# GULP energy per Si atom -5582.383284 kJ/mol
# Density = 1.963381 g / cm^3
# Si number density = 19.678597 Si / 1000 Ang^3
#
#
#
# Elastic Constant Matrix: (Units=GPa)
#
#
# Indices 1 2 3 4 5 6 
#
# 1 162.3321 8.6110 127.0714 0.0000 0.0000 0.0000
# 2 8.6110 13.8479 0.8294 0.0000 0.0000 0.0000
# 3 127.0714 0.8294 159.1089 0.0000 0.0000 0.0000
# 4 0.0000 0.0000 0.0000 28.3885 0.0000 0.0000
# 5 0.0000 0.0000 0.0000 0.0000 51.2494 0.0000
# 6 0.0000 0.0000 0.0000 0.0000 0.0000 13.4382
#
#
#
# Elastic Compliance Matrix: (Units=1/GPa)
#
#
# Indices 1 2 3 4 5 6 
#
# 1 0.017767 -0.010201 -0.014136 0.000000 0.000000 0.000000
# 2 -0.010201 0.078093 0.007740 0.000000 0.000000 0.000000
# 3 -0.014136 0.007740 0.017535 0.000000 0.000000 0.000000
# 4 0.000000 0.000000 0.000000 0.035226 0.000000 0.000000
# 5 0.000000 0.000000 0.000000 0.000000 0.019512 0.000000
# 6 0.000000 0.000000 0.000000 0.000000 0.000000 0.074415
#
#
# Mechanical properties :
#
#
# Convention : Reuss Voigt Hill
#
# Bulk Modulus (GPa) = 12.46894 67.59028 40.02961
# Shear Modulus (GPa) = 16.53024 31.86702 24.19863
#
# Velocity S-wave (km/s) = 2.90144 4.02851 3.51050
# Velocity P-wave (km/s) = 4.19220 7.48734 6.06773
#
# Compressibility (1/GPa) = 0.08019927
#
# Stress axis : x y z
#
# Youngs Moduli (GPa) = 56.28351 12.80528 57.02986
#
# Poissons Ratio (x) = 0.13063 0.80620
# Poissons Ratio (y) = 0.57417 -0.44142
# Poissons Ratio (z) = 0.79565 -0.09912
#
# Static dielectric constant tensor:
#      x y z
#    x 1.690820 0.000000 0.000000 
#    y 0.000000 1.714760 0.000000 
#    z 0.000000 0.000000 1.657440 
# 
# From -- ./inp_files/13688.got.cif
#   From: 2010.05.17/outbox.cif.g08.bks.cpg/sg47_7_cif.got.tgz:13688.got - 2010.06.03 20:15:42.
