data_PCOD9385040
_publ_section_title
;
Structure prediction by ZEFSAII (Michael W. Deem and Ramdas Pophale) SiO2 
 PCOD9385040
Probable space group: P M M M
;
_chemical_formula_sum "Si O2"
_cell_formula_units_Z 44
_cell_length_a 7.613212
_cell_length_b 29.422082
_cell_length_c 9.447807
_cell_angle_alpha 90.000000
_cell_angle_beta 90.000000
_cell_angle_gamma 90.000000
_cell_volume 2116.276152
_symmetry_space_group_name_H-M "P M M M"
_symmetry_group_IT_number 47
_symmetry_cell_setting 'orthorhombic'
loop_
_space_group_symop_operation_xyz
x,y,z
-x,-y,z
x,-y,-z
-x,y,-z
-x,-y,-z
x,y,-z
-x,y,z
x,-y,z
loop_
_atom_site_type_symbol
_atom_site_label
_atom_site_fract_x
_atom_site_fract_y
_atom_site_fract_z
Si Si1 0.785182 0.138324 0.837526
Si Si2 0.293079 0.400783 0.661737
Si Si3 0.207344 0.686809 0.159202
Si Si4 0.791104 0.500000 0.338840
Si Si5 0.785762 0.948972 0.663452
Si Si6 0.784770 0.772863 0.662776
O O1 0.726800 0.091584 0.764061
O O2 0.730977 0.181836 0.745869
O O3 0.000000 0.138069 0.837427
O O4 0.728723 0.141848 0.000000
O O5 0.219447 0.398992 0.500000
O O6 0.500000 0.394208 0.651351
O O7 0.224622 0.360735 0.759633
O O8 0.262174 0.451396 0.722515
O O9 0.277607 0.728104 0.254192
O O10 0.000000 0.695811 0.146234
O O11 0.280997 0.685234 0.000000
O O12 0.717441 0.500000 0.500000
O O13 0.000000 0.500000 0.345545
O O14 0.734184 0.940986 0.500000
O O15 0.000000 0.948819 0.665481
O O16 0.730055 0.000000 0.704350
O O17 0.727507 0.772903 0.500000
O O18 0.000000 0.772498 0.660894
#
# Coordination Sequence:
#
# PCOD9385040 Si02
#       6
#     8   8   8   4   8   8
#     4   9  15  21  30  46  69  96 129 174 227 279
#     4  10  20  34  53  77 104 133 165 200 239 285
#     4  10  20  33  49  70  96 125 159 200 244 289
#     4   9  17  31  54  81 106 133 166 204 242 279
#     4   8  13  20  28  38  56  87 129 175 221 271
#     4   9  16  26  41  59  79 106 142 185 232 281
#
# _framework density 20.791238
#
# number of rings (size 3 to 8) (size 9 to 14) (size 15 to 20)
#    0.000    2.818    0.000    3.000    0.000    8.000 
#    0.000    2.273    0.000    2.727    0.000    0.000 
#    0.000    0.000    0.000    0.000    0.000    0.909 
#
# Total GULP energy -245545.666876 kJ/mol
# GULP energy per Si atom -5580.583338 kJ/mol
# Density = 2.074392 g / cm^3
# Si number density = 20.791238 Si / 1000 Ang^3
#
#
#
# Elastic Constant Matrix: (Units=GPa)
#
#
# Indices 1 2 3 4 5 6 
#
# 1 42.0732 -5.0884 4.9334 0.0000 0.0000 0.0000
# 2 -5.0884 214.9237 134.4485 0.0000 0.0000 0.0000
# 3 4.9334 134.4485 174.6489 0.0000 0.0000 0.0000
# 4 0.0000 0.0000 0.0000 -3.0083 0.0000 0.0000
# 5 0.0000 0.0000 0.0000 0.0000 -1.7255 0.0000
# 6 0.0000 0.0000 0.0000 0.0000 0.0000 -41.1223
#
#
#
# Elastic Compliance Matrix: (Units=1/GPa)
#
#
# Indices 1 2 3 4 5 6 
#
# 1 0.024257 0.001935 -0.002174 0.000000 0.000000 0.000000
# 2 0.001935 0.009129 -0.007082 0.000000 0.000000 0.000000
# 3 -0.002174 -0.007082 0.011239 0.000000 0.000000 0.000000
# 4 0.000000 0.000000 0.000000 -0.332411 0.000000 0.000000
# 5 0.000000 0.000000 0.000000 0.000000 -0.579542 0.000000
# 6 0.000000 0.000000 0.000000 0.000000 0.000000 -0.024318
#
#
# Mechanical properties :
#
#
# Convention : Reuss Voigt Hill
#
# Bulk Modulus (GPa) = 33.35456 77.80363 55.57910
# Shear Modulus (GPa) = -5.76697 10.65226 2.44265
#
# Velocity S-wave (km/s) = -1.66726 2.26596 1.08508
# Velocity P-wave (km/s) = 3.51725 6.65948 5.32540
#
# Compressibility (1/GPa) = 0.02998091
#
# Stress axis : x y z
#
# Youngs Moduli (GPa) = 41.22510 109.53925 88.97249
#
# Poissons Ratio (x) = -0.21191 0.19347
# Poissons Ratio (y) = -0.07975 0.63014
# Poissons Ratio (z) = 0.08964 0.77581
#
# Static dielectric constant tensor:
#      x y z
#    x 1.782680 0.000000 0.000000 
#    y 0.000000 1.725560 0.000000 
#    z 0.000000 0.000000 1.721520 
# 
# From -- ./inp_files/2209.got.cif
#   From: 2010.05.17/outbox.cif.g08.bks.cpg/sg47_2_cif.got.tgz:2209.got - 2010.06.03 20:15:42.
