data_PCOD9385871
_publ_section_title
;
Structure prediction by ZEFSAII (Michael W. Deem and Ramdas Pophale) SiO2 
 PCOD9385871
Probable space group: P M M M
;
_chemical_formula_sum "Si O2"
_cell_formula_units_Z 49
_cell_length_a 9.531316
_cell_length_b 7.873249
_cell_length_c 31.605297
_cell_angle_alpha 90.000000
_cell_angle_beta 90.000000
_cell_angle_gamma 90.000000
_cell_volume 2371.738103
_symmetry_space_group_name_H-M "P M M M"
_symmetry_group_IT_number 47
_symmetry_cell_setting 'orthorhombic'
loop_
_space_group_symop_operation_xyz
x,y,z
-x,-y,z
x,-y,-z
-x,y,-z
-x,-y,-z
x,y,-z
-x,y,z
x,-y,z
loop_
_atom_site_type_symbol
_atom_site_label
_atom_site_fract_x
_atom_site_fract_y
_atom_site_fract_z
Si Si1 0.659849 0.795053 0.333946
Si Si2 0.838300 0.791808 0.747031
Si Si3 0.160606 0.202539 0.000000
Si Si4 0.161158 0.701421 0.908155
Si Si5 0.725640 0.189618 0.500000
Si Si6 0.154890 0.702030 0.412914
Si Si7 0.659168 0.202636 0.827372
Si Si8 0.500000 0.500000 0.500000
O O1 0.500000 0.733321 0.330175
O O2 0.756962 0.736562 0.295172
O O3 0.728725 0.745028 0.378252
O O4 0.656248 0.000000 0.332080
O O5 0.752304 0.733053 0.788189
O O6 0.000000 0.736543 0.747845
O O7 0.839400 0.000000 0.747254
O O8 0.220179 0.258921 0.045039
O O9 0.000000 0.270718 0.000000
O O10 0.156890 0.000000 0.000000
O O11 0.153056 0.500000 0.903785
O O12 0.258843 0.767807 0.870936
O O13 0.000000 0.770246 0.905296
O O14 0.814939 0.209157 0.457274
O O15 0.619983 0.348264 0.500000
O O16 0.662539 0.000000 0.500000
O O17 0.157200 0.500000 0.419954
O O18 0.000000 0.750374 0.396737
O O19 0.500000 0.270847 0.827915
O O20 0.648883 0.000000 0.821463
#
# Coordination Sequence:
#
# PCOD9385871 Si02
#       8
#     8   8   4   8   4   8   8   1
#     4  10  21  36  58  89 122 157 200 248 304 370
#     4   9  17  32  56  84 114 149 192 245 298 354
#     4   9  17  31  54  81 108 139 180 228 276 331
#     4  10  20  34  53  79 110 145 183 228 280 338
#     4  12  26  44  72  99 130 177 219 262 323 381
#     4  11  24  43  64  90 127 168 212 267 320 370
#     4  10  20  34  54  80 111 147 189 238 293 349
#     4  12  26  48  66 102 144 168 208 280 316 386
#
# _framework density 20.659955
#
# number of rings (size 3 to 8) (size 9 to 14) (size 15 to 20)
#    0.000    1.878    0.816    3.061    1.143    8.163 
#    0.000    1.224    0.000    7.347    0.000    0.000 
#    0.000    0.000    0.000    0.000    0.000    0.000 
#
# Total GULP energy -273421.128604 kJ/mol
# GULP energy per Si atom -5580.023033 kJ/mol
# Density = 2.061293 g / cm^3
# Si number density = 20.659955 Si / 1000 Ang^3
#
#
#
# Elastic Constant Matrix: (Units=GPa)
#
#
# Indices 1 2 3 4 5 6 
#
# 1 167.7895 20.8772 91.4007 0.0000 0.0000 0.0000
# 2 20.8772 56.4138 2.0424 0.0000 0.0000 0.0000
# 3 91.4007 2.0424 178.1258 0.0000 0.0000 0.0000
# 4 0.0000 0.0000 0.0000 130.3242 0.0000 0.0000
# 5 0.0000 0.0000 0.0000 0.0000 -17.0831 0.0000
# 6 0.0000 0.0000 0.0000 0.0000 0.0000 15.0683
#
#
#
# Elastic Compliance Matrix: (Units=1/GPa)
#
#
# Indices 1 2 3 4 5 6 
#
# 1 0.008778 -0.003087 -0.004469 0.000000 0.000000 0.000000
# 2 -0.003087 0.018819 0.001368 0.000000 0.000000 0.000000
# 3 -0.004469 0.001368 0.007891 0.000000 0.000000 0.000000
# 4 0.000000 0.000000 0.000000 0.007673 0.000000 0.000000
# 5 0.000000 0.000000 0.000000 0.000000 -0.058538 0.000000
# 6 0.000000 0.000000 0.000000 0.000000 0.000000 0.066364
#
#
# Mechanical properties :
#
#
# Convention : Reuss Voigt Hill
#
# Bulk Modulus (GPa) = 43.26484 70.10775 56.68629
# Shear Modulus (GPa) = 70.35459 44.86248 57.60853
#
# Velocity S-wave (km/s) = 5.84188 4.66496 5.28627
# Velocity P-wave (km/s) = 8.15415 7.93874 8.04717
#
# Compressibility (1/GPa) = 0.02311346
#
# Stress axis : x y z
#
# Youngs Moduli (GPa) = 113.91674 53.13783 126.71905
#
# Poissons Ratio (x) = 0.16403 0.56631
# Poissons Ratio (y) = 0.35164 -0.17337
# Poissons Ratio (z) = 0.50909 -0.07270
#
# Static dielectric constant tensor:
#      x y z
#    x 1.736530 0.000000 0.000000 
#    y 0.000000 1.741650 0.000000 
#    z 0.000000 0.000000 1.711260 
# 
# From -- ./inp_files/34222.got.cif
#   From: 2010.05.17/outbox.cif.g08.bks.cpg/sg47_18_cif.got.tgz:34222.got - 2010.06.03 20:15:42.
