data_PCOD9385546
_publ_section_title
;
Structure prediction by ZEFSAII (Michael W. Deem and Ramdas Pophale) SiO2 
 PCOD9385546
Probable space group: P M M M
;
_chemical_formula_sum "Si O2"
_cell_formula_units_Z 52
_cell_length_a 15.580343
_cell_length_b 20.952243
_cell_length_c 8.928716
_cell_angle_alpha 90.000000
_cell_angle_beta 90.000000
_cell_angle_gamma 90.000000
_cell_volume 2914.718021
_symmetry_space_group_name_H-M "P M M M"
_symmetry_group_IT_number 47
_symmetry_cell_setting 'orthorhombic'
loop_
_space_group_symop_operation_xyz
x,y,z
-x,-y,z
x,-y,-z
-x,y,-z
-x,-y,-z
x,y,-z
-x,y,z
x,-y,z
loop_
_atom_site_type_symbol
_atom_site_label
_atom_site_fract_x
_atom_site_fract_y
_atom_site_fract_z
Si Si1 0.877729 0.000000 0.673698
Si Si2 0.779509 0.249979 0.180653
Si Si3 0.596195 0.247708 0.325221
Si Si4 0.598310 0.905184 0.666932
Si Si5 0.706224 0.000000 0.167580
Si Si6 0.099511 0.367564 0.819697
Si Si7 0.904723 0.862752 0.820469
Si Si8 0.104219 0.500000 0.672724
O O1 0.777233 0.000000 0.705901
O O2 0.904980 0.933107 0.748787
O O3 0.899885 0.000000 0.500000
O O4 0.684086 0.264125 0.240641
O O5 0.842095 0.307971 0.224728
O O6 0.827296 0.183963 0.230846
O O7 0.776071 0.246876 0.000000
O O8 0.602224 0.266869 0.500000
O O9 0.500000 0.267531 0.270607
O O10 0.597490 0.170691 0.321051
O O11 0.631536 0.921568 0.500000
O O12 0.500000 0.926649 0.673635
O O13 0.649693 0.938121 0.799011
O O14 0.741819 0.000000 0.000000
O O15 0.131009 0.434593 0.752476
O O16 0.000000 0.357647 0.774484
O O17 0.100959 0.372024 0.000000
O O18 0.000000 0.833786 0.792580
O O19 0.896114 0.870018 0.000000
O O20 0.130299 0.500000 0.500000
O O21 0.000000 0.500000 0.679479
#
# Coordination Sequence:
#
# PCOD9385546 Si02
#       8
#     4   8   8   8   4   8   8   4
#     4  12  25  38  51  67  91 127 172 215 254 303
#     4  10  20  33  53  81 106 132 170 212 254 302
#     4   9  19  35  52  70  95 129 166 204 251 304
#     4   9  18  33  50  66  88 119 153 194 250 312
#     4  12  23  32  45  67  91 115 151 199 252 309
#     4   9  17  31  51  76 109 146 177 205 244 297
#     4  10  21  38  57  76 101 131 164 209 263 312
#     4   9  17  29  47  75 110 145 180 213 243 282
#
# _framework density 17.840492000000001
#
# number of rings (size 3 to 8) (size 9 to 14) (size 15 to 20)
#    0.000    2.231    0.000    4.385    0.000    9.846 
#    0.000    1.538    0.000    2.769    0.000    0.538 
#    0.000    4.308    0.000    0.000    0.000    0.000 
#
# Total GULP energy -289804.737115 kJ/mol
# GULP energy per Si atom -5573.168021 kJ/mol
# Density = 1.779989 g / cm^3
# Si number density = 17.840492 Si / 1000 Ang^3
#
#
#
# Elastic Constant Matrix: (Units=GPa)
#
#
# Indices 1 2 3 4 5 6 
#
# 1 114.2635 45.6365 31.7151 0.0000 0.0000 0.0000
# 2 45.6365 91.2314 25.9317 0.0000 0.0000 0.0000
# 3 31.7151 25.9317 33.3260 0.0000 0.0000 0.0000
# 4 0.0000 0.0000 0.0000 8.5830 0.0000 0.0000
# 5 0.0000 0.0000 0.0000 0.0000 21.0302 0.0000
# 6 0.0000 0.0000 0.0000 0.0000 0.0000 8.1104
#
#
#
# Elastic Compliance Matrix: (Units=1/GPa)
#
#
# Indices 1 2 3 4 5 6 
#
# 1 0.012837 -0.003786 -0.009270 0.000000 0.000000 0.000000
# 2 -0.003786 0.015191 -0.008217 0.000000 0.000000 0.000000
# 3 -0.009270 -0.008217 0.045222 0.000000 0.000000 0.000000
# 4 0.000000 0.000000 0.000000 0.116510 0.000000 0.000000
# 5 0.000000 0.000000 0.000000 0.000000 0.047551 0.000000
# 6 0.000000 0.000000 0.000000 0.000000 0.000000 0.123299
#
#
# Mechanical properties :
#
#
# Convention : Reuss Voigt Hill
#
# Bulk Modulus (GPa) = 32.56990 49.48749 41.02869
# Shear Modulus (GPa) = 12.09509 16.58056 14.33782
#
# Velocity S-wave (km/s) = 2.60659 3.05188 2.83798
# Velocity P-wave (km/s) = 5.23019 6.34174 5.81260
#
# Compressibility (1/GPa) = 0.03070320
#
# Stress axis : x y z
#
# Youngs Moduli (GPa) = 77.89949 65.82928 22.11297
#
# Poissons Ratio (x) = 0.24926 0.20499
# Poissons Ratio (y) = 0.29497 0.18170
# Poissons Ratio (z) = 0.72214 0.54091
#
# Static dielectric constant tensor:
#      x y z
#    x 1.660560 0.000000 0.000000 
#    y 0.000000 1.600210 0.000000 
#    z 0.000000 0.000000 1.616040 
# 
# From -- ./inp_files/7156.got.cif
#   From: 2010.05.17/outbox.cif.g08.bks.cpg/sg47_4_cif.got.tgz:7156.got - 2010.06.03 20:15:42.
