data_PCOD9385086
_publ_section_title
;
Structure prediction by ZEFSAII (Michael W. Deem and Ramdas Pophale) SiO2 
 PCOD9385086
Probable space group: P M M M
;
_chemical_formula_sum "Si O2"
_cell_formula_units_Z 64
_cell_length_a 28.706453
_cell_length_b 14.765354
_cell_length_c 8.914335
_cell_angle_alpha 90.000000
_cell_angle_beta 90.000000
_cell_angle_gamma 90.000000
_cell_volume 3778.438418
_symmetry_space_group_name_H-M "P M M M"
_symmetry_group_IT_number 47
_symmetry_cell_setting 'orthorhombic'
loop_
_space_group_symop_operation_xyz
x,y,z
-x,-y,z
x,-y,-z
-x,y,-z
-x,-y,-z
x,y,-z
-x,y,z
x,-y,z
loop_
_atom_site_type_symbol
_atom_site_label
_atom_site_fract_x
_atom_site_fract_y
_atom_site_fract_z
Si Si1 0.787510 0.392236 0.177621
Si Si2 0.553994 0.104817 0.319578
Si Si3 0.723136 0.891624 0.324092
Si Si4 0.680531 0.601641 0.817638
Si Si5 0.362769 0.214620 0.180062
Si Si6 0.132269 0.272792 0.322240
Si Si7 0.176745 0.105526 0.179179
Si Si8 0.055117 0.396157 0.820812
O O1 0.795977 0.500000 0.193659
O O2 0.733952 0.375582 0.224367
O O3 0.824211 0.334221 0.268858
O O4 0.792018 0.370584 0.000000
O O5 0.558367 0.111134 0.500000
O O6 0.500000 0.122948 0.281031
O O7 0.590252 0.171304 0.242955
O O8 0.564279 0.000000 0.278588
O O9 0.724545 0.867779 0.500000
O O10 0.680956 0.841650 0.243061
O O11 0.772608 0.870992 0.247503
O O12 0.716086 0.000000 0.312643
O O13 0.669434 0.500000 0.764864
O O14 0.646142 0.681462 0.771883
O O15 0.680724 0.598977 0.000000
O O16 0.362684 0.210428 0.000000
O O17 0.131891 0.264321 0.500000
O O18 0.139920 0.175050 0.247267
O O19 0.086598 0.324403 0.264084
O O20 0.167344 0.000000 0.215526
O O21 0.178651 0.114749 0.000000
O O22 0.067440 0.500000 0.778630
O O23 0.000000 0.384327 0.793897
O O24 0.062985 0.388080 0.000000
#
# Coordination Sequence:
#
# PCOD9385086 Si02
#       8
#     8   8   8   8   8   8   8   8
#     4   9  17  31  51  72  98 136 178 213 243 284
#     4   9  19  36  54  70  93 127 161 195 245 305
#     4  10  20  33  49  72 105 139 166 197 244 301
#     4   8  16  31  48  67  94 129 166 202 240 281
#     4  11  20  29  49  77 100 127 165 206 245 289
#     4  12  23  32  49  77 108 139 167 203 256 313
#     4  10  21  37  55  73  97 133 177 220 254 288
#     4   9  19  37  59  80 103 134 172 212 253 299
#
# _framework density 16.938213999999999
#
# number of rings (size 3 to 8) (size 9 to 14) (size 15 to 20)
#    0.000    2.250    0.000    5.250    0.000    6.750 
#    0.000    1.875    0.000    3.750    0.000    5.250 
#    0.000    0.000    0.000    0.000    0.000    0.000 
#
# Total GULP energy -357305.480300 kJ/mol
# GULP energy per Si atom -5582.898130 kJ/mol
# Density = 1.689966 g / cm^3
# Si number density = 16.938214 Si / 1000 Ang^3
#
#
#
# Elastic Constant Matrix: (Units=GPa)
#
#
# Indices 1 2 3 4 5 6 
#
# 1 79.0104 72.5290 46.1563 0.0000 0.0000 0.0000
# 2 72.5290 94.2685 50.6957 0.0000 0.0000 0.0000
# 3 46.1563 50.6957 61.3345 0.0000 0.0000 0.0000
# 4 0.0000 0.0000 0.0000 13.0002 0.0000 0.0000
# 5 0.0000 0.0000 0.0000 0.0000 45.5689 0.0000
# 6 0.0000 0.0000 0.0000 0.0000 0.0000 32.5559
#
#
#
# Elastic Compliance Matrix: (Units=1/GPa)
#
#
# Indices 1 2 3 4 5 6 
#
# 1 0.046069 -0.030245 -0.009670 0.000000 0.000000 0.000000
# 2 -0.030245 0.038952 -0.009435 0.000000 0.000000 0.000000
# 3 -0.009670 -0.009435 0.031380 0.000000 0.000000 0.000000
# 4 0.000000 0.000000 0.000000 0.076922 0.000000 0.000000
# 5 0.000000 0.000000 0.000000 0.000000 0.021945 0.000000
# 6 0.000000 0.000000 0.000000 0.000000 0.000000 0.030716
#
#
# Mechanical properties :
#
#
# Convention : Reuss Voigt Hill
#
# Bulk Modulus (GPa) = 56.49471 63.70838 60.10155
# Shear Modulus (GPa) = 14.26186 22.57382 18.41784
#
# Velocity S-wave (km/s) = 2.90486 3.65460 3.30108
# Velocity P-wave (km/s) = 6.68407 7.44997 7.07738
#
# Compressibility (1/GPa) = 0.01770077
#
# Stress axis : x y z
#
# Youngs Moduli (GPa) = 21.70641 25.67251 31.86753
#
# Poissons Ratio (x) = 0.77646 0.30816
# Poissons Ratio (y) = 0.65651 0.30069
# Poissons Ratio (z) = 0.20990 0.24223
#
# Static dielectric constant tensor:
#      x y z
#    x 1.549460 0.000000 0.000000 
#    y 0.000000 1.586410 0.000000 
#    z 0.000000 0.000000 1.562920 
# 
# From -- ./inp_files/12750.got.cif
#   From: 2010.05.17/outbox.cif.g08.bks.cpg/sg47_7_cif.got.tgz:12750.got - 2010.06.03 20:15:42.
