data_PCOD9385228
_publ_section_title
;
Structure prediction by ZEFSAII (Michael W. Deem and Ramdas Pophale) SiO2 
 PCOD9385228
Probable space group: P M M M
;
_chemical_formula_sum "Si O2"
_cell_formula_units_Z 48
_cell_length_a 9.433406
_cell_length_b 8.604074
_cell_length_c 31.994704
_cell_angle_alpha 90.000000
_cell_angle_beta 90.000000
_cell_angle_gamma 90.000000
_cell_volume 2596.873292
_symmetry_space_group_name_H-M "P M M M"
_symmetry_group_IT_number 47
_symmetry_cell_setting 'orthorhombic'
loop_
_space_group_symop_operation_xyz
x,y,z
-x,-y,z
x,-y,-z
-x,y,-z
-x,-y,-z
x,y,-z
-x,y,z
x,-y,z
loop_
_atom_site_type_symbol
_atom_site_label
_atom_site_fract_x
_atom_site_fract_y
_atom_site_fract_z
Si Si1 0.165452 0.686062 0.578762
Si Si2 0.165352 0.186176 0.669573
Si Si3 0.663960 0.313694 0.748127
Si Si4 0.335801 0.186249 0.500000
Si Si5 0.836105 0.811793 0.172808
Si Si6 0.672563 0.820306 0.000000
Si Si7 0.664405 0.190136 0.091163
O O1 0.174781 0.500000 0.579734
O O2 0.208115 0.752846 0.623867
O O3 0.258064 0.750790 0.541108
O O4 0.000000 0.729018 0.572040
O O5 0.261235 0.254003 0.706150
O O6 0.000000 0.231688 0.676203
O O7 0.172718 0.000000 0.670204
O O8 0.500000 0.262702 0.749861
O O9 0.667652 0.500000 0.748583
O O10 0.749086 0.250339 0.787899
O O11 0.500000 0.234265 0.500000
O O12 0.328790 0.000000 0.500000
O O13 0.761753 0.761511 0.129616
O O14 0.000000 0.763074 0.174692
O O15 0.832512 0.000000 0.173957
O O16 0.712567 0.752852 0.045168
O O17 0.500000 0.822947 0.000000
O O18 0.721130 0.000000 0.000000
O O19 0.500000 0.235102 0.098005
O O20 0.665948 0.000000 0.089537
#
# Coordination Sequence:
#
# PCOD9385228 Si02
#       7
#     8   8   8   4   8   4   8
#     4  10  21  38  61  87 114 147 186 225 268 319
#     4  10  21  38  61  87 112 140 175 215 262 317
#     4  11  24  39  55  77 104 136 175 217 262 313
#     4  11  24  39  56  82 116 153 192 233 276 318
#     4  10  20  33  50  74 103 135 172 213 259 312
#     4   7  10  18  35  61  92 127 166 205 248 300
#     4   8  13  23  41  65  95 131 169 209 253 302
#
# _framework density 18.483768000000001
#
# number of rings (size 3 to 8) (size 9 to 14) (size 15 to 20)
#    0.000    2.333    0.000    4.000    0.000    8.667 
#    0.000    0.417    0.000    2.500    0.000    0.583 
#    0.000    4.667    0.000    0.000    0.000    0.000 
#
# Total GULP energy -267908.397868 kJ/mol
# GULP energy per Si atom -5581.424956 kJ/mol
# Density = 1.844170 g / cm^3
# Si number density = 18.483768 Si / 1000 Ang^3
#
#
#
# Elastic Constant Matrix: (Units=GPa)
#
#
# Indices 1 2 3 4 5 6 
#
# 1 130.7875 33.4817 127.4892 0.0000 0.0000 0.0000
# 2 33.4817 21.1134 38.3537 0.0000 0.0000 0.0000
# 3 127.4892 38.3537 221.7958 0.0000 0.0000 0.0000
# 4 0.0000 0.0000 0.0000 -102.0905 0.0000 0.0000
# 5 0.0000 0.0000 0.0000 0.0000 36.7024 0.0000
# 6 0.0000 0.0000 0.0000 0.0000 0.0000 21.1479
#
#
#
# Elastic Compliance Matrix: (Units=1/GPa)
#
#
# Indices 1 2 3 4 5 6 
#
# 1 0.020629 -0.016291 -0.009041 0.000000 0.000000 0.000000
# 2 -0.016291 0.081920 -0.004802 0.000000 0.000000 0.000000
# 3 -0.009041 -0.004802 0.010536 0.000000 0.000000 0.000000
# 4 0.000000 0.000000 0.000000 -0.009795 0.000000 0.000000
# 5 0.000000 0.000000 0.000000 0.000000 0.027246 0.000000
# 6 0.000000 0.000000 0.000000 0.000000 0.000000 0.047286
#
#
# Mechanical properties :
#
#
# Convention : Reuss Voigt Hill
#
# Bulk Modulus (GPa) = 18.93288 85.81620 52.37454
# Shear Modulus (GPa) = 19.55459 2.77678 11.16569
#
# Velocity S-wave (km/s) = 3.25612 1.22701 2.46047
# Velocity P-wave (km/s) = 4.93980 6.96678 6.03894
#
# Compressibility (1/GPa) = 0.05281816
#
# Stress axis : x y z
#
# Youngs Moduli (GPa) = 48.47529 12.20701 94.91643
#
# Poissons Ratio (x) = 0.19886 0.85810
# Poissons Ratio (y) = 0.78970 0.45578
# Poissons Ratio (z) = 0.43825 0.05862
#
# Static dielectric constant tensor:
#      x y z
#    x 1.622950 0.000000 0.000000 
#    y 0.000000 1.627910 0.000000 
#    z 0.000000 0.000000 1.622760 
# 
# From -- ./inp_files/34063.got.cif
#   From: 2010.05.17/outbox.cif.g08.bks.cpg/sg47_18_cif.got.tgz:34063.got - 2010.06.03 20:15:42.
