data_PCOD9385048
_publ_section_title
;
Structure prediction by ZEFSAII (Michael W. Deem and Ramdas Pophale) SiO2 
 PCOD9385048
Probable space group: P M M M
;
_chemical_formula_sum "Si O2"
_cell_formula_units_Z 44
_cell_length_a 9.328079
_cell_length_b 7.588176
_cell_length_c 29.733027
_cell_angle_alpha 90.000000
_cell_angle_beta 90.000000
_cell_angle_gamma 90.000000
_cell_volume 2104.595978
_symmetry_space_group_name_H-M "P M M M"
_symmetry_group_IT_number 47
_symmetry_cell_setting 'orthorhombic'
loop_
_space_group_symop_operation_xyz
x,y,z
-x,-y,z
x,-y,-z
-x,y,-z
-x,-y,-z
x,y,-z
-x,y,z
x,-y,z
loop_
_atom_site_type_symbol
_atom_site_label
_atom_site_fract_x
_atom_site_fract_y
_atom_site_fract_z
Si Si1 0.838127 0.210561 0.264445
Si Si2 0.662450 0.290245 0.000000
Si Si3 0.335476 0.712511 0.645965
Si Si4 0.673487 0.709973 0.451629
Si Si5 0.162252 0.789716 0.910100
Si Si6 0.334990 0.783894 0.177264
O O1 0.761648 0.242511 0.311838
O O2 0.743136 0.275965 0.222778
O O3 0.000000 0.281002 0.263643
O O4 0.846929 0.000000 0.258714
O O5 0.749182 0.239309 0.955487
O O6 0.652681 0.500000 0.000000
O O7 0.500000 0.217862 0.000000
O O8 0.500000 0.774185 0.652790
O O9 0.341249 0.500000 0.642918
O O10 0.279628 0.778134 0.597216
O O11 0.723862 0.782586 0.500000
O O12 0.500000 0.727655 0.450988
O O13 0.703721 0.500000 0.452462
O O14 0.247984 0.723490 0.866588
O O15 0.000000 0.719585 0.913217
O O16 0.151277 0.000000 0.904257
O O17 0.500000 0.727752 0.175766
O O18 0.335519 0.000000 0.177140
#
# Coordination Sequence:
#
# PCOD9385048 Si02
#       6
#     8   4   8   8   8   8
#     4  10  20  33  49  70  98 132 167 201 240 289
#     4  11  24  39  54  76 108 143 176 209 246 288
#     4   9  17  29  47  72  98 123 156 200 247 294
#     4   7  10  19  38  64  91 117 148 191 242 290
#     4  10  20  35  57  83 107 132 166 207 249 294
#     4   9  17  31  53  78 101 127 162 205 249 290
#
# _framework density 20.906627
#
# number of rings (size 3 to 8) (size 9 to 14) (size 15 to 20)
#    0.000    2.818    0.000    3.818    0.000    6.545 
#    0.000    0.909    0.000    6.545    0.000    6.364 
#    0.000    0.000    0.000    0.000    0.000    0.000 
#
# Total GULP energy -245462.316447 kJ/mol
# GULP energy per Si atom -5578.689010 kJ/mol
# Density = 2.085904 g / cm^3
# Si number density = 20.906627 Si / 1000 Ang^3
#
#
#
# Elastic Constant Matrix: (Units=GPa)
#
#
# Indices 1 2 3 4 5 6 
#
# 1 174.6308 7.4829 127.9594 0.0000 0.0000 0.0000
# 2 7.4829 44.7171 0.7394 0.0000 0.0000 0.0000
# 3 127.9594 0.7394 250.9645 0.0000 0.0000 0.0000
# 4 0.0000 0.0000 0.0000 19.1734 0.0000 0.0000
# 5 0.0000 0.0000 0.0000 0.0000 -23.2128 0.0000
# 6 0.0000 0.0000 0.0000 0.0000 0.0000 18.8533
#
#
#
# Elastic Compliance Matrix: (Units=1/GPa)
#
#
# Indices 1 2 3 4 5 6 
#
# 1 0.009237 -0.001468 -0.004705 0.000000 0.000000 0.000000
# 2 -0.001468 0.022597 0.000682 0.000000 0.000000 0.000000
# 3 -0.004705 0.000682 0.006382 0.000000 0.000000 0.000000
# 4 0.000000 0.000000 0.000000 0.052156 0.000000 0.000000
# 5 0.000000 0.000000 0.000000 0.000000 -0.043080 0.000000
# 6 0.000000 0.000000 0.000000 0.000000 0.000000 0.053041
#
#
# Mechanical properties :
#
#
# Convention : Reuss Voigt Hill
#
# Bulk Modulus (GPa) = 36.71999 82.51955 59.61977
# Shear Modulus (GPa) = 41.53044 25.23816 33.38430
#
# Velocity S-wave (km/s) = 4.46182 3.47823 4.00037
# Velocity P-wave (km/s) = 6.64423 7.46237 7.06515
#
# Compressibility (1/GPa) = 0.02723313
#
# Stress axis : x y z
#
# Youngs Moduli (GPa) = 108.25878 44.25336 156.69633
#
# Poissons Ratio (x) = 0.06496 0.73732
# Poissons Ratio (y) = 0.15891 -0.10685
# Poissons Ratio (z) = 0.50940 -0.03018
#
# Static dielectric constant tensor:
#      x y z
#    x 1.720770 0.000000 0.000000 
#    y 0.000000 1.812760 0.000000 
#    z 0.000000 0.000000 1.755760 
# 
# From -- ./inp_files/1983.got.cif
#   From: 2010.05.17/outbox.cif.g08.bks.cpg/sg47_1_cif.got.tgz:1983.got - 2010.06.03 20:15:42.
