data_PCOD9385849
_publ_section_title
;
Structure prediction by ZEFSAII (Michael W. Deem and Ramdas Pophale) SiO2 
 PCOD9385849
Probable space group: P M M M
;
_chemical_formula_sum "Si O2"
_cell_formula_units_Z 44
_cell_length_a 14.310174
_cell_length_b 13.177095
_cell_length_c 14.409421
_cell_angle_alpha 90.000000
_cell_angle_beta 90.000000
_cell_angle_gamma 90.000000
_cell_volume 2717.134406
_symmetry_space_group_name_H-M "P M M M"
_symmetry_group_IT_number 47
_symmetry_cell_setting 'orthorhombic'
loop_
_space_group_symop_operation_xyz
x,y,z
-x,-y,z
x,-y,-z
-x,y,-z
-x,-y,-z
x,y,-z
-x,y,z
x,-y,z
loop_
_atom_site_type_symbol
_atom_site_label
_atom_site_fract_x
_atom_site_fract_y
_atom_site_fract_z
Si Si1 0.220410 0.201095 0.389066
Si Si2 0.892591 0.282835 0.105759
Si Si3 0.109931 0.615781 0.702969
Si Si4 0.892683 0.000000 0.613122
Si Si5 0.266780 0.883012 0.106737
Si Si6 0.608556 0.120744 0.283278
O O1 0.218935 0.204564 0.500000
O O2 0.172219 0.300966 0.348238
O O3 0.161191 0.101716 0.357632
O O4 0.324463 0.182571 0.351649
O O5 0.880056 0.364740 0.186653
O O6 0.819177 0.192813 0.122190
O O7 0.000000 0.246045 0.112655
O O8 0.879375 0.320473 0.000000
O O9 0.134143 0.500000 0.679789
O O10 0.000000 0.631788 0.680179
O O11 0.893040 0.000000 0.500000
O O12 0.000000 0.000000 0.644430
O O13 0.348212 0.864235 0.180760
O O14 0.236300 0.000000 0.118203
O O15 0.298285 0.870582 0.000000
O O16 0.500000 0.148469 0.287883
O O17 0.616176 0.000000 0.304742
#
# Coordination Sequence:
#
# PCOD9385849 Si02
#       6
#     8   8   8   4   8   8
#     4  11  21  35  53  76 106 137 177 223 265 311
#     4   9  17  30  50  77 108 140 173 210 254 308
#     4  10  21  36  54  78 108 142 179 215 256 311
#     4   9  18  32  51  75 102 133 167 209 261 315
#     4   9  17  30  49  76 110 141 170 207 256 315
#     4  10  20  34  53  78 107 139 177 218 264 315
#
# _framework density 16.193532000000001
#
# number of rings (size 3 to 8) (size 9 to 14) (size 15 to 20)
#    0.000    2.273    2.727    0.545    0.000    2.909 
#    0.000    7.273    0.000    0.545    0.000    1.273 
#    0.000    2.909    0.000    0.000    0.000    0.000 
#
# Total GULP energy -245350.646921 kJ/mol
# GULP energy per Si atom -5576.151066 kJ/mol
# Density = 1.615667 g / cm^3
# Si number density = 16.193532 Si / 1000 Ang^3
#
#
#
# Elastic Constant Matrix: (Units=GPa)
#
#
# Indices 1 2 3 4 5 6 
#
# 1 109.9266 67.2207 44.9901 0.0000 0.0000 0.0000
# 2 67.2207 99.3268 47.1952 0.0000 0.0000 0.0000
# 3 44.9901 47.1952 72.6513 0.0000 0.0000 0.0000
# 4 0.0000 0.0000 0.0000 16.1197 0.0000 0.0000
# 5 0.0000 0.0000 0.0000 0.0000 18.4349 0.0000
# 6 0.0000 0.0000 0.0000 0.0000 0.0000 16.6846
#
#
#
# Elastic Compliance Matrix: (Units=1/GPa)
#
#
# Indices 1 2 3 4 5 6 
#
# 1 0.016382 -0.009064 -0.004256 0.000000 0.000000 0.000000
# 2 -0.009064 0.019578 -0.007105 0.000000 0.000000 0.000000
# 3 -0.004256 -0.007105 0.021016 0.000000 0.000000 0.000000
# 4 0.000000 0.000000 0.000000 0.062036 0.000000 0.000000
# 5 0.000000 0.000000 0.000000 0.000000 0.054245 0.000000
# 6 0.000000 0.000000 0.000000 0.000000 0.000000 0.059935
#
#
# Mechanical properties :
#
#
# Convention : Reuss Voigt Hill
#
# Bulk Modulus (GPa) = 62.01811 66.74628 64.38219
# Shear Modulus (GPa) = 17.89435 18.41443 18.15439
#
# Velocity S-wave (km/s) = 3.32781 3.37582 3.35190
# Velocity P-wave (km/s) = 7.29020 7.51680 7.40436
#
# Compressibility (1/GPa) = 0.01612432
#
# Stress axis : x y z
#
# Youngs Moduli (GPa) = 61.04344 51.07773 47.58339
#
# Poissons Ratio (x) = 0.46298 0.20253
# Poissons Ratio (y) = 0.55331 0.33808
# Poissons Ratio (z) = 0.25983 0.36291
#
# Static dielectric constant tensor:
#      x y z
#    x 1.518130 0.000000 0.000000 
#    y 0.000000 1.518880 0.000000 
#    z 0.000000 0.000000 1.574560 
# 
# From -- ./inp_files/17413.got.cif
#   From: 2010.05.17/outbox.cif.g08.bks.cpg/sg47_9_cif.got.tgz:17413.got - 2010.06.03 20:15:42.
