data_PCOD9385473
_publ_section_title
;
Structure prediction by ZEFSAII (Michael W. Deem and Ramdas Pophale) SiO2 
 PCOD9385473
Probable space group: P M M M
;
_chemical_formula_sum "Si O2"
_cell_formula_units_Z 36
_cell_length_a 7.711814
_cell_length_b 23.880738
_cell_length_c 9.364548
_cell_angle_alpha 90.000000
_cell_angle_beta 90.000000
_cell_angle_gamma 90.000000
_cell_volume 1724.610835
_symmetry_space_group_name_H-M "P M M M"
_symmetry_group_IT_number 47
_symmetry_cell_setting 'orthorhombic'
loop_
_space_group_symop_operation_xyz
x,y,z
-x,-y,z
x,-y,-z
-x,y,-z
-x,-y,-z
x,y,-z
-x,y,z
x,-y,z
loop_
_atom_site_type_symbol
_atom_site_label
_atom_site_fract_x
_atom_site_fract_y
_atom_site_fract_z
Si Si1 0.206538 0.219138 0.338141
Si Si2 0.708537 0.670014 0.838482
Si Si3 0.712766 0.000000 0.664750
Si Si4 0.706977 0.108515 0.838182
Si Si5 0.711683 0.562817 0.665091
O O1 0.277348 0.217537 0.500000
O O2 0.253329 0.276406 0.258448
O O3 0.263752 0.165930 0.245966
O O4 0.000000 0.216662 0.346797
O O5 0.500000 0.665439 0.846107
O O6 0.773409 0.613058 0.764602
O O7 0.774236 0.677119 0.000000
O O8 0.772092 0.944530 0.748031
O O9 0.500000 0.000000 0.663919
O O10 0.768008 0.000000 0.500000
O O11 0.500000 0.101071 0.848915
O O12 0.776446 0.110592 0.000000
O O13 0.762674 0.572084 0.500000
O O14 0.500000 0.563202 0.667406
O O15 0.765953 0.500000 0.707596
#
# Coordination Sequence:
#
# PCOD9385473 Si02
#       5
#     8   8   4   8   8
#     4  11  24  39  54  74 102 138 179 220 262 308
#     4  10  20  33  52  79 107 136 172 213 259 311
#     4   9  17  31  54  83 112 141 172 208 252 301
#     4  10  20  35  57  84 111 138 171 212 258 308
#     4   8  14  26  46  73 104 136 169 207 253 304
#
# _framework density 20.874274
#
# number of rings (size 3 to 8) (size 9 to 14) (size 15 to 20)
#    0.000    2.333    0.000    3.667    0.000    8.889 
#    0.000    2.778    0.000    4.000    0.000    4.667 
#    0.000    0.000    0.000    0.000    0.000    0.000 
#
# Total GULP energy -201094.935954 kJ/mol
# GULP energy per Si atom -5585.970443 kJ/mol
# Density = 2.082676 g / cm^3
# Si number density = 20.874274 Si / 1000 Ang^3
#
#
#
# Elastic Constant Matrix: (Units=GPa)
#
#
# Indices 1 2 3 4 5 6 
#
# 1 33.7376 -2.0573 7.3001 0.0000 0.0000 0.0000
# 2 -2.0573 203.7899 139.2188 0.0000 0.0000 0.0000
# 3 7.3001 139.2188 223.4000 0.0000 0.0000 0.0000
# 4 0.0000 0.0000 0.0000 19.7085 0.0000 0.0000
# 5 0.0000 0.0000 0.0000 0.0000 5.3736 0.0000
# 6 0.0000 0.0000 0.0000 0.0000 0.0000 -74.5160
#
#
#
# Elastic Compliance Matrix: (Units=1/GPa)
#
#
# Indices 1 2 3 4 5 6 
#
# 1 0.030188 0.001704 -0.002048 0.000000 0.000000 0.000000
# 2 0.001704 0.008641 -0.005441 0.000000 0.000000 0.000000
# 3 -0.002048 -0.005441 0.007934 0.000000 0.000000 0.000000
# 4 0.000000 0.000000 0.000000 0.050740 0.000000 0.000000
# 5 0.000000 0.000000 0.000000 0.000000 0.186096 0.000000
# 6 0.000000 0.000000 0.000000 0.000000 0.000000 -0.013420
#
#
# Mechanical properties :
#
#
# Convention : Reuss Voigt Hill
#
# Bulk Modulus (GPa) = 28.41512 83.31675 55.86593
# Shear Modulus (GPa) = 17.03703 11.21094 14.12399
#
# Velocity S-wave (km/s) = 2.85997 2.31999 2.60402
# Velocity P-wave (km/s) = 4.95459 6.86853 5.98852
#
# Compressibility (1/GPa) = 0.03519253
#
# Stress axis : x y z
#
# Youngs Moduli (GPa) = 33.12613 115.72841 126.04516
#
# Poissons Ratio (x) = -0.19722 0.25819
# Poissons Ratio (y) = -0.05645 0.68575
# Poissons Ratio (z) = 0.06786 0.62963
#
# Static dielectric constant tensor:
#      x y z
#    x 1.774030 0.000000 0.000000 
#    y 0.000000 1.706840 0.000000 
#    z 0.000000 0.000000 1.738060 
# 
# From -- ./inp_files/1425.got.cif
#   From: 2010.05.17/outbox.cif.g08.bks.cpg/sg47_1_cif.got.tgz:1425.got - 2010.06.03 20:15:42.
