data_PCOD9385006
_publ_section_title
;
Structure prediction by ZEFSAII (Michael W. Deem and Ramdas Pophale) SiO2 
 PCOD9385006
Probable space group: P M M M
;
_chemical_formula_sum "Si O2"
_cell_formula_units_Z 52
_cell_length_a 7.318898
_cell_length_b 34.627950
_cell_length_c 9.334304
_cell_angle_alpha 90.000000
_cell_angle_beta 90.000000
_cell_angle_gamma 90.000000
_cell_volume 2365.671388
_symmetry_space_group_name_H-M "P M M M"
_symmetry_group_IT_number 47
_symmetry_cell_setting 'orthorhombic'
loop_
_space_group_symop_operation_xyz
x,y,z
-x,-y,z
x,-y,-z
-x,y,-z
-x,-y,-z
x,y,-z
-x,y,z
x,-y,z
loop_
_atom_site_type_symbol
_atom_site_label
_atom_site_fract_x
_atom_site_fract_y
_atom_site_fract_z
Si Si1 0.222335 0.956839 0.165789
Si Si2 0.222959 0.118451 0.335582
Si Si3 0.781859 0.269860 0.662570
Si Si4 0.717898 0.348056 0.837270
Si Si5 0.723139 0.423287 0.665408
Si Si6 0.722691 0.500000 0.165350
Si Si7 0.223137 0.194719 0.835007
O O1 0.282950 0.921628 0.264050
O O2 0.000000 0.956704 0.167880
O O3 0.279696 0.000000 0.210103
O O4 0.275740 0.950890 0.000000
O O5 0.280344 0.121843 0.500000
O O6 0.279760 0.155358 0.242861
O O7 0.000000 0.118285 0.334709
O O8 0.711537 0.272631 0.500000
O O9 0.749178 0.308599 0.751961
O O10 0.714779 0.232219 0.747182
O O11 0.000000 0.265403 0.652814
O O12 0.500000 0.352905 0.847237
O O13 0.785249 0.384898 0.747977
O O14 0.788691 0.346368 0.000000
O O15 0.780948 0.423696 0.500000
O O16 0.500000 0.423101 0.664528
O O17 0.779585 0.461581 0.750553
O O18 0.500000 0.500000 0.164340
O O19 0.781219 0.500000 0.000000
O O20 0.000000 0.194963 0.835252
O O21 0.280953 0.196132 0.000000
#
# Coordination Sequence:
#
# PCOD9385006 Si02
#       7
#     8   8   8   8   8   4   8
#     4   8  13  20  28  38  55  82 117 156 198 246
#     4   9  15  21  30  45  65  89 120 161 207 252
#     4  10  20  33  49  69  92 118 151 191 232 273
#     4  10  20  33  49  70  96 125 156 189 227 272
#     4   9  16  26  41  62  89 120 152 186 225 267
#     4   9  15  23  37  59  88 119 150 185 224 265
#     4   9  16  26  40  56  75 101 134 173 216 260
#
# _framework density 21.981076000000002
#
# number of rings (size 3 to 8) (size 9 to 14) (size 15 to 20)
#    0.000    2.846    0.000    3.000    0.000    8.615 
#    0.000    1.538    0.000    0.000    0.000    0.538 
#    0.000    4.308    0.000    0.000    0.000    0.769 
#
# Total GULP energy -290635.181445 kJ/mol
# GULP energy per Si atom -5589.138105 kJ/mol
# Density = 2.193105 g / cm^3
# Si number density = 21.981076 Si / 1000 Ang^3
#
#
#
# Elastic Constant Matrix: (Units=GPa)
#
#
# Indices 1 2 3 4 5 6 
#
# 1 88.4625 3.2516 8.3457 0.0000 0.0000 0.0000
# 2 3.2516 252.4755 168.7049 0.0000 0.0000 0.0000
# 3 8.3457 168.7049 257.5527 0.0000 0.0000 0.0000
# 4 0.0000 0.0000 0.0000 46.8112 0.0000 0.0000
# 5 0.0000 0.0000 0.0000 0.0000 -5.9029 0.0000
# 6 0.0000 0.0000 0.0000 0.0000 0.0000 4.5895
#
#
#
# Elastic Compliance Matrix: (Units=1/GPa)
#
#
# Indices 1 2 3 4 5 6 
#
# 1 0.011343 0.000177 -0.000483 0.000000 0.000000 0.000000
# 2 0.000177 0.007047 -0.004621 0.000000 0.000000 0.000000
# 3 -0.000483 -0.004621 0.006926 0.000000 0.000000 0.000000
# 4 0.000000 0.000000 0.000000 0.021362 0.000000 0.000000
# 5 0.000000 0.000000 0.000000 0.000000 -0.169409 0.000000
# 6 0.000000 0.000000 0.000000 0.000000 0.000000 0.217887
#
#
# Mechanical properties :
#
#
# Convention : Reuss Voigt Hill
#
# Bulk Modulus (GPa) = 64.68501 106.56611 85.62556
# Shear Modulus (GPa) = 45.38629 36.97881 41.18255
#
# Velocity S-wave (km/s) = 4.54892 4.10604 4.33314
# Velocity P-wave (km/s) = 7.55525 8.43003 8.00460
#
# Compressibility (1/GPa) = 0.01545953
#
# Stress axis : x y z
#
# Youngs Moduli (GPa) = 88.15752 141.91305 144.39263
#
# Poissons Ratio (x) = -0.02512 0.06981
# Poissons Ratio (y) = -0.01560 0.66730
# Poissons Ratio (z) = 0.04262 0.65584
#
# Static dielectric constant tensor:
#      x y z
#    x 2.029210 0.000000 0.000000 
#    y 0.000000 1.740180 0.000000 
#    z 0.000000 0.000000 1.728060 
# 
# From -- ./inp_files/4830.got.cif
#   From: 2010.05.17/outbox.cif.g08.bks.cpg/sg47_3_cif.got.tgz:4830.got - 2010.06.03 20:15:42.
