data_PCOD9385677
_publ_section_title
;
Structure prediction by ZEFSAII (Michael W. Deem and Ramdas Pophale) SiO2 
 PCOD9385677
Probable space group: P M M M
;
_chemical_formula_sum "Si O2"
_cell_formula_units_Z 44
_cell_length_a 10.122259
_cell_length_b 13.541527
_cell_length_c 19.924798
_cell_angle_alpha 90.000000
_cell_angle_beta 90.000000
_cell_angle_gamma 90.000000
_cell_volume 2731.108869
_symmetry_space_group_name_H-M "P M M M"
_symmetry_group_IT_number 47
_symmetry_cell_setting 'orthorhombic'
loop_
_space_group_symop_operation_xyz
x,y,z
-x,-y,z
x,-y,-z
-x,y,-z
-x,-y,-z
x,y,-z
-x,y,z
x,-y,z
loop_
_atom_site_type_symbol
_atom_site_label
_atom_site_fract_x
_atom_site_fract_y
_atom_site_fract_z
Si Si1 0.340046 0.887471 0.500000
Si Si2 0.244772 0.304142 0.843467
Si Si3 0.500000 0.618608 0.921480
Si Si4 0.156601 0.383778 0.300361
Si Si5 0.656773 0.886204 0.224246
Si Si6 0.000000 0.385409 0.920211
Si Si7 0.343055 0.226170 0.635865
O O1 0.500000 0.892940 0.500000
O O2 0.305010 0.828895 0.432572
O O3 0.289981 0.000000 0.500000
O O4 0.374250 0.342985 0.880720
O O5 0.212531 0.360968 0.774071
O O6 0.265910 0.190497 0.822518
O O7 0.125640 0.328484 0.892413
O O8 0.500000 0.500000 0.921134
O O9 0.500000 0.650030 0.000000
O O10 0.167995 0.500000 0.314365
O O11 0.247402 0.318014 0.349108
O O12 0.000000 0.357402 0.302513
O O13 0.500000 0.879024 0.208745
O O14 0.671579 0.847767 0.300724
O O15 0.696977 0.000000 0.218002
O O16 0.000000 0.500000 0.895876
O O17 0.000000 0.388112 0.000000
O O18 0.500000 0.253483 0.633075
#
# Coordination Sequence:
#
# PCOD9385677 Si02
#       7
#     4   8   4   8   8   4   8
#     4   9  16  30  54  81 110 138 167 211 268 317
#     4  11  20  35  54  79 104 138 177 217 263 315
#     4  11  22  34  51  79 111 136 168 217 268 319
#     4  10  20  34  52  73 103 141 178 215 259 310
#     4   9  17  32  54  78 104 134 173 216 259 303
#     4  11  22  36  55  77 105 140 172 209 264 323
#     4   9  18  31  52  82 106 133 173 217 259 307
#
# _framework density 16.110672000000001
#
# number of rings (size 3 to 8) (size 9 to 14) (size 15 to 20)
#    0.000    2.091    1.818    2.727    1.273    4.000 
#    0.000    1.364    0.000    8.182    0.000    0.000 
#    0.000    0.000    0.000    0.000    0.000    0.000 
#
# Total GULP energy -245332.873654 kJ/mol
# GULP energy per Si atom -5575.747129 kJ/mol
# Density = 1.607400 g / cm^3
# Si number density = 16.110672 Si / 1000 Ang^3
#
#
#
# Elastic Constant Matrix: (Units=GPa)
#
#
# Indices 1 2 3 4 5 6 
#
# 1 118.6567 70.8015 60.2486 0.0000 0.0000 0.0000
# 2 70.8015 140.3354 66.3327 0.0000 0.0000 0.0000
# 3 60.2486 66.3327 102.2990 0.0000 0.0000 0.0000
# 4 0.0000 0.0000 0.0000 18.8964 0.0000 0.0000
# 5 0.0000 0.0000 0.0000 0.0000 32.2448 0.0000
# 6 0.0000 0.0000 0.0000 0.0000 0.0000 18.5230
#
#
#
# Elastic Compliance Matrix: (Units=1/GPa)
#
#
# Indices 1 2 3 4 5 6 
#
# 1 0.013731 -0.004478 -0.005184 0.000000 0.000000 0.000000
# 2 -0.004478 0.011735 -0.004972 0.000000 0.000000 0.000000
# 3 -0.005184 -0.004972 0.016052 0.000000 0.000000 0.000000
# 4 0.000000 0.000000 0.000000 0.052920 0.000000 0.000000
# 5 0.000000 0.000000 0.000000 0.000000 0.031013 0.000000
# 6 0.000000 0.000000 0.000000 0.000000 0.000000 0.053987
#
#
# Mechanical properties :
#
#
# Convention : Reuss Voigt Hill
#
# Bulk Modulus (GPa) = 81.62076 84.00631 82.81354
# Shear Modulus (GPa) = 23.49741 24.86006 24.17873
#
# Velocity S-wave (km/s) = 3.82317 3.93247 3.87821
# Velocity P-wave (km/s) = 8.38221 8.53672 8.45981
#
# Compressibility (1/GPa) = 0.01225178
#
# Stress axis : x y z
#
# Youngs Moduli (GPa) = 72.82541 85.21527 62.29633
#
# Poissons Ratio (x) = 0.38155 0.32293
# Poissons Ratio (y) = 0.32608 0.30975
# Poissons Ratio (z) = 0.37751 0.42371
#
# Static dielectric constant tensor:
#      x y z
#    x 1.517330 0.000000 0.000000 
#    y 0.000000 1.526100 0.000000 
#    z 0.000000 0.000000 1.529450 
# 
# From -- ./inp_files/26443.got.cif
#   From: 2010.05.17/outbox.cif.g08.bks.cpg/sg47_14_cif.got.tgz:26443.got - 2010.06.03 20:15:42.
