data_PCOD9385895
_publ_section_title
;
Structure prediction by ZEFSAII (Michael W. Deem and Ramdas Pophale) SiO2 
 PCOD9385895
Probable space group: P M M M
;
_chemical_formula_sum "Si O2"
_cell_formula_units_Z 36
_cell_length_a 9.714347
_cell_length_b 24.293165
_cell_length_c 8.522891
_cell_angle_alpha 90.000000
_cell_angle_beta 90.000000
_cell_angle_gamma 90.000000
_cell_volume 2011.336092
_symmetry_space_group_name_H-M "P M M M"
_symmetry_group_IT_number 47
_symmetry_cell_setting 'orthorhombic'
loop_
_space_group_symop_operation_xyz
x,y,z
-x,-y,z
x,-y,-z
-x,y,-z
-x,-y,-z
x,y,-z
-x,y,z
x,-y,z
loop_
_atom_site_type_symbol
_atom_site_label
_atom_site_fract_x
_atom_site_fract_y
_atom_site_fract_z
Si Si1 0.341155 0.901432 0.186176
Si Si2 0.659245 0.336179 0.307941
Si Si3 0.840318 0.438728 0.691267
Si Si4 0.667126 0.215692 0.318944
Si Si5 0.842738 0.000000 0.312791
O O1 0.500000 0.908349 0.243527
O O2 0.295769 0.839283 0.226838
O O3 0.241170 0.946508 0.258309
O O4 0.342859 0.908617 0.000000
O O5 0.661057 0.334971 0.500000
O O6 0.500000 0.342763 0.260896
O O7 0.748799 0.387797 0.254315
O O8 0.712185 0.275695 0.258226
O O9 0.836108 0.438267 0.500000
O O10 0.793926 0.500000 0.740653
O O11 0.000000 0.432104 0.736084
O O12 0.711007 0.209374 0.500000
O O13 0.500000 0.218711 0.318360
O O14 0.847358 0.000000 0.500000
O O15 0.000000 0.000000 0.252556
#
# Coordination Sequence:
#
# PCOD9385895 Si02
#       5
#     8   8   8   8   4
#     4  10  20  34  54  78 100 125 159 194 231 279
#     4   8  13  21  34  52  74 104 142 179 216 261
#     4   8  13  20  29  44  71 106 139 173 218 268
#     4   8  14  26  44  65  90 119 150 187 229 270
#     4  11  24  39  54  74 100 129 160 193 232 276
#
# _framework density 17.898548999999999
#
# number of rings (size 3 to 8) (size 9 to 14) (size 15 to 20)
#    0.000    3.222    0.000    3.333    0.000    4.000 
#    0.000    3.333    0.000    4.000    0.000    0.000 
#    0.000    0.889    0.000   11.111    0.000   12.889 
#
# Total GULP energy -200474.079591 kJ/mol
# GULP energy per Si atom -5568.724433 kJ/mol
# Density = 1.785781 g / cm^3
# Si number density = 17.898549 Si / 1000 Ang^3
#
#
#
# Elastic Constant Matrix: (Units=GPa)
#
#
# Indices 1 2 3 4 5 6 
#
# 1 73.3203 89.0378 17.0581 0.0000 0.0000 0.0000
# 2 89.0378 198.1289 25.0494 0.0000 0.0000 0.0000
# 3 17.0581 25.0494 15.2003 0.0000 0.0000 0.0000
# 4 0.0000 0.0000 0.0000 -19.4436 0.0000 0.0000
# 5 0.0000 0.0000 0.0000 0.0000 9.2710 0.0000
# 6 0.0000 0.0000 0.0000 0.0000 0.0000 -12.0668
#
#
#
# Elastic Compliance Matrix: (Units=1/GPa)
#
#
# Indices 1 2 3 4 5 6 
#
# 1 0.032775 -0.012731 -0.015800 0.000000 0.000000 0.000000
# 2 -0.012731 0.011321 -0.004369 0.000000 0.000000 0.000000
# 3 -0.015800 -0.004369 0.090719 0.000000 0.000000 0.000000
# 4 0.000000 0.000000 0.000000 -0.051431 0.000000 0.000000
# 5 0.000000 0.000000 0.000000 0.000000 0.107863 0.000000
# 6 0.000000 0.000000 0.000000 0.000000 0.000000 -0.082872
#
#
# Mechanical properties :
#
#
# Convention : Reuss Voigt Hill
#
# Bulk Modulus (GPa) = 14.48979 60.99334 37.74156
# Shear Modulus (GPa) = 25.35731 5.91908 15.63819
#
# Velocity S-wave (km/s) = 3.76802 1.82049 2.95907
# Velocity P-wave (km/s) = 5.20036 6.21049 5.72774
#
# Compressibility (1/GPa) = 0.06901412
#
# Stress axis : x y z
#
# Youngs Moduli (GPa) = 30.51074 88.33140 11.02301
#
# Poissons Ratio (x) = 1.12458 0.17417
# Poissons Ratio (y) = 0.38844 0.04816
# Poissons Ratio (z) = 0.48208 0.38592
#
# Static dielectric constant tensor:
#      x y z
#    x 1.599290 0.000000 0.000000 
#    y 0.000000 1.631420 0.000000 
#    z 0.000000 0.000000 1.606970 
# 
# From -- ./inp_files/1363.got.cif
#   From: 2010.05.17/outbox.cif.g08.bks.cpg/sg47_1_cif.got.tgz:1363.got - 2010.06.03 20:15:42.
