data_PCOD9385883
_publ_section_title
;
Structure prediction by ZEFSAII (Michael W. Deem and Ramdas Pophale) SiO2 
 PCOD9385883
Probable space group: P M M M
;
_chemical_formula_sum "Si O2"
_cell_formula_units_Z 58
_cell_length_a 26.845089
_cell_length_b 7.408828
_cell_length_c 13.119623
_cell_angle_alpha 90.000000
_cell_angle_beta 90.000000
_cell_angle_gamma 90.000000
_cell_volume 2609.370307
_symmetry_space_group_name_H-M "P M M M"
_symmetry_group_IT_number 47
_symmetry_cell_setting 'orthorhombic'
loop_
_space_group_symop_operation_xyz
x,y,z
-x,-y,z
x,-y,-z
-x,y,-z
-x,-y,-z
x,y,-z
-x,y,z
x,-y,z
loop_
_atom_site_type_symbol
_atom_site_label
_atom_site_fract_x
_atom_site_fract_y
_atom_site_fract_z
Si Si1 0.500000 0.000000 0.311765
Si Si2 0.272665 0.211752 0.889534
Si Si3 0.059686 0.207794 0.390857
Si Si4 0.691777 0.704879 0.670049
Si Si5 0.200270 0.279234 0.388958
Si Si6 0.581233 0.715609 0.379410
Si Si7 0.944254 0.295010 0.159933
Si Si8 0.839148 0.281360 0.172494
O O1 0.543290 0.841227 0.319694
O O2 0.298549 0.296356 0.791283
O O3 0.212849 0.231702 0.879776
O O4 0.284063 0.000000 0.885184
O O5 0.288026 0.283142 0.000000
O O6 0.077053 0.286330 0.500000
O O7 0.065669 0.301570 0.282239
O O8 0.000000 0.201814 0.398566
O O9 0.076566 0.000000 0.383545
O O10 0.690643 0.500000 0.630850
O O11 0.742791 0.784603 0.625972
O O12 0.638030 0.777761 0.641524
O O13 0.182954 0.221317 0.500000
O O14 0.200298 0.500000 0.386228
O O15 0.169215 0.222381 0.290346
O O16 0.570332 0.737076 0.500000
O O17 0.577241 0.500000 0.355685
O O18 0.947016 0.500000 0.121869
O O19 0.891348 0.213721 0.125630
O O20 0.000000 0.215096 0.143299
O O21 0.841595 0.500000 0.170276
#
# Coordination Sequence:
#
# PCOD9385883 Si02
#       8
#     2   8   8   8   8   8   8   8
#     4  12  23  34  52  82 123 176 219 246 278 308
#     4  10  21  36  55  79 104 127 157 209 275 335
#     4   8  14  24  36  51  75 110 151 191 229 271
#     4   9  18  32  53  79 105 140 182 223 271 322
#     4   8  13  24  43  66  94 128 165 204 250 306
#     4  10  20  34  53  81 120 164 209 248 279 319
#     4   9  17  28  42  62  88 118 156 201 246 297
#     4   9  18  31  48  70  95 127 164 201 250 313
#
# _framework density 22.227585999999999
#
# number of rings (size 3 to 8) (size 9 to 14) (size 15 to 20)
#    0.000    2.897    0.000    2.897    0.966    4.690 
#    0.000    2.759    0.000    4.138    0.000    3.862 
#    0.000    2.207    0.000    0.000    0.000    0.000 
#
# Total GULP energy -322928.351065 kJ/mol
# GULP energy per Si atom -5567.730191 kJ/mol
# Density = 2.217699 g / cm^3
# Si number density = 22.227586 Si / 1000 Ang^3
#
#
#
# Elastic Constant Matrix: (Units=GPa)
#
#
# Indices 1 2 3 4 5 6 
#
# 1 128.9250 12.0699 -14.1006 0.0000 0.0000 0.0000
# 2 12.0699 90.3893 -0.0980 0.0000 0.0000 0.0000
# 3 -14.1006 -0.0980 82.5150 0.0000 0.0000 0.0000
# 4 0.0000 0.0000 0.0000 3.6336 0.0000 0.0000
# 5 0.0000 0.0000 0.0000 0.0000 -12.9551 0.0000
# 6 0.0000 0.0000 0.0000 0.0000 0.0000 -22.1125
#
#
#
# Elastic Compliance Matrix: (Units=1/GPa)
#
#
# Indices 1 2 3 4 5 6 
#
# 1 0.008006 -0.001068 0.001367 0.000000 0.000000 0.000000
# 2 -0.001068 0.011206 -0.000169 0.000000 0.000000 0.000000
# 3 0.001367 -0.000169 0.012352 0.000000 0.000000 0.000000
# 4 0.000000 0.000000 0.000000 0.275206 0.000000 0.000000
# 5 0.000000 0.000000 0.000000 0.000000 -0.077189 0.000000
# 6 0.000000 0.000000 0.000000 0.000000 0.000000 -0.045223
#
#
# Mechanical properties :
#
#
# Convention : Reuss Voigt Hill
#
# Bulk Modulus (GPa) = 31.42269 33.06356 32.24312
# Shear Modulus (GPa) = 25.67987 13.97706 19.82846
#
# Velocity S-wave (km/s) = 3.40268 2.51034 2.98999
# Velocity P-wave (km/s) = 5.44106 4.82801 5.14368
#
# Compressibility (1/GPa) = 0.03182414
#
# Stress axis : x y z
#
# Youngs Moduli (GPa) = 124.90813 89.24085 80.95612
#
# Poissons Ratio (x) = 0.09527 -0.11065
# Poissons Ratio (y) = 0.13335 0.01369
# Poissons Ratio (z) = -0.17073 0.01509
#
# Static dielectric constant tensor:
#      x y z
#    x 1.833820 0.000000 0.000000 
#    y 0.000000 1.841070 0.000000 
#    z 0.000000 0.000000 1.784750 
# 
# From -- ./inp_files/25758.got.cif
#   From: 2010.05.17/outbox.cif.g08.bks.cpg/sg47_13_cif.got.tgz:25758.got - 2010.06.03 20:15:42.
