data_PCOD9385521
_publ_section_title
;
Structure prediction by ZEFSAII (Michael W. Deem and Ramdas Pophale) SiO2 
 PCOD9385521
Probable space group: P M M M
;
_chemical_formula_sum "Si O2"
_cell_formula_units_Z 52
_cell_length_a 30.574661
_cell_length_b 9.071145
_cell_length_c 10.421221
_cell_angle_alpha 90.000000
_cell_angle_beta 90.000000
_cell_angle_gamma 90.000000
_cell_volume 2890.296290
_symmetry_space_group_name_H-M "P M M M"
_symmetry_group_IT_number 47
_symmetry_cell_setting 'orthorhombic'
loop_
_space_group_symop_operation_xyz
x,y,z
-x,-y,z
x,-y,-z
-x,y,-z
-x,-y,-z
x,y,-z
-x,y,z
x,-y,z
loop_
_atom_site_type_symbol
_atom_site_label
_atom_site_fract_x
_atom_site_fract_y
_atom_site_fract_z
Si Si1 0.551850 0.323625 0.852563
Si Si2 0.858411 0.677015 0.140607
Si Si3 0.707115 0.668476 0.344740
Si Si4 0.947329 0.835538 0.500000
Si Si5 0.797978 0.176390 0.349894
Si Si6 0.616261 0.823463 0.651122
Si Si7 0.950566 0.676575 0.763883
O O1 0.500000 0.295515 0.837375
O O2 0.558486 0.500000 0.839429
O O3 0.579593 0.239974 0.745600
O O4 0.563723 0.283363 0.000000
O O5 0.853903 0.500000 0.156560
O O6 0.833998 0.757869 0.255337
O O7 0.910225 0.711161 0.144733
O O8 0.840863 0.717423 0.000000
O O9 0.706981 0.663587 0.500000
O O10 0.707627 0.500000 0.297266
O O11 0.751194 0.754863 0.310493
O O12 0.662712 0.752359 0.309399
O O13 0.937456 0.746961 0.628082
O O14 0.000000 0.848290 0.500000
O O15 0.928106 0.000000 0.500000
O O16 0.806323 0.215249 0.500000
O O17 0.796445 0.000000 0.341438
O O18 0.608171 0.786178 0.500000
O O19 0.618580 0.000000 0.659922
O O20 0.952418 0.500000 0.750637
O O21 0.000000 0.725766 0.799453
#
# Coordination Sequence:
#
# PCOD9385521 Si02
#       7
#     8   8   8   4   8   8   8
#     4   9  19  36  55  75 104 145 192 238 280 323
#     4  10  22  38  55  78 108 141 177 218 264 314
#     4   9  17  32  56  83 109 139 176 219 268 320
#     4   9  17  29  47  73 103 131 163 207 253 297
#     4  10  21  37  58  83 109 139 176 217 264 319
#     4  10  20  33  52  81 115 146 178 222 274 327
#     4   9  18  33  53  76 103 136 173 214 261 310
#
# _framework density 17.991233999999999
#
# number of rings (size 3 to 8) (size 9 to 14) (size 15 to 20)
#    0.000    2.538    0.000    2.077    1.077    6.769 
#    0.000    4.615    0.000    4.615    0.000    3.231 
#    0.000    0.000    0.000    0.000    0.000    0.000 
#
# Total GULP energy -289913.540041 kJ/mol
# GULP energy per Si atom -5575.260385 kJ/mol
# Density = 1.795029 g / cm^3
# Si number density = 17.991234 Si / 1000 Ang^3
#
#
#
# Elastic Constant Matrix: (Units=GPa)
#
#
# Indices 1 2 3 4 5 6 
#
# 1 111.8556 57.9767 72.3071 0.0000 0.0000 0.0000
# 2 57.9767 58.2641 54.3902 0.0000 0.0000 0.0000
# 3 72.3071 54.3902 103.6251 0.0000 0.0000 0.0000
# 4 0.0000 0.0000 0.0000 18.9072 0.0000 0.0000
# 5 0.0000 0.0000 0.0000 0.0000 8.0773 0.0000
# 6 0.0000 0.0000 0.0000 0.0000 0.0000 3.3411
#
#
#
# Elastic Compliance Matrix: (Units=1/GPa)
#
#
# Indices 1 2 3 4 5 6 
#
# 1 0.020873 -0.014066 -0.007182 0.000000 0.000000 0.000000
# 2 -0.014066 0.043130 -0.012823 0.000000 0.000000 0.000000
# 3 -0.007182 -0.012823 0.021392 0.000000 0.000000 0.000000
# 4 0.000000 0.000000 0.000000 0.052890 0.000000 0.000000
# 5 0.000000 0.000000 0.000000 0.000000 0.123804 0.000000
# 6 0.000000 0.000000 0.000000 0.000000 0.000000 0.299305
#
#
# Mechanical properties :
#
#
# Convention : Reuss Voigt Hill
#
# Bulk Modulus (GPa) = 57.95894 71.45475 64.70685
# Shear Modulus (GPa) = 7.87044 12.00317 9.93681
#
# Velocity S-wave (km/s) = 2.09382 2.58576 2.35269
# Velocity P-wave (km/s) = 6.17499 6.97979 6.58969
#
# Compressibility (1/GPa) = 0.01725359
#
# Stress axis : x y z
#
# Youngs Moduli (GPa) = 47.90772 23.18561 46.74586
#
# Poissons Ratio (x) = 0.32612 0.33574
# Poissons Ratio (y) = 0.67386 0.59943
# Poissons Ratio (z) = 0.34408 0.29731
#
# Static dielectric constant tensor:
#      x y z
#    x 1.619060 0.000000 0.000000 
#    y 0.000000 1.608340 0.000000 
#    z 0.000000 0.000000 1.602220 
# 
# From -- ./inp_files/19813.got.cif
#   From: 2010.05.17/outbox.cif.g08.bks.cpg/sg47_10_cif.got.tgz:19813.got - 2010.06.03 20:15:42.
