data_PCOD9385603
_publ_section_title
;
Structure prediction by ZEFSAII (Michael W. Deem and Ramdas Pophale) SiO2 
 PCOD9385603
Probable space group: P M M M
;
_chemical_formula_sum "Si O2"
_cell_formula_units_Z 64
_cell_length_a 10.845660
_cell_length_b 15.416694
_cell_length_c 19.181078
_cell_angle_alpha 90.000000
_cell_angle_beta 90.000000
_cell_angle_gamma 90.000000
_cell_volume 3207.157214
_symmetry_space_group_name_H-M "P M M M"
_symmetry_group_IT_number 47
_symmetry_cell_setting 'orthorhombic'
loop_
_space_group_symop_operation_xyz
x,y,z
-x,-y,z
x,-y,-z
-x,y,-z
-x,-y,-z
x,y,-z
-x,y,z
x,-y,z
loop_
_atom_site_type_symbol
_atom_site_label
_atom_site_fract_x
_atom_site_fract_y
_atom_site_fract_z
Si Si1 0.361888 0.895209 0.677130
Si Si2 0.135533 0.603011 0.840770
Si Si3 0.858927 0.393947 0.681948
Si Si4 0.367195 0.334722 0.918751
Si Si5 0.862917 0.105752 0.580411
Si Si6 0.864903 0.896719 0.078400
Si Si7 0.633727 0.841991 0.165627
Si Si8 0.639311 0.605902 0.419096
O O1 0.500000 0.880155 0.648258
O O2 0.251369 0.866572 0.627361
O O3 0.353380 0.849008 0.751675
O O4 0.351026 0.000000 0.688545
O O5 0.125641 0.500000 0.833719
O O6 0.163478 0.634944 0.761976
O O7 0.243658 0.618762 0.895055
O O8 0.000000 0.636851 0.861775
O O9 0.856319 0.500000 0.680720
O O10 0.750280 0.364134 0.630584
O O11 0.000000 0.369196 0.662684
O O12 0.500000 0.381788 0.910594
O O13 0.371860 0.253039 0.867322
O O14 0.359442 0.309217 0.000000
O O15 0.848380 0.132795 0.500000
O O16 0.000000 0.132536 0.604842
O O17 0.861885 0.000000 0.580697
O O18 0.753628 0.880374 0.129758
O O19 0.000000 0.863845 0.101230
O O20 0.874085 0.000000 0.072954
O O21 0.840361 0.862660 0.000000
O O22 0.500000 0.884197 0.148500
O O23 0.658380 0.630869 0.500000
O O24 0.500000 0.632864 0.397809
O O25 0.639865 0.500000 0.417424
#
# Coordination Sequence:
#
# PCOD9385603 Si02
#       8
#     8   8   8   8   8   8   8   8
#     4   9  17  28  44  69  99 131 169 210 248 286
#     4   9  19  36  56  77  99 122 152 194 246 305
#     4   8  14  25  41  62  88 116 146 180 218 264
#     4  10  22  38  54  74  99 126 158 198 245 298
#     4   8  14  25  41  63  94 131 168 206 249 294
#     4   9  18  31  46  67  95 126 163 206 246 282
#     4  10  20  34  50  69  97 131 166 203 243 290
#     4   8  13  20  31  53  88 125 155 180 208 249
#
# _framework density 19.955366999999999
#
# number of rings (size 3 to 8) (size 9 to 14) (size 15 to 20)
#    0.000    3.125    0.000    2.625    0.000    4.250 
#    0.000    6.875    0.000    0.000    0.000    0.875 
#    0.000    1.000    0.000    0.000    0.000    0.000 
#
# Total GULP energy -356420.390284 kJ/mol
# GULP energy per Si atom -5569.068598 kJ/mol
# Density = 1.990995 g / cm^3
# Si number density = 19.955367 Si / 1000 Ang^3
#
#
#
# Elastic Constant Matrix: (Units=GPa)
#
#
# Indices 1 2 3 4 5 6 
#
# 1 210.1992 14.0463 107.0294 0.0000 0.0000 0.0000
# 2 14.0463 14.0699 9.2266 0.0000 0.0000 0.0000
# 3 107.0294 9.2266 90.8619 0.0000 0.0000 0.0000
# 4 0.0000 0.0000 0.0000 11.2374 0.0000 0.0000
# 5 0.0000 0.0000 0.0000 0.0000 42.4274 0.0000
# 6 0.0000 0.0000 0.0000 0.0000 0.0000 11.6998
#
#
#
# Elastic Compliance Matrix: (Units=1/GPa)
#
#
# Indices 1 2 3 4 5 6 
#
# 1 0.011997 -0.002903 -0.013836 0.000000 0.000000 0.000000
# 2 -0.002903 0.076846 -0.004384 0.000000 0.000000 0.000000
# 3 -0.013836 -0.004384 0.027749 0.000000 0.000000 0.000000
# 4 0.000000 0.000000 0.000000 0.088989 0.000000 0.000000
# 5 0.000000 0.000000 0.000000 0.000000 0.023570 0.000000
# 6 0.000000 0.000000 0.000000 0.000000 0.000000 0.085472
#
#
# Mechanical properties :
#
#
# Convention : Reuss Voigt Hill
#
# Bulk Modulus (GPa) = 13.45066 63.97063 38.71065
# Shear Modulus (GPa) = 13.10097 25.39483 19.24790
#
# Velocity S-wave (km/s) = 2.56503 3.57120 3.10909
# Velocity P-wave (km/s) = 3.94050 7.00935 5.68588
#
# Compressibility (1/GPa) = 0.07434579
#
# Stress axis : x y z
#
# Youngs Moduli (GPa) = 83.35664 13.01296 36.03692
#
# Poissons Ratio (x) = 0.03778 0.49862
# Poissons Ratio (y) = 0.24199 0.15798
# Poissons Ratio (z) = 1.15336 0.05705
#
# Static dielectric constant tensor:
#      x y z
#    x 1.769230 0.000000 0.000000 
#    y 0.000000 1.746190 0.000000 
#    z 0.000000 0.000000 1.678800 
# 
# From -- ./inp_files/30016.got.cif
#   From: 2010.05.17/outbox.cif.g08.bks.cpg/sg47_16_cif.got.tgz:30016.got - 2010.06.03 20:15:42.
