data_PCOD9385658
_publ_section_title
;
Structure prediction by ZEFSAII (Michael W. Deem and Ramdas Pophale) SiO2 
 PCOD9385658
Probable space group: P M M M
;
_chemical_formula_sum "Si O2"
_cell_formula_units_Z 52
_cell_length_a 22.239806
_cell_length_b 7.962300
_cell_length_c 15.276177
_cell_angle_alpha 90.000000
_cell_angle_beta 90.000000
_cell_angle_gamma 90.000000
_cell_volume 2705.105535
_symmetry_space_group_name_H-M "P M M M"
_symmetry_group_IT_number 47
_symmetry_cell_setting 'orthorhombic'
loop_
_space_group_symop_operation_xyz
x,y,z
-x,-y,z
x,-y,-z
-x,y,-z
-x,-y,-z
x,y,-z
-x,y,z
x,-y,z
loop_
_atom_site_type_symbol
_atom_site_label
_atom_site_fract_x
_atom_site_fract_y
_atom_site_fract_z
Si Si1 0.000000 0.191272 0.605598
Si Si2 0.772379 0.308522 0.260321
Si Si3 0.692609 0.193061 0.405227
Si Si4 0.697101 0.296884 0.098024
Si Si5 0.566443 0.200857 0.834786
Si Si6 0.566038 0.695865 0.634354
Si Si7 0.867490 0.699114 0.399402
O O1 0.063171 0.276221 0.628132
O O2 0.000000 0.189347 0.500000
O O3 0.000000 0.000000 0.637425
O O4 0.790914 0.500000 0.239774
O O5 0.716783 0.305872 0.327650
O O6 0.743801 0.232396 0.172007
O O7 0.824472 0.231072 0.322468
O O8 0.715308 0.250013 0.500000
O O9 0.621137 0.203530 0.403858
O O10 0.710799 0.000000 0.391204
O O11 0.698988 0.500000 0.102708
O O12 0.627714 0.247745 0.116037
O O13 0.713578 0.243567 0.000000
O O14 0.500000 0.243641 0.873599
O O15 0.569016 0.285190 0.739428
O O16 0.567363 0.000000 0.822538
O O17 0.500000 0.754205 0.607218
O O18 0.572352 0.500000 0.611237
O O19 0.859938 0.766541 0.500000
O O20 0.854935 0.500000 0.404723
#
# Coordination Sequence:
#
# PCOD9385658 Si02
#       7
#     4   8   8   8   8   8   8
#     4   9  17  29  47  75 110 143 172 204 245 291
#     4  10  20  35  54  75 101 137 175 211 251 301
#     4  11  23  35  49  72 101 132 166 207 254 302
#     4  10  21  36  54  77 103 132 169 214 264 316
#     4  10  20  34  53  75  98 125 161 210 269 327
#     4  10  20  34  52  71  92 123 164 208 255 307
#     4   9  17  30  50  76 106 140 176 210 244 287
#
# _framework density 19.222909000000001
#
# number of rings (size 3 to 8) (size 9 to 14) (size 15 to 20)
#    0.000    2.077    1.538    2.077    0.000    6.154 
#    0.000    4.615    0.000    0.000    0.000    0.538 
#    0.000    4.308    0.000    0.000    0.000    0.000 
#
# Total GULP energy -289910.304492 kJ/mol
# GULP energy per Si atom -5575.198163 kJ/mol
# Density = 1.917916 g / cm^3
# Si number density = 19.222909 Si / 1000 Ang^3
#
#
#
# Elastic Constant Matrix: (Units=GPa)
#
#
# Indices 1 2 3 4 5 6 
#
# 1 129.2323 4.7369 56.6600 0.0000 0.0000 0.0000
# 2 4.7369 28.7680 10.4346 0.0000 0.0000 0.0000
# 3 56.6600 10.4346 122.2321 0.0000 0.0000 0.0000
# 4 0.0000 0.0000 0.0000 3.6997 0.0000 0.0000
# 5 0.0000 0.0000 0.0000 0.0000 18.7197 0.0000
# 6 0.0000 0.0000 0.0000 0.0000 0.0000 2.3167
#
#
#
# Elastic Compliance Matrix: (Units=1/GPa)
#
#
# Indices 1 2 3 4 5 6 
#
# 1 0.009712 0.000035 -0.004505 0.000000 0.000000 0.000000
# 2 0.000035 0.035872 -0.003078 0.000000 0.000000 0.000000
# 3 -0.004505 -0.003078 0.010532 0.000000 0.000000 0.000000
# 4 0.000000 0.000000 0.000000 0.270292 0.000000 0.000000
# 5 0.000000 0.000000 0.000000 0.000000 0.053420 0.000000
# 6 0.000000 0.000000 0.000000 0.000000 0.000000 0.431649
#
#
# Mechanical properties :
#
#
# Convention : Reuss Voigt Hill
#
# Bulk Modulus (GPa) = 24.37903 47.09949 35.73926
# Shear Modulus (GPa) = 5.95064 18.84061 12.39562
#
# Velocity S-wave (km/s) = 1.76134 3.13407 2.54212
# Velocity P-wave (km/s) = 4.10442 6.13608 5.22004
#
# Compressibility (1/GPa) = 0.04101886
#
# Stress axis : x y z
#
# Youngs Moduli (GPa) = 102.96754 27.87709 94.94746
#
# Poissons Ratio (x) = -0.00097 0.42772
# Poissons Ratio (y) = -0.00359 0.29229
# Poissons Ratio (z) = 0.46385 0.08582
#
# Static dielectric constant tensor:
#      x y z
#    x 1.700010 0.000000 0.000000 
#    y 0.000000 1.693380 0.000000 
#    z 0.000000 0.000000 1.691130 
# 
# From -- ./inp_files/11033.got.cif
#   From: 2010.05.17/outbox.cif.g08.bks.cpg/sg47_6_cif.got.tgz:11033.got - 2010.06.03 20:15:42.
