data_PCOD9385567
_publ_section_title
;
Structure prediction by ZEFSAII (Michael W. Deem and Ramdas Pophale) SiO2 
 PCOD9385567
Probable space group: P M M M
;
_chemical_formula_sum "Si O2"
_cell_formula_units_Z 48
_cell_length_a 8.684193
_cell_length_b 20.696024
_cell_length_c 15.586334
_cell_angle_alpha 90.000000
_cell_angle_beta 90.000000
_cell_angle_gamma 90.000000
_cell_volume 2801.304795
_symmetry_space_group_name_H-M "P M M M"
_symmetry_group_IT_number 47
_symmetry_cell_setting 'orthorhombic'
loop_
_space_group_symop_operation_xyz
x,y,z
-x,-y,z
x,-y,-z
-x,y,-z
-x,-y,-z
x,y,-z
-x,y,z
x,-y,z
loop_
_atom_site_type_symbol
_atom_site_label
_atom_site_fract_x
_atom_site_fract_y
_atom_site_fract_z
Si Si1 0.324645 0.500000 0.103793
Si Si2 0.321190 0.071514 0.365481
Si Si3 0.816390 0.789708 0.405259
Si Si4 0.000000 0.072008 0.101780
Si Si5 0.674715 0.737222 0.766982
Si Si6 0.671123 0.115185 0.171439
Si Si7 0.816233 0.637528 0.099110
O O1 0.500000 0.500000 0.134873
O O2 0.241652 0.433366 0.126977
O O3 0.326718 0.500000 0.000000
O O4 0.500000 0.076444 0.392863
O O5 0.233240 0.135018 0.396833
O O6 0.321730 0.077926 0.262165
O O7 0.263181 0.000000 0.389909
O O8 0.767121 0.767142 0.500000
O O9 0.747616 0.749022 0.326612
O O10 0.000000 0.786760 0.399418
O O11 0.165387 0.102162 0.126526
O O12 0.000000 0.000000 0.139860
O O13 0.000000 0.068948 0.000000
O O14 0.500000 0.714163 0.756906
O O15 0.670526 0.808802 0.807744
O O16 0.759757 0.690172 0.832854
O O17 0.500000 0.099593 0.132384
O O18 0.000000 0.637574 0.096906
O O19 0.761752 0.649850 0.000000
#
# Coordination Sequence:
#
# PCOD9385567 Si02
#       7
#     4   8   8   4   8   8   8
#     4   9  17  31  51  77 114 153 184 217 255 301
#     4   9  18  32  51  73  94 124 165 207 262 327
#     4  10  21  35  51  74 104 135 170 216 268 323
#     4  11  24  36  50  72  93 126 174 218 274 336
#     4  10  21  36  55  78 103 137 180 221 266 320
#     4   9  20  37  53  71  98 130 170 223 274 323
#     4  10  20  33  53  82 115 149 182 218 261 311
#
# _framework density 17.134872000000001
#
# number of rings (size 3 to 8) (size 9 to 14) (size 15 to 20)
#    0.000    2.333    0.000    3.250    5.833    6.000 
#    0.000    4.167    0.000    0.000    0.000    0.583 
#    0.000    4.667    0.000    0.000    0.000    0.000 
#
# Total GULP energy -267430.018834 kJ/mol
# GULP energy per Si atom -5571.458726 kJ/mol
# Density = 1.709587 g / cm^3
# Si number density = 17.134872 Si / 1000 Ang^3
#
#
#
# Elastic Constant Matrix: (Units=GPa)
#
#
# Indices 1 2 3 4 5 6 
#
# 1 114.3228 34.5394 56.3388 0.0000 0.0000 0.0000
# 2 34.5394 92.6778 52.1952 0.0000 0.0000 0.0000
# 3 56.3388 52.1952 91.4651 0.0000 0.0000 0.0000
# 4 0.0000 0.0000 0.0000 172.1222 0.0000 0.0000
# 5 0.0000 0.0000 0.0000 0.0000 -723.2069 0.0000
# 6 0.0000 0.0000 0.0000 0.0000 0.0000 29.9155
#
#
#
# Elastic Compliance Matrix: (Units=1/GPa)
#
#
# Indices 1 2 3 4 5 6 
#
# 1 0.012574 -0.000478 -0.007472 0.000000 0.000000 0.000000
# 2 -0.000478 0.015918 -0.008790 0.000000 0.000000 0.000000
# 3 -0.007472 -0.008790 0.020552 0.000000 0.000000 0.000000
# 4 0.000000 0.000000 0.000000 0.005810 0.000000 0.000000
# 5 0.000000 0.000000 0.000000 0.000000 -0.001383 0.000000
# 6 0.000000 0.000000 0.000000 0.000000 0.000000 0.033428
#
#
# Mechanical properties :
#
#
# Convention : Reuss Voigt Hill
#
# Bulk Modulus (GPa) = 64.24910 64.95693 64.60301
# Shear Modulus (GPa) = 39.81961 -93.87435 -27.02737
#
# Velocity S-wave (km/s) = 4.82591 -7.40976 -3.97587
# Velocity P-wave (km/s) = 8.28432 5.93418 4.08751
#
# Compressibility (1/GPa) = 0.01556442
#
# Stress axis : x y z
#
# Youngs Moduli (GPa) = 79.52971 62.82059 48.65776
#
# Poissons Ratio (x) = 0.03001 0.36359
# Poissons Ratio (y) = 0.03799 0.42769
# Poissons Ratio (z) = 0.59428 0.55217
#
# Static dielectric constant tensor:
#      x y z
#    x 1.625630 0.000000 0.000000 
#    y 0.000000 1.564650 0.000000 
#    z 0.000000 0.000000 1.595290 
# 
# From -- ./inp_files/21052.got.cif
#   From: 2010.05.17/outbox.cif.g08.bks.cpg/sg47_11_cif.got.tgz:21052.got - 2010.06.03 20:15:42.
