data_PCOD9385221
_publ_section_title
;
Structure prediction by ZEFSAII (Michael W. Deem and Ramdas Pophale) SiO2 
 PCOD9385221
Probable space group: P M M M
;
_chemical_formula_sum "Si O2"
_cell_formula_units_Z 48
_cell_length_a 9.443912
_cell_length_b 31.872430
_cell_length_c 7.523499
_cell_angle_alpha 90.000000
_cell_angle_beta 90.000000
_cell_angle_gamma 90.000000
_cell_volume 2264.576390
_symmetry_space_group_name_H-M "P M M M"
_symmetry_group_IT_number 47
_symmetry_cell_setting 'orthorhombic'
loop_
_space_group_symop_operation_xyz
x,y,z
-x,-y,z
x,-y,-z
-x,y,-z
-x,-y,-z
x,y,-z
-x,y,z
x,-y,z
loop_
_atom_site_type_symbol
_atom_site_label
_atom_site_fract_x
_atom_site_fract_y
_atom_site_fract_z
Si Si1 0.337684 0.500000 0.782293
Si Si2 0.340392 0.756294 0.710982
Si Si3 0.836330 0.419297 0.783409
Si Si4 0.836809 0.836165 0.282026
Si Si5 0.660764 0.083283 0.288420
Si Si6 0.838857 0.000000 0.788592
Si Si7 0.838151 0.325581 0.214065
O O1 0.500000 0.500000 0.727614
O O2 0.258681 0.542167 0.722779
O O3 0.334012 0.500000 0.000000
O O4 0.351114 0.763311 0.500000
O O5 0.500000 0.757195 0.783929
O O6 0.241099 0.793792 0.778740
O O7 0.265823 0.711614 0.735598
O O8 0.794313 0.372329 0.725908
O O9 0.000000 0.425761 0.732747
O O10 0.832205 0.419437 0.000000
O O11 0.838508 0.836354 0.500000
O O12 0.747581 0.876521 0.221332
O O13 0.000000 0.837927 0.225065
O O14 0.648805 0.089187 0.500000
O O15 0.500000 0.080115 0.217892
O O16 0.750795 0.041231 0.261730
O O17 0.000000 0.000000 0.716156
O O18 0.849361 0.000000 0.000000
O O19 0.000000 0.317668 0.275698
O O20 0.842607 0.326714 0.000000
#
# Coordination Sequence:
#
# PCOD9385221 Si02
#       7
#     4   8   8   8   8   4   8
#     4   9  15  21  33  57  86 115 150 191 234 282
#     4  10  20  33  50  74 103 133 165 202 245 294
#     4   8  14  25  40  58  84 118 153 191 237 286
#     4   9  17  31  53  78 102 130 165 206 249 290
#     4  10  20  35  57  83 107 132 166 208 252 297
#     4  11  24  39  54  76 108 143 176 209 246 290
#     4   9  18  32  49  70  96 127 164 204 245 291
#
# _framework density 21.196016
#
# number of rings (size 3 to 8) (size 9 to 14) (size 15 to 20)
#    0.000    2.667    0.000    3.250    0.000    7.667 
#    0.000    2.500    0.000    5.000    0.000    0.583 
#    0.000    4.667    0.000    0.000    0.000    0.000 
#
# Total GULP energy -268048.188080 kJ/mol
# GULP energy per Si atom -5584.337252 kJ/mol
# Density = 2.114777 g / cm^3
# Si number density = 21.196016 Si / 1000 Ang^3
#
#
#
# Elastic Constant Matrix: (Units=GPa)
#
#
# Indices 1 2 3 4 5 6 
#
# 1 217.1855 154.4435 6.8677 0.0000 0.0000 0.0000
# 2 154.4435 221.8157 -1.7275 0.0000 0.0000 0.0000
# 3 6.8677 -1.7275 52.6126 0.0000 0.0000 0.0000
# 4 0.0000 0.0000 0.0000 14.8664 0.0000 0.0000
# 5 0.0000 0.0000 0.0000 0.0000 6.7579 0.0000
# 6 0.0000 0.0000 0.0000 0.0000 0.0000 -38.3233
#
#
#
# Elastic Compliance Matrix: (Units=1/GPa)
#
#
# Indices 1 2 3 4 5 6 
#
# 1 0.009224 -0.006433 -0.001415 0.000000 0.000000 0.000000
# 2 -0.006433 0.008996 0.001135 0.000000 0.000000 0.000000
# 3 -0.001415 0.001135 0.019229 0.000000 0.000000 0.000000
# 4 0.000000 0.000000 0.000000 0.067266 0.000000 0.000000
# 5 0.000000 0.000000 0.000000 0.000000 0.147974 0.000000
# 6 0.000000 0.000000 0.000000 0.000000 0.000000 -0.026094
#
#
# Mechanical properties :
#
#
# Convention : Reuss Voigt Hill
#
# Bulk Modulus (GPa) = 41.62800 90.08681 65.85741
# Shear Modulus (GPa) = 20.15887 18.79555 19.47721
#
# Velocity S-wave (km/s) = 3.08729 2.98106 3.03464
# Velocity P-wave (km/s) = 5.69128 7.37855 6.58914
#
# Compressibility (1/GPa) = 0.02402229
#
# Stress axis : x y z
#
# Youngs Moduli (GPa) = 108.41296 111.15469 52.00517
#
# Poissons Ratio (x) = 0.71510 0.07360
# Poissons Ratio (y) = 0.69746 -0.05903
# Poissons Ratio (z) = 0.15344 -0.12618
#
# Static dielectric constant tensor:
#      x y z
#    x 1.734740 0.000000 0.000000 
#    y 0.000000 1.730960 0.000000 
#    z 0.000000 0.000000 1.839530 
# 
# From -- ./inp_files/2683.got.cif
#   From: 2010.05.17/outbox.cif.g08.bks.cpg/sg47_2_cif.got.tgz:2683.got - 2010.06.03 20:15:42.
