data_PCOD9385901
_publ_section_title
;
Structure prediction by ZEFSAII (Michael W. Deem and Ramdas Pophale) SiO2 
 PCOD9385901
Probable space group: P M M M
;
_chemical_formula_sum "Si O2"
_cell_formula_units_Z 52
_cell_length_a 15.340778
_cell_length_b 8.330004
_cell_length_c 22.287296
_cell_angle_alpha 90.000000
_cell_angle_beta 90.000000
_cell_angle_gamma 90.000000
_cell_volume 2848.065521
_symmetry_space_group_name_H-M "P M M M"
_symmetry_group_IT_number 47
_symmetry_cell_setting 'orthorhombic'
loop_
_space_group_symop_operation_xyz
x,y,z
-x,-y,z
x,-y,-z
-x,y,-z
-x,-y,-z
x,y,-z
-x,y,z
x,-y,z
loop_
_atom_site_type_symbol
_atom_site_label
_atom_site_fract_x
_atom_site_fract_y
_atom_site_fract_z
Si Si1 0.895221 0.681873 0.000000
Si Si2 0.861036 0.811535 0.433796
Si Si3 0.090714 0.688240 0.688453
Si Si4 0.401453 0.193432 0.300230
Si Si5 0.238591 0.307899 0.229453
Si Si6 0.101586 0.190654 0.131007
Si Si7 0.348509 0.808992 0.566531
O O1 0.874414 0.769691 0.937917
O O2 0.860385 0.500000 0.000000
O O3 0.000000 0.672484 0.000000
O O4 0.890934 0.767966 0.500000
O O5 0.902728 0.709513 0.381936
O O6 0.756330 0.793446 0.432062
O O7 0.880147 0.000000 0.423611
O O8 0.090037 0.500000 0.703509
O O9 0.176715 0.758386 0.717185
O O10 0.000000 0.761118 0.710826
O O11 0.500000 0.241579 0.285241
O O12 0.333233 0.245207 0.248925
O O13 0.381216 0.253953 0.368743
O O14 0.397119 0.000000 0.303542
O O15 0.245603 0.500000 0.229933
O O16 0.178642 0.261779 0.172358
O O17 0.000000 0.249891 0.141554
O O18 0.099838 0.000000 0.139870
O O19 0.377364 0.746014 0.500000
O O20 0.369132 0.000000 0.565655
#
# Coordination Sequence:
#
# PCOD9385901 Si02
#       7
#     4   8   8   8   8   8   8
#     4   9  17  31  53  83 120 157 188 217 251 297
#     4   9  17  30  48  67  88 118 159 207 256 308
#     4  10  21  34  47  66  93 127 167 209 254 306
#     4  10  20  34  54  78 102 130 169 220 275 330
#     4  11  22  36  53  73 103 142 178 217 262 315
#     4  10  20  34  55  84 117 151 186 223 260 299
#     4   8  14  27  48  72  96 121 155 207 270 331
#
# _framework density 18.258008
#
# number of rings (size 3 to 8) (size 9 to 14) (size 15 to 20)
#    0.000    2.385    1.538    2.538    0.000    4.615 
#    0.000    3.077    0.000    0.462    0.000    1.615 
#    0.000    4.308    0.000    0.000    0.000    0.000 
#
# Total GULP energy -289521.147099 kJ/mol
# GULP energy per Si atom -5567.714367 kJ/mol
# Density = 1.821645 g / cm^3
# Si number density = 18.258008 Si / 1000 Ang^3
#
#
#
# Elastic Constant Matrix: (Units=GPa)
#
#
# Indices 1 2 3 4 5 6 
#
# 1 116.6453 24.4961 57.2016 0.0000 0.0000 0.0000
# 2 24.4961 17.9691 13.0665 0.0000 0.0000 0.0000
# 3 57.2016 13.0665 102.2226 0.0000 0.0000 0.0000
# 4 0.0000 0.0000 0.0000 20.6267 0.0000 0.0000
# 5 0.0000 0.0000 0.0000 0.0000 -91.9208 0.0000
# 6 0.0000 0.0000 0.0000 0.0000 0.0000 13.6346
#
#
#
# Elastic Compliance Matrix: (Units=1/GPa)
#
#
# Indices 1 2 3 4 5 6 
#
# 1 0.015033 -0.015850 -0.006386 0.000000 0.000000 0.000000
# 2 -0.015850 0.078065 -0.001109 0.000000 0.000000 0.000000
# 3 -0.006386 -0.001109 0.013498 0.000000 0.000000 0.000000
# 4 0.000000 0.000000 0.000000 0.048481 0.000000 0.000000
# 5 0.000000 0.000000 0.000000 0.000000 -0.010879 0.000000
# 6 0.000000 0.000000 0.000000 0.000000 0.000000 0.073343
#
#
# Mechanical properties :
#
#
# Convention : Reuss Voigt Hill
#
# Bulk Modulus (GPa) = 16.69304 47.37391 32.03347
# Shear Modulus (GPa) = 17.59318 -2.06038 7.76640
#
# Velocity S-wave (km/s) = 3.10754 -1.06345 2.06469
# Velocity P-wave (km/s) = 4.69451 4.94928 4.82358
#
# Compressibility (1/GPa) = 0.05990522
#
# Stress axis : x y z
#
# Youngs Moduli (GPa) = 66.51856 12.80982 74.08492
#
# Poissons Ratio (x) = 0.20304 0.47313
# Poissons Ratio (y) = 1.05433 0.08217
# Poissons Ratio (z) = 0.42481 0.01421
#
# Static dielectric constant tensor:
#      x y z
#    x 1.675730 0.000000 0.000000 
#    y 0.000000 1.642050 0.000000 
#    z 0.000000 0.000000 1.656720 
# 
# From -- ./inp_files/11051.got.cif
#   From: 2010.05.17/outbox.cif.g08.bks.cpg/sg47_6_cif.got.tgz:11051.got - 2010.06.03 20:15:42.
