data_PCOD9385190
_publ_section_title
;
Structure prediction by ZEFSAII (Michael W. Deem and Ramdas Pophale) SiO2 
 PCOD9385190
Probable space group: P M M M
;
_chemical_formula_sum "Si O2"
_cell_formula_units_Z 64
_cell_length_a 14.621589
_cell_length_b 28.538353
_cell_length_c 9.148993
_cell_angle_alpha 90.000000
_cell_angle_beta 90.000000
_cell_angle_gamma 90.000000
_cell_volume 3817.655828
_symmetry_space_group_name_H-M "P M M M"
_symmetry_group_IT_number 47
_symmetry_cell_setting 'orthorhombic'
loop_
_space_group_symop_operation_xyz
x,y,z
-x,-y,z
x,-y,-z
-x,y,-z
-x,-y,-z
x,y,-z
-x,y,z
x,-y,z
loop_
_atom_site_type_symbol
_atom_site_label
_atom_site_fract_x
_atom_site_fract_y
_atom_site_fract_z
Si Si1 0.609490 0.781902 0.329409
Si Si2 0.894704 0.813345 0.173947
Si Si3 0.605381 0.945584 0.675623
Si Si4 0.894036 0.555748 0.672702
Si Si5 0.222339 0.633191 0.825976
Si Si6 0.607065 0.327022 0.674773
Si Si7 0.109433 0.284948 0.670665
Si Si8 0.284256 0.864438 0.173516
O O1 0.634003 0.789471 0.500000
O O2 0.500000 0.788130 0.317613
O O3 0.629134 0.727669 0.292599
O O4 0.660735 0.819019 0.230100
O O5 0.872294 0.766378 0.263517
O O6 0.821589 0.853429 0.208111
O O7 0.000000 0.826092 0.204400
O O8 0.887366 0.802931 0.000000
O O9 0.611158 0.941477 0.500000
O O10 0.500000 0.934266 0.716585
O O11 0.674027 0.909720 0.749502
O O12 0.622167 0.000000 0.713611
O O13 0.881392 0.566189 0.500000
O O14 0.882357 0.500000 0.692268
O O15 0.825148 0.586217 0.766835
O O16 0.000000 0.567218 0.708588
O O17 0.323676 0.640502 0.761854
O O18 0.162638 0.675825 0.760120
O O19 0.222578 0.634700 0.000000
O O20 0.618490 0.333041 0.500000
O O21 0.500000 0.334606 0.708541
O O22 0.135519 0.287019 0.500000
O O23 0.000000 0.292830 0.681155
O O24 0.294241 0.868895 0.000000
#
# Coordination Sequence:
#
# PCOD9385190 Si02
#       8
#     8   8   8   8   8   8   8   8
#     4   9  18  32  49  70  98 132 166 199 239 288
#     4   9  19  35  50  67  98 135 167 202 246 294
#     4   9  19  36  55  73  95 125 158 192 237 293
#     4   9  19  37  59  80 102 130 166 208 251 296
#     4  12  23  32  49  77 107 138 168 202 251 307
#     4   9  19  36  55  73  97 134 178 218 251 286
#     4  10  20  33  50  73 101 134 174 215 249 287
#     4  11  21  30  47  75 100 126 161 199 242 290
#
# _framework density 16.764215
#
# number of rings (size 3 to 8) (size 9 to 14) (size 15 to 20)
#    0.000    2.250    0.000    4.875    0.000    8.750 
#    0.000    2.500    0.000    0.750    0.000    5.250 
#    0.000    0.000    0.000    0.000    0.000    0.000 
#
# Total GULP energy -357340.515292 kJ/mol
# GULP energy per Si atom -5583.445551 kJ/mol
# Density = 1.672606 g / cm^3
# Si number density = 16.764215 Si / 1000 Ang^3
#
#
#
# Elastic Constant Matrix: (Units=GPa)
#
#
# Indices 1 2 3 4 5 6 
#
# 1 87.1668 66.9264 59.6083 0.0000 0.0000 0.0000
# 2 66.9264 75.5938 56.7525 0.0000 0.0000 0.0000
# 3 59.6083 56.7525 70.9505 0.0000 0.0000 0.0000
# 4 0.0000 0.0000 0.0000 5.9865 0.0000 0.0000
# 5 0.0000 0.0000 0.0000 0.0000 22.3528 0.0000
# 6 0.0000 0.0000 0.0000 0.0000 0.0000 31.9958
#
#
#
# Elastic Compliance Matrix: (Units=1/GPa)
#
#
# Indices 1 2 3 4 5 6 
#
# 1 0.040288 -0.025677 -0.013309 0.000000 0.000000 0.000000
# 2 -0.025677 0.049480 -0.018006 0.000000 0.000000 0.000000
# 3 -0.013309 -0.018006 0.039678 0.000000 0.000000 0.000000
# 4 0.000000 0.000000 0.000000 0.167042 0.000000 0.000000
# 5 0.000000 0.000000 0.000000 0.000000 0.044737 0.000000
# 6 0.000000 0.000000 0.000000 0.000000 0.000000 0.031254
#
#
# Mechanical properties :
#
#
# Convention : Reuss Voigt Hill
#
# Bulk Modulus (GPa) = 64.67267 66.69841 65.68554
# Shear Modulus (GPa) = 10.17051 15.42862 12.79957
#
# Velocity S-wave (km/s) = 2.46576 3.03699 2.76616
# Velocity P-wave (km/s) = 6.83873 7.22290 7.03344
#
# Compressibility (1/GPa) = 0.01546248
#
# Stress axis : x y z
#
# Youngs Moduli (GPa) = 24.82114 20.21033 25.20265
#
# Poissons Ratio (x) = 0.51894 0.33542
# Poissons Ratio (y) = 0.63734 0.45380
# Poissons Ratio (z) = 0.33034 0.36390
#
# Static dielectric constant tensor:
#      x y z
#    x 1.578920 0.000000 0.000000 
#    y 0.000000 1.542650 0.000000 
#    z 0.000000 0.000000 1.552630 
# 
# From -- ./inp_files/7957.got.cif
#   From: 2010.05.17/outbox.cif.g08.bks.cpg/sg47_4_cif.got.tgz:7957.got - 2010.06.03 20:15:42.
