data_PCOD9385952
_publ_section_title
;
Structure prediction by ZEFSAII (Michael W. Deem and Ramdas Pophale) SiO2 
 PCOD9385952
Probable space group: P M M M
;
_chemical_formula_sum "Si O2"
_cell_formula_units_Z 48
_cell_length_a 7.897022
_cell_length_b 32.373210
_cell_length_c 9.420626
_cell_angle_alpha 90.000000
_cell_angle_beta 90.000000
_cell_angle_gamma 90.000000
_cell_volume 2408.401422
_symmetry_space_group_name_H-M "P M M M"
_symmetry_group_IT_number 47
_symmetry_cell_setting 'orthorhombic'
loop_
_space_group_symop_operation_xyz
x,y,z
-x,-y,z
x,-y,-z
-x,y,-z
-x,-y,-z
x,y,-z
-x,y,z
x,-y,z
loop_
_atom_site_type_symbol
_atom_site_label
_atom_site_fract_x
_atom_site_fract_y
_atom_site_fract_z
Si Si1 0.792679 0.500000 0.164159
Si Si2 0.295577 0.661947 0.838197
Si Si3 0.702903 0.740549 0.337353
Si Si4 0.302594 0.000000 0.826657
Si Si5 0.704228 0.089182 0.838171
Si Si6 0.795816 0.419371 0.662618
Si Si7 0.798265 0.169161 0.339177
O O1 0.736771 0.540834 0.248406
O O2 0.000000 0.500000 0.163378
O O3 0.738106 0.500000 0.000000
O O4 0.500000 0.664304 0.844086
O O5 0.232658 0.703472 0.760442
O O6 0.250464 0.622257 0.744836
O O7 0.232942 0.658291 0.000000
O O8 0.768806 0.737644 0.500000
O O9 0.500000 0.736458 0.344682
O O10 0.740698 0.786416 0.281017
O O11 0.230006 0.044547 0.783218
O O12 0.500000 0.000000 0.782646
O O13 0.299742 0.000000 0.000000
O O14 0.500000 0.085755 0.842881
O O15 0.747037 0.129064 0.747782
O O16 0.764580 0.094654 0.000000
O O17 0.733299 0.419377 0.500000
O O18 0.000000 0.421790 0.657023
O O19 0.729472 0.166177 0.500000
O O20 0.000000 0.170152 0.345281
#
# Coordination Sequence:
#
# PCOD9385952 Si02
#       7
#     4   8   8   4   8   8   8
#     4   9  17  31  52  77 106 139 174 214 258 301
#     4  10  21  36  54  78 107 135 165 207 258 307
#     4   9  18  34  54  72  94 130 172 209 247 296
#     4   7  12  26  48  73  98 124 160 207 252 293
#     4   9  17  31  53  77  99 127 166 210 253 298
#     4  10  20  34  54  79 106 138 176 214 252 299
#     4  10  21  35  50  72 104 137 167 203 249 300
#
# _framework density 19.930232
#
# number of rings (size 3 to 8) (size 9 to 14) (size 15 to 20)
#    0.000    2.667    0.000    2.750    0.000    5.667 
#    0.000    4.583    0.000    6.500    0.000    0.000 
#    0.000    0.000    0.000    0.000    0.000    0.000 
#
# Total GULP energy -267745.386965 kJ/mol
# GULP energy per Si atom -5578.028895 kJ/mol
# Density = 1.988487 g / cm^3
# Si number density = 19.930232 Si / 1000 Ang^3
#
#
#
# Elastic Constant Matrix: (Units=GPa)
#
#
# Indices 1 2 3 4 5 6 
#
# 1 18.4064 5.0557 7.9382 0.0000 0.0000 0.0000
# 2 5.0557 241.8355 117.5057 0.0000 0.0000 0.0000
# 3 7.9382 117.5057 132.6523 0.0000 0.0000 0.0000
# 4 0.0000 0.0000 0.0000 37.5968 0.0000 0.0000
# 5 0.0000 0.0000 0.0000 0.0000 87.6338 0.0000
# 6 0.0000 0.0000 0.0000 0.0000 0.0000 30.9346
#
#
#
# Elastic Compliance Matrix: (Units=1/GPa)
#
#
# Indices 1 2 3 4 5 6 
#
# 1 0.055856 0.000801 -0.004052 0.000000 0.000000 0.000000
# 2 0.000801 0.007271 -0.006489 0.000000 0.000000 0.000000
# 3 -0.004052 -0.006489 0.013529 0.000000 0.000000 0.000000
# 4 0.000000 0.000000 0.000000 0.026598 0.000000 0.000000
# 5 0.000000 0.000000 0.000000 0.000000 0.011411 0.000000
# 6 0.000000 0.000000 0.000000 0.000000 0.000000 0.032326
#
#
# Mechanical properties :
#
#
# Convention : Reuss Voigt Hill
#
# Bulk Modulus (GPa) = 17.48966 72.65484 45.07225
# Shear Modulus (GPa) = 26.94971 48.72601 37.83786
#
# Velocity S-wave (km/s) = 3.68122 4.94989 4.36192
# Velocity P-wave (km/s) = 5.18295 8.31879 6.93056
#
# Compressibility (1/GPa) = 0.05717663
#
# Stress axis : x y z
#
# Youngs Moduli (GPa) = 17.90306 137.52909 73.91535
#
# Poissons Ratio (x) = -0.11020 0.29953
# Poissons Ratio (y) = -0.01435 0.47963
# Poissons Ratio (z) = 0.07255 0.89241
#
# Static dielectric constant tensor:
#      x y z
#    x 1.733310 0.000000 0.000000 
#    y 0.000000 1.697980 0.000000 
#    z 0.000000 0.000000 1.699340 
# 
# From -- ./inp_files/2583.got.cif
#   From: 2010.05.17/outbox.cif.g08.bks.cpg/sg47_2_cif.got.tgz:2583.got - 2010.06.03 20:15:42.
