data_PCOD9385601
_publ_section_title
;
Structure prediction by ZEFSAII (Michael W. Deem and Ramdas Pophale) SiO2 
 PCOD9385601
Probable space group: P M M M
;
_chemical_formula_sum "Si O2"
_cell_formula_units_Z 52
_cell_length_a 8.729670
_cell_length_b 23.963123
_cell_length_c 14.765398
_cell_angle_alpha 90.000000
_cell_angle_beta 90.000000
_cell_angle_gamma 90.000000
_cell_volume 3088.775910
_symmetry_space_group_name_H-M "P M M M"
_symmetry_group_IT_number 47
_symmetry_cell_setting 'orthorhombic'
loop_
_space_group_symop_operation_xyz
x,y,z
-x,-y,z
x,-y,-z
-x,y,-z
-x,-y,-z
x,y,-z
-x,y,z
x,-y,z
loop_
_atom_site_type_symbol
_atom_site_label
_atom_site_fract_x
_atom_site_fract_y
_atom_site_fract_z
Si Si1 0.316707 0.381924 0.606029
Si Si2 0.685208 0.173196 0.605653
Si Si3 0.313012 0.938488 0.708540
Si Si4 0.181930 0.721870 0.285415
Si Si5 0.313956 0.106703 0.899925
Si Si6 0.176384 0.500000 0.609837
Si Si7 0.315774 0.761991 0.102764
O O1 0.271549 0.374196 0.500000
O O2 0.500000 0.380295 0.609946
O O3 0.248230 0.332678 0.665844
O O4 0.258355 0.442694 0.636927
O O5 0.724896 0.177334 0.500000
O O6 0.500000 0.176661 0.613576
O O7 0.734125 0.113686 0.647130
O O8 0.755283 0.223827 0.661944
O O9 0.500000 0.938276 0.708213
O O10 0.262857 0.927020 0.812060
O O11 0.263406 0.000000 0.678372
O O12 0.237455 0.727718 0.182066
O O13 0.000000 0.721003 0.289655
O O14 0.500000 0.103554 0.901280
O O15 0.276116 0.172173 0.887471
O O16 0.260505 0.088667 0.000000
O O17 0.179647 0.500000 0.500000
O O18 0.000000 0.500000 0.639014
O O19 0.500000 0.758221 0.112192
O O20 0.275577 0.745382 0.000000
#
# Coordination Sequence:
#
# PCOD9385601 Si02
#       7
#     8   8   8   8   8   4   8
#     4  10  20  34  53  77 107 145 185 219 253 298
#     4  10  20  34  50  67  93 129 169 214 261 310
#     4   9  16  26  43  68  95 121 156 206 260 312
#     4  12  23  33  50  76 105 134 168 214 261 307
#     4   8  13  23  42  67  93 119 148 191 249 308
#     4   9  17  31  51  77 112 147 178 215 257 299
#     4   9  17  32  54  75  98 130 165 203 251 309
#
# _framework density 16.835149000000001
#
# number of rings (size 3 to 8) (size 9 to 14) (size 15 to 20)
#    0.000    2.385    1.538    3.462    0.000    4.923 
#    0.000    3.077    0.000    0.462    0.000    1.615 
#    0.000    6.769    0.000    0.000    0.000    0.000 
#
# Total GULP energy -290030.911803 kJ/mol
# GULP energy per Si atom -5577.517535 kJ/mol
# Density = 1.679683 g / cm^3
# Si number density = 16.835149 Si / 1000 Ang^3
#
#
#
# Elastic Constant Matrix: (Units=GPa)
#
#
# Indices 1 2 3 4 5 6 
#
# 1 33.7860 38.0838 38.9231 0.0000 0.0000 0.0000
# 2 38.0838 136.5659 71.0838 0.0000 0.0000 0.0000
# 3 38.9231 71.0838 102.2343 0.0000 0.0000 0.0000
# 4 0.0000 0.0000 0.0000 22.3912 0.0000 0.0000
# 5 0.0000 0.0000 0.0000 0.0000 9.3204 0.0000
# 6 0.0000 0.0000 0.0000 0.0000 0.0000 -25.2364
#
#
#
# Elastic Compliance Matrix: (Units=1/GPa)
#
#
# Indices 1 2 3 4 5 6 
#
# 1 0.056904 -0.007196 -0.016661 0.000000 0.000000 0.000000
# 2 -0.007196 0.012386 -0.005872 0.000000 0.000000 0.000000
# 3 -0.016661 -0.005872 0.020208 0.000000 0.000000 0.000000
# 4 0.000000 0.000000 0.000000 0.044660 0.000000 0.000000
# 5 0.000000 0.000000 0.000000 0.000000 0.107292 0.000000
# 6 0.000000 0.000000 0.000000 0.000000 0.000000 -0.039625
#
#
# Mechanical properties :
#
#
# Convention : Reuss Voigt Hill
#
# Bulk Modulus (GPa) = 33.29064 63.19640 48.24352
# Shear Modulus (GPa) = 18.43003 9.59475 14.01239
#
# Velocity S-wave (km/s) = 3.31227 2.38990 2.88814
# Velocity P-wave (km/s) = 5.86904 6.72572 6.31193
#
# Compressibility (1/GPa) = 0.03003847
#
# Stress axis : x y z
#
# Youngs Moduli (GPa) = 17.57335 80.73791 49.48641
#
# Poissons Ratio (x) = 0.58103 0.82450
# Poissons Ratio (y) = 0.12647 0.29058
# Poissons Ratio (z) = 0.29279 0.47409
#
# Static dielectric constant tensor:
#      x y z
#    x 1.565570 0.000000 0.000000 
#    y 0.000000 1.553530 0.000000 
#    z 0.000000 0.000000 1.570800 
# 
# From -- ./inp_files/21399.got.cif
#   From: 2010.05.17/outbox.cif.g08.bks.cpg/sg47_11_cif.got.tgz:21399.got - 2010.06.03 20:15:42.
