data_PCOD9385651
_publ_section_title
;
Structure prediction by ZEFSAII (Michael W. Deem and Ramdas Pophale) SiO2 
 PCOD9385651
Probable space group: P M M M
;
_chemical_formula_sum "Si O2"
_cell_formula_units_Z 56
_cell_length_a 14.508916
_cell_length_b 20.074223
_cell_length_c 10.337746
_cell_angle_alpha 90.000000
_cell_angle_beta 90.000000
_cell_angle_gamma 90.000000
_cell_volume 3010.922437
_symmetry_space_group_name_H-M "P M M M"
_symmetry_group_IT_number 47
_symmetry_cell_setting 'orthorhombic'
loop_
_space_group_symop_operation_xyz
x,y,z
-x,-y,z
x,-y,-z
-x,y,-z
-x,-y,-z
x,y,-z
-x,y,z
x,-y,z
loop_
_atom_site_type_symbol
_atom_site_label
_atom_site_fract_x
_atom_site_fract_y
_atom_site_fract_z
Si Si1 0.755296 0.922150 0.647415
Si Si2 0.604480 0.081217 0.853568
Si Si3 0.390432 0.338048 0.752846
Si Si4 0.892888 0.574600 0.843534
Si Si5 0.890553 0.804005 0.353710
Si Si6 0.212747 0.710535 0.156907
Si Si7 0.611307 0.576289 0.500000
Si Si8 0.390357 0.571717 0.000000
O O1 0.719889 0.916824 0.500000
O O2 0.678663 0.898222 0.748426
O O3 0.844691 0.876536 0.657498
O O4 0.775239 0.000000 0.671795
O O5 0.500000 0.103190 0.824898
O O6 0.603281 0.000000 0.852752
O O7 0.627987 0.102151 0.000000
O O8 0.500000 0.320395 0.750894
O O9 0.315793 0.281741 0.784184
O O10 0.366683 0.379792 0.625202
O O11 0.372001 0.387283 0.872721
O O12 0.865464 0.500000 0.798363
O O13 0.827697 0.636579 0.810568
O O14 0.000000 0.586253 0.803683
O O15 0.893196 0.572656 0.000000
O O16 0.866030 0.778731 0.500000
O O17 0.851251 0.760311 0.236927
O O18 0.000000 0.807062 0.346187
O O19 0.211930 0.718716 0.000000
O O20 0.647216 0.500000 0.500000
O O21 0.500000 0.570323 0.500000
O O22 0.343696 0.500000 0.000000
O O23 0.500000 0.563384 0.000000
#
# Coordination Sequence:
#
# PCOD9385651 Si02
#       8
#     8   8   8   8   8   8   4   4
#     4   9  18  34  58  88 117 146 186 234 279 331
#     4   8  14  26  47  78 118 159 190 218 260 315
#     4  10  20  34  51  76 110 149 190 235 282 330
#     4   8  15  29  49  74 102 131 171 226 278 319
#     4  10  23  42  62  83 111 146 183 229 288 352
#     4  11  22  36  57  83 109 148 191 233 278 337
#     4   9  18  32  50  74 107 149 192 231 279 337
#     4   9  16  28  48  74 107 145 184 229 279 327
#
# _framework density 18.598952000000001
#
# number of rings (size 3 to 8) (size 9 to 14) (size 15 to 20)
#    0.000    2.714    0.714    1.714    1.000    4.857 
#    0.000    3.571    0.000    0.857    0.000    5.000 
#    0.000    0.000    0.000    0.000    0.000    0.000 
#
# Total GULP energy -311946.046852 kJ/mol
# GULP energy per Si atom -5570.465122 kJ/mol
# Density = 1.855662 g / cm^3
# Si number density = 18.598952 Si / 1000 Ang^3
#
#
#
# Elastic Constant Matrix: (Units=GPa)
#
#
# Indices 1 2 3 4 5 6 
#
# 1 99.2415 39.5777 55.7890 0.0000 0.0000 0.0000
# 2 39.5777 51.1775 40.1797 0.0000 0.0000 0.0000
# 3 55.7890 40.1797 117.2614 0.0000 0.0000 0.0000
# 4 0.0000 0.0000 0.0000 26.6397 0.0000 0.0000
# 5 0.0000 0.0000 0.0000 0.0000 30.5565 0.0000
# 6 0.0000 0.0000 0.0000 0.0000 0.0000 18.1786
#
#
#
# Elastic Compliance Matrix: (Units=1/GPa)
#
#
# Indices 1 2 3 4 5 6 
#
# 1 0.016258 -0.008893 -0.004688 0.000000 0.000000 0.000000
# 2 -0.008893 0.031595 -0.006595 0.000000 0.000000 0.000000
# 3 -0.004688 -0.006595 0.013018 0.000000 0.000000 0.000000
# 4 0.000000 0.000000 0.000000 0.037538 0.000000 0.000000
# 5 0.000000 0.000000 0.000000 0.000000 0.032726 0.000000
# 6 0.000000 0.000000 0.000000 0.000000 0.000000 0.055010
#
#
# Mechanical properties :
#
#
# Convention : Reuss Voigt Hill
#
# Bulk Modulus (GPa) = 48.73397 59.86369 54.29883
# Shear Modulus (GPa) = 21.42828 23.88390 22.65609
#
# Velocity S-wave (km/s) = 3.39798 3.58740 3.49397
# Velocity P-wave (km/s) = 6.45402 7.02963 6.74797
#
# Compressibility (1/GPa) = 0.02051957
#
# Stress axis : x y z
#
# Youngs Moduli (GPa) = 61.50745 31.65088 76.81543
#
# Poissons Ratio (x) = 0.28146 0.36012
# Poissons Ratio (y) = 0.54696 0.50661
# Poissons Ratio (z) = 0.28835 0.20874
#
# Static dielectric constant tensor:
#      x y z
#    x 1.662040 0.000000 0.000000 
#    y 0.000000 1.693270 0.000000 
#    z 0.000000 0.000000 1.621990 
# 
# From -- ./inp_files/7433.got.cif
#   From: 2010.05.17/outbox.cif.g08.bks.cpg/sg47_4_cif.got.tgz:7433.got - 2010.06.03 20:15:42.
