data_PCOD9385687
_publ_section_title
;
Structure prediction by ZEFSAII (Michael W. Deem and Ramdas Pophale) SiO2 
 PCOD9385687
Probable space group: P M M M
;
_chemical_formula_sum "Si O2"
_cell_formula_units_Z 52
_cell_length_a 7.774547
_cell_length_b 19.761505
_cell_length_c 16.212016
_cell_angle_alpha 90.000000
_cell_angle_beta 90.000000
_cell_angle_gamma 90.000000
_cell_volume 2490.761440
_symmetry_space_group_name_H-M "P M M M"
_symmetry_group_IT_number 47
_symmetry_cell_setting 'orthorhombic'
loop_
_space_group_symop_operation_xyz
x,y,z
-x,-y,z
x,-y,-z
-x,y,-z
-x,-y,-z
x,y,-z
-x,y,z
x,-y,z
loop_
_atom_site_type_symbol
_atom_site_label
_atom_site_fract_x
_atom_site_fract_y
_atom_site_fract_z
Si Si1 0.802849 0.075326 0.229001
Si Si2 0.701809 0.574048 0.342592
Si Si3 0.796157 0.362492 0.824616
Si Si4 0.705958 0.422900 0.000000
Si Si5 0.696399 0.081090 0.589108
Si Si6 0.291926 0.717737 0.408003
Si Si7 0.206233 0.781517 0.763435
O O1 0.802773 0.087765 0.327855
O O2 0.722552 0.147054 0.202269
O O3 0.000000 0.071909 0.199903
O O4 0.725528 0.000000 0.214456
O O5 0.500000 0.571641 0.364317
O O6 0.776481 0.500000 0.361966
O O7 0.716368 0.588924 0.244849
O O8 0.772186 0.641726 0.385891
O O9 0.730102 0.286261 0.808569
O O10 0.000000 0.362505 0.808539
O O11 0.764002 0.386615 0.916673
O O12 0.770848 0.500000 0.000000
O O13 0.500000 0.424310 0.000000
O O14 0.761536 0.105645 0.500000
O O15 0.500000 0.107174 0.600366
O O16 0.682363 0.000000 0.582117
O O17 0.235369 0.736216 0.500000
O O18 0.500000 0.716138 0.407548
O O19 0.239854 0.766634 0.333402
O O20 0.000000 0.785039 0.773982
#
# Coordination Sequence:
#
# PCOD9385687 Si02
#       7
#     8   8   8   4   8   8   8
#     4   9  17  29  45  64  85 112 150 194 237 281
#     4   9  17  30  48  69  95 126 159 199 244 283
#     4  10  20  34  52  74 101 131 160 189 226 277
#     4  11  23  37  55  81 110 133 154 184 221 265
#     4   8  14  24  36  52  78 110 143 185 238 288
#     4   9  18  31  46  65  89 122 166 208 244 286
#     4   9  19  34  49  67  94 127 160 197 242 286
#
# _framework density 20.87715
#
# number of rings (size 3 to 8) (size 9 to 14) (size 15 to 20)
#    0.000    2.846    0.000    1.615    0.000    5.538 
#    0.000    6.154    0.000    0.000    0.000    4.846 
#    0.000    4.308    0.000    0.000    0.000    0.000 
#
# Total GULP energy -289733.068048 kJ/mol
# GULP energy per Si atom -5571.789770 kJ/mol
# Density = 2.082963 g / cm^3
# Si number density = 20.877150 Si / 1000 Ang^3
#
#
#
# Elastic Constant Matrix: (Units=GPa)
#
#
# Indices 1 2 3 4 5 6 
#
# 1 32.9996 2.0940 -11.2271 0.0000 0.0000 0.0000
# 2 2.0940 193.5787 26.7069 0.0000 0.0000 0.0000
# 3 -11.2271 26.7069 55.2525 0.0000 0.0000 0.0000
# 4 0.0000 0.0000 0.0000 3.0299 0.0000 0.0000
# 5 0.0000 0.0000 0.0000 0.0000 -39.7874 0.0000
# 6 0.0000 0.0000 0.0000 0.0000 0.0000 3.3092
#
#
#
# Elastic Compliance Matrix: (Units=1/GPa)
#
#
# Indices 1 2 3 4 5 6 
#
# 1 0.032889 -0.001369 0.007345 0.000000 0.000000 0.000000
# 2 -0.001369 0.005592 -0.002981 0.000000 0.000000 0.000000
# 3 0.007345 -0.002981 0.021032 0.000000 0.000000 0.000000
# 4 0.000000 0.000000 0.000000 0.330049 0.000000 0.000000
# 5 0.000000 0.000000 0.000000 0.000000 -0.025134 0.000000
# 6 0.000000 0.000000 0.000000 0.000000 0.000000 0.302184
#
#
# Mechanical properties :
#
#
# Convention : Reuss Voigt Hill
#
# Bulk Modulus (GPa) = 15.26665 35.21981 25.24323
# Shear Modulus (GPa) = 7.32646 10.92748 9.12697
#
# Velocity S-wave (km/s) = 1.87535 2.29032 2.09314
# Velocity P-wave (km/s) = 3.46666 4.88884 4.23783
#
# Compressibility (1/GPa) = 0.06550225
#
# Stress axis : x y z
#
# Youngs Moduli (GPa) = 30.40519 178.82837 47.54631
#
# Poissons Ratio (x) = 0.24483 -0.34921
# Poissons Ratio (y) = 0.04163 0.14174
# Poissons Ratio (z) = -0.22332 0.53311
#
# Static dielectric constant tensor:
#      x y z
#    x 1.782890 0.000000 0.000000 
#    y 0.000000 1.845590 0.000000 
#    z 0.000000 0.000000 1.716910 
# 
# From -- ./inp_files/21459.got.cif
#   From: 2010.05.17/outbox.cif.g08.bks.cpg/sg47_11_cif.got.tgz:21459.got - 2010.06.03 20:15:42.
