data_PCOD9385340
_publ_section_title
;
Structure prediction by ZEFSAII (Michael W. Deem and Ramdas Pophale) SiO2 
 PCOD9385340
Probable space group: P M M M
;
_chemical_formula_sum "Si O2"
_cell_formula_units_Z 33
_cell_length_a 7.595501
_cell_length_b 24.641964
_cell_length_c 8.417083
_cell_angle_alpha 90.000000
_cell_angle_beta 90.000000
_cell_angle_gamma 90.000000
_cell_volume 1575.409115
_symmetry_space_group_name_H-M "P M M M"
_symmetry_group_IT_number 47
_symmetry_cell_setting 'orthorhombic'
loop_
_space_group_symop_operation_xyz
x,y,z
-x,-y,z
x,-y,-z
-x,y,-z
-x,-y,-z
x,y,-z
-x,y,z
x,-y,z
loop_
_atom_site_type_symbol
_atom_site_label
_atom_site_fract_x
_atom_site_fract_y
_atom_site_fract_z
Si Si1 0.710455 0.613603 0.676005
Si Si2 0.715434 0.500000 0.817010
Si Si3 0.500000 0.916582 0.186619
Si Si4 0.788947 0.271861 0.823964
Si Si5 0.500000 0.000000 0.500000
Si Si6 0.791444 0.840085 0.314864
O O1 0.780626 0.623671 0.500000
O O2 0.500000 0.607433 0.667635
O O3 0.777904 0.556113 0.739990
O O4 0.741668 0.667220 0.777137
O O5 0.500000 0.500000 0.808918
O O6 0.764908 0.500000 0.000000
O O7 0.500000 0.953926 0.349584
O O8 0.672421 0.879061 0.209144
O O9 0.500000 0.937326 0.000000
O O10 0.734705 0.222562 0.710951
O O11 0.000000 0.270605 0.825896
O O12 0.721862 0.259839 0.000000
O O13 0.770178 0.853958 0.500000
O O14 0.000000 0.844850 0.276317
#
# Coordination Sequence:
#
# PCOD9385340 Si02
#       6
#     8   4   4   8   1   8
#     4  10  20  33  51  76 106 145 191 243 303 372
#     4   9  17  31  50  71 100 139 186 242 300 363
#     4  12  25  45  75 104 141 186 225 274 331 383
#     4  10  21  36  55  83 118 154 199 254 311 373
#     4  12  26  52  70 110 148 178 234 282 310 386
#     4  10  21  41  68  98 136 179 223 275 332 393
#
# _framework density 20.946940000000001
#
# number of rings (size 3 to 8) (size 9 to 14) (size 15 to 20)
#    0.000    1.818    1.212    2.727    1.697    5.818 
#    0.000    1.818    0.000    5.091    0.000    0.000 
#    0.000    0.000    0.000    0.000    0.000    0.000 
#
# Total GULP energy -183782.933519 kJ/mol
# GULP energy per Si atom -5569.179804 kJ/mol
# Density = 2.089926 g / cm^3
# Si number density = 20.946940 Si / 1000 Ang^3
#
#
#
# Elastic Constant Matrix: (Units=GPa)
#
#
# Indices 1 2 3 4 5 6 
#
# 1 60.8931 28.5293 28.4169 0.0000 0.0000 0.0000
# 2 28.5293 123.2997 38.0370 0.0000 0.0000 0.0000
# 3 28.4169 38.0370 111.7411 0.0000 0.0000 0.0000
# 4 0.0000 0.0000 0.0000 18.0039 0.0000 0.0000
# 5 0.0000 0.0000 0.0000 0.0000 7.4573 0.0000
# 6 0.0000 0.0000 0.0000 0.0000 0.0000 42.1754
#
#
#
# Elastic Compliance Matrix: (Units=1/GPa)
#
#
# Indices 1 2 3 4 5 6 
#
# 1 0.019824 -0.003387 -0.003888 0.000000 0.000000 0.000000
# 2 -0.003387 0.009641 -0.002420 0.000000 0.000000 0.000000
# 3 -0.003888 -0.002420 0.010762 0.000000 0.000000 0.000000
# 4 0.000000 0.000000 0.000000 0.055544 0.000000 0.000000
# 5 0.000000 0.000000 0.000000 0.000000 0.134097 0.000000
# 6 0.000000 0.000000 0.000000 0.000000 0.000000 0.023711
#
#
# Mechanical properties :
#
#
# Convention : Reuss Voigt Hill
#
# Bulk Modulus (GPa) = 47.99717 53.98892 50.99304
# Shear Modulus (GPa) = 17.86262 26.92404 22.39333
#
# Velocity S-wave (km/s) = 2.92337 3.58906 3.27318
# Velocity P-wave (km/s) = 5.86159 6.55784 6.21946
#
# Compressibility (1/GPa) = 0.02083456
#
# Stress axis : x y z
#
# Youngs Moduli (GPa) = 50.44446 103.72657 92.91975
#
# Poissons Ratio (x) = 0.35136 0.36130
# Poissons Ratio (y) = 0.17087 0.22489
# Poissons Ratio (z) = 0.19614 0.25105
#
# Static dielectric constant tensor:
#      x y z
#    x 1.776520 0.000000 0.000000 
#    y 0.000000 1.802060 0.000000 
#    z 0.000000 0.000000 1.779030 
# 
# From -- ./inp_files/1141.got.cif
#   From: 2010.05.17/outbox.cif.g08.bks.cpg/sg47_1_cif.got.tgz:1141.got - 2010.06.03 20:15:42.
