data_PCOD9385538
_publ_section_title
;
Structure prediction by ZEFSAII (Michael W. Deem and Ramdas Pophale) SiO2 
 PCOD9385538
Probable space group: P M M M
;
_chemical_formula_sum "Si O2"
_cell_formula_units_Z 52
_cell_length_a 7.492133
_cell_length_b 23.295665
_cell_length_c 13.165717
_cell_angle_alpha 90.000000
_cell_angle_beta 90.000000
_cell_angle_gamma 90.000000
_cell_volume 2297.868154
_symmetry_space_group_name_H-M "P M M M"
_symmetry_group_IT_number 47
_symmetry_cell_setting 'orthorhombic'
loop_
_space_group_symop_operation_xyz
x,y,z
-x,-y,z
x,-y,-z
-x,y,-z
-x,-y,-z
x,y,-z
-x,y,z
x,-y,z
loop_
_atom_site_type_symbol
_atom_site_label
_atom_site_fract_x
_atom_site_fract_y
_atom_site_fract_z
Si Si1 0.286392 0.860197 0.688808
Si Si2 0.792004 0.438001 0.171073
Si Si3 0.214218 0.065162 0.115230
Si Si4 0.296478 0.733670 0.675412
Si Si5 0.281546 0.065035 0.500000
Si Si6 0.783084 0.686547 0.111143
Si Si7 0.716758 0.609088 0.612087
O O1 0.500000 0.855075 0.679546
O O2 0.256234 0.888110 0.799066
O O3 0.213508 0.796445 0.666035
O O4 0.222533 0.902806 0.601423
O O5 0.712900 0.500000 0.145249
O O6 0.720366 0.379504 0.122839
O O7 0.780848 0.427553 0.292376
O O8 0.000000 0.439773 0.141868
O O9 0.000000 0.062693 0.110984
O O10 0.276777 0.000000 0.141871
O O11 0.276850 0.078322 0.000000
O O12 0.500000 0.736225 0.636713
O O13 0.294914 0.721310 0.795746
O O14 0.219705 0.675147 0.627797
O O15 0.500000 0.065157 0.500000
O O16 0.221663 0.000000 0.500000
O O17 0.000000 0.687099 0.121234
O O18 0.737180 0.708596 0.000000
O O19 0.768181 0.588787 0.500000
O O20 0.500000 0.609323 0.617794
#
# Coordination Sequence:
#
# PCOD9385538 Si02
#       7
#     8   8   8   8   4   8   8
#     4  10  20  33  53  79 105 134 170 212 255 303
#     4   9  18  32  49  71  98 125 158 202 248 294
#     4   9  19  36  55  74 100 135 171 208 253 303
#     4   9  19  33  49  72  99 128 162 202 244 288
#     4   9  18  32  51  77 107 135 164 205 256 304
#     4   9  18  33  52  72  96 129 165 201 245 295
#     4   9  18  32  50  69  93 128 165 200 240 288
#
# _framework density 22.629670000000001
#
# number of rings (size 3 to 8) (size 9 to 14) (size 15 to 20)
#    0.000    2.846    0.000    0.923    1.077    4.000 
#    0.000    7.308    0.000    1.385    0.000    4.308 
#    0.000    0.000    0.000    0.000    0.000    0.000 
#
# Total GULP energy -290199.780807 kJ/mol
# GULP energy per Si atom -5580.765016 kJ/mol
# Density = 2.257816 g / cm^3
# Si number density = 22.629670 Si / 1000 Ang^3
#
#
#
# Elastic Constant Matrix: (Units=GPa)
#
#
# Indices 1 2 3 4 5 6 
#
# 1 65.3196 1.1383 -7.9483 0.0000 0.0000 0.0000
# 2 1.1383 100.4305 -7.5407 0.0000 0.0000 0.0000
# 3 -7.9483 -7.5407 64.9987 0.0000 0.0000 0.0000
# 4 0.0000 0.0000 0.0000 -12.7500 0.0000 0.0000
# 5 0.0000 0.0000 0.0000 0.0000 20.2878 0.0000
# 6 0.0000 0.0000 0.0000 0.0000 0.0000 20.3106
#
#
#
# Elastic Compliance Matrix: (Units=1/GPa)
#
#
# Indices 1 2 3 4 5 6 
#
# 1 0.015541 -0.000034 0.001896 0.000000 0.000000 0.000000
# 2 -0.000034 0.010045 0.001161 0.000000 0.000000 0.000000
# 3 0.001896 0.001161 0.015752 0.000000 0.000000 0.000000
# 4 0.000000 0.000000 0.000000 -0.078431 0.000000 0.000000
# 5 0.000000 0.000000 0.000000 0.000000 0.049291 0.000000
# 6 0.000000 0.000000 0.000000 0.000000 0.000000 0.049235
#
#
# Mechanical properties :
#
#
# Convention : Reuss Voigt Hill
#
# Bulk Modulus (GPa) = 21.10383 22.44971 21.77677
# Shear Modulus (GPa) = 70.24548 21.90964 46.07756
#
# Velocity S-wave (km/s) = 5.57752 3.11494 4.51727
# Velocity P-wave (km/s) = 7.12911 4.78321 6.07056
#
# Compressibility (1/GPa) = 0.04738477
#
# Stress axis : x y z
#
# Youngs Moduli (GPa) = 64.34717 99.55494 63.48580
#
# Poissons Ratio (x) = 0.00336 -0.12040
# Poissons Ratio (y) = 0.00217 -0.07372
# Poissons Ratio (z) = -0.12203 -0.11560
#
# Static dielectric constant tensor:
#      x y z
#    x 1.894470 0.000000 0.000000 
#    y 0.000000 1.840000 0.000000 
#    z 0.000000 0.000000 1.812410 
# 
# From -- ./inp_files/12545.got.cif
#   From: 2010.05.17/outbox.cif.g08.bks.cpg/sg47_7_cif.got.tgz:12545.got - 2010.06.03 20:15:42.
