data_PCOD9385610
_publ_section_title
;
Structure prediction by ZEFSAII (Michael W. Deem and Ramdas Pophale) SiO2 
 PCOD9385610
Probable space group: P M M M
;
_chemical_formula_sum "Si O2"
_cell_formula_units_Z 52
_cell_length_a 24.034858
_cell_length_b 15.259357
_cell_length_c 7.697188
_cell_angle_alpha 90.000000
_cell_angle_beta 90.000000
_cell_angle_gamma 90.000000
_cell_volume 2822.993567
_symmetry_space_group_name_H-M "P M M M"
_symmetry_group_IT_number 47
_symmetry_cell_setting 'orthorhombic'
loop_
_space_group_symop_operation_xyz
x,y,z
-x,-y,z
x,-y,-z
-x,y,-z
-x,-y,-z
x,y,-z
-x,y,z
x,-y,z
loop_
_atom_site_type_symbol
_atom_site_label
_atom_site_fract_x
_atom_site_fract_y
_atom_site_fract_z
Si Si1 0.253005 0.240108 0.304534
Si Si2 0.184252 0.597610 0.290736
Si Si3 0.938798 0.662929 0.791881
Si Si4 0.437386 0.894740 0.000000
Si Si5 0.651789 0.896488 0.709777
Si Si6 0.939449 0.866083 0.298069
Si Si7 0.820915 0.093778 0.198507
O O1 0.270866 0.263020 0.500000
O O2 0.226741 0.327756 0.221493
O O3 0.301219 0.174809 0.236670
O O4 0.200711 0.174502 0.307152
O O5 0.189242 0.599973 0.500000
O O6 0.197957 0.500000 0.228682
O O7 0.119015 0.616216 0.254111
O O8 0.936461 0.760702 0.715513
O O9 0.000000 0.624907 0.740625
O O10 0.939210 0.670559 0.000000
O O11 0.401852 0.874314 0.173086
O O12 0.500000 0.858180 0.000000
O O13 0.441907 0.000000 0.000000
O O14 0.643591 0.890575 0.500000
O O15 0.666119 0.000000 0.745176
O O16 0.935322 0.891000 0.500000
O O17 0.887097 0.903681 0.200532
O O18 0.000000 0.892352 0.231442
O O19 0.801539 0.000000 0.267633
O O20 0.801718 0.103633 0.000000
#
# Coordination Sequence:
#
# PCOD9385610 Si02
#       7
#     8   8   8   4   8   8   8
#     4  10  20  35  53  73 101 137 174 214 255 301
#     4  10  21  36  54  76 100 128 165 211 265 321
#     4  10  20  34  52  71  92 120 157 206 266 328
#     4   9  18  32  52  82 119 155 188 221 255 295
#     4   9  18  32  52  79 111 150 190 223 257 300
#     4  10  20  34  51  68  88 118 158 204 255 312
#     4  11  23  34  48  72  97 125 161 204 255 308
#
# _framework density 18.420161
#
# number of rings (size 3 to 8) (size 9 to 14) (size 15 to 20)
#    0.000    2.077    1.538    1.846    1.077    4.923 
#    0.000    4.615    0.000    0.000    0.000    0.000 
#    0.000    1.231    0.000    6.000    0.000    0.154 
#
# Total GULP energy -289792.027367 kJ/mol
# GULP energy per Si atom -5572.923603 kJ/mol
# Density = 1.837824 g / cm^3
# Si number density = 18.420161 Si / 1000 Ang^3
#
#
#
# Elastic Constant Matrix: (Units=GPa)
#
#
# Indices 1 2 3 4 5 6 
#
# 1 129.3286 51.5069 27.2111 0.0000 0.0000 0.0000
# 2 51.5069 116.1603 17.8028 0.0000 0.0000 0.0000
# 3 27.2111 17.8028 53.6618 0.0000 0.0000 0.0000
# 4 0.0000 0.0000 0.0000 -0.7245 0.0000 0.0000
# 5 0.0000 0.0000 0.0000 0.0000 21.7483 0.0000
# 6 0.0000 0.0000 0.0000 0.0000 0.0000 14.0717
#
#
#
# Elastic Compliance Matrix: (Units=1/GPa)
#
#
# Indices 1 2 3 4 5 6 
#
# 1 0.010084 -0.003885 -0.003825 0.000000 0.000000 0.000000
# 2 -0.003885 0.010567 -0.001535 0.000000 0.000000 0.000000
# 3 -0.003825 -0.001535 0.021084 0.000000 0.000000 0.000000
# 4 0.000000 0.000000 0.000000 -1.380293 0.000000 0.000000
# 5 0.000000 0.000000 0.000000 0.000000 0.045981 0.000000
# 6 0.000000 0.000000 0.000000 0.000000 0.000000 0.071065
#
#
# Mechanical properties :
#
#
# Convention : Reuss Voigt Hill
#
# Bulk Modulus (GPa) = 43.02106 54.68802 48.85454
# Shear Modulus (GPa) = -4.18315 20.52776 8.17231
#
# Velocity S-wave (km/s) = -1.50861 3.34191 2.10861
# Velocity P-wave (km/s) = 4.51349 6.68168 5.70160
#
# Compressibility (1/GPa) = 0.02324443
#
# Stress axis : x y z
#
# Youngs Moduli (GPa) = 99.16349 94.63480 47.42926
#
# Poissons Ratio (x) = 0.36769 0.18140
# Poissons Ratio (y) = 0.38529 0.07283
# Poissons Ratio (z) = 0.37926 0.14531
#
# Static dielectric constant tensor:
#      x y z
#    x 1.653870 0.000000 0.000000 
#    y 0.000000 1.660230 0.000000 
#    z 0.000000 0.000000 1.677770 
# 
# From -- ./inp_files/11034.got.cif
#   From: 2010.05.17/outbox.cif.g08.bks.cpg/sg47_6_cif.got.tgz:11034.got - 2010.06.03 20:15:42.
