data_PCOD9385248
_publ_section_title
;
Structure prediction by ZEFSAII (Michael W. Deem and Ramdas Pophale) SiO2 
 PCOD9385248
Probable space group: P M M M
;
_chemical_formula_sum "Si O2"
_cell_formula_units_Z 56
_cell_length_a 22.174984
_cell_length_b 14.701838
_cell_length_c 7.457768
_cell_angle_alpha 90.000000
_cell_angle_beta 90.000000
_cell_angle_gamma 90.000000
_cell_volume 2431.329486
_symmetry_space_group_name_H-M "P M M M"
_symmetry_group_IT_number 47
_symmetry_cell_setting 'orthorhombic'
loop_
_space_group_symop_operation_xyz
x,y,z
-x,-y,z
x,-y,-z
-x,y,-z
-x,-y,-z
x,y,-z
-x,y,z
x,-y,z
loop_
_atom_site_type_symbol
_atom_site_label
_atom_site_fract_x
_atom_site_fract_y
_atom_site_fract_z
Si Si1 0.804910 0.791994 0.720590
Si Si2 0.072388 0.597081 0.207297
Si Si3 0.684072 0.104962 0.280999
Si Si4 0.756728 0.600509 0.712943
Si Si5 0.932524 0.198456 0.703222
Si Si6 0.385088 0.601373 0.785718
Si Si7 0.565486 0.793404 0.708735
O O1 0.806606 0.792096 0.500000
O O2 0.746329 0.848418 0.776033
O O3 0.792748 0.687838 0.780946
O O4 0.868921 0.833106 0.783876
O O5 0.095266 0.500000 0.281645
O O6 0.080476 0.692706 0.303287
O O7 0.000000 0.589638 0.204687
O O8 0.091668 0.604644 0.000000
O O9 0.684263 0.109702 0.500000
O O10 0.624855 0.158247 0.215444
O O11 0.681516 0.000000 0.229700
O O12 0.767593 0.597116 0.500000
O O13 0.769729 0.500000 0.788609
O O14 0.685283 0.616613 0.738819
O O15 0.936107 0.163682 0.500000
O O16 0.000000 0.185848 0.783496
O O17 0.401555 0.500000 0.720850
O O18 0.423311 0.685360 0.716122
O O19 0.390292 0.601547 0.000000
O O20 0.563346 0.820217 0.500000
O O21 0.500000 0.815296 0.788156
#
# Coordination Sequence:
#
# PCOD9385248 Si02
#       7
#     8   8   8   8   8   8   8
#     4   9  16  28  47  70  97 128 162 201 247 296
#     4   8  14  25  39  55  81 119 158 194 234 281
#     4   9  17  31  53  79 102 125 160 207 255 300
#     4   9  16  28  48  70  94 128 170 212 250 291
#     4   9  17  27  41  64  92 122 158 200 242 286
#     4  10  20  33  50  74 106 141 173 205 243 286
#     4  10  20  34  54  80 106 132 166 206 246 290
#
# _framework density 23.032665999999999
#
# number of rings (size 3 to 8) (size 9 to 14) (size 15 to 20)
#    0.000    2.857    1.429    0.857    0.000    2.571 
#    0.000    6.429    0.000    2.571    0.000    4.000 
#    0.000    0.000    0.000    3.571    0.000    3.714 
#
# Total GULP energy -312358.868440 kJ/mol
# GULP energy per Si atom -5577.836936 kJ/mol
# Density = 2.298024 g / cm^3
# Si number density = 23.032666 Si / 1000 Ang^3
#
#
#
# Elastic Constant Matrix: (Units=GPa)
#
#
# Indices 1 2 3 4 5 6 
#
# 1 218.4240 72.1867 5.4564 0.0000 0.0000 0.0000
# 2 72.1867 74.4791 -0.9663 0.0000 0.0000 0.0000
# 3 5.4564 -0.9663 71.9301 0.0000 0.0000 0.0000
# 4 0.0000 0.0000 0.0000 -18.1636 0.0000 0.0000
# 5 0.0000 0.0000 0.0000 0.0000 -16.6824 0.0000
# 6 0.0000 0.0000 0.0000 0.0000 0.0000 -2.3025
#
#
#
# Elastic Compliance Matrix: (Units=1/GPa)
#
#
# Indices 1 2 3 4 5 6 
#
# 1 0.006762 -0.006561 -0.000601 0.000000 0.000000 0.000000
# 2 -0.006561 0.019796 0.000764 0.000000 0.000000 0.000000
# 3 -0.000601 0.000764 0.013958 0.000000 0.000000 0.000000
# 4 0.000000 0.000000 0.000000 -0.055055 0.000000 0.000000
# 5 0.000000 0.000000 0.000000 0.000000 -0.059944 0.000000
# 6 0.000000 0.000000 0.000000 0.000000 0.000000 -0.434301
#
#
# Mechanical properties :
#
#
# Convention : Reuss Voigt Hill
#
# Bulk Modulus (GPa) = 36.07727 57.57631 46.82679
# Shear Modulus (GPa) = -10.27228 11.78072 0.75422
#
# Velocity S-wave (km/s) = -2.11413 2.26404 0.57286
# Velocity P-wave (km/s) = 3.12060 5.64681 4.56205
#
# Compressibility (1/GPa) = 0.02771828
#
# Stress axis : x y z
#
# Youngs Moduli (GPa) = 147.89090 50.51536 71.64230
#
# Poissons Ratio (x) = 0.33145 0.04306
# Poissons Ratio (y) = 0.97037 -0.05471
# Poissons Ratio (z) = 0.08889 -0.03858
#
# Static dielectric constant tensor:
#      x y z
#    x 1.902460 0.000000 0.000000 
#    y 0.000000 1.846700 0.000000 
#    z 0.000000 0.000000 1.855280 
# 
# From -- ./inp_files/11268.got.cif
#   From: 2010.05.17/outbox.cif.g08.bks.cpg/sg47_6_cif.got.tgz:11268.got - 2010.06.03 20:15:42.
