data_PCOD9385155
_publ_section_title
;
Structure prediction by ZEFSAII (Michael W. Deem and Ramdas Pophale) SiO2 
 PCOD9385155
Probable space group: P M M M
;
_chemical_formula_sum "Si O2"
_cell_formula_units_Z 64
_cell_length_a 14.428868
_cell_length_b 29.727789
_cell_length_c 8.933878
_cell_angle_alpha 90.000000
_cell_angle_beta 90.000000
_cell_angle_gamma 90.000000
_cell_volume 3832.082830
_symmetry_space_group_name_H-M "P M M M"
_symmetry_group_IT_number 47
_symmetry_cell_setting 'orthorhombic'
loop_
_space_group_symop_operation_xyz
x,y,z
-x,-y,z
x,-y,-z
-x,y,-z
-x,-y,-z
x,y,-z
-x,y,z
x,-y,z
loop_
_atom_site_type_symbol
_atom_site_label
_atom_site_fract_x
_atom_site_fract_y
_atom_site_fract_z
Si Si1 0.887911 0.450797 0.323596
Si Si2 0.889103 0.186563 0.674844
Si Si3 0.611217 0.132866 0.173652
Si Si4 0.780070 0.730680 0.820138
Si Si5 0.281964 0.949608 0.321383
Si Si6 0.391384 0.228384 0.678483
Si Si7 0.107566 0.357907 0.820054
Si Si8 0.108214 0.909962 0.178512
O O1 0.867081 0.447623 0.500000
O O2 0.854936 0.500000 0.268853
O O3 0.857183 0.405677 0.241368
O O4 0.000000 0.451287 0.309159
O O5 0.862704 0.182643 0.500000
O O6 0.837999 0.228007 0.751562
O O7 0.869605 0.139985 0.760144
O O8 0.000000 0.193687 0.682334
O O9 0.500000 0.127841 0.180217
O O10 0.658407 0.089469 0.245222
O O11 0.634398 0.178634 0.261485
O O12 0.638908 0.137579 0.000000
O O13 0.676704 0.736625 0.757481
O O14 0.829628 0.684221 0.774525
O O15 0.780450 0.733586 0.000000
O O16 0.283482 0.944044 0.500000
O O17 0.178004 0.943249 0.260317
O O18 0.315355 0.000000 0.285162
O O19 0.379898 0.229798 0.500000
O O20 0.500000 0.235611 0.713693
O O21 0.000000 0.351235 0.771068
O O22 0.106935 0.359717 0.000000
O O23 0.000000 0.918934 0.210879
O O24 0.121288 0.911532 0.000000
#
# Coordination Sequence:
#
# PCOD9385155 Si02
#       8
#     8   8   8   8   8   8   8   8
#     4   8  14  25  41  61  87 123 167 211 250 285
#     4  10  20  33  50  72  98 129 164 198 233 279
#     4  10  21  38  60  82 102 125 154 190 233 282
#     4  11  21  32  48  70 100 133 163 200 244 289
#     4  11  24  39  55  76 102 130 157 189 232 281
#     4  10  21  37  56  76  98 125 159 198 238 285
#     4   9  18  30  43  64  96 133 170 205 242 284
#     4  10  21  37  56  75  96 125 161 200 238 276
#
# _framework density 16.7011
#
# number of rings (size 3 to 8) (size 9 to 14) (size 15 to 20)
#    0.000    2.125    0.000    3.750    0.000    6.250 
#    0.000    5.000    0.000    0.000    0.000    0.000 
#    0.000    0.500    0.000    5.500    0.000    4.250 
#
# Total GULP energy -357280.351041 kJ/mol
# GULP energy per Si atom -5582.505485 kJ/mol
# Density = 1.666309 g / cm^3
# Si number density = 16.701100 Si / 1000 Ang^3
#
#
#
# Elastic Constant Matrix: (Units=GPa)
#
#
# Indices 1 2 3 4 5 6 
#
# 1 49.0125 44.7768 23.9684 0.0000 0.0000 0.0000
# 2 44.7768 101.1068 33.2885 0.0000 0.0000 0.0000
# 3 23.9684 33.2885 52.6811 0.0000 0.0000 0.0000
# 4 0.0000 0.0000 0.0000 28.9456 0.0000 0.0000
# 5 0.0000 0.0000 0.0000 0.0000 25.1756 0.0000
# 6 0.0000 0.0000 0.0000 0.0000 0.0000 17.3364
#
#
#
# Elastic Compliance Matrix: (Units=1/GPa)
#
#
# Indices 1 2 3 4 5 6 
#
# 1 0.036843 -0.013634 -0.008147 0.000000 0.000000 0.000000
# 2 -0.013634 0.017534 -0.004876 0.000000 0.000000 0.000000
# 3 -0.008147 -0.004876 0.025770 0.000000 0.000000 0.000000
# 4 0.000000 0.000000 0.000000 0.034548 0.000000 0.000000
# 5 0.000000 0.000000 0.000000 0.000000 0.039721 0.000000
# 6 0.000000 0.000000 0.000000 0.000000 0.000000 0.057682
#
#
# Mechanical properties :
#
#
# Convention : Reuss Voigt Hill
#
# Bulk Modulus (GPa) = 37.26933 45.20753 41.23843
# Shear Modulus (GPa) = 18.22437 21.00931 19.61684
#
# Velocity S-wave (km/s) = 3.30693 3.55062 3.43094
# Velocity P-wave (km/s) = 6.07824 6.62847 6.35931
#
# Compressibility (1/GPa) = 0.02683171
#
# Stress axis : x y z
#
# Youngs Moduli (GPa) = 27.14214 57.03155 38.80430
#
# Poissons Ratio (x) = 0.77757 0.31615
# Poissons Ratio (y) = 0.37006 0.18923
# Poissons Ratio (z) = 0.22114 0.27811
#
# Static dielectric constant tensor:
#      x y z
#    x 1.575490 0.000000 0.000000 
#    y 0.000000 1.552810 0.000000 
#    z 0.000000 0.000000 1.557230 
# 
# From -- ./inp_files/7874.got.cif
#   From: 2010.05.17/outbox.cif.g08.bks.cpg/sg47_4_cif.got.tgz:7874.got - 2010.06.03 20:15:42.
