data_PCOD9385665
_publ_section_title
;
Structure prediction by ZEFSAII (Michael W. Deem and Ramdas Pophale) SiO2 
 PCOD9385665
Probable space group: P M M M
;
_chemical_formula_sum "Si O2"
_cell_formula_units_Z 52
_cell_length_a 19.760979
_cell_length_b 7.417770
_cell_length_c 15.985095
_cell_angle_alpha 90.000000
_cell_angle_beta 90.000000
_cell_angle_gamma 90.000000
_cell_volume 2343.133545
_symmetry_space_group_name_H-M "P M M M"
_symmetry_group_IT_number 47
_symmetry_cell_setting 'orthorhombic'
loop_
_space_group_symop_operation_xyz
x,y,z
-x,-y,z
x,-y,-z
-x,y,-z
-x,-y,-z
x,y,-z
-x,y,z
x,-y,z
loop_
_atom_site_type_symbol
_atom_site_label
_atom_site_fract_x
_atom_site_fract_y
_atom_site_fract_z
Si Si1 0.852684 0.710056 0.088891
Si Si2 0.000000 0.216428 0.856025
Si Si3 0.000000 0.215081 0.336060
Si Si4 0.851056 0.286842 0.407065
Si Si5 0.228235 0.720377 0.754309
Si Si6 0.382057 0.280068 0.774110
Si Si7 0.418803 0.711376 0.589761
Si Si8 0.500000 0.279890 0.901988
O O1 0.832809 0.500000 0.087465
O O2 0.821178 0.786292 0.172909
O O3 0.932796 0.720698 0.098684
O O4 0.831745 0.790159 0.000000
O O5 0.000000 0.281478 0.759771
O O6 0.000000 0.000000 0.855649
O O7 0.070221 0.268985 0.379984
O O8 0.000000 0.000000 0.334040
O O9 0.841434 0.210731 0.500000
O O10 0.837603 0.500000 0.411837
O O11 0.801211 0.215890 0.334651
O O12 0.226715 0.500000 0.750275
O O13 0.303717 0.769742 0.781928
O O14 0.386903 0.500000 0.773307
O O15 0.400199 0.214931 0.680424
O O16 0.434238 0.223363 0.846837
O O17 0.394103 0.786450 0.500000
O O18 0.500000 0.716917 0.587169
O O19 0.398148 0.500000 0.590497
O O20 0.500000 0.500000 0.903629
O O21 0.500000 0.222699 0.000000
#
# Coordination Sequence:
#
# PCOD9385665 Si02
#       8
#     8   4   4   8   8   8   8   4
#     4  10  20  34  52  72  95 127 162 195 241 297
#     4  11  22  35  54  77  97 122 159 202 247 289
#     4  11  22  35  54  77  99 128 167 208 249 293
#     4  10  20  34  52  73  98 132 169 203 246 295
#     4   9  18  30  44  63  90 123 161 204 239 282
#     4   9  15  24  37  54  79 113 152 193 238 277
#     4   8  12  18  30  48  70  98 135 179 224 270
#     4   9  16  24  35  53  79 113 155 200 240 282
#
# _framework density 22.192502999999999
#
# number of rings (size 3 to 8) (size 9 to 14) (size 15 to 20)
#    0.000    2.538    2.308    1.385    0.000    4.308 
#    0.000    6.154    0.000    0.000    0.000    0.000 
#    0.000    0.000    0.000    2.769    0.000   10.615 
#
# Total GULP energy -290085.102825 kJ/mol
# GULP energy per Si atom -5578.559670 kJ/mol
# Density = 2.214199 g / cm^3
# Si number density = 22.192503 Si / 1000 Ang^3
#
#
#
# Elastic Constant Matrix: (Units=GPa)
#
#
# Indices 1 2 3 4 5 6 
#
# 1 120.2313 -6.3837 86.4980 0.0000 0.0000 0.0000
# 2 -6.3837 72.2930 7.0211 0.0000 0.0000 0.0000
# 3 86.4980 7.0211 229.2557 0.0000 0.0000 0.0000
# 4 0.0000 0.0000 0.0000 -14.6909 0.0000 0.0000
# 5 0.0000 0.0000 0.0000 0.0000 9.3845 0.0000
# 6 0.0000 0.0000 0.0000 0.0000 0.0000 -79.9163
#
#
#
# Elastic Compliance Matrix: (Units=1/GPa)
#
#
# Indices 1 2 3 4 5 6 
#
# 1 0.011566 0.001449 -0.004408 0.000000 0.000000 0.000000
# 2 0.001449 0.014056 -0.000977 0.000000 0.000000 0.000000
# 3 -0.004408 -0.000977 0.006055 0.000000 0.000000 0.000000
# 4 0.000000 0.000000 0.000000 -0.068069 0.000000 0.000000
# 5 0.000000 0.000000 0.000000 0.000000 0.106559 0.000000
# 6 0.000000 0.000000 0.000000 0.000000 0.000000 -0.012513
#
#
# Mechanical properties :
#
#
# Convention : Reuss Voigt Hill
#
# Bulk Modulus (GPa) = 42.00955 66.22787 54.11871
# Shear Modulus (GPa) = 68.06518 5.26510 36.66514
#
# Velocity S-wave (km/s) = 5.54409 1.54195 4.06906
# Velocity P-wave (km/s) = 7.74295 5.75129 6.82022
#
# Compressibility (1/GPa) = 0.02380411
#
# Stress axis : x y z
#
# Youngs Moduli (GPa) = 86.46373 71.14649 165.15201
#
# Poissons Ratio (x) = -0.10312 0.72800
# Poissons Ratio (y) = -0.12532 0.16140
# Poissons Ratio (z) = 0.38114 0.06953
#
# Static dielectric constant tensor:
#      x y z
#    x 1.854140 0.000000 0.000000 
#    y 0.000000 1.843570 0.000000 
#    z 0.000000 0.000000 1.835000 
# 
# From -- ./inp_files/25106.got.cif
#   From: 2010.05.17/outbox.cif.g08.bks.cpg/sg47_13_cif.got.tgz:25106.got - 2010.06.03 20:15:42.
