data_PCOD9385917
_publ_section_title
;
Structure prediction by ZEFSAII (Michael W. Deem and Ramdas Pophale) SiO2 
 PCOD9385917
Probable space group: P M M M
;
_chemical_formula_sum "Si O2"
_cell_formula_units_Z 44
_cell_length_a 29.638675
_cell_length_b 8.100338
_cell_length_c 9.649815
_cell_angle_alpha 90.000000
_cell_angle_beta 90.000000
_cell_angle_gamma 90.000000
_cell_volume 2316.759288
_symmetry_space_group_name_H-M "P M M M"
_symmetry_group_IT_number 47
_symmetry_cell_setting 'orthorhombic'
loop_
_space_group_symop_operation_xyz
x,y,z
-x,-y,z
x,-y,-z
-x,y,-z
-x,-y,-z
x,y,-z
-x,y,z
x,-y,z
loop_
_atom_site_type_symbol
_atom_site_label
_atom_site_fract_x
_atom_site_fract_y
_atom_site_fract_z
Si Si1 0.864511 0.797825 0.159308
Si Si2 0.417582 0.305757 0.657197
Si Si3 0.500000 0.804830 0.845113
Si Si4 0.949129 0.798597 0.340338
Si Si5 0.778860 0.202200 0.660594
Si Si6 0.319737 0.809076 0.331837
O O1 0.909631 0.742917 0.238934
O O2 0.820153 0.745496 0.243732
O O3 0.864642 0.000000 0.160526
O O4 0.863688 0.745070 0.000000
O O5 0.421744 0.234801 0.500000
O O6 0.424379 0.500000 0.646676
O O7 0.455607 0.240691 0.758787
O O8 0.366503 0.274877 0.707981
O O9 0.500000 0.000000 0.858057
O O10 0.500000 0.730734 0.000000
O O11 0.940418 0.750012 0.500000
O O12 0.000000 0.746287 0.302459
O O13 0.948964 0.000000 0.338421
O O14 0.785738 0.251504 0.500000
O O15 0.729264 0.258188 0.711192
O O16 0.777478 0.000000 0.660711
O O17 0.317946 0.804283 0.500000
O O18 0.322778 0.000000 0.289058
#
# Coordination Sequence:
#
# PCOD9385917 Si02
#       6
#     8   8   4   8   8   8
#     4   9  15  20  27  42  64  88 117 160 212 257
#     4  10  20  34  54  79 103 127 157 193 235 282
#     4  11  24  39  54  74 100 131 166 199 232 272
#     4   8  13  20  28  37  52  80 120 162 202 249
#     4   8  13  22  36  51  68  95 131 168 206 250
#     4   8  14  26  45  67  89 115 149 187 224 264
#
# _framework density 18.992048
#
# number of rings (size 3 to 8) (size 9 to 14) (size 15 to 20)
#    0.000    3.182    0.000    3.273    0.000    5.455 
#    0.000    2.727    0.000    3.273    0.000    0.000 
#    0.000    0.000    0.000    0.000    0.000    0.909 
#
# Total GULP energy -245149.592036 kJ/mol
# GULP energy per Si atom -5571.581637 kJ/mol
# Density = 1.894882 g / cm^3
# Si number density = 18.992048 Si / 1000 Ang^3
#
#
#
# Elastic Constant Matrix: (Units=GPa)
#
#
# Indices 1 2 3 4 5 6 
#
# 1 210.3931 18.1745 118.2889 0.0000 0.0000 0.0000
# 2 18.1745 14.4175 12.3955 0.0000 0.0000 0.0000
# 3 118.2889 12.3955 113.8229 0.0000 0.0000 0.0000
# 4 0.0000 0.0000 0.0000 3.5656 0.0000 0.0000
# 5 0.0000 0.0000 0.0000 0.0000 -4.1090 0.0000
# 6 0.0000 0.0000 0.0000 0.0000 0.0000 -40.4061
#
#
#
# Elastic Compliance Matrix: (Units=1/GPa)
#
#
# Indices 1 2 3 4 5 6 
#
# 1 0.011721 -0.004747 -0.011664 0.000000 0.000000 0.000000
# 2 -0.004747 0.078448 -0.003610 0.000000 0.000000 0.000000
# 3 -0.011664 -0.003610 0.021300 0.000000 0.000000 0.000000
# 4 0.000000 0.000000 0.000000 0.280460 0.000000 0.000000
# 5 0.000000 0.000000 0.000000 0.000000 -0.243367 0.000000
# 6 0.000000 0.000000 0.000000 0.000000 0.000000 -0.024749
#
#
# Mechanical properties :
#
#
# Convention : Reuss Voigt Hill
#
# Bulk Modulus (GPa) = 14.00018 70.70571 42.35295
# Shear Modulus (GPa) = 26.64349 4.46172 15.55260
#
# Velocity S-wave (km/s) = 3.74956 1.53439 2.86475
# Velocity P-wave (km/s) = 5.11207 6.35996 5.76985
#
# Compressibility (1/GPa) = 0.07142765
#
# Stress axis : x y z
#
# Youngs Moduli (GPa) = 85.31930 12.74731 46.94859
#
# Poissons Ratio (x) = 0.06051 0.54759
# Poissons Ratio (y) = 0.40502 0.16947
# Poissons Ratio (z) = 0.99513 0.04601
#
# Static dielectric constant tensor:
#      x y z
#    x 1.668800 0.000000 0.000000 
#    y 0.000000 1.660380 0.000000 
#    z 0.000000 0.000000 1.650450 
# 
# From -- ./inp_files/13602.got.cif
#   From: 2010.05.17/outbox.cif.g08.bks.cpg/sg47_7_cif.got.tgz:13602.got - 2010.06.03 20:15:42.
