data_PCOD9385341
_publ_section_title
;
Structure prediction by ZEFSAII (Michael W. Deem and Ramdas Pophale) SiO2 
 PCOD9385341
Probable space group: P M M M
;
_chemical_formula_sum "Si O2"
_cell_formula_units_Z 58
_cell_length_a 24.978909
_cell_length_b 8.021983
_cell_length_c 15.666983
_cell_angle_alpha 90.000000
_cell_angle_beta 90.000000
_cell_angle_gamma 90.000000
_cell_volume 3139.356060
_symmetry_space_group_name_H-M "P M M M"
_symmetry_group_IT_number 47
_symmetry_cell_setting 'orthorhombic'
loop_
_space_group_symop_operation_xyz
x,y,z
-x,-y,z
x,-y,-z
-x,y,-z
-x,-y,-z
x,y,-z
-x,y,z
x,-y,z
loop_
_atom_site_type_symbol
_atom_site_label
_atom_site_fract_x
_atom_site_fract_y
_atom_site_fract_z
Si Si1 0.562608 0.298682 0.095494
Si Si2 0.349843 0.808807 0.772390
Si Si3 0.249982 0.000000 0.000000
Si Si4 0.140736 0.693984 0.240705
Si Si5 0.249234 0.312189 0.132654
Si Si6 0.317232 0.304124 0.596343
Si Si7 0.803297 0.196371 0.404041
Si Si8 0.937392 0.703351 0.905181
O O1 0.500000 0.253806 0.102533
O O2 0.566042 0.500000 0.098083
O O3 0.597701 0.226934 0.171667
O O4 0.581641 0.246038 0.000000
O O5 0.302723 0.697031 0.811040
O O6 0.351836 0.775637 0.671540
O O7 0.334583 0.000000 0.784740
O O8 0.250169 0.848895 0.927591
O O9 0.127202 0.500000 0.254124
O O10 0.196876 0.703361 0.191069
O O11 0.152185 0.769874 0.332976
O O12 0.097042 0.765685 0.174636
O O13 0.246860 0.500000 0.094335
O O14 0.325625 0.237538 0.500000
O O15 0.328428 0.500000 0.595643
O O16 0.253925 0.280241 0.616026
O O17 0.819018 0.249036 0.500000
O O18 0.792445 0.000000 0.404662
O O19 0.933823 0.500000 0.905332
O O20 0.000000 0.746181 0.897770
O O21 0.918154 0.757924 0.000000
#
# Coordination Sequence:
#
# PCOD9385341 Si02
#       8
#     8   8   2   8   8   8   8   8
#     4   9  20  39  61  83 108 146 195 243 289 331
#     4  12  23  36  55  83 118 152 192 230 279 343
#     4  12  26  40  52  78 112 160 198 222 294 342
#     4  10  20  33  53  80 109 142 181 228 283 335
#     4  11  24  39  54  80 117 151 191 236 279 344
#     4  10  20  35  56  81 109 144 186 233 287 342
#     4  10  20  33  51  76 107 142 179 223 276 335
#     4   8  15  30  52  77 104 137 182 231 278 333
#
# _framework density 18.475128000000002
#
# number of rings (size 3 to 8) (size 9 to 14) (size 15 to 20)
#    0.000    1.931    2.069    3.103    2.897    2.207 
#    0.000    0.690    0.000    1.241    0.000    7.241 
#    0.000    0.000    0.000    0.000    0.000    0.000 
#
# Total GULP energy -322950.099047 kJ/mol
# GULP energy per Si atom -5568.105156 kJ/mol
# Density = 1.843308 g / cm^3
# Si number density = 18.475128 Si / 1000 Ang^3
#
#
#
# Elastic Constant Matrix: (Units=GPa)
#
#
# Indices 1 2 3 4 5 6 
#
# 1 55.4577 7.5189 54.9036 0.0000 0.0000 0.0000
# 2 7.5189 75.0140 32.7334 0.0000 0.0000 0.0000
# 3 54.9036 32.7334 158.7980 0.0000 0.0000 0.0000
# 4 0.0000 0.0000 0.0000 27.1267 0.0000 0.0000
# 5 0.0000 0.0000 0.0000 0.0000 24.9360 0.0000
# 6 0.0000 0.0000 0.0000 0.0000 0.0000 -73.9578
#
#
#
# Elastic Compliance Matrix: (Units=1/GPa)
#
#
# Indices 1 2 3 4 5 6 
#
# 1 0.027576 0.001534 -0.009850 0.000000 0.000000 0.000000
# 2 0.001534 0.014734 -0.003568 0.000000 0.000000 0.000000
# 3 -0.009850 -0.003568 0.010438 0.000000 0.000000 0.000000
# 4 0.000000 0.000000 0.000000 0.036864 0.000000 0.000000
# 5 0.000000 0.000000 0.000000 0.000000 0.040103 0.000000
# 6 0.000000 0.000000 0.000000 0.000000 0.000000 -0.013521
#
#
# Mechanical properties :
#
#
# Convention : Reuss Voigt Hill
#
# Bulk Modulus (GPa) = 34.50578 53.28680 43.89629
# Shear Modulus (GPa) = 33.41774 8.56191 20.98982
#
# Velocity S-wave (km/s) = 4.25761 2.15508 3.37428
# Velocity P-wave (km/s) = 6.54882 5.92432 6.24438
#
# Compressibility (1/GPa) = 0.02898065
#
# Stress axis : x y z
#
# Youngs Moduli (GPa) = 36.26372 67.87099 95.79964
#
# Poissons Ratio (x) = -0.10414 0.94367
# Poissons Ratio (y) = -0.05564 0.34178
# Poissons Ratio (z) = 0.35721 0.24214
#
# Static dielectric constant tensor:
#      x y z
#    x 1.612060 0.000000 0.000000 
#    y 0.000000 1.648280 0.000000 
#    z 0.000000 0.000000 1.677990 
# 
# From -- ./inp_files/25500.got.cif
#   From: 2010.05.17/outbox.cif.g08.bks.cpg/sg47_13_cif.got.tgz:25500.got - 2010.06.03 20:15:42.
