data_PCOD9385790
_publ_section_title
;
Structure prediction by ZEFSAII (Michael W. Deem and Ramdas Pophale) SiO2 
 PCOD9385790
Probable space group: P M M M
;
_chemical_formula_sum "Si O2"
_cell_formula_units_Z 36
_cell_length_a 9.372700
_cell_length_b 7.398753
_cell_length_c 23.945937
_cell_angle_alpha 90.000000
_cell_angle_beta 90.000000
_cell_angle_gamma 90.000000
_cell_volume 1660.561945
_symmetry_space_group_name_H-M "P M M M"
_symmetry_group_IT_number 47
_symmetry_cell_setting 'orthorhombic'
loop_
_space_group_symop_operation_xyz
x,y,z
-x,-y,z
x,-y,-z
-x,y,-z
-x,-y,-z
x,y,-z
-x,y,z
x,-y,z
loop_
_atom_site_type_symbol
_atom_site_label
_atom_site_fract_x
_atom_site_fract_y
_atom_site_fract_z
Si Si1 0.835030 0.779864 0.937475
Si Si2 0.164317 0.221068 0.719230
Si Si3 0.338674 0.214247 0.611757
Si Si4 0.161748 0.285402 0.500000
Si Si5 0.336255 0.220727 0.829165
O O1 0.735746 0.719671 0.886983
O O2 0.000000 0.726896 0.928394
O O3 0.833002 0.000000 0.937284
O O4 0.792043 0.722908 0.000000
O O5 0.251222 0.284231 0.664966
O O6 0.243512 0.276683 0.775855
O O7 0.000000 0.278717 0.717674
O O8 0.163435 0.000000 0.718754
O O9 0.500000 0.286690 0.607133
O O10 0.249584 0.236150 0.555194
O O11 0.351481 0.000000 0.620904
O O12 0.150677 0.500000 0.500000
O O13 0.000000 0.211145 0.500000
O O14 0.500000 0.278019 0.824332
O O15 0.335732 0.000000 0.829432
#
# Coordination Sequence:
#
# PCOD9385790 Si02
#       5
#     8   8   8   4   8
#     4   8  13  20  28  38  56  87 128 171 214 262
#     4   9  16  26  41  60  82 109 141 179 224 271
#     4  10  20  34  53  76  99 123 155 195 237 280
#     4  11  24  39  54  74 100 129 160 191 226 274
#     4   9  15  21  30  46  69  96 129 173 221 265
#
# _framework density 21.679407000000001
#
# number of rings (size 3 to 8) (size 9 to 14) (size 15 to 20)
#    0.000    2.778    0.000    3.333    0.000    9.333 
#    0.000    2.222    0.000    0.000    0.000    0.000 
#    0.000    0.000    0.000    0.000    0.000    1.111 
#
# Total GULP energy -201129.596357 kJ/mol
# GULP energy per Si atom -5586.933232 kJ/mol
# Density = 2.163006 g / cm^3
# Si number density = 21.679407 Si / 1000 Ang^3
#
#
#
# Elastic Constant Matrix: (Units=GPa)
#
#
# Indices 1 2 3 4 5 6 
#
# 1 241.2033 7.7130 161.8933 0.0000 0.0000 0.0000
# 2 7.7130 72.8395 0.8063 0.0000 0.0000 0.0000
# 3 161.8933 0.8063 236.5369 0.0000 0.0000 0.0000
# 4 0.0000 0.0000 0.0000 -42.9960 0.0000 0.0000
# 5 0.0000 0.0000 0.0000 0.0000 -5.9088 0.0000
# 6 0.0000 0.0000 0.0000 0.0000 0.0000 -15.2773
#
#
#
# Elastic Compliance Matrix: (Units=1/GPa)
#
#
# Indices 1 2 3 4 5 6 
#
# 1 0.007710 -0.000758 -0.005275 0.000000 0.000000 0.000000
# 2 -0.000758 0.013804 0.000472 0.000000 0.000000 0.000000
# 3 -0.005275 0.000472 0.007836 0.000000 0.000000 0.000000
# 4 0.000000 0.000000 0.000000 -0.023258 0.000000 0.000000
# 5 0.000000 0.000000 0.000000 0.000000 -0.169240 0.000000
# 6 0.000000 0.000000 0.000000 0.000000 0.000000 -0.065457
#
#
# Mechanical properties :
#
#
# Convention : Reuss Voigt Hill
#
# Bulk Modulus (GPa) = 54.85886 99.04500 76.95193
# Shear Modulus (GPa) = -23.65116 12.50806 -5.57155
#
# Velocity S-wave (km/s) = -3.30654 2.40460 -1.60485
# Velocity P-wave (km/s) = 3.28359 7.31402 5.66907
#
# Compressibility (1/GPa) = 0.01822860
#
# Stress axis : x y z
#
# Youngs Moduli (GPa) = 129.69430 72.44350 127.61250
#
# Poissons Ratio (x) = 0.05492 0.67312
# Poissons Ratio (y) = 0.09832 -0.06021
# Poissons Ratio (z) = 0.68410 -0.03418
#
# Static dielectric constant tensor:
#      x y z
#    x 1.748090 0.000000 0.000000 
#    y 0.000000 1.835720 0.000000 
#    z 0.000000 0.000000 1.747910 
# 
# From -- ./inp_files/1423.got.cif
#   From: 2010.05.17/outbox.cif.g08.bks.cpg/sg47_1_cif.got.tgz:1423.got - 2010.06.03 20:15:42.
