data_PCOD9385071
_publ_section_title
;
Structure prediction by ZEFSAII (Michael W. Deem and Ramdas Pophale) SiO2 
 PCOD9385071
Probable space group: P M M M
;
_chemical_formula_sum "Si O2"
_cell_formula_units_Z 64
_cell_length_a 25.350019
_cell_length_b 14.306406
_cell_length_c 9.045702
_cell_angle_alpha 90.000000
_cell_angle_beta 90.000000
_cell_angle_gamma 90.000000
_cell_volume 3280.583613
_symmetry_space_group_name_H-M "P M M M"
_symmetry_group_IT_number 47
_symmetry_cell_setting 'orthorhombic'
loop_
_space_group_symop_operation_xyz
x,y,z
-x,-y,z
x,-y,-z
-x,y,-z
-x,-y,-z
x,y,-z
-x,y,z
x,-y,z
loop_
_atom_site_type_symbol
_atom_site_label
_atom_site_fract_x
_atom_site_fract_y
_atom_site_fract_z
Si Si1 0.560936 0.894506 0.679837
Si Si2 0.737020 0.887841 0.832680
Si Si3 0.345349 0.235638 0.675487
Si Si4 0.160426 0.113403 0.335236
Si Si5 0.059322 0.113512 0.168338
Si Si6 0.941437 0.613423 0.826978
Si Si7 0.833397 0.613426 0.328678
Si Si8 0.276770 0.389914 0.176492
O O1 0.562389 0.895304 0.500000
O O2 0.500000 0.880877 0.723772
O O3 0.599749 0.811542 0.727042
O O4 0.577390 0.000000 0.727494
O O5 0.697585 0.842989 0.716413
O O6 0.795832 0.860878 0.784115
O O7 0.733243 0.000000 0.828597
O O8 0.725386 0.856630 0.000000
O O9 0.347513 0.251842 0.500000
O O10 0.323591 0.327517 0.756499
O O11 0.173954 0.144892 0.500000
O O12 0.103051 0.144221 0.283083
O O13 0.159856 0.000000 0.338206
O O14 0.000000 0.143972 0.201239
O O15 0.059010 0.000000 0.169821
O O16 0.072686 0.140502 0.000000
O O17 0.941096 0.500000 0.820548
O O18 0.888576 0.644843 0.743807
O O19 0.000000 0.642013 0.771855
O O20 0.937970 0.638846 0.000000
O O21 0.830788 0.640285 0.500000
O O22 0.834134 0.500000 0.322107
O O23 0.779586 0.640945 0.245287
O O24 0.283937 0.500000 0.211266
O O25 0.274567 0.380137 0.000000
#
# Coordination Sequence:
#
# PCOD9385071 Si02
#       8
#     8   8   8   8   8   8   8   8
#     4   8  15  30  54  86 123 158 187 216 257 312
#     4  10  20  33  49  71 104 143 177 210 254 314
#     4  11  21  33  55  85 113 141 179 227 272 314
#     4   9  16  25  38  58  86 120 160 208 259 307
#     4   8  13  21  33  50  75 110 153 200 251 309
#     4   8  13  21  34  55  86 124 164 206 258 326
#     4   9  16  26  42  65  93 125 166 220 278 330
#     4  10  21  37  55  74 102 143 188 232 280 335
#
# _framework density 19.508724000000001
#
# number of rings (size 3 to 8) (size 9 to 14) (size 15 to 20)
#    0.000    2.875    0.000    3.375    0.000    5.500 
#    0.000    2.500    0.000    1.875    0.000    7.875 
#    0.000    7.000    0.000    0.750    0.000    0.625 
#
# Total GULP energy -357101.319520 kJ/mol
# GULP energy per Si atom -5579.708117 kJ/mol
# Density = 1.946432 g / cm^3
# Si number density = 19.508724 Si / 1000 Ang^3
#
#
#
# Elastic Constant Matrix: (Units=GPa)
#
#
# Indices 1 2 3 4 5 6 
#
# 1 119.2348 44.0018 40.7961 0.0000 0.0000 0.0000
# 2 44.0018 109.8721 25.4409 0.0000 0.0000 0.0000
# 3 40.7961 25.4409 56.8009 0.0000 0.0000 0.0000
# 4 0.0000 0.0000 0.0000 8.1112 0.0000 0.0000
# 5 0.0000 0.0000 0.0000 0.0000 -10.9003 0.0000
# 6 0.0000 0.0000 0.0000 0.0000 0.0000 231.9210
#
#
#
# Elastic Compliance Matrix: (Units=1/GPa)
#
#
# Indices 1 2 3 4 5 6 
#
# 1 0.012018 -0.003140 -0.007225 0.000000 0.000000 0.000000
# 2 -0.003140 0.010975 -0.002661 0.000000 0.000000 0.000000
# 3 -0.007225 -0.002661 0.023986 0.000000 0.000000 0.000000
# 4 0.000000 0.000000 0.000000 0.123287 0.000000 0.000000
# 5 0.000000 0.000000 0.000000 0.000000 -0.091740 0.000000
# 6 0.000000 0.000000 0.000000 0.000000 0.000000 0.004312
#
#
# Mechanical properties :
#
#
# Convention : Reuss Voigt Hill
#
# Bulk Modulus (GPa) = 47.78299 56.26504 52.02401
# Shear Modulus (GPa) = 43.15406 57.53764 50.34585
#
# Velocity S-wave (km/s) = 4.70833 5.43666 5.08555
# Velocity P-wave (km/s) = 7.35556 8.26519 7.82360
#
# Compressibility (1/GPa) = 0.02092795
#
# Stress axis : x y z
#
# Youngs Moduli (GPa) = 83.21150 91.11624 41.69063
#
# Poissons Ratio (x) = 0.28609 0.30122
# Poissons Ratio (y) = 0.26127 0.11092
# Poissons Ratio (z) = 0.60121 0.24242
#
# Static dielectric constant tensor:
#      x y z
#    x 2.125420 0.000000 0.000000 
#    y 0.000000 1.780460 0.000000 
#    z 0.000000 0.000000 1.610220 
# 
# From -- ./inp_files/12693.got.cif
#   From: 2010.05.17/outbox.cif.g08.bks.cpg/sg47_7_cif.got.tgz:12693.got - 2010.06.03 20:15:42.
