data_PCOD9385804
_publ_section_title
;
Structure prediction by ZEFSAII (Michael W. Deem and Ramdas Pophale) SiO2 
 PCOD9385804
Probable space group: P M M M
;
_chemical_formula_sum "Si O2"
_cell_formula_units_Z 48
_cell_length_a 9.252341
_cell_length_b 7.954419
_cell_length_c 31.881549
_cell_angle_alpha 90.000000
_cell_angle_beta 90.000000
_cell_angle_gamma 90.000000
_cell_volume 2346.386268
_symmetry_space_group_name_H-M "P M M M"
_symmetry_group_IT_number 47
_symmetry_cell_setting 'orthorhombic'
loop_
_space_group_symop_operation_xyz
x,y,z
-x,-y,z
x,-y,-z
-x,y,-z
-x,-y,-z
x,y,-z
-x,y,z
x,-y,z
loop_
_atom_site_type_symbol
_atom_site_label
_atom_site_fract_x
_atom_site_fract_y
_atom_site_fract_z
Si Si1 0.664112 0.800106 0.667010
Si Si2 0.666662 0.705908 0.832231
Si Si3 0.664931 0.200905 0.500000
Si Si4 0.166652 0.294414 0.916175
Si Si5 0.163881 0.701425 0.250147
Si Si6 0.835294 0.299440 0.583710
Si Si7 0.333264 0.705671 0.000000
O O1 0.500000 0.732158 0.665780
O O2 0.750938 0.735413 0.707161
O O3 0.748496 0.760761 0.624329
O O4 0.655874 0.000000 0.670927
O O5 0.500000 0.759531 0.832499
O O6 0.666671 0.500000 0.831982
O O7 0.750345 0.758702 0.874164
O O8 0.748937 0.764086 0.790426
O O9 0.500000 0.266893 0.500000
O O10 0.750628 0.254221 0.541457
O O11 0.657567 0.000000 0.500000
O O12 0.166553 0.500000 0.916259
O O13 0.250092 0.240469 0.958061
O O14 0.000000 0.240383 0.916198
O O15 0.154675 0.500000 0.245553
O O16 0.000000 0.767789 0.251866
O O17 0.843094 0.500000 0.586168
O O18 0.000000 0.232877 0.583046
O O19 0.333134 0.500000 0.000000
O O20 0.500000 0.759342 0.000000
#
# Coordination Sequence:
#
# PCOD9385804 Si02
#       7
#     8   8   4   8   8   8   4
#     4  11  24  40  58  82 111 143 180 221 267 320
#     4   9  16  26  41  61  86 118 157 202 252 305
#     4  11  24  41  62  90 122 155 192 231 272 320
#     4   9  15  22  32  48  73 107 149 197 247 300
#     4  10  20  34  53  77 103 133 172 216 262 315
#     4  11  24  41  62  89 118 149 188 230 271 319
#     4   9  15  21  29  43  67 103 148 195 244 301
#
# _framework density 20.456990000000001
#
# number of rings (size 3 to 8) (size 9 to 14) (size 15 to 20)
#    0.000    2.000    0.000    4.250    0.000   14.333 
#    0.000    0.000    0.000    0.000    0.000    0.000 
#    0.000    0.000    0.000    0.750    0.000   14.667 
#
# Total GULP energy -268267.211059 kJ/mol
# GULP energy per Si atom -5588.900230 kJ/mol
# Density = 2.041043 g / cm^3
# Si number density = 20.456990 Si / 1000 Ang^3
#
#
#
# Elastic Constant Matrix: (Units=GPa)
#
#
# Indices 1 2 3 4 5 6 
#
# 1 249.5006 4.1366 138.9402 0.0000 0.0000 0.0000
# 2 4.1366 17.4778 -7.4054 0.0000 0.0000 0.0000
# 3 138.9402 -7.4054 218.4482 0.0000 0.0000 0.0000
# 4 0.0000 0.0000 0.0000 -73.6608 0.0000 0.0000
# 5 0.0000 0.0000 0.0000 0.0000 45.8862 0.0000
# 6 0.0000 0.0000 0.0000 0.0000 0.0000 18.0087
#
#
#
# Elastic Compliance Matrix: (Units=1/GPa)
#
#
# Indices 1 2 3 4 5 6 
#
# 1 0.006386 -0.003280 -0.004173 0.000000 0.000000 0.000000
# 2 -0.003280 0.059734 0.004111 0.000000 0.000000 0.000000
# 3 -0.004173 0.004111 0.007371 0.000000 0.000000 0.000000
# 4 0.000000 0.000000 0.000000 -0.013576 0.000000 0.000000
# 5 0.000000 0.000000 0.000000 0.000000 0.021793 0.000000
# 6 0.000000 0.000000 0.000000 0.000000 0.000000 0.055529
#
#
# Mechanical properties :
#
#
# Convention : Reuss Voigt Hill
#
# Bulk Modulus (GPa) = 14.96836 84.08551 49.52693
# Shear Modulus (GPa) = 30.08607 21.36382 25.72495
#
# Velocity S-wave (km/s) = 3.83913 3.23511 3.54999
# Velocity P-wave (km/s) = 5.19469 7.42613 6.40828
#
# Compressibility (1/GPa) = 0.06680761
#
# Stress axis : x y z
#
# Youngs Moduli (GPa) = 156.58695 16.74100 135.66154
#
# Poissons Ratio (x) = 0.05490 0.56612
# Poissons Ratio (y) = 0.51354 -0.55769
# Poissons Ratio (z) = 0.65344 -0.06882
#
# Static dielectric constant tensor:
#      x y z
#    x 1.717980 0.000000 0.000000 
#    y 0.000000 1.740550 0.000000 
#    z 0.000000 0.000000 1.649700 
# 
# From -- ./inp_files/13978.got.cif
#   From: 2010.05.17/outbox.cif.g08.bks.cpg/sg47_7_cif.got.tgz:13978.got - 2010.06.03 20:15:42.
