data_PCOD9385850
_publ_section_title
;
Structure prediction by ZEFSAII (Michael W. Deem and Ramdas Pophale) SiO2 
 PCOD9385850
Probable space group: P M M M
;
_chemical_formula_sum "Si O2"
_cell_formula_units_Z 48
_cell_length_a 16.077111
_cell_length_b 17.991927
_cell_length_c 8.068115
_cell_angle_alpha 90.000000
_cell_angle_beta 90.000000
_cell_angle_gamma 90.000000
_cell_volume 2333.768483
_symmetry_space_group_name_H-M "P M M M"
_symmetry_group_IT_number 47
_symmetry_cell_setting 'orthorhombic'
loop_
_space_group_symop_operation_xyz
x,y,z
-x,-y,z
x,-y,-z
-x,y,-z
-x,-y,-z
x,y,-z
-x,y,z
x,-y,z
loop_
_atom_site_type_symbol
_atom_site_label
_atom_site_fract_x
_atom_site_fract_y
_atom_site_fract_z
Si Si1 0.000000 0.909705 0.197546
Si Si2 0.500000 0.911900 0.796662
Si Si3 0.408918 0.588746 0.192844
Si Si4 0.904898 0.414104 0.199712
Si Si5 0.175655 0.913526 0.797253
Si Si6 0.742250 0.325496 0.311685
Si Si7 0.333640 0.171906 0.802152
O O1 0.912380 0.881690 0.264075
O O2 0.000000 0.000000 0.214093
O O3 0.000000 0.895388 0.000000
O O4 0.580561 0.864354 0.740669
O O5 0.500000 0.000000 0.747325
O O6 0.500000 0.913217 0.000000
O O7 0.500000 0.617094 0.250244
O O8 0.412742 0.500000 0.193159
O O9 0.328974 0.612402 0.294297
O O10 0.398622 0.612175 0.000000
O O11 0.888280 0.500000 0.254824
O O12 0.829803 0.358762 0.247261
O O13 0.000000 0.394560 0.254326
O O14 0.906405 0.415298 0.000000
O O15 0.256690 0.874598 0.732466
O O16 0.178780 0.000000 0.757410
O O17 0.175202 0.908172 0.000000
O O18 0.756011 0.303825 0.500000
O O19 0.695654 0.256101 0.226006
O O20 0.337245 0.161519 0.000000
#
# Coordination Sequence:
#
# PCOD9385850 Si02
#       7
#     4   4   8   8   8   8   8
#     4   7  10  18  36  66  99 123 146 193 264 325
#     4   9  18  34  59  87 108 135 188 255 309 348
#     4   9  19  37  61  85 108 140 185 235 284 334
#     4   9  19  39  67  93 115 146 194 247 292 339
#     4   8  13  24  45  72 100 128 166 222 279 327
#     4  12  25  37  52  80 121 160 192 229 279 342
#     4  10  20  34  53  78 107 144 188 236 290 342
#
# _framework density 20.567592999999999
#
# number of rings (size 3 to 8) (size 9 to 14) (size 15 to 20)
#    0.000    2.667    0.000    4.500    1.167    5.333 
#    1.500    1.667    0.000    2.500    0.000    0.000 
#    0.000    2.000    0.000    0.000    0.000    0.000 
#
# Total GULP energy -267231.583031 kJ/mol
# GULP energy per Si atom -5567.324646 kJ/mol
# Density = 2.052078 g / cm^3
# Si number density = 20.567593 Si / 1000 Ang^3
#
#
#
# Elastic Constant Matrix: (Units=GPa)
#
#
# Indices 1 2 3 4 5 6 
#
# 1 216.7933 84.0412 21.3116 0.0000 0.0000 0.0000
# 2 84.0412 72.2214 -1.2637 0.0000 0.0000 0.0000
# 3 21.3116 -1.2637 10.6212 0.0000 0.0000 0.0000
# 4 0.0000 0.0000 0.0000 -18.8755 0.0000 0.0000
# 5 0.0000 0.0000 0.0000 0.0000 -36.5711 0.0000
# 6 0.0000 0.0000 0.0000 0.0000 0.0000 21.8107
#
#
#
# Elastic Compliance Matrix: (Units=1/GPa)
#
#
# Indices 1 2 3 4 5 6 
#
# 1 0.014280 -0.017154 -0.030693 0.000000 0.000000 0.000000
# 2 -0.017154 0.034482 0.038522 0.000000 0.000000 0.000000
# 3 -0.030693 0.038522 0.160321 0.000000 0.000000 0.000000
# 4 0.000000 0.000000 0.000000 -0.052979 0.000000 0.000000
# 5 0.000000 0.000000 0.000000 0.000000 -0.027344 0.000000
# 6 0.000000 0.000000 0.000000 0.000000 0.000000 0.045849
#
#
# Mechanical properties :
#
#
# Convention : Reuss Voigt Hill
#
# Bulk Modulus (GPa) = 5.25123 56.42380 30.83752
# Shear Modulus (GPa) = 19.47521 6.30927 12.89224
#
# Velocity S-wave (km/s) = 3.08049 1.75335 2.50636
# Velocity P-wave (km/s) = 3.90016 5.62067 4.83752
#
# Compressibility (1/GPa) = 0.19043163
#
# Stress axis : x y z
#
# Youngs Moduli (GPa) = 70.02916 29.00096 6.23749
#
# Poissons Ratio (x) = 0.49748 0.19145
# Poissons Ratio (y) = 1.20127 -0.24028
# Poissons Ratio (z) = 2.14943 -1.11717
#
# Static dielectric constant tensor:
#      x y z
#    x 1.787150 0.000000 0.000000 
#    y 0.000000 1.111400 0.000000 
#    z 0.000000 0.000000 1.745000 
# 
# From -- ./inp_files/6432.got.cif
#   From: 2010.05.17/outbox.cif.g08.bks.cpg/sg47_4_cif.got.tgz:6432.got - 2010.06.03 20:15:42.
