data_PCOD9385015
_publ_section_title
;
Structure prediction by ZEFSAII (Michael W. Deem and Ramdas Pophale) SiO2 
 PCOD9385015
Probable space group: P M M M
;
_chemical_formula_sum "Si O2"
_cell_formula_units_Z 40
_cell_length_a 9.340360
_cell_length_b 7.371831
_cell_length_c 26.885238
_cell_angle_alpha 90.000000
_cell_angle_beta 90.000000
_cell_angle_gamma 90.000000
_cell_volume 1851.197995
_symmetry_space_group_name_H-M "P M M M"
_symmetry_group_IT_number 47
_symmetry_cell_setting 'orthorhombic'
loop_
_space_group_symop_operation_xyz
x,y,z
-x,-y,z
x,-y,-z
-x,y,-z
-x,-y,-z
x,y,-z
-x,y,z
x,-y,z
loop_
_atom_site_type_symbol
_atom_site_label
_atom_site_fract_x
_atom_site_fract_y
_atom_site_fract_z
Si Si1 0.666144 0.778201 0.891518
Si Si2 0.662248 0.216893 0.302752
Si Si3 0.837513 0.283430 0.596886
Si Si4 0.665178 0.278027 0.500000
Si Si5 0.164560 0.221700 0.206220
Si Si6 0.674175 0.788626 0.000000
O O1 0.500000 0.725670 0.884323
O O2 0.761731 0.721206 0.845218
O O3 0.716958 0.714290 0.946116
O O4 0.667241 0.000000 0.892864
O O5 0.500000 0.286791 0.306783
O O6 0.752815 0.250878 0.352274
O O7 0.744630 0.283488 0.253814
O O8 0.652870 0.000000 0.297364
O O9 0.847167 0.500000 0.590937
O O10 0.748474 0.217053 0.549347
O O11 0.000000 0.212816 0.598810
O O12 0.664472 0.500000 0.500000
O O13 0.500000 0.220766 0.500000
O O14 0.000000 0.278618 0.209705
O O15 0.165590 0.000000 0.206420
O O16 0.500000 0.783068 0.000000
O O17 0.717075 0.000000 0.000000
#
# Coordination Sequence:
#
# PCOD9385015 Si02
#       6
#     8   8   8   4   8   4
#     4   8  12  19  31  46  66  96 136 178 218 263
#     4  10  20  33  49  69  93 123 159 196 232 272
#     4  10  20  34  53  76 100 125 153 187 229 275
#     4   9  17  31  52  75  98 125 156 188 222 265
#     4   9  16  25  37  54  78 109 144 182 225 272
#     4   7  10  16  27  43  63  91 130 175 218 259
#
# _framework density 21.60763
#
# number of rings (size 3 to 8) (size 9 to 14) (size 15 to 20)
#    0.000    3.000    0.000    3.300    0.000    6.000 
#    0.000    1.000    0.000    6.000    0.000    0.000 
#    0.000    0.000    0.000    0.900    0.000   18.400 
#
# Total GULP energy -223344.143222 kJ/mol
# GULP energy per Si atom -5583.603581 kJ/mol
# Density = 2.155845 g / cm^3
# Si number density = 21.607630 Si / 1000 Ang^3
#
#
#
# Elastic Constant Matrix: (Units=GPa)
#
#
# Indices 1 2 3 4 5 6 
#
# 1 208.4208 8.0864 148.2922 0.0000 0.0000 0.0000
# 2 8.0864 77.5156 4.6644 0.0000 0.0000 0.0000
# 3 148.2922 4.6644 261.1224 0.0000 0.0000 0.0000
# 4 0.0000 0.0000 0.0000 19.0695 0.0000 0.0000
# 5 0.0000 0.0000 0.0000 0.0000 41.2989 0.0000
# 6 0.0000 0.0000 0.0000 0.0000 0.0000 -1.0786
#
#
#
# Elastic Compliance Matrix: (Units=1/GPa)
#
#
# Indices 1 2 3 4 5 6 
#
# 1 0.008076 -0.000567 -0.004576 0.000000 0.000000 0.000000
# 2 -0.000567 0.012954 0.000091 0.000000 0.000000 0.000000
# 3 -0.004576 0.000091 0.006427 0.000000 0.000000 0.000000
# 4 0.000000 0.000000 0.000000 0.052440 0.000000 0.000000
# 5 0.000000 0.000000 0.000000 0.000000 0.024214 0.000000
# 6 0.000000 0.000000 0.000000 0.000000 0.000000 -0.927112
#
#
# Mechanical properties :
#
#
# Convention : Reuss Voigt Hill
#
# Bulk Modulus (GPa) = 57.63092 96.57166 77.10129
# Shear Modulus (GPa) = -6.19493 37.59233 15.69870
#
# Velocity S-wave (km/s) = -1.69506 4.17558 2.69836
# Velocity P-wave (km/s) = 4.78524 8.24849 6.74300
#
# Compressibility (1/GPa) = 0.01735180
#
# Stress axis : x y z
#
# Youngs Moduli (GPa) = 123.82338 77.19422 155.59653
#
# Poissons Ratio (x) = 0.04378 0.71205
# Poissons Ratio (y) = 0.07022 -0.01411
# Poissons Ratio (z) = 0.56665 -0.00700
#
# Static dielectric constant tensor:
#      x y z
#    x 3.958050 0.000000 0.000000 
#    y 0.000000 1.892780 0.000000 
#    z 0.000000 0.000000 1.752470 
# 
# From -- ./inp_files/33072.got.cif
#   From: 2010.05.17/outbox.cif.g08.bks.cpg/sg47_17_cif.got.tgz:33072.got - 2010.06.03 20:15:42.
