data_PCOD9385188
_publ_section_title
;
Structure prediction by ZEFSAII (Michael W. Deem and Ramdas Pophale) SiO2 
 PCOD9385188
Probable space group: P M M M
;
_chemical_formula_sum "Si O2"
_cell_formula_units_Z 48
_cell_length_a 32.226899
_cell_length_b 8.032955
_cell_length_c 9.414910
_cell_angle_alpha 90.000000
_cell_angle_beta 90.000000
_cell_angle_gamma 90.000000
_cell_volume 2437.305816
_symmetry_space_group_name_H-M "P M M M"
_symmetry_group_IT_number 47
_symmetry_cell_setting 'orthorhombic'
loop_
_space_group_symop_operation_xyz
x,y,z
-x,-y,z
x,-y,-z
-x,y,-z
-x,-y,-z
x,y,-z
-x,y,z
x,-y,z
loop_
_atom_site_type_symbol
_atom_site_label
_atom_site_fract_x
_atom_site_fract_y
_atom_site_fract_z
Si Si1 0.373631 0.302349 0.161375
Si Si2 0.214703 0.300475 0.839538
Si Si3 0.864869 0.295868 0.334628
Si Si4 0.705716 0.802768 0.660832
Si Si5 0.547117 0.201277 0.336570
Si Si6 0.044601 0.698327 0.671893
O O1 0.367608 0.500000 0.156514
O O2 0.337247 0.231069 0.259000
O O3 0.417986 0.265693 0.231497
O O4 0.371418 0.237087 0.000000
O O5 0.210329 0.500000 0.847968
O O6 0.173738 0.237653 0.758542
O O7 0.255875 0.266266 0.750047
O O8 0.218188 0.234998 0.000000
O O9 0.859510 0.248181 0.500000
O O10 0.865567 0.500000 0.332686
O O11 0.910322 0.237955 0.281381
O O12 0.704863 0.734777 0.500000
O O13 0.711273 0.000000 0.652719
O O14 0.555700 0.252456 0.500000
O O15 0.500000 0.253443 0.301087
O O16 0.548077 0.000000 0.333828
O O17 0.045126 0.713610 0.500000
O O18 0.043991 0.500000 0.702348
O O19 0.000000 0.767835 0.721691
#
# Coordination Sequence:
#
# PCOD9385188 Si02
#       6
#     8   8   8   8   8   8
#     4  11  24  39  56  82 114 144 175 212 255 305
#     4  10  20  33  50  73 101 132 166 204 248 301
#     4   8  13  22  38  60  87 122 162 202 245 291
#     4  11  24  40  58  79 101 128 167 213 258 306
#     4   9  19  37  60  85 113 146 185 225 261 299
#     4   7   9  14  27  50  80 114 154 198 240 283
#
# _framework density 19.693877000000001
#
# number of rings (size 3 to 8) (size 9 to 14) (size 15 to 20)
#    0.000    2.667    0.000    4.500    0.000    8.667 
#    0.000    2.500    0.000    0.500    0.000    3.500 
#    0.000    0.667    0.000    7.667    0.000    8.833 
#
# Total GULP energy -267690.574268 kJ/mol
# GULP energy per Si atom -5576.886964 kJ/mol
# Density = 1.964905 g / cm^3
# Si number density = 19.693877 Si / 1000 Ang^3
#
#
#
# Elastic Constant Matrix: (Units=GPa)
#
#
# Indices 1 2 3 4 5 6 
#
# 1 150.7421 -3.6835 88.2310 0.0000 0.0000 0.0000
# 2 -3.6835 12.5597 4.9148 0.0000 0.0000 0.0000
# 3 88.2310 4.9148 132.0495 0.0000 0.0000 0.0000
# 4 0.0000 0.0000 0.0000 19.7671 0.0000 0.0000
# 5 0.0000 0.0000 0.0000 0.0000 -36.3175 0.0000
# 6 0.0000 0.0000 0.0000 0.0000 0.0000 153.5293
#
#
#
# Elastic Compliance Matrix: (Units=1/GPa)
#
#
# Indices 1 2 3 4 5 6 
#
# 1 0.011381 0.006407 -0.007843 0.000000 0.000000 0.000000
# 2 0.006407 0.084403 -0.007422 0.000000 0.000000 0.000000
# 3 -0.007843 -0.007422 0.013089 0.000000 0.000000 0.000000
# 4 0.000000 0.000000 0.000000 0.050589 0.000000 0.000000
# 5 0.000000 0.000000 0.000000 0.000000 -0.027535 0.000000
# 6 0.000000 0.000000 0.000000 0.000000 0.000000 0.006513
#
#
# Mechanical properties :
#
#
# Convention : Reuss Voigt Hill
#
# Bulk Modulus (GPa) = 10.97008 52.69731 31.83369
# Shear Modulus (GPa) = 26.80346 41.12173 33.96259
#
# Velocity S-wave (km/s) = 3.69318 4.57447 4.15725
# Velocity P-wave (km/s) = 4.87530 7.39712 6.26442
#
# Compressibility (1/GPa) = 0.09115707
#
# Stress axis : x y z
#
# Youngs Moduli (GPa) = 87.86682 11.84790 76.39743
#
# Poissons Ratio (x) = -0.07591 0.59917
# Poissons Ratio (y) = -0.56295 0.56704
# Poissons Ratio (z) = 0.68912 0.08794
#
# Static dielectric constant tensor:
#      x y z
#    x 1.696590 0.000000 0.000000 
#    y 0.000000 1.721440 0.000000 
#    z 0.000000 0.000000 1.681040 
# 
# From -- ./inp_files/2444.got.cif
#   From: 2010.05.17/outbox.cif.g08.bks.cpg/sg47_2_cif.got.tgz:2444.got - 2010.06.03 20:15:42.
