data_PCOD9385769
_publ_section_title
;
Structure prediction by ZEFSAII (Michael W. Deem and Ramdas Pophale) SiO2 
 PCOD9385769
Probable space group: P M M M
;
_chemical_formula_sum "Si O2"
_cell_formula_units_Z 48
_cell_length_a 7.913410
_cell_length_b 9.442832
_cell_length_c 31.598116
_cell_angle_alpha 90.000000
_cell_angle_beta 90.000000
_cell_angle_gamma 90.000000
_cell_volume 2361.169255
_symmetry_space_group_name_H-M "P M M M"
_symmetry_group_IT_number 47
_symmetry_cell_setting 'orthorhombic'
loop_
_space_group_symop_operation_xyz
x,y,z
-x,-y,z
x,-y,-z
-x,y,-z
-x,-y,-z
x,y,-z
-x,y,z
x,-y,z
loop_
_atom_site_type_symbol
_atom_site_label
_atom_site_fract_x
_atom_site_fract_y
_atom_site_fract_z
Si Si1 0.800860 0.339655 0.790553
Si Si2 0.298696 0.840232 0.290271
Si Si3 0.300005 0.839143 0.871171
Si Si4 0.293903 0.836411 0.452518
Si Si5 0.795643 0.662372 0.048160
Si Si6 0.292687 0.662703 0.370967
O O1 0.731098 0.500000 0.791228
O O2 0.728079 0.246071 0.752681
O O3 0.773884 0.261410 0.835011
O O4 0.000000 0.348669 0.783071
O O5 0.500000 0.851705 0.296384
O O6 0.233539 0.753094 0.330641
O O7 0.229668 0.000000 0.287600
O O8 0.500000 0.844598 0.863843
O O9 0.267844 0.770097 0.916792
O O10 0.233134 0.000000 0.868822
O O11 0.239733 0.795263 0.500000
O O12 0.500000 0.834271 0.452469
O O13 0.237645 0.736178 0.414600
O O14 0.244326 0.000000 0.445096
O O15 0.742906 0.500000 0.057674
O O16 0.000000 0.664358 0.048989
O O17 0.742439 0.695577 0.000000
O O18 0.500000 0.663342 0.370779
O O19 0.239136 0.500000 0.367992
#
# Coordination Sequence:
#
# PCOD9385769 Si02
#       6
#     8   8   8   8   8   8
#     4  11  24  40  58  80 105 134 171 215 262 313
#     4  10  20  34  53  76 102 133 170 211 256 309
#     4  11  24  39  56  82 114 145 179 219 262 310
#     4   8  13  21  33  51  80 120 163 205 250 301
#     4   9  19  37  60  85 113 146 185 226 266 310
#     4   9  16  25  39  61  90 125 164 206 253 304
#
# _framework density 20.32891
#
# number of rings (size 3 to 8) (size 9 to 14) (size 15 to 20)
#    0.000    2.333    0.000    4.000    0.000   11.000 
#    0.000    4.167    0.000    0.000    0.000    0.000 
#    0.000    0.667    0.000    7.000    0.000    9.667 
#
# Total GULP energy -268050.531347 kJ/mol
# GULP energy per Si atom -5584.386070 kJ/mol
# Density = 2.028264 g / cm^3
# Si number density = 20.328910 Si / 1000 Ang^3
#
#
#
# Elastic Constant Matrix: (Units=GPa)
#
#
# Indices 1 2 3 4 5 6 
#
# 1 17.7335 3.2628 -7.4669 0.0000 0.0000 0.0000
# 2 3.2628 184.8053 101.8492 0.0000 0.0000 0.0000
# 3 -7.4669 101.8492 132.1643 0.0000 0.0000 0.0000
# 4 0.0000 0.0000 0.0000 39.1076 0.0000 0.0000
# 5 0.0000 0.0000 0.0000 0.0000 129.8564 0.0000
# 6 0.0000 0.0000 0.0000 0.0000 0.0000 19.3275
#
#
#
# Elastic Compliance Matrix: (Units=1/GPa)
#
#
# Indices 1 2 3 4 5 6 
#
# 1 0.060434 -0.005126 0.007364 0.000000 0.000000 0.000000
# 2 -0.005126 0.009840 -0.007873 0.000000 0.000000 0.000000
# 3 0.007364 -0.007873 0.014049 0.000000 0.000000 0.000000
# 4 0.000000 0.000000 0.000000 0.025570 0.000000 0.000000
# 5 0.000000 0.000000 0.000000 0.000000 0.007701 0.000000
# 6 0.000000 0.000000 0.000000 0.000000 0.000000 0.051740
#
#
# Mechanical properties :
#
#
# Convention : Reuss Voigt Hill
#
# Bulk Modulus (GPa) = 13.68818 58.88814 36.28816
# Shear Modulus (GPa) = 24.39555 53.46218 38.92886
#
# Velocity S-wave (km/s) = 3.46792 5.13378 4.38076
# Velocity P-wave (km/s) = 4.77318 8.01071 6.59374
#
# Compressibility (1/GPa) = 0.07305571
#
# Stress axis : x y z
#
# Youngs Moduli (GPa) = 16.54692 101.62105 71.17710
#
# Poissons Ratio (x) = 0.52086 -0.52417
# Poissons Ratio (y) = 0.08481 0.56037
# Poissons Ratio (z) = -0.12186 0.80005
#
# Static dielectric constant tensor:
#      x y z
#    x 1.759410 0.000000 0.000000 
#    y 0.000000 1.712130 0.000000 
#    z 0.000000 0.000000 1.684380 
# 
# From -- ./inp_files/2427.got.cif
#   From: 2010.05.17/outbox.cif.g08.bks.cpg/sg47_2_cif.got.tgz:2427.got - 2010.06.03 20:15:42.
