data_PCOD9385267
_publ_section_title
;
Structure prediction by ZEFSAII (Michael W. Deem and Ramdas Pophale) SiO2 
 PCOD9385267
Probable space group: P M M M
;
_chemical_formula_sum "Si O2"
_cell_formula_units_Z 52
_cell_length_a 10.025014
_cell_length_b 16.190960
_cell_length_c 18.613475
_cell_angle_alpha 90.000000
_cell_angle_beta 90.000000
_cell_angle_gamma 90.000000
_cell_volume 3021.238762
_symmetry_space_group_name_H-M "P M M M"
_symmetry_group_IT_number 47
_symmetry_cell_setting 'orthorhombic'
loop_
_space_group_symop_operation_xyz
x,y,z
-x,-y,z
x,-y,-z
-x,y,-z
-x,-y,-z
x,y,-z
-x,y,z
x,-y,z
loop_
_atom_site_type_symbol
_atom_site_label
_atom_site_fract_x
_atom_site_fract_y
_atom_site_fract_z
Si Si1 0.850859 0.358378 0.914988
Si Si2 0.150667 0.805931 0.821100
Si Si3 0.161669 0.592549 0.415919
Si Si4 0.840628 0.765666 0.345305
Si Si5 0.346293 0.099102 0.080463
Si Si6 0.345188 0.905377 0.413396
Si Si7 0.651650 0.500000 0.912483
O O1 0.845082 0.274945 0.870727
O O2 0.736359 0.420450 0.890725
O O3 0.000000 0.394603 0.905604
O O4 0.834535 0.342432 0.000000
O O5 0.177168 0.778759 0.739702
O O6 0.255770 0.867293 0.856166
O O7 0.000000 0.840474 0.824068
O O8 0.198660 0.603117 0.500000
O O9 0.206813 0.500000 0.392774
O O10 0.201855 0.673765 0.371342
O O11 0.000000 0.590859 0.413119
O O12 0.754524 0.836758 0.383379
O O13 0.000000 0.774188 0.361206
O O14 0.500000 0.126278 0.088575
O O15 0.345056 0.000000 0.081140
O O16 0.300638 0.125487 0.000000
O O17 0.340221 0.903213 0.500000
O O18 0.500000 0.889771 0.392322
O O19 0.311581 0.000000 0.391167
O O20 0.500000 0.500000 0.887306
O O21 0.650291 0.500000 0.000000
#
# Coordination Sequence:
#
# PCOD9385267 Si02
#       7
#     8   8   8   8   8   8   4
#     4   9  17  31  49  67  92 128 167 204 245 298
#     4  10  21  34  48  74 107 136 168 206 254 311
#     4   8  14  27  49  75 101 131 169 212 256 302
#     4  10  20  33  50  78 111 138 171 214 261 311
#     4   9  19  36  56  76  97 127 173 222 263 308
#     4   9  19  36  56  77 102 136 177 214 252 306
#     4   9  17  29  47  71  93 115 154 207 254 293
#
# _framework density 17.211483999999999
#
# number of rings (size 3 to 8) (size 9 to 14) (size 15 to 20)
#    0.000    2.846    0.000    2.538    0.000    5.231 
#    1.385    6.154    0.000    0.462    0.000    2.154 
#    0.000    0.000    0.000    0.000    0.000    0.000 
#
# Total GULP energy -289635.505193 kJ/mol
# GULP energy per Si atom -5569.913561 kJ/mol
# Density = 1.717231 g / cm^3
# Si number density = 17.211484 Si / 1000 Ang^3
#
#
#
# Elastic Constant Matrix: (Units=GPa)
#
#
# Indices 1 2 3 4 5 6 
#
# 1 73.7611 58.5660 45.0960 0.0000 0.0000 0.0000
# 2 58.5660 108.1027 51.4543 0.0000 0.0000 0.0000
# 3 45.0960 51.4543 63.9685 0.0000 0.0000 0.0000
# 4 0.0000 0.0000 0.0000 -14.9953 0.0000 0.0000
# 5 0.0000 0.0000 0.0000 0.0000 16.7053 0.0000
# 6 0.0000 0.0000 0.0000 0.0000 0.0000 44.3294
#
#
#
# Elastic Compliance Matrix: (Units=1/GPa)
#
#
# Indices 1 2 3 4 5 6 
#
# 1 0.028968 -0.009679 -0.012636 0.000000 0.000000 0.000000
# 2 -0.009679 0.018224 -0.007835 0.000000 0.000000 0.000000
# 3 -0.012636 -0.007835 0.030843 0.000000 0.000000 0.000000
# 4 0.000000 0.000000 0.000000 -0.066688 0.000000 0.000000
# 5 0.000000 0.000000 0.000000 0.000000 0.059861 0.000000
# 6 0.000000 0.000000 0.000000 0.000000 0.000000 0.022558
#
#
# Mechanical properties :
#
#
# Convention : Reuss Voigt Hill
#
# Bulk Modulus (GPa) = 56.38817 61.78500 59.08659
# Shear Modulus (GPa) = 31.25441 15.25562 23.25502
#
# Velocity S-wave (km/s) = 4.26597 2.98041 3.67976
# Velocity P-wave (km/s) = 7.55630 6.91515 7.24282
#
# Compressibility (1/GPa) = 0.01773422
#
# Stress axis : x y z
#
# Youngs Moduli (GPa) = 34.52093 54.87398 32.42265
#
# Poissons Ratio (x) = 0.53115 0.40969
# Poissons Ratio (y) = 0.33414 0.25402
# Poissons Ratio (z) = 0.43620 0.42993
#
# Static dielectric constant tensor:
#      x y z
#    x 1.588870 0.000000 0.000000 
#    y 0.000000 1.581990 0.000000 
#    z 0.000000 0.000000 1.555680 
# 
# From -- ./inp_files/29569.got.cif
#   From: 2010.05.17/outbox.cif.g08.bks.cpg/sg47_15_cif.got.tgz:29569.got - 2010.06.03 20:15:42.
