data_PCOD9385236
_publ_section_title
;
Structure prediction by ZEFSAII (Michael W. Deem and Ramdas Pophale) SiO2 
 PCOD9385236
Probable space group: P M M M
;
_chemical_formula_sum "Si O2"
_cell_formula_units_Z 48
_cell_length_a 9.279618
_cell_length_b 7.507612
_cell_length_c 31.861243
_cell_angle_alpha 90.000000
_cell_angle_beta 90.000000
_cell_angle_gamma 90.000000
_cell_volume 2219.701796
_symmetry_space_group_name_H-M "P M M M"
_symmetry_group_IT_number 47
_symmetry_cell_setting 'orthorhombic'
loop_
_space_group_symop_operation_xyz
x,y,z
-x,-y,z
x,-y,-z
-x,y,-z
-x,-y,-z
x,y,-z
-x,y,z
x,-y,z
loop_
_atom_site_type_symbol
_atom_site_label
_atom_site_fract_x
_atom_site_fract_y
_atom_site_fract_z
Si Si1 0.666116 0.217956 0.666318
Si Si2 0.336243 0.213484 0.832504
Si Si3 0.836227 0.713492 0.082487
Si Si4 0.663174 0.288165 0.500000
Si Si5 0.166163 0.782199 0.249826
Si Si6 0.163031 0.787997 0.584523
Si Si7 0.333711 0.281857 0.000000
O O1 0.500000 0.274882 0.666727
O O2 0.750501 0.272692 0.708162
O O3 0.748498 0.280176 0.624590
O O4 0.665319 0.000000 0.665984
O O5 0.500000 0.282079 0.834410
O O6 0.249901 0.249712 0.875005
O O7 0.249639 0.278687 0.791787
O O8 0.344783 0.000000 0.828214
O O9 0.844715 0.500000 0.078331
O O10 0.749489 0.778008 0.041745
O O11 0.000000 0.782124 0.084264
O O12 0.652989 0.500000 0.500000
O O13 0.500000 0.214867 0.500000
O O14 0.750209 0.237818 0.541633
O O15 0.000000 0.725236 0.249904
O O16 0.165690 0.000000 0.249523
O O17 0.000000 0.716713 0.581942
O O18 0.151447 0.000000 0.590691
O O19 0.333859 0.500000 0.000000
O O20 0.500000 0.225600 0.000000
#
# Coordination Sequence:
#
# PCOD9385236 Si02
#       7
#     8   8   8   4   8   8   4
#     4   9  16  27  46  73 103 133 166 206 250 294
#     4  10  20  33  50  74 104 137 172 209 250 298
#     4  10  20  34  53  76 101 130 166 208 253 302
#     4  11  24  39  54  74 102 137 174 209 250 304
#     4   9  16  27  45  70 101 135 169 206 248 295
#     4  10  20  34  54  80 106 132 167 211 255 298
#     4   9  17  31  52  75  98 127 164 206 252 301
#
# _framework density 21.624528000000002
#
# number of rings (size 3 to 8) (size 9 to 14) (size 15 to 20)
#    0.000    2.333    0.000    3.250    0.000    9.667 
#    0.000    0.417    0.000    3.500    0.000    0.000 
#    0.000    0.000    0.000    0.000    0.000    0.000 
#
# Total GULP energy -268318.612555 kJ/mol
# GULP energy per Si atom -5589.971095 kJ/mol
# Density = 2.157531 g / cm^3
# Si number density = 21.624528 Si / 1000 Ang^3
#
#
#
# Elastic Constant Matrix: (Units=GPa)
#
#
# Indices 1 2 3 4 5 6 
#
# 1 284.2554 7.8591 171.5925 0.0000 0.0000 0.0000
# 2 7.8591 57.4494 -1.8994 0.0000 0.0000 0.0000
# 3 171.5925 -1.8994 262.5742 0.0000 0.0000 0.0000
# 4 0.0000 0.0000 0.0000 27.7274 0.0000 0.0000
# 5 0.0000 0.0000 0.0000 0.0000 48.6894 0.0000
# 6 0.0000 0.0000 0.0000 0.0000 0.0000 4.3961
#
#
#
# Elastic Compliance Matrix: (Units=1/GPa)
#
#
# Indices 1 2 3 4 5 6 
#
# 1 0.005859 -0.000928 -0.003836 0.000000 0.000000 0.000000
# 2 -0.000928 0.017558 0.000734 0.000000 0.000000 0.000000
# 3 -0.003836 0.000734 0.006320 0.000000 0.000000 0.000000
# 4 0.000000 0.000000 0.000000 0.036065 0.000000 0.000000
# 5 0.000000 0.000000 0.000000 0.000000 0.020538 0.000000
# 6 0.000000 0.000000 0.000000 0.000000 0.000000 0.227477
#
#
# Mechanical properties :
#
#
# Convention : Reuss Voigt Hill
#
# Bulk Modulus (GPa) = 46.13245 106.59817 76.36531
# Shear Modulus (GPa) = 15.19278 44.61103 29.90190
#
# Velocity S-wave (km/s) = 2.65348 4.54693 3.72261
# Velocity P-wave (km/s) = 5.54686 8.77315 7.33948
#
# Compressibility (1/GPa) = 0.02167671
#
# Stress axis : x y z
#
# Youngs Moduli (GPa) = 170.67765 56.95452 158.22018
#
# Poissons Ratio (x) = 0.05287 0.60687
# Poissons Ratio (y) = 0.15844 -0.11608
# Poissons Ratio (z) = 0.65465 -0.04179
#
# Static dielectric constant tensor:
#      x y z
#    x 1.758390 0.000000 0.000000 
#    y 0.000000 1.847190 0.000000 
#    z 0.000000 0.000000 1.728600 
# 
# From -- ./inp_files/34153.got.cif
#   From: 2010.05.17/outbox.cif.g08.bks.cpg/sg47_18_cif.got.tgz:34153.got - 2010.06.03 20:15:42.
