data_PCOD9385934
_publ_section_title
;
Structure prediction by ZEFSAII (Michael W. Deem and Ramdas Pophale) SiO2 
 PCOD9385934
Probable space group: P M M M
;
_chemical_formula_sum "Si O2"
_cell_formula_units_Z 40
_cell_length_a 13.681897
_cell_length_b 16.589911
_cell_length_c 9.168863
_cell_angle_alpha 90.000000
_cell_angle_beta 90.000000
_cell_angle_gamma 90.000000
_cell_volume 2081.161851
_symmetry_space_group_name_H-M "P M M M"
_symmetry_group_IT_number 47
_symmetry_cell_setting 'orthorhombic'
loop_
_space_group_symop_operation_xyz
x,y,z
-x,-y,z
x,-y,-z
-x,y,-z
-x,-y,-z
x,y,-z
-x,y,z
x,-y,z
loop_
_atom_site_type_symbol
_atom_site_label
_atom_site_fract_x
_atom_site_fract_y
_atom_site_fract_z
Si Si1 0.314296 0.339084 0.666475
Si Si2 0.500000 0.095833 0.164161
Si Si3 0.105611 0.324529 0.325468
Si Si4 0.696104 0.144213 0.331806
Si Si5 0.108390 0.149815 0.825394
Si Si6 0.500000 0.593200 0.173173
O O1 0.334922 0.363805 0.500000
O O2 0.206145 0.369866 0.709872
O O3 0.304891 0.241962 0.669074
O O4 0.402807 0.365824 0.765486
O O5 0.598024 0.119597 0.248971
O O6 0.500000 0.000000 0.153638
O O7 0.500000 0.130732 0.000000
O O8 0.112000 0.304792 0.500000
O O9 0.104453 0.241958 0.233398
O O10 0.000000 0.364970 0.302687
O O11 0.694602 0.117720 0.500000
O O12 0.795404 0.114953 0.252726
O O13 0.000000 0.114811 0.791720
O O14 0.120880 0.148190 0.000000
O O15 0.500000 0.500000 0.218598
O O16 0.500000 0.597925 0.000000
#
# Coordination Sequence:
#
# PCOD9385934 Si02
#       6
#     8   4   8   8   8   4
#     4   9  18  32  52  77 100 126 162 201 243 292
#     4  11  24  39  54  74 102 135 170 209 254 302
#     4   8  14  26  45  71 102 129 155 195 245 294
#     4  10  20  34  54  79 105 133 168 208 249 298
#     4   9  16  26  44  73 106 136 166 201 244 293
#     4  11  24  37  48  66  94 129 168 209 252 296
#
# _framework density 19.220033999999998
#
# number of rings (size 3 to 8) (size 9 to 14) (size 15 to 20)
#    0.000    2.600    0.000    3.600    0.000    9.200 
#    0.000    0.000    0.000    1.200    0.000    8.400 
#    0.000    0.000    0.000    0.000    0.000    0.000 
#
# Total GULP energy -222882.386262 kJ/mol
# GULP energy per Si atom -5572.059657 kJ/mol
# Density = 1.917629 g / cm^3
# Si number density = 19.220034 Si / 1000 Ang^3
#
#
#
# Elastic Constant Matrix: (Units=GPa)
#
#
# Indices 1 2 3 4 5 6 
#
# 1 227.2084 20.0698 91.1899 0.0000 0.0000 0.0000
# 2 20.0698 9.9097 10.2948 0.0000 0.0000 0.0000
# 3 91.1899 10.2948 99.3453 0.0000 0.0000 0.0000
# 4 0.0000 0.0000 0.0000 -15.5699 0.0000 0.0000
# 5 0.0000 0.0000 0.0000 0.0000 29.7215 0.0000
# 6 0.0000 0.0000 0.0000 0.0000 0.0000 -30.6933
#
#
#
# Elastic Compliance Matrix: (Units=1/GPa)
#
#
# Indices 1 2 3 4 5 6 
#
# 1 0.007648 -0.009185 -0.006069 0.000000 0.000000 0.000000
# 2 -0.009185 0.124116 -0.004430 0.000000 0.000000 0.000000
# 3 -0.006069 -0.004430 0.016095 0.000000 0.000000 0.000000
# 4 0.000000 0.000000 0.000000 -0.064226 0.000000 0.000000
# 5 0.000000 0.000000 0.000000 0.000000 0.033646 0.000000
# 6 0.000000 0.000000 0.000000 0.000000 0.000000 -0.032580
#
#
# Mechanical properties :
#
#
# Convention : Reuss Voigt Hill
#
# Bulk Modulus (GPa) = 9.21733 64.39695 36.80714
# Shear Modulus (GPa) = 31.20497 11.01891 21.11194
#
# Velocity S-wave (km/s) = 4.03372 2.39697 3.31786
# Velocity P-wave (km/s) = 5.14788 6.42172 5.81976
#
# Compressibility (1/GPa) = 0.10849125
#
# Stress axis : x y z
#
# Youngs Moduli (GPa) = 130.74988 8.05696 62.12972
#
# Poissons Ratio (x) = 0.07401 0.37703
# Poissons Ratio (y) = 1.20097 0.27526
# Poissons Ratio (z) = 0.79346 0.03570
#
# Static dielectric constant tensor:
#      x y z
#    x 1.726370 0.000000 0.000000 
#    y 0.000000 1.649250 0.000000 
#    z 0.000000 0.000000 1.653990 
# 
# From -- ./inp_files/5794.got.cif
#   From: 2010.05.17/outbox.cif.g08.bks.cpg/sg47_3_cif.got.tgz:5794.got - 2010.06.03 20:15:42.
