data_PCOD9385115
_publ_section_title
;
Structure prediction by ZEFSAII (Michael W. Deem and Ramdas Pophale) SiO2 
 PCOD9385115
Probable space group: P M M M
;
_chemical_formula_sum "Si O2"
_cell_formula_units_Z 64
_cell_length_a 13.192170
_cell_length_b 25.883690
_cell_length_c 7.421218
_cell_angle_alpha 90.000000
_cell_angle_beta 90.000000
_cell_angle_gamma 90.000000
_cell_volume 2534.064228
_symmetry_space_group_name_H-M "P M M M"
_symmetry_group_IT_number 47
_symmetry_cell_setting 'orthorhombic'
loop_
_space_group_symop_operation_xyz
x,y,z
-x,-y,z
x,-y,-z
-x,y,-z
-x,-y,-z
x,y,-z
-x,y,z
x,-y,z
loop_
_atom_site_type_symbol
_atom_site_label
_atom_site_fract_x
_atom_site_fract_y
_atom_site_fract_z
Si Si1 0.331496 0.944366 0.720119
Si Si2 0.667754 0.556094 0.718918
Si Si3 0.162518 0.194749 0.792743
Si Si4 0.609756 0.830467 0.718223
Si Si5 0.107979 0.420060 0.709808
Si Si6 0.607289 0.669958 0.208772
Si Si7 0.890629 0.080567 0.293605
Si Si8 0.169912 0.694112 0.219721
O O1 0.331553 0.943528 0.500000
O O2 0.384019 0.891035 0.772489
O O3 0.214525 0.940216 0.783562
O O4 0.373648 0.000000 0.775110
O O5 0.666408 0.558781 0.500000
O O6 0.626812 0.500000 0.770968
O O7 0.785037 0.560068 0.782140
O O8 0.614036 0.607621 0.784715
O O9 0.285793 0.194145 0.785482
O O10 0.123479 0.142700 0.702900
O O11 0.128745 0.250403 0.721915
O O12 0.131048 0.190654 0.000000
O O13 0.613708 0.827977 0.500000
O O14 0.500000 0.809601 0.776501
O O15 0.107383 0.435072 0.500000
O O16 0.115117 0.357822 0.720990
O O17 0.000000 0.436380 0.788890
O O18 0.500000 0.686030 0.291312
O O19 0.713633 0.688996 0.285815
O O20 0.607010 0.685813 0.000000
O O21 0.892940 0.062472 0.500000
O O22 0.000000 0.068046 0.211703
O O23 0.169608 0.693730 0.000000
#
# Coordination Sequence:
#
# PCOD9385115 Si02
#       8
#     8   8   8   8   8   8   8   8
#     4   8  14  26  46  72  98 122 153 195 238 279
#     4   9  18  32  49  70  97 126 154 187 227 271
#     4  10  20  33  50  71  95 125 161 199 237 281
#     4   9  18  32  49  71  99 127 156 193 237 284
#     4   9  18  32  50  72  96 123 156 192 230 274
#     4   9  18  33  51  69  91 120 154 192 232 274
#     4   9  18  32  49  70  97 127 158 195 239 284
#     4   9  19  34  50  69  93 122 156 195 236 276
#
# _framework density 25.255870999999999
#
# number of rings (size 3 to 8) (size 9 to 14) (size 15 to 20)
#    0.000    3.000    0.000    1.125    0.000    4.250 
#    0.000    8.750    0.000    6.000    0.000   10.500 
#    0.000    0.000    0.000    0.000    0.000    0.000 
#
# Total GULP energy -357512.755407 kJ/mol
# GULP energy per Si atom -5586.136803 kJ/mol
# Density = 2.519839 g / cm^3
# Si number density = 25.255871 Si / 1000 Ang^3
#
#
#
# Elastic Constant Matrix: (Units=GPa)
#
#
# Indices 1 2 3 4 5 6 
#
# 1 132.2111 -6.3856 -1.0894 0.0000 0.0000 0.0000
# 2 -6.3856 137.5355 -6.7626 0.0000 0.0000 0.0000
# 3 -1.0894 -6.7626 89.7104 0.0000 0.0000 0.0000
# 4 0.0000 0.0000 0.0000 4.9615 0.0000 0.0000
# 5 0.0000 0.0000 0.0000 0.0000 -6.8213 0.0000
# 6 0.0000 0.0000 0.0000 0.0000 0.0000 27.4524
#
#
#
# Elastic Compliance Matrix: (Units=1/GPa)
#
#
# Indices 1 2 3 4 5 6 
#
# 1 0.007582 0.000358 0.000119 0.000000 0.000000 0.000000
# 2 0.000358 0.007315 0.000556 0.000000 0.000000 0.000000
# 3 0.000119 0.000556 0.011190 0.000000 0.000000 0.000000
# 4 0.000000 0.000000 0.000000 0.201554 0.000000 0.000000
# 5 0.000000 0.000000 0.000000 0.000000 -0.146599 0.000000
# 6 0.000000 0.000000 0.000000 0.000000 0.000000 0.036427
#
#
# Mechanical properties :
#
#
# Convention : Reuss Voigt Hill
#
# Bulk Modulus (GPa) = 35.52094 36.77574 36.14834
# Shear Modulus (GPa) = 40.06816 30.03148 35.04982
#
# Velocity S-wave (km/s) = 3.98740 3.45206 3.72935
# Velocity P-wave (km/s) = 5.94088 5.52103 5.73480
#
# Compressibility (1/GPa) = 0.02815241
#
# Stress axis : x y z
#
# Youngs Moduli (GPa) = 131.89258 136.70924 89.36291
#
# Poissons Ratio (x) = -0.04892 -0.01064
# Poissons Ratio (y) = -0.04720 -0.04966
# Poissons Ratio (z) = -0.01570 -0.07598
#
# Static dielectric constant tensor:
#      x y z
#    x 2.013230 0.000000 0.000000 
#    y 0.000000 1.960280 0.000000 
#    z 0.000000 0.000000 1.967580 
# 
# From -- ./inp_files/8306.got.cif
#   From: 2010.05.17/outbox.cif.g08.bks.cpg/sg47_5_cif.got.tgz:8306.got - 2010.06.03 20:15:42.
