data_PCOD9385894
_publ_section_title
;
Structure prediction by ZEFSAII (Michael W. Deem and Ramdas Pophale) SiO2 
 PCOD9385894
Probable space group: P M M M
;
_chemical_formula_sum "Si O2"
_cell_formula_units_Z 64
_cell_length_a 32.828138
_cell_length_b 14.737424
_cell_length_c 8.257700
_cell_angle_alpha 90.000000
_cell_angle_beta 90.000000
_cell_angle_gamma 90.000000
_cell_volume 3995.093335
_symmetry_space_group_name_H-M "P M M M"
_symmetry_group_IT_number 47
_symmetry_cell_setting 'orthorhombic'
loop_
_space_group_symop_operation_xyz
x,y,z
-x,-y,z
x,-y,-z
-x,y,-z
-x,-y,-z
x,y,-z
-x,y,z
x,-y,z
loop_
_atom_site_type_symbol
_atom_site_label
_atom_site_fract_x
_atom_site_fract_y
_atom_site_fract_z
Si Si1 0.426592 0.397677 0.808825
Si Si2 0.334974 0.602285 0.691788
Si Si3 0.779264 0.105206 0.303664
Si Si4 0.544624 0.208389 0.691283
Si Si5 0.131519 0.110170 0.690939
Si Si6 0.701743 0.782213 0.193876
Si Si7 0.376148 0.896974 0.805751
Si Si8 0.043906 0.891916 0.303164
O O1 0.436487 0.500000 0.751635
O O2 0.378179 0.384110 0.781081
O O3 0.449010 0.315290 0.722977
O O4 0.435127 0.392866 0.000000
O O5 0.343169 0.607704 0.500000
O O6 0.320755 0.500000 0.729004
O O7 0.304172 0.680904 0.740536
O O8 0.780331 0.105364 0.500000
O O9 0.824116 0.136401 0.243302
O O10 0.742872 0.168293 0.246197
O O11 0.772621 0.000000 0.253223
O O12 0.545625 0.192157 0.500000
O O13 0.500000 0.181232 0.754681
O O14 0.582170 0.154526 0.766800
O O15 0.131529 0.133733 0.500000
O O16 0.087824 0.142629 0.758615
O O17 0.131139 0.000000 0.698969
O O18 0.662799 0.840451 0.254862
O O19 0.700052 0.779107 0.000000
O O20 0.376250 0.000000 0.742835
O O21 0.372423 0.901007 0.000000
O O22 0.044468 0.883674 0.500000
O O23 0.000000 0.854729 0.246380
O O24 0.043356 0.000000 0.269613
#
# Coordination Sequence:
#
# PCOD9385894 Si02
#       8
#     8   8   8   8   8   8   8   8
#     4  10  20  35  56  80 103 126 150 175 209 255
#     4  10  20  34  54  78 100 120 143 173 211 257
#     4   9  17  28  42  61  87 121 157 191 229 269
#     4  11  24  39  55  76 100 125 153 184 219 260
#     4   7  10  17  28  44  70 104 142 183 225 268
#     4  11  21  33  51  73  95 119 149 183 219 262
#     4  10  22  39  56  73  93 120 153 187 223 261
#     4   7   8  10  19  37  62  94 133 178 226 269
#
# _framework density 16.019651
#
# number of rings (size 3 to 8) (size 9 to 14) (size 15 to 20)
#    0.000    2.625    1.250    3.750    0.000    4.500 
#    0.000    2.500    0.000    0.000    0.000    0.000 
#    0.000    0.500    0.000    4.875    0.000    4.625 
#
# Total GULP energy -356520.622624 kJ/mol
# GULP energy per Si atom -5570.634728 kJ/mol
# Density = 1.598319 g / cm^3
# Si number density = 16.019651 Si / 1000 Ang^3
#
#
#
# Elastic Constant Matrix: (Units=GPa)
#
#
# Indices 1 2 3 4 5 6 
#
# 1 140.1591 45.9357 4.1982 0.0000 0.0000 0.0000
# 2 45.9357 65.1517 5.9525 0.0000 0.0000 0.0000
# 3 4.1982 5.9525 10.6069 0.0000 0.0000 0.0000
# 4 0.0000 0.0000 0.0000 14.4594 0.0000 0.0000
# 5 0.0000 0.0000 0.0000 0.0000 128.7728 0.0000
# 6 0.0000 0.0000 0.0000 0.0000 0.0000 2.0784
#
#
#
# Elastic Compliance Matrix: (Units=1/GPa)
#
#
# Indices 1 2 3 4 5 6 
#
# 1 0.009279 -0.006542 -0.000001 0.000000 0.000000 0.000000
# 2 -0.006542 0.020791 -0.009078 0.000000 0.000000 0.000000
# 3 -0.000001 -0.009078 0.099374 0.000000 0.000000 0.000000
# 4 0.000000 0.000000 0.000000 0.069159 0.000000 0.000000
# 5 0.000000 0.000000 0.000000 0.000000 0.007766 0.000000
# 6 0.000000 0.000000 0.000000 0.000000 0.000000 0.481128
#
#
# Mechanical properties :
#
#
# Convention : Reuss Voigt Hill
#
# Bulk Modulus (GPa) = 10.18328 36.45450 23.31889
# Shear Modulus (GPa) = 6.65360 39.71755 23.18558
#
# Velocity S-wave (km/s) = 2.04020 4.98466 3.80849
# Velocity P-wave (km/s) = 3.45260 7.47895 5.82473
#
# Compressibility (1/GPa) = 0.09820018
#
# Stress axis : x y z
#
# Youngs Moduli (GPa) = 107.77173 48.09838 10.06304
#
# Poissons Ratio (x) = 0.31466 0.00001
# Poissons Ratio (y) = 0.70505 0.09135
# Poissons Ratio (z) = 0.00014 0.43665
#
# Static dielectric constant tensor:
#      x y z
#    x 1.580890 0.000000 0.000000 
#    y 0.000000 1.519890 0.000000 
#    z 0.000000 0.000000 1.558210 
# 
# From -- ./inp_files/14323.got.cif
#   From: 2010.05.17/outbox.cif.g08.bks.cpg/sg47_8_cif.got.tgz:14323.got - 2010.06.03 20:15:42.
