data_PCOD9385756
_publ_section_title
;
Structure prediction by ZEFSAII (Michael W. Deem and Ramdas Pophale) SiO2 
 PCOD9385756
Probable space group: P M M M
;
_chemical_formula_sum "Si O2"
_cell_formula_units_Z 44
_cell_length_a 29.443207
_cell_length_b 8.115968
_cell_length_c 9.395231
_cell_angle_alpha 90.000000
_cell_angle_beta 90.000000
_cell_angle_gamma 90.000000
_cell_volume 2245.085582
_symmetry_space_group_name_H-M "P M M M"
_symmetry_group_IT_number 47
_symmetry_cell_setting 'orthorhombic'
loop_
_space_group_symop_operation_xyz
x,y,z
-x,-y,z
x,-y,-z
-x,y,-z
-x,-y,-z
x,y,-z
-x,y,z
x,-y,z
loop_
_atom_site_type_symbol
_atom_site_label
_atom_site_fract_x
_atom_site_fract_y
_atom_site_fract_z
Si Si1 0.902322 0.696396 0.835692
Si Si2 0.726906 0.698093 0.161788
Si Si3 0.000000 0.196747 0.164537
Si Si4 0.550864 0.700937 0.835233
Si Si5 0.638928 0.701892 0.663590
Si Si6 0.814603 0.196193 0.337973
O O1 0.899104 0.500000 0.840897
O O2 0.861360 0.761676 0.741228
O O3 0.951975 0.743363 0.775831
O O4 0.898908 0.759285 0.000000
O O5 0.723272 0.500000 0.154236
O O6 0.682324 0.757631 0.245462
O O7 0.772262 0.737792 0.248130
O O8 0.728951 0.761471 0.000000
O O9 0.000000 0.000000 0.164871
O O10 0.000000 0.257683 0.000000
O O11 0.500000 0.753833 0.792621
O O12 0.550933 0.500000 0.832549
O O13 0.591967 0.756358 0.736262
O O14 0.558360 0.748611 0.000000
O O15 0.642349 0.753950 0.500000
O O16 0.638955 0.500000 0.664857
O O17 0.814148 0.261072 0.500000
O O18 0.810384 0.000000 0.343633
#
# Coordination Sequence:
#
# PCOD9385756 Si02
#       6
#     8   8   4   8   8   8
#     4  10  20  35  57  84 111 140 177 218 258 303
#     4  10  20  34  53  75  98 128 168 211 255 307
#     4   9  17  31  54  83 114 147 180 216 258 301
#     4   8  13  21  33  51  80 120 163 205 249 298
#     4   9  16  25  39  61  90 124 161 203 252 305
#     4  11  24  39  54  75 104 136 170 211 260 311
#
# _framework density 19.598362999999999
#
# number of rings (size 3 to 8) (size 9 to 14) (size 15 to 20)
#    0.000    2.455    0.000    3.545    0.000    9.455 
#    0.000    2.273    0.000    2.727    0.000    0.000 
#    0.000    0.727    0.000    7.636    0.000   10.545 
#
# Total GULP energy -245567.981649 kJ/mol
# GULP energy per Si atom -5581.090492 kJ/mol
# Density = 1.955376 g / cm^3
# Si number density = 19.598363 Si / 1000 Ang^3
#
#
#
# Elastic Constant Matrix: (Units=GPa)
#
#
# Indices 1 2 3 4 5 6 
#
# 1 200.5588 2.8078 118.9509 0.0000 0.0000 0.0000
# 2 2.8078 12.5681 10.0227 0.0000 0.0000 0.0000
# 3 118.9509 10.0227 156.7181 0.0000 0.0000 0.0000
# 4 0.0000 0.0000 0.0000 13.0687 0.0000 0.0000
# 5 0.0000 0.0000 0.0000 0.0000 -10.7558 0.0000
# 6 0.0000 0.0000 0.0000 0.0000 0.0000 -54.1433
#
#
#
# Elastic Compliance Matrix: (Units=1/GPa)
#
#
# Indices 1 2 3 4 5 6 
#
# 1 0.009230 0.003714 -0.007243 0.000000 0.000000 0.000000
# 2 0.003714 0.085337 -0.008277 0.000000 0.000000 0.000000
# 3 -0.007243 -0.008277 0.012408 0.000000 0.000000 0.000000
# 4 0.000000 0.000000 0.000000 0.076518 0.000000 0.000000
# 5 0.000000 0.000000 0.000000 0.000000 -0.092973 0.000000
# 6 0.000000 0.000000 0.000000 0.000000 0.000000 -0.018469
#
#
# Mechanical properties :
#
#
# Convention : Reuss Voigt Hill
#
# Bulk Modulus (GPa) = 11.99563 70.37865 41.18714
# Shear Modulus (GPa) = 40.50203 5.50483 23.00343
#
# Velocity S-wave (km/s) = 4.55092 1.67777 3.42971
# Velocity P-wave (km/s) = 5.80935 6.30410 6.06177
#
# Compressibility (1/GPa) = 0.08336367
#
# Stress axis : x y z
#
# Youngs Moduli (GPa) = 108.34232 11.71820 80.59375
#
# Poissons Ratio (x) = -0.04352 0.58376
# Poissons Ratio (y) = -0.40241 0.66706
# Poissons Ratio (z) = 0.78475 0.09699
#
# Static dielectric constant tensor:
#      x y z
#    x 1.668040 0.000000 0.000000 
#    y 0.000000 1.695470 0.000000 
#    z 0.000000 0.000000 1.679430 
# 
# From -- ./inp_files/13565.got.cif
#   From: 2010.05.17/outbox.cif.g08.bks.cpg/sg47_7_cif.got.tgz:13565.got - 2010.06.03 20:15:42.
