data_PCOD9385026
_publ_section_title
;
Structure prediction by ZEFSAII (Michael W. Deem and Ramdas Pophale) SiO2 
 PCOD9385026
Probable space group: P M M M
;
_chemical_formula_sum "Si O2"
_cell_formula_units_Z 36
_cell_length_a 7.776559
_cell_length_b 9.504927
_cell_length_c 24.105672
_cell_angle_alpha 90.000000
_cell_angle_beta 90.000000
_cell_angle_gamma 90.000000
_cell_volume 1781.785827
_symmetry_space_group_name_H-M "P M M M"
_symmetry_group_IT_number 47
_symmetry_cell_setting 'orthorhombic'
loop_
_space_group_symop_operation_xyz
x,y,z
-x,-y,z
x,-y,-z
-x,y,-z
-x,-y,-z
x,y,-z
-x,y,z
x,-y,z
loop_
_atom_site_type_symbol
_atom_site_label
_atom_site_fract_x
_atom_site_fract_y
_atom_site_fract_z
Si Si1 0.795468 0.841329 0.726771
Si Si2 0.790284 0.162206 0.062374
Si Si3 0.210960 0.661608 0.168380
Si Si4 0.204801 0.339373 0.500000
Si Si5 0.703498 0.661063 0.620561
O O1 0.728710 0.750870 0.778628
O O2 0.770135 0.757626 0.669781
O O3 0.000000 0.852571 0.735474
O O4 0.724967 0.000000 0.724618
O O5 0.733359 0.263626 0.111514
O O6 0.000000 0.163957 0.062443
O O7 0.739390 0.000000 0.072687
O O8 0.735335 0.201740 0.000000
O O9 0.265862 0.500000 0.171821
O O10 0.000000 0.661733 0.168643
O O11 0.275683 0.500000 0.500000
O O12 0.259645 0.278734 0.559134
O O13 0.000000 0.344743 0.500000
O O14 0.500000 0.652000 0.626897
O O15 0.774509 0.500000 0.623528
#
# Coordination Sequence:
#
# PCOD9385026 Si02
#       5
#     8   8   8   4   8
#     4  10  20  33  49  69  95 129 168 208 250 297
#     4   8  13  21  33  51  80 119 158 195 240 295
#     4   9  16  25  39  60  86 118 158 204 250 295
#     4   9  17  31  54  81 106 133 164 198 238 287
#     4  10  20  34  53  77 104 132 163 201 245 292
#
# _framework density 20.204450000000001
#
# number of rings (size 3 to 8) (size 9 to 14) (size 15 to 20)
#    0.000    2.778    0.000    3.000    0.000    7.111 
#    0.000    2.778    0.000    3.333    0.000    0.000 
#    0.000    0.889    0.000    9.333    0.000   12.889 
#
# Total GULP energy -200833.398659 kJ/mol
# GULP energy per Si atom -5578.705518 kJ/mol
# Density = 2.015846 g / cm^3
# Si number density = 20.204450 Si / 1000 Ang^3
#
#
#
# Elastic Constant Matrix: (Units=GPa)
#
#
# Indices 1 2 3 4 5 6 
#
# 1 27.3512 6.6657 -2.6783 0.0000 0.0000 0.0000
# 2 6.6657 149.7185 126.7928 0.0000 0.0000 0.0000
# 3 -2.6783 126.7928 209.0193 0.0000 0.0000 0.0000
# 4 0.0000 0.0000 0.0000 -25.4911 0.0000 0.0000
# 5 0.0000 0.0000 0.0000 0.0000 -41.5240 0.0000
# 6 0.0000 0.0000 0.0000 0.0000 0.0000 3.7947
#
#
#
# Elastic Compliance Matrix: (Units=1/GPa)
#
#
# Indices 1 2 3 4 5 6 
#
# 1 0.037918 -0.004318 0.003105 0.000000 0.000000 0.000000
# 2 -0.004318 0.014227 -0.008686 0.000000 0.000000 0.000000
# 3 0.003105 -0.008686 0.010093 0.000000 0.000000 0.000000
# 4 0.000000 0.000000 0.000000 -0.039229 0.000000 0.000000
# 5 0.000000 0.000000 0.000000 0.000000 -0.024082 0.000000
# 6 0.000000 0.000000 0.000000 0.000000 0.000000 0.263525
#
#
# Mechanical properties :
#
#
# Convention : Reuss Voigt Hill
#
# Bulk Modulus (GPa) = 23.56211 71.96105 47.76158
# Shear Modulus (GPa) = 16.86941 4.37650 10.62296
#
# Velocity S-wave (km/s) = 2.89266 1.47337 2.29546
# Velocity P-wave (km/s) = 4.77952 6.21194 5.54220
#
# Compressibility (1/GPa) = 0.04244102
#
# Stress axis : x y z
#
# Youngs Moduli (GPa) = 26.37288 70.28902 99.08116
#
# Poissons Ratio (x) = 0.30349 -0.30765
# Poissons Ratio (y) = 0.11387 0.86057
# Poissons Ratio (z) = -0.08189 0.61050
#
# Static dielectric constant tensor:
#      x y z
#    x 1.739680 0.000000 0.000000 
#    y 0.000000 1.706040 0.000000 
#    z 0.000000 0.000000 1.704820 
# 
# From -- ./inp_files/1407.got.cif
#   From: 2010.05.17/outbox.cif.g08.bks.cpg/sg47_1_cif.got.tgz:1407.got - 2010.06.03 20:15:42.
