data_PCOD9385819
_publ_section_title
;
Structure prediction by ZEFSAII (Michael W. Deem and Ramdas Pophale) SiO2 
 PCOD9385819
Probable space group: P M M M
;
_chemical_formula_sum "Si O2"
_cell_formula_units_Z 52
_cell_length_a 7.832623
_cell_length_b 14.782990
_cell_length_c 23.899055
_cell_angle_alpha 90.000000
_cell_angle_beta 90.000000
_cell_angle_gamma 90.000000
_cell_volume 2767.261720
_symmetry_space_group_name_H-M "P M M M"
_symmetry_group_IT_number 47
_symmetry_cell_setting 'orthorhombic'
loop_
_space_group_symop_operation_xyz
x,y,z
-x,-y,z
x,-y,-z
-x,y,-z
-x,-y,-z
x,y,-z
-x,y,z
x,-y,z
loop_
_atom_site_type_symbol
_atom_site_label
_atom_site_fract_x
_atom_site_fract_y
_atom_site_fract_z
Si Si1 0.202517 0.212478 0.610702
Si Si2 0.790549 0.214150 0.829591
Si Si3 0.202107 0.399526 0.218816
Si Si4 0.703089 0.897337 0.500000
Si Si5 0.791159 0.104139 0.280603
Si Si6 0.702417 0.600922 0.653759
Si Si7 0.208348 0.895815 0.063134
O O1 0.246414 0.157784 0.555149
O O2 0.270674 0.160281 0.665625
O O3 0.259403 0.316612 0.612669
O O4 0.000000 0.213683 0.615946
O O5 0.729693 0.315793 0.816837
O O6 0.739767 0.151922 0.777038
O O7 0.733715 0.170290 0.887757
O O8 0.000000 0.215353 0.829981
O O9 0.275595 0.500000 0.209210
O O10 0.221363 0.378767 0.284885
O O11 0.000000 0.404269 0.207556
O O12 0.500000 0.903981 0.500000
O O13 0.774242 0.000000 0.500000
O O14 0.000000 0.104464 0.281500
O O15 0.736619 0.000000 0.283289
O O16 0.500000 0.597075 0.661105
O O17 0.762163 0.500000 0.636753
O O18 0.000000 0.894709 0.063413
O O19 0.258549 0.000000 0.074353
O O20 0.262656 0.871962 0.000000
#
# Coordination Sequence:
#
# PCOD9385819 Si02
#       7
#     8   8   8   4   8   8   8
#     4  11  21  36  57  80 104 133 172 214 251 297
#     4   9  14  22  37  60  89 122 160 201 246 291
#     4   9  16  27  44  67  94 124 162 204 248 302
#     4  11  25  43  60  79 108 145 177 206 248 299
#     4   9  16  25  41  68  96 120 153 201 249 288
#     4  10  20  34  53  77 105 135 165 203 256 312
#     4   8  13  20  31  51  84 126 165 199 239 291
#
# _framework density 18.791138
#
# number of rings (size 3 to 8) (size 9 to 14) (size 15 to 20)
#    0.000    2.538    1.538    2.538    0.000    4.000 
#    0.000    0.385    0.000    2.769    0.000    3.231 
#    0.000    0.615    0.000    5.538    0.000    5.538 
#
# Total GULP energy -290064.763725 kJ/mol
# GULP energy per Si atom -5578.168533 kJ/mol
# Density = 1.874837 g / cm^3
# Si number density = 18.791138 Si / 1000 Ang^3
#
#
#
# Elastic Constant Matrix: (Units=GPa)
#
#
# Indices 1 2 3 4 5 6 
#
# 1 24.1990 5.8713 0.0903 0.0000 0.0000 0.0000
# 2 5.8713 177.2378 94.5932 0.0000 0.0000 0.0000
# 3 0.0903 94.5932 126.5782 0.0000 0.0000 0.0000
# 4 0.0000 0.0000 0.0000 32.0417 0.0000 0.0000
# 5 0.0000 0.0000 0.0000 0.0000 -25.1711 0.0000
# 6 0.0000 0.0000 0.0000 0.0000 0.0000 8.8231
#
#
#
# Elastic Compliance Matrix: (Units=1/GPa)
#
#
# Indices 1 2 3 4 5 6 
#
# 1 0.041871 -0.002281 0.001675 0.000000 0.000000 0.000000
# 2 -0.002281 0.009510 -0.007105 0.000000 0.000000 0.000000
# 3 0.001675 -0.007105 0.013209 0.000000 0.000000 0.000000
# 4 0.000000 0.000000 0.000000 0.031209 0.000000 0.000000
# 5 0.000000 0.000000 0.000000 0.000000 -0.039728 0.000000
# 6 0.000000 0.000000 0.000000 0.000000 0.000000 0.113339
#
#
# Mechanical properties :
#
#
# Convention : Reuss Voigt Hill
#
# Bulk Modulus (GPa) = 20.33880 58.79161 39.56521
# Shear Modulus (GPa) = 24.84825 18.30275 21.57550
#
# Velocity S-wave (km/s) = 3.64034 3.12430 3.39215
# Velocity P-wave (km/s) = 5.34009 6.66107 6.03682
#
# Compressibility (1/GPa) = 0.04916711
#
# Stress axis : x y z
#
# Youngs Moduli (GPa) = 23.88276 105.15538 75.70727
#
# Poissons Ratio (x) = 0.23984 -0.12678
# Poissons Ratio (y) = 0.05447 0.53791
# Poissons Ratio (z) = -0.03999 0.74714
#
# Static dielectric constant tensor:
#      x y z
#    x 1.696380 0.000000 0.000000 
#    y 0.000000 1.693460 0.000000 
#    z 0.000000 0.000000 1.603930 
# 
# From -- ./inp_files/25020.got.cif
#   From: 2010.05.17/outbox.cif.g08.bks.cpg/sg47_13_cif.got.tgz:25020.got - 2010.06.03 20:15:42.
