data_PCOD9385832
_publ_section_title
;
Structure prediction by ZEFSAII (Michael W. Deem and Ramdas Pophale) SiO2 
 PCOD9385832
Probable space group: P M M M
;
_chemical_formula_sum "Si O2"
_cell_formula_units_Z 64
_cell_length_a 15.359116
_cell_length_b 23.314190
_cell_length_c 9.753550
_cell_angle_alpha 90.000000
_cell_angle_beta 90.000000
_cell_angle_gamma 90.000000
_cell_volume 3492.603352
_symmetry_space_group_name_H-M "P M M M"
_symmetry_group_IT_number 47
_symmetry_cell_setting 'orthorhombic'
loop_
_space_group_symop_operation_xyz
x,y,z
-x,-y,z
x,-y,-z
-x,y,-z
-x,-y,-z
x,y,-z
-x,y,z
x,-y,z
loop_
_atom_site_type_symbol
_atom_site_label
_atom_site_fract_x
_atom_site_fract_y
_atom_site_fract_z
Si Si1 0.094346 0.244823 0.652482
Si Si2 0.599387 0.212086 0.662334
Si Si3 0.103507 0.567744 0.347588
Si Si4 0.100118 0.931107 0.161392
Si Si5 0.155968 0.339315 0.847260
Si Si6 0.394964 0.434790 0.342643
Si Si7 0.230544 0.143080 0.340069
Si Si8 0.642250 0.323509 0.841631
O O1 0.101137 0.270384 0.500000
O O2 0.100819 0.294316 0.762085
O O3 0.171021 0.199904 0.667819
O O4 0.000000 0.215796 0.662323
O O5 0.614148 0.226114 0.500000
O O6 0.500000 0.190912 0.675587
O O7 0.672759 0.164878 0.700272
O O8 0.607888 0.269653 0.753461
O O9 0.130409 0.586197 0.500000
O O10 0.115723 0.500000 0.337827
O O11 0.154028 0.601244 0.232515
O O12 0.000000 0.578947 0.333764
O O13 0.177077 0.901784 0.247859
O O14 0.000000 0.915562 0.203089
O O15 0.106251 0.000000 0.172810
O O16 0.108753 0.916018 0.000000
O O17 0.253949 0.316483 0.849207
O O18 0.122905 0.346322 0.000000
O O19 0.365236 0.422825 0.500000
O O20 0.500000 0.436790 0.346578
O O21 0.365059 0.500000 0.306119
O O22 0.373178 0.383392 0.238724
O O23 0.233055 0.124457 0.500000
O O24 0.609755 0.325081 0.000000
#
# Coordination Sequence:
#
# PCOD9385832 Si02
#       8
#     8   8   8   8   8   8   8   8
#     4  10  20  34  53  77 106 141 179 220 269 324
#     4  10  21  38  60  83 109 146 191 237 285 338
#     4   9  19  36  55  72  91 122 168 218 268 325
#     4   9  19  36  58  87 125 166 201 232 272 324
#     4  11  23  35  48  71 103 135 170 214 265 324
#     4   9  19  36  56  76  97 125 166 216 273 340
#     4  10  20  35  57  86 117 148 189 239 282 323
#     4  11  23  36  51  75 107 139 175 223 278 337
#
# _framework density 18.324439000000002
#
# number of rings (size 3 to 8) (size 9 to 14) (size 15 to 20)
#    0.000    2.125    1.250    3.000    0.000    8.500 
#    0.000    4.375    0.000    0.375    0.000    2.625 
#    0.000    0.000    0.000    0.000    0.000    0.000 
#
# Total GULP energy -356908.579069 kJ/mol
# GULP energy per Si atom -5576.696548 kJ/mol
# Density = 1.828273 g / cm^3
# Si number density = 18.324439 Si / 1000 Ang^3
#
#
#
# Elastic Constant Matrix: (Units=GPa)
#
#
# Indices 1 2 3 4 5 6 
#
# 1 105.6122 37.8883 44.0713 0.0000 0.0000 0.0000
# 2 37.8883 66.1525 54.8101 0.0000 0.0000 0.0000
# 3 44.0713 54.8101 110.4603 0.0000 0.0000 0.0000
# 4 0.0000 0.0000 0.0000 37.6406 0.0000 0.0000
# 5 0.0000 0.0000 0.0000 0.0000 31.6411 0.0000
# 6 0.0000 0.0000 0.0000 0.0000 0.0000 28.9121
#
#
#
# Elastic Compliance Matrix: (Units=1/GPa)
#
#
# Indices 1 2 3 4 5 6 
#
# 1 0.012279 -0.005050 -0.002393 0.000000 0.000000 0.000000
# 2 -0.005050 0.027747 -0.011753 0.000000 0.000000 0.000000
# 3 -0.002393 -0.011753 0.015840 0.000000 0.000000 0.000000
# 4 0.000000 0.000000 0.000000 0.026567 0.000000 0.000000
# 5 0.000000 0.000000 0.000000 0.000000 0.031604 0.000000
# 6 0.000000 0.000000 0.000000 0.000000 0.000000 0.034588
#
#
# Mechanical properties :
#
#
# Convention : Reuss Voigt Hill
#
# Bulk Modulus (GPa) = 57.23087 61.75160 59.49123
# Shear Modulus (GPa) = 25.92806 29.33579 27.63193
#
# Velocity S-wave (km/s) = 3.76566 4.00548 3.88742
# Velocity P-wave (km/s) = 7.08567 7.42725 7.25847
#
# Compressibility (1/GPa) = 0.01747309
#
# Stress axis : x y z
#
# Youngs Moduli (GPa) = 81.44055 36.04030 63.13195
#
# Poissons Ratio (x) = 0.18199 0.15110
# Poissons Ratio (y) = 0.41124 0.74200
# Poissons Ratio (z) = 0.19492 0.42359
#
# Static dielectric constant tensor:
#      x y z
#    x 1.674180 0.000000 0.000000 
#    y 0.000000 1.606700 0.000000 
#    z 0.000000 0.000000 1.646650 
# 
# From -- ./inp_files/7928.got.cif
#   From: 2010.05.17/outbox.cif.g08.bks.cpg/sg47_4_cif.got.tgz:7928.got - 2010.06.03 20:15:42.
