data_PCOD9385409
_publ_section_title
;
Structure prediction by ZEFSAII (Michael W. Deem and Ramdas Pophale) SiO2 
 PCOD9385409
Probable space group: P M M M
;
_chemical_formula_sum "Si O2"
_cell_formula_units_Z 32
_cell_length_a 7.809085
_cell_length_b 9.431495
_cell_length_c 22.390633
_cell_angle_alpha 90.000000
_cell_angle_beta 90.000000
_cell_angle_gamma 90.000000
_cell_volume 1649.100261
_symmetry_space_group_name_H-M "P M M M"
_symmetry_group_IT_number 47
_symmetry_cell_setting 'orthorhombic'
loop_
_space_group_symop_operation_xyz
x,y,z
-x,-y,z
x,-y,-z
-x,y,-z
-x,-y,-z
x,y,-z
-x,y,z
x,-y,z
loop_
_atom_site_type_symbol
_atom_site_label
_atom_site_fract_x
_atom_site_fract_y
_atom_site_fract_z
Si Si1 0.796494 0.338073 0.267955
Si Si2 0.709672 0.336849 0.500000
Si Si3 0.000000 0.167055 0.071317
Si Si4 0.305568 0.668895 0.865299
Si Si5 0.293275 0.838286 0.615685
O O1 0.744236 0.500000 0.283237
O O2 0.710265 0.298486 0.205329
O O3 0.755644 0.235804 0.322505
O O4 0.000000 0.337652 0.257363
O O5 0.765233 0.500000 0.500000
O O6 0.500000 0.336859 0.500000
O O7 0.766401 0.254314 0.559324
O O8 0.833777 0.242240 0.099120
O O9 0.000000 0.000000 0.085653
O O10 0.000000 0.183416 0.000000
O O11 0.500000 0.695698 0.885161
O O12 0.270261 0.500000 0.871233
O O13 0.500000 0.841671 0.612769
O O14 0.231213 0.000000 0.612374
#
# Coordination Sequence:
#
# PCOD9385409 Si02
#       5
#     8   4   4   8   8
#     4  10  20  36  58  83 113 149 191 242 297 352
#     4   9  17  31  52  75 102 141 190 242 294 350
#     4  11  25  43  63  91 131 172 205 246 301 363
#     4  10  21  40  67  95 123 160 208 259 307 358
#     4  10  20  33  51  78 111 146 186 235 294 358
#
# _framework density 19.404522
#
# number of rings (size 3 to 8) (size 9 to 14) (size 15 to 20)
#    0.000    2.000    1.250    2.250    0.000    7.500 
#    0.000    3.125    0.000    3.750    0.000    0.000 
#    0.000    0.000    0.000    0.000    0.000    0.000 
#
# Total GULP energy -178817.678121 kJ/mol
# GULP energy per Si atom -5588.052441 kJ/mol
# Density = 1.936036 g / cm^3
# Si number density = 19.404522 Si / 1000 Ang^3
#
#
#
# Elastic Constant Matrix: (Units=GPa)
#
#
# Indices 1 2 3 4 5 6 
#
# 1 88.8511 63.5175 56.9240 0.0000 0.0000 0.0000
# 2 63.5175 143.5118 96.5276 0.0000 0.0000 0.0000
# 3 56.9240 96.5276 114.0520 0.0000 0.0000 0.0000
# 4 0.0000 0.0000 0.0000 53.9336 0.0000 0.0000
# 5 0.0000 0.0000 0.0000 0.0000 24.6312 0.0000
# 6 0.0000 0.0000 0.0000 0.0000 0.0000 19.8266
#
#
#
# Elastic Compliance Matrix: (Units=1/GPa)
#
#
# Indices 1 2 3 4 5 6 
#
# 1 0.017657 -0.004382 -0.005104 0.000000 0.000000 0.000000
# 2 -0.004382 0.017264 -0.012425 0.000000 0.000000 0.000000
# 3 -0.005104 -0.012425 0.021831 0.000000 0.000000 0.000000
# 4 0.000000 0.000000 0.000000 0.018541 0.000000 0.000000
# 5 0.000000 0.000000 0.000000 0.000000 0.040599 0.000000
# 6 0.000000 0.000000 0.000000 0.000000 0.000000 0.050437
#
#
# Mechanical properties :
#
#
# Convention : Reuss Voigt Hill
#
# Bulk Modulus (GPa) = 77.33226 86.70591 82.01909
# Shear Modulus (GPa) = 23.31405 28.30800 25.81103
#
# Velocity S-wave (km/s) = 3.46999 3.82361 3.65109
# Velocity P-wave (km/s) = 7.48289 8.01709 7.75459
#
# Compressibility (1/GPa) = 0.01293121
#
# Stress axis : x y z
#
# Youngs Moduli (GPa) = 56.63329 57.92250 45.80595
#
# Poissons Ratio (x) = 0.25380 0.23381
# Poissons Ratio (y) = 0.24816 0.56913
# Poissons Ratio (z) = 0.28908 0.71967
#
# Static dielectric constant tensor:
#      x y z
#    x 1.693780 0.000000 0.000000 
#    y 0.000000 1.657680 0.000000 
#    z 0.000000 0.000000 1.638570 
# 
# From -- ./inp_files/31620.got.cif
#   From: 2010.05.17/outbox.cif.g08.bks.cpg/sg47_16_cif.got.tgz:31620.got - 2010.06.03 20:15:42.
