data_PCOD9385953
_publ_section_title
;
Structure prediction by ZEFSAII (Michael W. Deem and Ramdas Pophale) SiO2 
 PCOD9385953
Probable space group: P M M M
;
_chemical_formula_sum "Si O2"
_cell_formula_units_Z 44
_cell_length_a 9.188689
_cell_length_b 9.385487
_cell_length_c 29.040022
_cell_angle_alpha 90.000000
_cell_angle_beta 90.000000
_cell_angle_gamma 90.000000
_cell_volume 2504.420824
_symmetry_space_group_name_H-M "P M M M"
_symmetry_group_IT_number 47
_symmetry_cell_setting 'orthorhombic'
loop_
_space_group_symop_operation_xyz
x,y,z
-x,-y,z
x,-y,-z
-x,y,-z
-x,-y,-z
x,y,-z
-x,y,z
x,-y,z
loop_
_atom_site_type_symbol
_atom_site_label
_atom_site_fract_x
_atom_site_fract_y
_atom_site_fract_z
Si Si1 0.172839 0.668948 0.727318
Si Si2 0.328204 0.670590 0.177433
Si Si3 0.674615 0.667731 0.447606
Si Si4 0.171681 0.828623 0.906135
Si Si5 0.174922 0.833551 0.365226
Si Si6 0.332425 0.826735 0.000000
O O1 0.194089 0.500000 0.719116
O O2 0.260207 0.709480 0.773082
O O3 0.218075 0.755372 0.682122
O O4 0.000000 0.692208 0.735078
O O5 0.500000 0.701151 0.176315
O O6 0.308415 0.500000 0.171883
O O7 0.246506 0.752174 0.136803
O O8 0.716424 0.707565 0.500000
O O9 0.500000 0.682746 0.444033
O O10 0.708499 0.500000 0.441418
O O11 0.752016 0.759273 0.408857
O O12 0.000000 0.797362 0.907872
O O13 0.188300 0.000000 0.901818
O O14 0.249099 0.783258 0.953671
O O15 0.000000 0.820156 0.369078
O O16 0.211899 0.000000 0.363277
O O17 0.500000 0.778837 0.000000
O O18 0.332970 0.000000 0.000000
#
# Coordination Sequence:
#
# PCOD9385953 Si02
#       6
#     8   8   8   8   8   4
#     4   9  18  34  54  73  98 136 177 213 252 303
#     4  10  21  36  54  78 107 137 171 214 263 311
#     4   9  19  36  56  77 102 135 176 218 258 304
#     4  10  20  34  54  79 106 138 176 216 258 307
#     4  10  21  35  52  78 110 139 169 210 259 309
#     4   9  17  31  52  77 106 139 174 214 260 309
#
# _framework density 17.568933000000001
#
# number of rings (size 3 to 8) (size 9 to 14) (size 15 to 20)
#    0.000    2.455    0.000    2.455    0.000    6.909 
#    0.000    6.818    0.000    2.727    0.000    0.000 
#    0.000    0.000    0.000    0.000    0.000    0.000 
#
# Total GULP energy -245570.247732 kJ/mol
# GULP energy per Si atom -5581.141994 kJ/mol
# Density = 1.752895 g / cm^3
# Si number density = 17.568933 Si / 1000 Ang^3
#
#
#
# Elastic Constant Matrix: (Units=GPa)
#
#
# Indices 1 2 3 4 5 6 
#
# 1 94.7354 61.4508 104.4590 0.0000 0.0000 0.0000
# 2 61.4508 57.1681 94.2067 0.0000 0.0000 0.0000
# 3 104.4590 94.2067 218.7190 0.0000 0.0000 0.0000
# 4 0.0000 0.0000 0.0000 42.7052 0.0000 0.0000
# 5 0.0000 0.0000 0.0000 0.0000 62.6848 0.0000
# 6 0.0000 0.0000 0.0000 0.0000 0.0000 26.1919
#
#
#
# Elastic Compliance Matrix: (Units=1/GPa)
#
#
# Indices 1 2 3 4 5 6 
#
# 1 0.035063 -0.034781 -0.001765 0.000000 0.000000 0.000000
# 2 -0.034781 0.094774 -0.024210 0.000000 0.000000 0.000000
# 3 -0.001765 -0.024210 0.015843 0.000000 0.000000 0.000000
# 4 0.000000 0.000000 0.000000 0.023416 0.000000 0.000000
# 5 0.000000 0.000000 0.000000 0.000000 0.015953 0.000000
# 6 0.000000 0.000000 0.000000 0.000000 0.000000 0.038180
#
#
# Mechanical properties :
#
#
# Convention : Reuss Voigt Hill
#
# Bulk Modulus (GPa) = 41.37729 98.98395 70.18062
# Shear Modulus (GPa) = 14.17249 33.68344 23.92796
#
# Velocity S-wave (km/s) = 2.84329 4.38335 3.69446
# Velocity P-wave (km/s) = 5.86358 9.05986 7.63094
#
# Compressibility (1/GPa) = 0.02416785
#
# Stress axis : x y z
#
# Youngs Moduli (GPa) = 28.52035 10.55139 63.12077
#
# Poissons Ratio (x) = 0.36699 0.11140
# Poissons Ratio (y) = 0.99197 1.52815
# Poissons Ratio (z) = 0.05033 0.25545
#
# Static dielectric constant tensor:
#      x y z
#    x 1.585530 0.000000 0.000000 
#    y 0.000000 1.584740 0.000000 
#    z 0.000000 0.000000 1.566770 
# 
# From -- ./inp_files/33921.got.cif
#   From: 2010.05.17/outbox.cif.g08.bks.cpg/sg47_17_cif.got.tgz:33921.got - 2010.06.03 20:15:42.
