data_PCOD9385679
_publ_section_title
;
Structure prediction by ZEFSAII (Michael W. Deem and Ramdas Pophale) SiO2 
 PCOD9385679
Probable space group: P M M M
;
_chemical_formula_sum "Si O2"
_cell_formula_units_Z 52
_cell_length_a 9.012383
_cell_length_b 13.964554
_cell_length_c 27.255338
_cell_angle_alpha 90.000000
_cell_angle_beta 90.000000
_cell_angle_gamma 90.000000
_cell_volume 3430.190830
_symmetry_space_group_name_H-M "P M M M"
_symmetry_group_IT_number 47
_symmetry_cell_setting 'orthorhombic'
loop_
_space_group_symop_operation_xyz
x,y,z
-x,-y,z
x,-y,-z
-x,y,-z
-x,-y,-z
x,y,-z
-x,y,z
x,-y,z
loop_
_atom_site_type_symbol
_atom_site_label
_atom_site_fract_x
_atom_site_fract_y
_atom_site_fract_z
Si Si1 0.321371 0.889205 0.644213
Si Si2 0.824800 0.115809 0.946221
Si Si3 0.177785 0.390866 0.698032
Si Si4 0.322010 0.386755 0.500000
Si Si5 0.822640 0.289856 0.594791
Si Si6 0.321555 0.212374 0.746116
Si Si7 0.321411 0.111977 0.154006
O O1 0.500000 0.880102 0.638779
O O2 0.241305 0.814706 0.608250
O O3 0.284039 0.856341 0.699920
O O4 0.281420 0.000000 0.636508
O O5 0.742692 0.149602 0.897411
O O6 0.000000 0.136066 0.942600
O O7 0.808665 0.000000 0.946637
O O8 0.771702 0.149923 0.000000
O O9 0.226941 0.500000 0.704868
O O10 0.209743 0.355205 0.642663
O O11 0.253307 0.315153 0.733978
O O12 0.000000 0.386672 0.704124
O O13 0.284978 0.500000 0.500000
O O14 0.500000 0.377573 0.500000
O O15 0.254180 0.336085 0.452214
O O16 0.000000 0.285812 0.588211
O O17 0.500000 0.219220 0.747234
O O18 0.271367 0.168844 0.797805
O O19 0.500000 0.115423 0.151959
O O20 0.278917 0.000000 0.159453
#
# Coordination Sequence:
#
# PCOD9385679 Si02
#       7
#     8   8   8   4   8   8   8
#     4   9  17  31  50  69  93 125 155 183 217 257
#     4   8  14  24  36  51  75 109 147 183 217 253
#     4   9  18  32  48  66  89 116 144 175 215 261
#     4  11  23  37  54  75  96 117 145 182 222 267
#     4  10  20  34  52  73  96 120 147 181 220 262
#     4   9  17  28  43  65  90 116 148 182 216 257
#     4   9  16  25  38  58  85 115 146 180 215 251
#
# _framework density 15.159506
#
# number of rings (size 3 to 8) (size 9 to 14) (size 15 to 20)
#    0.000    2.846    0.000    2.077    0.000    5.231 
#    0.000    1.923    0.000    5.077    0.000    0.000 
#    0.000    0.615    0.000    6.769    0.000    5.231 
#
# Total GULP energy -289715.737280 kJ/mol
# GULP energy per Si atom -5571.456486 kJ/mol
# Density = 1.512500 g / cm^3
# Si number density = 15.159506 Si / 1000 Ang^3
#
#
#
# Elastic Constant Matrix: (Units=GPa)
#
#
# Indices 1 2 3 4 5 6 
#
# 1 26.0740 38.5921 47.9368 0.0000 0.0000 0.0000
# 2 38.5921 116.3838 72.8157 0.0000 0.0000 0.0000
# 3 47.9368 72.8157 146.0147 0.0000 0.0000 0.0000
# 4 0.0000 0.0000 0.0000 15.9171 0.0000 0.0000
# 5 0.0000 0.0000 0.0000 0.0000 25.6958 0.0000
# 6 0.0000 0.0000 0.0000 0.0000 0.0000 20.2509
#
#
#
# Elastic Compliance Matrix: (Units=1/GPa)
#
#
# Indices 1 2 3 4 5 6 
#
# 1 0.130847 -0.024000 -0.030989 0.000000 0.000000 0.000000
# 2 -0.024000 0.016891 -0.000544 0.000000 0.000000 0.000000
# 3 -0.030989 -0.000544 0.017294 0.000000 0.000000 0.000000
# 4 0.000000 0.000000 0.000000 0.062825 0.000000 0.000000
# 5 0.000000 0.000000 0.000000 0.000000 0.038917 0.000000
# 6 0.000000 0.000000 0.000000 0.000000 0.000000 0.049380
#
#
# Mechanical properties :
#
#
# Convention : Reuss Voigt Hill
#
# Bulk Modulus (GPa) = 18.53014 67.46242 42.99628
# Shear Modulus (GPa) = 11.23068 20.98130 16.10599
#
# Velocity S-wave (km/s) = 2.72478 3.72430 3.26304
# Velocity P-wave (km/s) = 4.70629 7.94306 6.52845
#
# Compressibility (1/GPa) = 0.05396614
#
# Stress axis : x y z
#
# Youngs Moduli (GPa) = 7.64249 59.20358 57.82467
#
# Poissons Ratio (x) = 1.42088 1.79192
# Poissons Ratio (y) = 0.18342 0.03146
# Poissons Ratio (z) = 0.23683 0.03221
#
# Static dielectric constant tensor:
#      x y z
#    x 1.506690 0.000000 0.000000 
#    y 0.000000 1.482490 0.000000 
#    z 0.000000 0.000000 1.505420 
# 
# From -- ./inp_files/21743.got.cif
#   From: 2010.05.17/outbox.cif.g08.bks.cpg/sg47_11_cif.got.tgz:21743.got - 2010.06.03 20:15:42.
