data_PCOD9385805
_publ_section_title
;
Structure prediction by ZEFSAII (Michael W. Deem and Ramdas Pophale) SiO2 
 PCOD9385805
Probable space group: P M M M
;
_chemical_formula_sum "Si O2"
_cell_formula_units_Z 52
_cell_length_a 29.006037
_cell_length_b 8.474154
_cell_length_c 12.145602
_cell_angle_alpha 90.000000
_cell_angle_beta 90.000000
_cell_angle_gamma 90.000000
_cell_volume 2985.408702
_symmetry_space_group_name_H-M "P M M M"
_symmetry_group_IT_number 47
_symmetry_cell_setting 'orthorhombic'
loop_
_space_group_symop_operation_xyz
x,y,z
-x,-y,z
x,-y,-z
-x,y,-z
-x,-y,-z
x,y,-z
-x,y,z
x,-y,z
loop_
_atom_site_type_symbol
_atom_site_label
_atom_site_fract_x
_atom_site_fract_y
_atom_site_fract_z
Si Si1 0.857464 0.688832 0.274618
Si Si2 0.597122 0.190314 0.127187
Si Si3 0.500000 0.311874 0.128876
Si Si4 0.686798 0.190660 0.261780
Si Si5 0.947014 0.809732 0.373353
Si Si6 0.190374 0.691783 0.500000
Si Si7 0.703348 0.688914 0.500000
Si Si8 0.777139 0.809492 0.873230
O O1 0.855855 0.500000 0.271057
O O2 0.910079 0.743315 0.287830
O O3 0.833970 0.746206 0.388780
O O4 0.825594 0.753821 0.177326
O O5 0.548315 0.248710 0.174677
O O6 0.642148 0.242777 0.193066
O O7 0.596508 0.000000 0.126881
O O8 0.600835 0.243983 0.000000
O O9 0.500000 0.500000 0.132726
O O10 0.500000 0.259954 0.000000
O O11 0.682916 0.248189 0.386499
O O12 0.734353 0.245731 0.203250
O O13 0.687847 0.000000 0.260771
O O14 0.936602 0.757454 0.500000
O O15 0.000000 0.764678 0.350217
O O16 0.944581 0.000000 0.372615
O O17 0.188856 0.500000 0.500000
O O18 0.243219 0.741230 0.500000
O O19 0.701836 0.500000 0.500000
O O20 0.776394 0.000000 0.872137
O O21 0.771162 0.758261 0.000000
#
# Coordination Sequence:
#
# PCOD9385805 Si02
#       8
#     8   8   4   8   8   4   4   8
#     4  11  20  33  52  75 105 138 171 208 251 302
#     4   9  17  31  52  76 103 135 170 211 258 302
#     4   9  17  29  47  74 105 134 169 211 253 303
#     4  10  20  34  53  77 103 134 173 213 251 299
#     4   9  18  32  50  75 105 134 167 208 254 303
#     4   9  18  31  46  70 102 135 168 203 244 294
#     4  11  21  35  51  71 105 141 172 207 250 301
#     4  10  21  36  53  75 103 135 172 212 254 300
#
# _framework density 17.418050000000001
#
# number of rings (size 3 to 8) (size 9 to 14) (size 15 to 20)
#    0.000    2.231    2.308    1.846    0.000    4.000 
#    0.000    0.769    0.000    3.692    0.000    6.462 
#    0.000    0.000    0.000    0.000    0.000    0.000 
#
# Total GULP energy -289987.314043 kJ/mol
# GULP energy per Si atom -5576.679116 kJ/mol
# Density = 1.737841 g / cm^3
# Si number density = 17.418050 Si / 1000 Ang^3
#
#
#
# Elastic Constant Matrix: (Units=GPa)
#
#
# Indices 1 2 3 4 5 6 
#
# 1 140.6408 21.5447 59.6168 0.0000 0.0000 0.0000
# 2 21.5447 12.1247 16.9383 0.0000 0.0000 0.0000
# 3 59.6168 16.9383 102.0629 0.0000 0.0000 0.0000
# 4 0.0000 0.0000 0.0000 15.4140 0.0000 0.0000
# 5 0.0000 0.0000 0.0000 0.0000 24.3161 0.0000
# 6 0.0000 0.0000 0.0000 0.0000 0.0000 14.0866
#
#
#
# Elastic Compliance Matrix: (Units=1/GPa)
#
#
# Indices 1 2 3 4 5 6 
#
# 1 0.010960 -0.013710 -0.004126 0.000000 0.000000 0.000000
# 2 -0.013710 0.124520 -0.012657 0.000000 0.000000 0.000000
# 3 -0.004126 -0.012657 0.014309 0.000000 0.000000 0.000000
# 4 0.000000 0.000000 0.000000 0.064876 0.000000 0.000000
# 5 0.000000 0.000000 0.000000 0.000000 0.041125 0.000000
# 6 0.000000 0.000000 0.000000 0.000000 0.000000 0.070989
#
#
# Mechanical properties :
#
#
# Convention : Reuss Voigt Hill
#
# Bulk Modulus (GPa) = 11.26107 50.11422 30.68765
# Shear Modulus (GPa) = 11.97989 21.21193 16.59591
#
# Velocity S-wave (km/s) = 2.62541 3.49350 3.09009
# Velocity P-wave (km/s) = 3.95848 6.71615 5.51254
#
# Compressibility (1/GPa) = 0.08880149
#
# Stress axis : x y z
#
# Youngs Moduli (GPa) = 91.24321 8.03084 69.88715
#
# Poissons Ratio (x) = 0.11010 0.28839
# Poissons Ratio (y) = 1.25094 0.88457
# Poissons Ratio (z) = 0.37651 0.10165
#
# Static dielectric constant tensor:
#      x y z
#    x 1.605240 0.000000 0.000000 
#    y 0.000000 1.590910 0.000000 
#    z 0.000000 0.000000 1.582200 
# 
# From -- ./inp_files/19825.got.cif
#   From: 2010.05.17/outbox.cif.g08.bks.cpg/sg47_10_cif.got.tgz:19825.got - 2010.06.03 20:15:42.
