data_PCOD9385354
_publ_section_title
;
Structure prediction by ZEFSAII (Michael W. Deem and Ramdas Pophale) SiO2 
 PCOD9385354
Probable space group: P M M M
;
_chemical_formula_sum "Si O2"
_cell_formula_units_Z 40
_cell_length_a 9.634111
_cell_length_b 26.894994
_cell_length_c 7.721464
_cell_angle_alpha 90.000000
_cell_angle_beta 90.000000
_cell_angle_gamma 90.000000
_cell_volume 2000.703576
_symmetry_space_group_name_H-M "P M M M"
_symmetry_group_IT_number 47
_symmetry_cell_setting 'orthorhombic'
loop_
_space_group_symop_operation_xyz
x,y,z
-x,-y,z
x,-y,-z
-x,y,-z
-x,-y,-z
x,y,-z
-x,y,z
x,-y,z
loop_
_atom_site_type_symbol
_atom_site_label
_atom_site_fract_x
_atom_site_fract_y
_atom_site_fract_z
Si Si1 0.157322 0.798769 0.791668
Si Si2 0.839616 0.500000 0.287509
Si Si3 0.657533 0.406757 0.706325
Si Si4 0.669592 0.000000 0.298520
Si Si5 0.159743 0.687712 0.209077
Si Si6 0.657135 0.892862 0.708054
O O1 0.200629 0.743447 0.732363
O O2 0.252592 0.844745 0.744015
O O3 0.000000 0.807000 0.729643
O O4 0.153850 0.796686 0.000000
O O5 0.841960 0.500000 0.500000
O O6 0.755251 0.548644 0.228473
O O7 0.000000 0.500000 0.231313
O O8 0.647328 0.414186 0.500000
O O9 0.500000 0.407552 0.775997
O O10 0.734959 0.354740 0.735117
O O11 0.711494 0.946369 0.223639
O O12 0.500000 0.000000 0.295825
O O13 0.713808 0.000000 0.500000
O O14 0.000000 0.678162 0.266475
O O15 0.157723 0.687693 0.000000
O O16 0.649772 0.898215 0.500000
O O17 0.500000 0.885600 0.772816
#
# Coordination Sequence:
#
# PCOD9385354 Si02
#       6
#     8   4   8   4   8   8
#     4   9  19  35  51  68  95 130 164 199 242 290
#     4   9  17  31  52  75 100 133 168 198 234 283
#     4  10  20  33  51  77 106 131 158 198 245 289
#     4   7  12  26  46  67  94 126 156 191 238 287
#     4   9  19  36  54  70  93 129 169 204 240 286
#     4   9  17  30  50  74  97 123 159 201 242 287
#
# _framework density 19.992968000000001
#
# number of rings (size 3 to 8) (size 9 to 14) (size 15 to 20)
#    0.000    3.000    0.000    3.300    0.000    5.200 
#    0.000    7.500    0.000    7.800    0.000    0.000 
#    0.000    0.000    0.000    0.000    0.000    0.000 
#
# Total GULP energy -222971.839823 kJ/mol
# GULP energy per Si atom -5574.295996 kJ/mol
# Density = 1.994746 g / cm^3
# Si number density = 19.992968 Si / 1000 Ang^3
#
#
#
# Elastic Constant Matrix: (Units=GPa)
#
#
# Indices 1 2 3 4 5 6 
#
# 1 137.6639 131.9046 6.8826 0.0000 0.0000 0.0000
# 2 131.9046 226.1420 3.2156 0.0000 0.0000 0.0000
# 3 6.8826 3.2156 27.8008 0.0000 0.0000 0.0000
# 4 0.0000 0.0000 0.0000 38.8350 0.0000 0.0000
# 5 0.0000 0.0000 0.0000 0.0000 20.2101 0.0000
# 6 0.0000 0.0000 0.0000 0.0000 0.0000 38.2828
#
#
#
# Elastic Compliance Matrix: (Units=1/GPa)
#
#
# Indices 1 2 3 4 5 6 
#
# 1 0.016716 -0.009707 -0.003016 0.000000 0.000000 0.000000
# 2 -0.009707 0.010066 0.001239 0.000000 0.000000 0.000000
# 3 -0.003016 0.001239 0.036573 0.000000 0.000000 0.000000
# 4 0.000000 0.000000 0.000000 0.025750 0.000000 0.000000
# 5 0.000000 0.000000 0.000000 0.000000 0.049480 0.000000
# 6 0.000000 0.000000 0.000000 0.000000 0.000000 0.026121
#
#
# Mechanical properties :
#
#
# Convention : Reuss Voigt Hill
#
# Bulk Modulus (GPa) = 24.75981 75.06805 49.91393
# Shear Modulus (GPa) = 24.85856 36.10586 30.48221
#
# Velocity S-wave (km/s) = 3.52996 4.25423 3.90891
# Velocity P-wave (km/s) = 5.38752 7.85876 6.73741
#
# Compressibility (1/GPa) = 0.04038804
#
# Stress axis : x y z
#
# Youngs Moduli (GPa) = 59.82301 99.33982 27.34221
#
# Poissons Ratio (x) = 0.96432 0.08245
# Poissons Ratio (y) = 0.58072 -0.03387
# Poissons Ratio (z) = 0.18040 -0.12307
#
# Static dielectric constant tensor:
#      x y z
#    x 1.684110 0.000000 0.000000 
#    y 0.000000 1.720570 0.000000 
#    z 0.000000 0.000000 1.751600 
# 
# From -- ./inp_files/1758.got.cif
#   From: 2010.05.17/outbox.cif.g08.bks.cpg/sg47_1_cif.got.tgz:1758.got - 2010.06.03 20:15:42.
