data_PCOD9385278
_publ_section_title
;
Structure prediction by ZEFSAII (Michael W. Deem and Ramdas Pophale) SiO2 
 PCOD9385278
Probable space group: P M M M
;
_chemical_formula_sum "Si O2"
_cell_formula_units_Z 56
_cell_length_a 17.810722
_cell_length_b 8.884733
_cell_length_c 20.583191
_cell_angle_alpha 90.000000
_cell_angle_beta 90.000000
_cell_angle_gamma 90.000000
_cell_volume 3257.156381
_symmetry_space_group_name_H-M "P M M M"
_symmetry_group_IT_number 47
_symmetry_cell_setting 'orthorhombic'
loop_
_space_group_symop_operation_xyz
x,y,z
-x,-y,z
x,-y,-z
-x,y,-z
-x,-y,-z
x,y,-z
-x,y,z
x,-y,z
loop_
_atom_site_type_symbol
_atom_site_label
_atom_site_fract_x
_atom_site_fract_y
_atom_site_fract_z
Si Si1 0.088775 0.181064 0.425974
Si Si2 0.410491 0.325072 0.500000
Si Si3 0.843003 0.320315 0.923649
Si Si4 0.582092 0.181025 0.768834
Si Si5 0.366069 0.323834 0.638119
Si Si6 0.805471 0.325166 0.682854
Si Si7 0.253834 0.180741 0.812900
Si Si8 0.000000 0.827663 0.078814
O O1 0.111048 0.227332 0.500000
O O2 0.136702 0.255145 0.368618
O O3 0.000000 0.214893 0.418778
O O4 0.097113 0.000000 0.422473
O O5 0.383919 0.500000 0.500000
O O6 0.500000 0.325300 0.500000
O O7 0.382743 0.258134 0.567381
O O8 0.842148 0.500000 0.917357
O O9 0.780900 0.246352 0.878291
O O10 0.924129 0.256995 0.902196
O O11 0.832749 0.282919 0.000000
O O12 0.500000 0.231647 0.793718
O O13 0.592047 0.237284 0.695244
O O14 0.659099 0.230850 0.803899
O O15 0.582671 0.000000 0.770040
O O16 0.389771 0.500000 0.639933
O O17 0.277509 0.317998 0.651405
O O18 0.823983 0.500000 0.694959
O O19 0.794490 0.240202 0.751406
O O20 0.251510 0.000000 0.813277
O O21 0.000000 0.000000 0.101758
O O22 0.000000 0.829628 0.000000
#
# Coordination Sequence:
#
# PCOD9385278 Si02
#       8
#     8   4   8   8   8   8   8   4
#     4   9  19  36  55  73  96 130 173 218 263 315
#     4   9  16  26  41  63  92 123 156 194 239 295
#     4  10  20  35  56  82 113 144 175 215 260 305
#     4   9  18  33  52  73  99 131 169 215 262 306
#     4   9  18  30  46  68  94 127 164 203 249 306
#     4  10  20  33  51  74 102 131 168 217 264 312
#     4  10  20  35  55  78 107 140 177 217 260 315
#     4   9  17  31  53  81 111 143 178 207 240 297
#
# _framework density 17.192910999999999
#
# number of rings (size 3 to 8) (size 9 to 14) (size 15 to 20)
#    0.000    2.571    0.000    2.357    1.000    4.286 
#    1.286    1.071    0.000    1.714    0.000    3.000 
#    0.000    0.000    0.000    0.000    0.000    0.000 
#
# Total GULP energy -312137.125808 kJ/mol
# GULP energy per Si atom -5573.877247 kJ/mol
# Density = 1.715378 g / cm^3
# Si number density = 17.192911 Si / 1000 Ang^3
#
#
#
# Elastic Constant Matrix: (Units=GPa)
#
#
# Indices 1 2 3 4 5 6 
#
# 1 102.9483 40.0423 65.5531 0.0000 0.0000 0.0000
# 2 40.0423 46.6484 42.1723 0.0000 0.0000 0.0000
# 3 65.5531 42.1723 97.7541 0.0000 0.0000 0.0000
# 4 0.0000 0.0000 0.0000 24.0551 0.0000 0.0000
# 5 0.0000 0.0000 0.0000 0.0000 18.5905 0.0000
# 6 0.0000 0.0000 0.0000 0.0000 0.0000 17.6828
#
#
#
# Elastic Compliance Matrix: (Units=1/GPa)
#
#
# Indices 1 2 3 4 5 6 
#
# 1 0.018475 -0.007637 -0.009095 0.000000 0.000000 0.000000
# 2 -0.007637 0.038300 -0.011402 0.000000 0.000000 0.000000
# 3 -0.009095 -0.011402 0.021247 0.000000 0.000000 0.000000
# 4 0.000000 0.000000 0.000000 0.041571 0.000000 0.000000
# 5 0.000000 0.000000 0.000000 0.000000 0.053791 0.000000
# 6 0.000000 0.000000 0.000000 0.000000 0.000000 0.056552
#
#
# Mechanical properties :
#
#
# Convention : Reuss Voigt Hill
#
# Bulk Modulus (GPa) = 45.96443 60.32069 53.14256
# Shear Modulus (GPa) = 17.03835 18.70456 17.87146
#
# Velocity S-wave (km/s) = 3.15145 3.30195 3.22757
# Velocity P-wave (km/s) = 6.32730 7.04968 6.69823
#
# Compressibility (1/GPa) = 0.02175595
#
# Stress axis : x y z
#
# Youngs Moduli (GPa) = 54.12700 26.10951 47.06437
#
# Poissons Ratio (x) = 0.19939 0.42803
# Poissons Ratio (y) = 0.41336 0.53663
# Poissons Ratio (z) = 0.49227 0.29770
#
# Static dielectric constant tensor:
#      x y z
#    x 1.589850 0.000000 0.000000 
#    y 0.000000 1.584680 0.000000 
#    z 0.000000 0.000000 1.572190 
# 
# From -- ./inp_files/31000.got.cif
#   From: 2010.05.17/outbox.cif.g08.bks.cpg/sg47_16_cif.got.tgz:31000.got - 2010.06.03 20:15:42.
