data_PCOD9385120
_publ_section_title
;
Structure prediction by ZEFSAII (Michael W. Deem and Ramdas Pophale) SiO2 
 PCOD9385120
Probable space group: P M M M
;
_chemical_formula_sum "Si O2"
_cell_formula_units_Z 40
_cell_length_a 26.940948
_cell_length_b 9.520258
_cell_length_c 7.720806
_cell_angle_alpha 90.000000
_cell_angle_beta 90.000000
_cell_angle_gamma 90.000000
_cell_volume 1980.269195
_symmetry_space_group_name_H-M "P M M M"
_symmetry_group_IT_number 47
_symmetry_cell_setting 'orthorhombic'
loop_
_space_group_symop_operation_xyz
x,y,z
-x,-y,z
x,-y,-z
-x,y,-z
-x,-y,-z
x,y,-z
-x,y,z
x,-y,z
loop_
_atom_site_type_symbol
_atom_site_label
_atom_site_fract_x
_atom_site_fract_y
_atom_site_fract_z
Si Si1 0.556115 0.339872 0.290880
Si Si2 0.838268 0.163378 0.287482
Si Si3 0.745189 0.342255 0.705665
Si Si4 0.946667 0.830603 0.707328
Si Si5 0.349281 0.841847 0.795487
O O1 0.555785 0.341568 0.500000
O O2 0.500000 0.305108 0.233235
O O3 0.567473 0.500000 0.233565
O O4 0.598015 0.231998 0.235580
O O5 0.838797 0.164154 0.500000
O O6 0.792430 0.256298 0.225323
O O7 0.892673 0.216748 0.228741
O O8 0.831999 0.000000 0.237014
O O9 0.753396 0.353961 0.500000
O O10 0.740898 0.500000 0.776892
O O11 0.694866 0.255170 0.727316
O O12 0.947337 0.805070 0.500000
O O13 0.000000 0.779149 0.777174
O O14 0.946196 0.000000 0.729211
O O15 0.347767 0.000000 0.722456
O O16 0.341829 0.850933 0.000000
#
# Coordination Sequence:
#
# PCOD9385120 Si02
#       5
#     8   8   8   8   8
#     4   9  19  37  60  84 108 134 165 198 232 277
#     4   8  13  22  38  60  86 118 156 197 240 284
#     4  10  20  33  50  71  95 126 165 206 246 292
#     4   7   9  14  27  50  80 113 149 188 230 278
#     4  11  24  38  52  74 103 132 164 204 247 289
#
# _framework density 20.199273999999999
#
# number of rings (size 3 to 8) (size 9 to 14) (size 15 to 20)
#    0.000    3.000    0.000    4.200    0.000    6.400 
#    0.000    3.000    0.000    0.600    0.000    4.200 
#    0.000    0.800    0.000    9.200    0.000   10.600 
#
# Total GULP energy -222959.642658 kJ/mol
# GULP energy per Si atom -5573.991066 kJ/mol
# Density = 2.015330 g / cm^3
# Si number density = 20.199274 Si / 1000 Ang^3
#
#
#
# Elastic Constant Matrix: (Units=GPa)
#
#
# Indices 1 2 3 4 5 6 
#
# 1 178.6353 104.6736 -3.5298 0.0000 0.0000 0.0000
# 2 104.6736 129.7607 3.6565 0.0000 0.0000 0.0000
# 3 -3.5298 3.6565 28.5979 0.0000 0.0000 0.0000
# 4 0.0000 0.0000 0.0000 34.5225 0.0000 0.0000
# 5 0.0000 0.0000 0.0000 0.0000 -50.1619 0.0000
# 6 0.0000 0.0000 0.0000 0.0000 0.0000 38.5589
#
#
#
# Elastic Compliance Matrix: (Units=1/GPa)
#
#
# Indices 1 2 3 4 5 6 
#
# 1 0.010785 -0.008769 0.002452 0.000000 0.000000 0.000000
# 2 -0.008769 0.014864 -0.002983 0.000000 0.000000 0.000000
# 3 0.002452 -0.002983 0.035652 0.000000 0.000000 0.000000
# 4 0.000000 0.000000 0.000000 0.028967 0.000000 0.000000
# 5 0.000000 0.000000 0.000000 0.000000 -0.019935 0.000000
# 6 0.000000 0.000000 0.000000 0.000000 0.000000 0.025934
#
#
# Mechanical properties :
#
#
# Convention : Reuss Voigt Hill
#
# Bulk Modulus (GPa) = 23.41818 60.73271 42.07544
# Shear Modulus (GPa) = 38.73026 20.06345 29.39686
#
# Velocity S-wave (km/s) = 4.38357 3.15505 3.81903
# Velocity P-wave (km/s) = 6.10243 6.58821 6.34997
#
# Compressibility (1/GPa) = 0.04270187
#
# Stress axis : x y z
#
# Youngs Moduli (GPa) = 92.72525 67.27706 28.04913
#
# Poissons Ratio (x) = 0.58993 -0.06879
# Poissons Ratio (y) = 0.81307 0.08367
# Poissons Ratio (z) = -0.22739 0.20068
#
# Static dielectric constant tensor:
#      x y z
#    x 1.733070 0.000000 0.000000 
#    y 0.000000 1.703680 0.000000 
#    z 0.000000 0.000000 1.756790 
# 
# From -- ./inp_files/1653.got.cif
#   From: 2010.05.17/outbox.cif.g08.bks.cpg/sg47_1_cif.got.tgz:1653.got - 2010.06.03 20:15:42.
