data_PCOD9385297
_publ_section_title
;
Structure prediction by ZEFSAII (Michael W. Deem and Ramdas Pophale) SiO2 
 PCOD9385297
Probable space group: P M M M
;
_chemical_formula_sum "Si O2"
_cell_formula_units_Z 56
_cell_length_a 24.246285
_cell_length_b 13.888232
_cell_length_c 9.345736
_cell_angle_alpha 90.000000
_cell_angle_beta 90.000000
_cell_angle_gamma 90.000000
_cell_volume 3147.064741
_symmetry_space_group_name_H-M "P M M M"
_symmetry_group_IT_number 47
_symmetry_cell_setting 'orthorhombic'
loop_
_space_group_symop_operation_xyz
x,y,z
-x,-y,z
x,-y,-z
-x,y,-z
-x,-y,-z
x,y,-z
-x,y,z
x,-y,z
loop_
_atom_site_type_symbol
_atom_site_label
_atom_site_fract_x
_atom_site_fract_y
_atom_site_fract_z
Si Si1 0.220924 0.385102 0.833341
Si Si2 0.830021 0.887061 0.329585
Si Si3 0.891029 0.617203 0.664025
Si Si4 0.938764 0.882669 0.166974
Si Si5 0.720194 0.231329 0.328591
Si Si6 0.500000 0.117041 0.164539
Si Si7 0.610198 0.886698 0.670681
Si Si8 0.000000 0.382326 0.834997
O O1 0.228000 0.500000 0.824558
O O2 0.165345 0.359992 0.746103
O O3 0.270584 0.328654 0.758810
O O4 0.214907 0.359011 0.000000
O O5 0.837192 0.879786 0.500000
O O6 0.885499 0.850029 0.254341
O O7 0.773609 0.833525 0.291657
O O8 0.823732 0.000000 0.293617
O O9 0.890703 0.651936 0.500000
O O10 0.893485 0.500000 0.658426
O O11 0.944874 0.647751 0.752069
O O12 0.000000 0.851872 0.216173
O O13 0.938876 0.000000 0.175177
O O14 0.932886 0.857437 0.000000
O O15 0.721358 0.248422 0.500000
O O16 0.664250 0.174915 0.294216
O O17 0.555739 0.146101 0.245784
O O18 0.500000 0.000000 0.167073
O O19 0.500000 0.148210 0.000000
O O20 0.600546 0.879771 0.500000
O O21 0.620249 0.000000 0.702413
O O22 0.000000 0.500000 0.836448
O O23 0.000000 0.351249 0.000000
#
# Coordination Sequence:
#
# PCOD9385297 Si02
#       8
#     8   8   8   8   8   4   8   4
#     4  10  21  36  52  70  94 126 165 211 262 312
#     4   9  17  29  46  70  99 127 156 195 243 293
#     4   9  16  27  45  67  89 115 150 194 246 304
#     4   8  14  25  41  61  86 119 159 199 239 286
#     4  10  20  33  51  75 102 132 168 208 250 298
#     4   9  17  29  47  75 112 149 182 213 241 276
#     4   9  17  31  52  78 110 147 180 207 241 289
#     4   9  15  23  39  65  93 117 144 183 238 307
#
# _framework density 17.794359
#
# number of rings (size 3 to 8) (size 9 to 14) (size 15 to 20)
#    0.000    2.857    0.000    2.143    0.000    7.429 
#    0.000    1.429    1.571    4.286    0.000    0.500 
#    0.000    4.000    0.000    0.000    0.000    0.000 
#
# Total GULP energy -312640.180368 kJ/mol
# GULP energy per Si atom -5582.860364 kJ/mol
# Density = 1.775386 g / cm^3
# Si number density = 17.794359 Si / 1000 Ang^3
#
#
#
# Elastic Constant Matrix: (Units=GPa)
#
#
# Indices 1 2 3 4 5 6 
#
# 1 159.7622 44.3366 82.9731 0.0000 0.0000 0.0000
# 2 44.3366 55.2090 35.2204 0.0000 0.0000 0.0000
# 3 82.9731 35.2204 91.2950 0.0000 0.0000 0.0000
# 4 0.0000 0.0000 0.0000 15.1103 0.0000 0.0000
# 5 0.0000 0.0000 0.0000 0.0000 -21.1204 0.0000
# 6 0.0000 0.0000 0.0000 0.0000 0.0000 23.5853
#
#
#
# Elastic Compliance Matrix: (Units=1/GPa)
#
#
# Indices 1 2 3 4 5 6 
#
# 1 0.012391 -0.003670 -0.009846 0.000000 0.000000 0.000000
# 2 -0.003670 0.025113 -0.006353 0.000000 0.000000 0.000000
# 3 -0.009846 -0.006353 0.022353 0.000000 0.000000 0.000000
# 4 0.000000 0.000000 0.000000 0.066180 0.000000 0.000000
# 5 0.000000 0.000000 0.000000 0.000000 -0.047347 0.000000
# 6 0.000000 0.000000 0.000000 0.000000 0.000000 0.042399
#
#
# Mechanical properties :
#
#
# Convention : Reuss Voigt Hill
#
# Bulk Modulus (GPa) = 49.70280 70.14738 59.92509
# Shear Modulus (GPa) = 29.84485 13.09743 21.47114
#
# Velocity S-wave (km/s) = 4.09982 2.71596 3.47742
# Velocity P-wave (km/s) = 7.09956 7.02438 7.06207
#
# Compressibility (1/GPa) = 0.02011959
#
# Stress axis : x y z
#
# Youngs Moduli (GPa) = 80.70161 39.82014 44.73690
#
# Poissons Ratio (x) = 0.14613 0.44048
# Poissons Ratio (y) = 0.29616 0.28421
# Poissons Ratio (z) = 0.79459 0.25297
#
# Static dielectric constant tensor:
#      x y z
#    x 1.574130 0.000000 0.000000 
#    y 0.000000 1.655520 0.000000 
#    z 0.000000 0.000000 1.594380 
# 
# From -- ./inp_files/11298.got.cif
#   From: 2010.05.17/outbox.cif.g08.bks.cpg/sg47_6_cif.got.tgz:11298.got - 2010.06.03 20:15:42.
