data_PCOD9385824
_publ_section_title
;
Structure prediction by ZEFSAII (Michael W. Deem and Ramdas Pophale) SiO2 
 PCOD9385824
Probable space group: P M M M
;
_chemical_formula_sum "Si O2"
_cell_formula_units_Z 40
_cell_length_a 9.459238
_cell_length_b 27.880089
_cell_length_c 7.950452
_cell_angle_alpha 90.000000
_cell_angle_beta 90.000000
_cell_angle_gamma 90.000000
_cell_volume 2096.728162
_symmetry_space_group_name_H-M "P M M M"
_symmetry_group_IT_number 47
_symmetry_cell_setting 'orthorhombic'
loop_
_space_group_symop_operation_xyz
x,y,z
-x,-y,z
x,-y,-z
-x,y,-z
-x,-y,-z
x,y,-z
-x,y,z
x,-y,z
loop_
_atom_site_type_symbol
_atom_site_label
_atom_site_fract_x
_atom_site_fract_y
_atom_site_fract_z
Si Si1 0.165655 0.557458 0.000000
Si Si2 0.159353 0.195296 0.201801
Si Si3 0.661893 0.000000 0.799742
Si Si4 0.338560 0.896801 0.699813
Si Si5 0.668977 0.605265 0.692446
Si Si6 0.664267 0.713285 0.203076
O O1 0.243387 0.577834 0.165499
O O2 0.174600 0.500000 0.000000
O O3 0.000000 0.571365 0.000000
O O4 0.247023 0.147517 0.238537
O O5 0.239473 0.242931 0.262910
O O6 0.000000 0.192074 0.267933
O O7 0.152788 0.199883 0.000000
O O8 0.723791 0.050900 0.744494
O O9 0.500000 0.000000 0.730876
O O10 0.656731 0.000000 0.000000
O O11 0.346723 0.893827 0.500000
O O12 0.500000 0.894198 0.769057
O O13 0.701162 0.590979 0.500000
O O14 0.500000 0.598484 0.720473
O O15 0.696902 0.662078 0.715473
O O16 0.500000 0.724834 0.236972
O O17 0.678784 0.707770 0.000000
#
# Coordination Sequence:
#
# PCOD9385824 Si02
#       6
#     4   8   4   8   8   8
#     4  11  25  43  63  89 127 171 209 250 301 360
#     4  10  21  35  52  78 112 148 186 227 273 330
#     4   9  17  31  54  79 100 127 170 224 278 333
#     4  10  20  34  53  77 105 137 176 224 277 332
#     4  10  21  39  65  95 124 157 204 259 310 361
#     4   9  17  33  57  84 116 152 191 237 290 346
#
# _framework density 19.077342000000002
#
# number of rings (size 3 to 8) (size 9 to 14) (size 15 to 20)
#    0.000    2.200    1.000    1.800    0.000    6.800 
#    0.000    4.500    0.000    3.000    0.000    0.000 
#    0.000    0.000    0.000    0.000    0.000    0.000 
#
# Total GULP energy -223259.375109 kJ/mol
# GULP energy per Si atom -5581.484378 kJ/mol
# Density = 1.903392 g / cm^3
# Si number density = 19.077342 Si / 1000 Ang^3
#
#
#
# Elastic Constant Matrix: (Units=GPa)
#
#
# Indices 1 2 3 4 5 6 
#
# 1 95.6700 78.6331 54.0140 0.0000 0.0000 0.0000
# 2 78.6331 114.3924 50.7124 0.0000 0.0000 0.0000
# 3 54.0140 50.7124 80.3264 0.0000 0.0000 0.0000
# 4 0.0000 0.0000 0.0000 -24.9119 0.0000 0.0000
# 5 0.0000 0.0000 0.0000 0.0000 13.8702 0.0000
# 6 0.0000 0.0000 0.0000 0.0000 0.0000 -35.5920
#
#
#
# Elastic Compliance Matrix: (Units=1/GPa)
#
#
# Indices 1 2 3 4 5 6 
#
# 1 0.028349 -0.015325 -0.009387 0.000000 0.000000 0.000000
# 2 -0.015325 0.020424 -0.002589 0.000000 0.000000 0.000000
# 3 -0.009387 -0.002589 0.020396 0.000000 0.000000 0.000000
# 4 0.000000 0.000000 0.000000 -0.040142 0.000000 0.000000
# 5 0.000000 0.000000 0.000000 0.000000 0.072097 0.000000
# 6 0.000000 0.000000 0.000000 0.000000 0.000000 -0.028096
#
#
# Mechanical properties :
#
#
# Convention : Reuss Voigt Hill
#
# Bulk Modulus (GPa) = 68.65504 73.01198 70.83351
# Shear Modulus (GPa) = 37.73950 -2.19145 17.77403
#
# Velocity S-wave (km/s) = 4.45256 -1.07295 3.05566
# Velocity P-wave (km/s) = 7.90567 6.06792 7.04696
#
# Compressibility (1/GPa) = 0.01456557
#
# Stress axis : x y z
#
# Youngs Moduli (GPa) = 35.27502 48.96128 49.02885
#
# Poissons Ratio (x) = 0.75035 0.46024
# Poissons Ratio (y) = 0.54060 0.12695
# Poissons Ratio (z) = 0.33113 0.12677
#
# Static dielectric constant tensor:
#      x y z
#    x 1.663570 0.000000 0.000000 
#    y 0.000000 1.647690 0.000000 
#    z 0.000000 0.000000 1.673370 
# 
# From -- ./inp_files/1741.got.cif
#   From: 2010.05.17/outbox.cif.g08.bks.cpg/sg47_1_cif.got.tgz:1741.got - 2010.06.03 20:15:42.
