data_PCOD9385078
_publ_section_title
;
Structure prediction by ZEFSAII (Michael W. Deem and Ramdas Pophale) SiO2 
 PCOD9385078
Probable space group: P M M M
;
_chemical_formula_sum "Si O2"
_cell_formula_units_Z 48
_cell_length_a 19.114065
_cell_length_b 8.702888
_cell_length_c 16.460715
_cell_angle_alpha 90.000000
_cell_angle_beta 90.000000
_cell_angle_gamma 90.000000
_cell_volume 2738.199890
_symmetry_space_group_name_H-M "P M M M"
_symmetry_group_IT_number 47
_symmetry_cell_setting 'orthorhombic'
loop_
_space_group_symop_operation_xyz
x,y,z
-x,-y,z
x,-y,-z
-x,y,-z
-x,-y,-z
x,y,-z
-x,y,z
x,-y,z
loop_
_atom_site_type_symbol
_atom_site_label
_atom_site_fract_x
_atom_site_fract_y
_atom_site_fract_z
Si Si1 0.161174 0.685136 0.836993
Si Si2 0.710436 0.815947 0.249387
Si Si3 0.584846 0.826022 0.500000
Si Si4 0.790627 0.815293 0.588392
Si Si5 0.581419 0.683437 0.325759
Si Si6 0.919649 0.314881 0.328427
Si Si7 0.081151 0.312352 0.000000
O O1 0.167113 0.500000 0.838432
O O2 0.237760 0.754359 0.819999
O O3 0.112370 0.726425 0.759824
O O4 0.123002 0.735376 0.919370
O O5 0.746406 0.761810 0.334210
O O6 0.632364 0.752002 0.257587
O O7 0.709239 0.000000 0.247274
O O8 0.500000 0.831744 0.500000
O O9 0.602946 0.745561 0.415190
O O10 0.612871 0.000000 0.500000
O O11 0.765751 0.761745 0.500000
O O12 0.869176 0.759259 0.605222
O O13 0.788856 0.000000 0.589247
O O14 0.500000 0.726794 0.313412
O O15 0.586269 0.500000 0.326283
O O16 0.916452 0.500000 0.335341
O O17 0.000000 0.267120 0.334819
O O18 0.079693 0.500000 0.000000
O O19 0.000000 0.262109 0.000000
#
# Coordination Sequence:
#
# PCOD9385078 Si02
#       7
#     8   8   4   8   8   8   4
#     4   9  17  31  50  73 101 129 160 198 244 298
#     4  10  20  33  50  69  95 131 168 205 248 299
#     4   9  17  29  45  67  97 131 166 205 250 299
#     4   9  19  33  45  60  84 118 161 203 240 281
#     4  10  20  33  49  72 100 129 166 212 258 301
#     4   9  17  29  45  65  90 119 152 195 242 285
#     4   9  16  28  53  85 108 131 166 205 247 302
#
# _framework density 17.529764
#
# number of rings (size 3 to 8) (size 9 to 14) (size 15 to 20)
#    0.000    2.667    0.000    1.750    1.167    5.667 
#    0.000    2.083    0.000    2.000    0.000    0.583 
#    0.000    4.667    0.000    0.000    0.000    0.000 
#
# Total GULP energy -267669.310462 kJ/mol
# GULP energy per Si atom -5576.443968 kJ/mol
# Density = 1.748987 g / cm^3
# Si number density = 17.529764 Si / 1000 Ang^3
#
#
#
# Elastic Constant Matrix: (Units=GPa)
#
#
# Indices 1 2 3 4 5 6 
#
# 1 118.8352 26.2555 40.4816 0.0000 0.0000 0.0000
# 2 26.2555 17.6051 15.7894 0.0000 0.0000 0.0000
# 3 40.4816 15.7894 80.8637 0.0000 0.0000 0.0000
# 4 0.0000 0.0000 0.0000 14.0242 0.0000 0.0000
# 5 0.0000 0.0000 0.0000 0.0000 28.6079 0.0000
# 6 0.0000 0.0000 0.0000 0.0000 0.0000 21.1416
#
#
#
# Elastic Compliance Matrix: (Units=1/GPa)
#
#
# Indices 1 2 3 4 5 6 
#
# 1 0.013266 -0.016764 -0.003368 0.000000 0.000000 0.000000
# 2 -0.016764 0.090045 -0.009190 0.000000 0.000000 0.000000
# 3 -0.003368 -0.009190 0.015847 0.000000 0.000000 0.000000
# 4 0.000000 0.000000 0.000000 0.071305 0.000000 0.000000
# 5 0.000000 0.000000 0.000000 0.000000 0.034955 0.000000
# 6 0.000000 0.000000 0.000000 0.000000 0.000000 0.047300
#
#
# Mechanical properties :
#
#
# Convention : Reuss Voigt Hill
#
# Bulk Modulus (GPa) = 16.52495 42.48411 29.50453
# Shear Modulus (GPa) = 14.22339 21.73992 17.98165
#
# Velocity S-wave (km/s) = 2.85157 3.52543 3.20625
# Velocity P-wave (km/s) = 4.50435 6.39215 5.52941
#
# Compressibility (1/GPa) = 0.06051457
#
# Stress axis : x y z
#
# Youngs Moduli (GPa) = 75.37977 11.10557 63.10386
#
# Poissons Ratio (x) = 0.18617 0.21253
# Poissons Ratio (y) = 1.26367 0.57991
# Poissons Ratio (z) = 0.25387 0.10206
#
# Static dielectric constant tensor:
#      x y z
#    x 1.627430 0.000000 0.000000 
#    y 0.000000 1.591010 0.000000 
#    z 0.000000 0.000000 1.588890 
# 
# From -- ./inp_files/21124.got.cif
#   From: 2010.05.17/outbox.cif.g08.bks.cpg/sg47_11_cif.got.tgz:21124.got - 2010.06.03 20:15:42.
