data_PCOD9385379
_publ_section_title
;
Structure prediction by ZEFSAII (Michael W. Deem and Ramdas Pophale) SiO2 
 PCOD9385379
Probable space group: P M M M
;
_chemical_formula_sum "Si O2"
_cell_formula_units_Z 48
_cell_length_a 9.379650
_cell_length_b 31.835696
_cell_length_c 8.849181
_cell_angle_alpha 90.000000
_cell_angle_beta 90.000000
_cell_angle_gamma 90.000000
_cell_volume 2642.433461
_symmetry_space_group_name_H-M "P M M M"
_symmetry_group_IT_number 47
_symmetry_cell_setting 'orthorhombic'
loop_
_space_group_symop_operation_xyz
x,y,z
-x,-y,z
x,-y,-z
-x,y,-z
-x,-y,-z
x,y,-z
-x,y,z
x,-y,z
loop_
_atom_site_type_symbol
_atom_site_label
_atom_site_fract_x
_atom_site_fract_y
_atom_site_fract_z
Si Si1 0.668104 0.587745 0.180295
Si Si2 0.673356 0.500000 0.325381
Si Si3 0.330665 0.843008 0.681485
Si Si4 0.167005 0.920989 0.819070
Si Si5 0.165592 0.666153 0.682661
Si Si6 0.663643 0.748015 0.683844
Si Si7 0.667073 0.000000 0.681446
O O1 0.500000 0.592270 0.218693
O O2 0.719124 0.542988 0.245394
O O3 0.752794 0.626494 0.249672
O O4 0.680937 0.587387 0.000000
O O5 0.500000 0.500000 0.319021
O O6 0.716453 0.500000 0.500000
O O7 0.311238 0.846505 0.500000
O O8 0.500000 0.849185 0.710643
O O9 0.237194 0.877754 0.763206
O O10 0.293879 0.795238 0.728810
O O11 0.000000 0.923104 0.776867
O O12 0.253918 0.959103 0.745195
O O13 0.176901 0.924118 0.000000
O O14 0.176255 0.664378 0.500000
O O15 0.237605 0.709834 0.733555
O O16 0.000000 0.665236 0.724010
O O17 0.664130 0.748283 0.500000
O O18 0.500000 0.740709 0.731315
O O19 0.500000 0.000000 0.724665
O O20 0.674731 0.000000 0.500000
#
# Coordination Sequence:
#
# PCOD9385379 Si02
#       7
#     8   4   8   8   8   8   4
#     4  10  20  34  53  77 105 137 173 213 259 313
#     4   9  17  31  54  81 104 129 166 214 264 311
#     4   9  18  34  57  84 110 138 178 224 267 315
#     4  11  24  39  55  80 114 148 181 217 261 316
#     4  10  20  33  51  77 107 139 177 219 263 313
#     4   8  15  30  53  79 106 137 176 223 268 309
#     4  11  24  41  62  86 108 135 178 227 270 316
#
# _framework density 18.165074000000001
#
# number of rings (size 3 to 8) (size 9 to 14) (size 15 to 20)
#    0.000    2.333    0.000    3.750    0.000    9.000 
#    0.000    2.917    0.000    3.500    0.000    0.000 
#    0.000    0.000    0.000    0.000    0.000    0.000 
#
# Total GULP energy -267932.316395 kJ/mol
# GULP energy per Si atom -5581.923258 kJ/mol
# Density = 1.812373 g / cm^3
# Si number density = 18.165074 Si / 1000 Ang^3
#
#
#
# Elastic Constant Matrix: (Units=GPa)
#
#
# Indices 1 2 3 4 5 6 
#
# 1 121.6507 118.3527 54.7802 0.0000 0.0000 0.0000
# 2 118.3527 203.2667 53.9991 0.0000 0.0000 0.0000
# 3 54.7802 53.9991 34.9982 0.0000 0.0000 0.0000
# 4 0.0000 0.0000 0.0000 -47.9490 0.0000 0.0000
# 5 0.0000 0.0000 0.0000 0.0000 23.7873 0.0000
# 6 0.0000 0.0000 0.0000 0.0000 0.0000 -16.5503
#
#
#
# Elastic Compliance Matrix: (Units=1/GPa)
#
#
# Indices 1 2 3 4 5 6 
#
# 1 0.037929 -0.010698 -0.042862 0.000000 0.000000 0.000000
# 2 -0.010698 0.011354 -0.000774 0.000000 0.000000 0.000000
# 3 -0.042862 -0.000774 0.096855 0.000000 0.000000 0.000000
# 4 0.000000 0.000000 0.000000 -0.020855 0.000000 0.000000
# 5 0.000000 0.000000 0.000000 0.000000 0.042039 0.000000
# 6 0.000000 0.000000 0.000000 0.000000 0.000000 -0.060422
#
#
# Mechanical properties :
#
#
# Convention : Reuss Voigt Hill
#
# Bulk Modulus (GPa) = 26.68687 90.46439 58.57563
# Shear Modulus (GPa) = 21.92431 0.70985 11.31708
#
# Velocity S-wave (km/s) = 3.47789 0.62580 2.49873
# Velocity P-wave (km/s) = 5.55435 7.10152 6.37504
#
# Compressibility (1/GPa) = 0.03747161
#
# Stress axis : x y z
#
# Youngs Moduli (GPa) = 26.36512 88.07470 10.32467
#
# Poissons Ratio (x) = 0.94220 0.44253
# Poissons Ratio (y) = 0.28205 0.00799
# Poissons Ratio (z) = 1.13006 0.06816
#
# Static dielectric constant tensor:
#      x y z
#    x 1.604470 0.000000 0.000000 
#    y 0.000000 1.605790 0.000000 
#    z 0.000000 0.000000 1.608260 
# 
# From -- ./inp_files/2703.got.cif
#   From: 2010.05.17/outbox.cif.g08.bks.cpg/sg47_2_cif.got.tgz:2703.got - 2010.06.03 20:15:42.
