data_PCOD9385451
_publ_section_title
;
Structure prediction by ZEFSAII (Michael W. Deem and Ramdas Pophale) SiO2 
 PCOD9385451
Probable space group: P M M M
;
_chemical_formula_sum "Si O2"
_cell_formula_units_Z 56
_cell_length_a 7.599840
_cell_length_b 20.388761
_cell_length_c 16.360975
_cell_angle_alpha 90.000000
_cell_angle_beta 90.000000
_cell_angle_gamma 90.000000
_cell_volume 2535.154696
_symmetry_space_group_name_H-M "P M M M"
_symmetry_group_IT_number 47
_symmetry_cell_setting 'orthorhombic'
loop_
_space_group_symop_operation_xyz
x,y,z
-x,-y,z
x,-y,-z
-x,y,-z
-x,-y,-z
x,y,-z
-x,y,z
x,-y,z
loop_
_atom_site_type_symbol
_atom_site_label
_atom_site_fract_x
_atom_site_fract_y
_atom_site_fract_z
Si Si1 0.700593 0.078727 0.912911
Si Si2 0.212829 0.212990 0.740911
Si Si3 0.285721 0.426631 0.841746
Si Si4 0.204941 0.291614 0.587481
Si Si5 0.801566 0.073121 0.733923
Si Si6 0.711165 0.286667 0.908971
Si Si7 0.287502 0.572250 0.349450
O O1 0.500000 0.103525 0.901830
O O2 0.808933 0.086567 0.831512
O O3 0.687840 0.000000 0.919543
O O4 0.768640 0.103462 0.000000
O O5 0.278661 0.263259 0.672074
O O6 0.283299 0.141941 0.710387
O O7 0.252256 0.238625 0.832354
O O8 0.000000 0.209030 0.738724
O O9 0.500000 0.426837 0.845709
O O10 0.229382 0.500000 0.869639
O O11 0.225461 0.360847 0.887692
O O12 0.236824 0.419929 0.746118
O O13 0.283449 0.271594 0.500000
O O14 0.215452 0.369358 0.597233
O O15 0.000000 0.272148 0.585865
O O16 0.000000 0.069826 0.701126
O O17 0.722066 0.000000 0.722191
O O18 0.500000 0.289793 0.913004
O O19 0.774207 0.267207 0.000000
O O20 0.500000 0.575157 0.352108
O O21 0.232430 0.500000 0.376119
#
# Coordination Sequence:
#
# PCOD9385451 Si02
#       7
#     8   8   8   8   8   8   8
#     4   8  14  25  41  63  92 122 151 187 232 281
#     4  10  21  37  54  72 100 135 166 206 259 307
#     4   8  14  27  48  73 101 132 167 209 251 286
#     4  10  21  36  54  76 102 135 173 209 251 306
#     4   9  18  32  50  70  90 118 159 202 246 300
#     4  10  20  33  52  78 105 136 175 214 250 293
#     4   9  17  31  53  79 106 136 170 210 254 297
#
# _framework density 22.089379999999998
#
# number of rings (size 3 to 8) (size 9 to 14) (size 15 to 20)
#    0.000    2.857    1.429    1.286    0.000    2.857 
#    0.000    7.143    0.000    0.857    0.000    4.000 
#    0.000    0.000    0.000    6.143    0.000    6.571 
#
# Total GULP energy -311905.062878 kJ/mol
# GULP energy per Si atom -5569.733266 kJ/mol
# Density = 2.203910 g / cm^3
# Si number density = 22.089380 Si / 1000 Ang^3
#
#
#
# Elastic Constant Matrix: (Units=GPa)
#
#
# Indices 1 2 3 4 5 6 
#
# 1 47.3759 -0.4484 3.8825 0.0000 0.0000 0.0000
# 2 -0.4484 151.5901 50.1270 0.0000 0.0000 0.0000
# 3 3.8825 50.1270 96.2678 0.0000 0.0000 0.0000
# 4 0.0000 0.0000 0.0000 -3.6997 0.0000 0.0000
# 5 0.0000 0.0000 0.0000 0.0000 42.2552 0.0000
# 6 0.0000 0.0000 0.0000 0.0000 0.0000 16.5521
#
#
#
# Elastic Compliance Matrix: (Units=1/GPa)
#
#
# Indices 1 2 3 4 5 6 
#
# 1 0.021200 0.000417 -0.001072 0.000000 0.000000 0.000000
# 2 0.000417 0.007977 -0.004171 0.000000 0.000000 0.000000
# 3 -0.001072 -0.004171 0.012603 0.000000 0.000000 0.000000
# 4 0.000000 0.000000 0.000000 -0.270289 0.000000 0.000000
# 5 0.000000 0.000000 0.000000 0.000000 0.023666 0.000000
# 6 0.000000 0.000000 0.000000 0.000000 0.000000 0.060415
#
#
# Mechanical properties :
#
#
# Convention : Reuss Voigt Hill
#
# Bulk Modulus (GPa) = 31.12532 44.70622 37.91577
# Shear Modulus (GPa) = -40.30042 27.13303 -6.58370
#
# Velocity S-wave (km/s) = -4.27596 3.50855 -1.72828
# Velocity P-wave (km/s) = 3.20270 6.05772 3.63584
#
# Compressibility (1/GPa) = 0.03212818
#
# Stress axis : x y z
#
# Youngs Moduli (GPa) = 47.17072 125.35965 79.34911
#
# Poissons Ratio (x) = -0.05231 0.08508
# Poissons Ratio (y) = -0.01968 0.33093
# Poissons Ratio (z) = 0.05058 0.52281
#
# Static dielectric constant tensor:
#      x y z
#    x 1.865640 0.000000 0.000000 
#    y 0.000000 1.874310 0.000000 
#    z 0.000000 0.000000 1.824040 
# 
# From -- ./inp_files/21579.got.cif
#   From: 2010.05.17/outbox.cif.g08.bks.cpg/sg47_11_cif.got.tgz:21579.got - 2010.06.03 20:15:42.
