data_PCOD9385570
_publ_section_title
;
Structure prediction by ZEFSAII (Michael W. Deem and Ramdas Pophale) SiO2 
 PCOD9385570
Probable space group: P M M M
;
_chemical_formula_sum "Si O2"
_cell_formula_units_Z 52
_cell_length_a 7.489906
_cell_length_b 15.194486
_cell_length_c 21.125240
_cell_angle_alpha 90.000000
_cell_angle_beta 90.000000
_cell_angle_gamma 90.000000
_cell_volume 2404.163681
_symmetry_space_group_name_H-M "P M M M"
_symmetry_group_IT_number 47
_symmetry_cell_setting 'orthorhombic'
loop_
_space_group_symop_operation_xyz
x,y,z
-x,-y,z
x,-y,-z
-x,y,-z
-x,-y,-z
x,y,-z
-x,y,z
x,-y,z
loop_
_atom_site_type_symbol
_atom_site_label
_atom_site_fract_x
_atom_site_fract_y
_atom_site_fract_z
Si Si1 0.790037 0.905148 0.407146
Si Si2 0.715902 0.094467 0.741773
Si Si3 0.289249 0.196173 0.071221
Si Si4 0.212732 0.000000 0.926489
Si Si5 0.787383 0.400677 0.309837
Si Si6 0.218320 0.290034 0.568968
Si Si7 0.715430 0.274040 0.804502
O O1 0.771165 0.903599 0.331349
O O2 0.718398 0.811334 0.429140
O O3 0.000000 0.905999 0.423472
O O4 0.714740 0.000000 0.427871
O O5 0.500000 0.095292 0.744651
O O6 0.781862 0.183647 0.772675
O O7 0.776794 0.000000 0.768840
O O8 0.500000 0.211620 0.065426
O O9 0.220216 0.265477 0.123006
O O10 0.272057 0.095793 0.097571
O O11 0.211986 0.199469 0.000000
O O12 0.000000 0.000000 0.925642
O O13 0.276430 0.000000 0.000000
O O14 0.716140 0.500000 0.310170
O O15 0.718789 0.342557 0.369027
O O16 0.760454 0.352895 0.242585
O O17 0.000000 0.405793 0.319035
O O18 0.265755 0.328352 0.500000
O O19 0.000000 0.287704 0.571978
O O20 0.500000 0.271141 0.806399
#
# Coordination Sequence:
#
# PCOD9385570 Si02
#       7
#     8   8   8   4   8   8   8
#     4   9  16  27  45  69  98 131 166 202 240 286
#     4   9  17  28  44  68  99 132 164 200 242 289
#     4   9  18  32  50  73 104 142 181 216 253 302
#     4   9  17  29  45  71 109 149 184 215 250 293
#     4  10  21  37  56  77 101 128 164 214 267 317
#     4   9  17  30  49  74 103 132 164 204 249 300
#     4  10  20  33  54  78 101 133 171 212 258 306
#
# _framework density 21.629144
#
# number of rings (size 3 to 8) (size 9 to 14) (size 15 to 20)
#    0.000    2.692    1.538    0.231    1.077    2.462 
#    0.000    3.077    0.000    2.308    0.000    6.462 
#    0.000    0.000    0.000    0.000    0.000    0.000 
#
# Total GULP energy -290034.897288 kJ/mol
# GULP energy per Si atom -5577.594179 kJ/mol
# Density = 2.157992 g / cm^3
# Si number density = 21.629144 Si / 1000 Ang^3
#
#
#
# Elastic Constant Matrix: (Units=GPa)
#
#
# Indices 1 2 3 4 5 6 
#
# 1 65.1787 6.0474 0.7220 0.0000 0.0000 0.0000
# 2 6.0474 148.8392 84.9984 0.0000 0.0000 0.0000
# 3 0.7220 84.9984 146.8869 0.0000 0.0000 0.0000
# 4 0.0000 0.0000 0.0000 -2.7032 0.0000 0.0000
# 5 0.0000 0.0000 0.0000 0.0000 8.0860 0.0000
# 6 0.0000 0.0000 0.0000 0.0000 0.0000 -12.1238
#
#
#
# Elastic Compliance Matrix: (Units=1/GPa)
#
#
# Indices 1 2 3 4 5 6 
#
# 1 0.015419 -0.000871 0.000428 0.000000 0.000000 0.000000
# 2 -0.000871 0.010084 -0.005831 0.000000 0.000000 0.000000
# 3 0.000428 -0.005831 0.010180 0.000000 0.000000 0.000000
# 4 0.000000 0.000000 0.000000 -0.369937 0.000000 0.000000
# 5 0.000000 0.000000 0.000000 0.000000 0.123670 0.000000
# 6 0.000000 0.000000 0.000000 0.000000 0.000000 -0.082483
#
#
# Mechanical properties :
#
#
# Convention : Reuss Voigt Hill
#
# Bulk Modulus (GPa) = 43.22448 60.49337 51.85893
# Shear Modulus (GPa) = -18.32790 16.59428 -0.86681
#
# Velocity S-wave (km/s) = -2.91412 2.77288 -0.63374
# Velocity P-wave (km/s) = 2.95042 6.18716 4.84695
#
# Compressibility (1/GPa) = 0.02313504
#
# Stress axis : x y z
#
# Youngs Moduli (GPa) = 64.85709 99.16725 98.23147
#
# Poissons Ratio (x) = 0.08638 -0.04207
# Poissons Ratio (y) = 0.05649 0.57278
# Poissons Ratio (z) = -0.02777 0.57824
#
# Static dielectric constant tensor:
#      x y z
#    x 1.823440 0.000000 0.000000 
#    y 0.000000 1.780110 0.000000 
#    z 0.000000 0.000000 1.842430 
# 
# From -- ./inp_files/29584.got.cif
#   From: 2010.05.17/outbox.cif.g08.bks.cpg/sg47_15_cif.got.tgz:29584.got - 2010.06.03 20:15:42.
