data_PCOD9385890
_publ_section_title
;
Structure prediction by ZEFSAII (Michael W. Deem and Ramdas Pophale) SiO2 
 PCOD9385890
Probable space group: P M M M
;
_chemical_formula_sum "Si O2"
_cell_formula_units_Z 48
_cell_length_a 8.712822
_cell_length_b 9.715656
_cell_length_c 31.996512
_cell_angle_alpha 90.000000
_cell_angle_beta 90.000000
_cell_angle_gamma 90.000000
_cell_volume 2708.529741
_symmetry_space_group_name_H-M "P M M M"
_symmetry_group_IT_number 47
_symmetry_cell_setting 'orthorhombic'
loop_
_space_group_symop_operation_xyz
x,y,z
-x,-y,z
x,-y,-z
-x,y,-z
-x,-y,-z
x,y,-z
-x,y,z
x,-y,z
loop_
_atom_site_type_symbol
_atom_site_label
_atom_site_fract_x
_atom_site_fract_y
_atom_site_fract_z
Si Si1 0.812272 0.840876 0.124360
Si Si2 0.816358 0.341474 0.621703
Si Si3 0.822940 0.832849 0.216045
Si Si4 0.812967 0.340301 0.953470
Si Si5 0.314974 0.158230 0.548366
Si Si6 0.317348 0.160164 0.303918
O O1 0.764787 0.787904 0.170345
O O2 0.759661 0.751182 0.085206
O O3 0.000000 0.839383 0.125136
O O4 0.765753 0.000000 0.119410
O O5 0.763260 0.500000 0.622876
O O6 0.757083 0.264104 0.580482
O O7 0.757317 0.256618 0.661529
O O8 0.000000 0.340509 0.621772
O O9 0.728846 0.795237 0.257088
O O10 0.000000 0.788854 0.221367
O O11 0.823100 0.000000 0.213828
O O12 0.769276 0.500000 0.948441
O O13 0.000000 0.336009 0.953114
O O14 0.764713 0.293914 0.000000
O O15 0.272915 0.184507 0.500000
O O16 0.500000 0.165447 0.551248
O O17 0.271037 0.000000 0.558543
O O18 0.500000 0.163625 0.308585
O O19 0.267233 0.000000 0.309283
#
# Coordination Sequence:
#
# PCOD9385890 Si02
#       6
#     8   8   8   8   8   8
#     4   8  13  21  34  52  74 104 142 179 217 266
#     4  11  24  38  52  75 107 139 170 205 246 291
#     4   8  14  26  44  65  90 119 150 188 235 283
#     4   8  13  20  29  44  71 106 139 172 215 266
#     4   9  19  37  60  84 108 135 170 209 246 288
#     4  10  20  34  54  77  98 125 164 205 245 293
#
# _framework density 17.721791
#
# number of rings (size 3 to 8) (size 9 to 14) (size 15 to 20)
#    0.000    3.000    0.000    3.500    0.000    5.667 
#    0.000    5.000    0.000    3.000    0.000    0.000 
#    0.000    0.667    0.000    8.333    0.000    9.667 
#
# Total GULP energy -267475.828207 kJ/mol
# GULP energy per Si atom -5572.413088 kJ/mol
# Density = 1.768145 g / cm^3
# Si number density = 17.721791 Si / 1000 Ang^3
#
#
#
# Elastic Constant Matrix: (Units=GPa)
#
#
# Indices 1 2 3 4 5 6 
#
# 1 16.7601 26.7884 33.5957 0.0000 0.0000 0.0000
# 2 26.7884 96.2579 101.3626 0.0000 0.0000 0.0000
# 3 33.5957 101.3626 172.5100 0.0000 0.0000 0.0000
# 4 0.0000 0.0000 0.0000 -13.6411 0.0000 0.0000
# 5 0.0000 0.0000 0.0000 0.0000 127.3840 0.0000
# 6 0.0000 0.0000 0.0000 0.0000 0.0000 15.4935
#
#
#
# Elastic Compliance Matrix: (Units=1/GPa)
#
#
# Indices 1 2 3 4 5 6 
#
# 1 0.112820 -0.021668 -0.009240 0.000000 0.000000 0.000000
# 2 -0.021668 0.031410 -0.014236 0.000000 0.000000 0.000000
# 3 -0.009240 -0.014236 0.015961 0.000000 0.000000 0.000000
# 4 0.000000 0.000000 0.000000 -0.073308 0.000000 0.000000
# 5 0.000000 0.000000 0.000000 0.000000 0.007850 0.000000
# 6 0.000000 0.000000 0.000000 0.000000 0.000000 0.064543
#
#
# Mechanical properties :
#
#
# Convention : Reuss Voigt Hill
#
# Bulk Modulus (GPa) = 14.30546 67.66906 40.98726
# Shear Modulus (GPa) = 18.32419 34.09936 26.21178
#
# Velocity S-wave (km/s) = 3.21906 4.39127 3.85004
# Velocity P-wave (km/s) = 4.68041 7.99863 6.55302
#
# Compressibility (1/GPa) = 0.06990336
#
# Stress axis : x y z
#
# Youngs Moduli (GPa) = 8.86370 31.83744 62.65355
#
# Poissons Ratio (x) = 0.68984 0.57891
# Poissons Ratio (y) = 0.19206 0.89192
# Poissons Ratio (z) = 0.08190 0.45323
#
# Static dielectric constant tensor:
#      x y z
#    x 1.600660 0.000000 0.000000 
#    y 0.000000 1.590080 0.000000 
#    z 0.000000 0.000000 1.615500 
# 
# From -- ./inp_files/2505.got.cif
#   From: 2010.05.17/outbox.cif.g08.bks.cpg/sg47_2_cif.got.tgz:2505.got - 2010.06.03 20:15:42.
