data_PCOD9385290
_publ_section_title
;
Structure prediction by ZEFSAII (Michael W. Deem and Ramdas Pophale) SiO2 
 PCOD9385290
Probable space group: P M M M
;
_chemical_formula_sum "Si O2"
_cell_formula_units_Z 64
_cell_length_a 15.070441
_cell_length_b 7.546706
_cell_length_c 25.738929
_cell_angle_alpha 90.000000
_cell_angle_beta 90.000000
_cell_angle_gamma 90.000000
_cell_volume 2927.344700
_symmetry_space_group_name_H-M "P M M M"
_symmetry_group_IT_number 47
_symmetry_cell_setting 'orthorhombic'
loop_
_space_group_symop_operation_xyz
x,y,z
-x,-y,z
x,-y,-z
-x,y,-z
-x,-y,-z
x,y,-z
-x,y,z
x,-y,z
loop_
_atom_site_type_symbol
_atom_site_label
_atom_site_fract_x
_atom_site_fract_y
_atom_site_fract_z
Si Si1 0.402153 0.284900 0.291909
Si Si2 0.404687 0.713311 0.939119
Si Si3 0.597262 0.792159 0.413920
Si Si4 0.901474 0.706812 0.844850
Si Si5 0.209159 0.216607 0.556965
Si Si6 0.209698 0.792493 0.941002
Si Si7 0.102567 0.784849 0.658886
Si Si8 0.775997 0.706854 0.242725
O O1 0.500000 0.233574 0.272695
O O2 0.398663 0.500000 0.293645
O O3 0.394225 0.222744 0.351492
O O4 0.319539 0.217778 0.258556
O O5 0.500000 0.773358 0.916847
O O6 0.404870 0.500000 0.937712
O O7 0.309394 0.770346 0.918394
O O8 0.404383 0.768098 0.000000
O O9 0.500000 0.716720 0.428127
O O10 0.689029 0.720400 0.436562
O O11 0.594755 0.000000 0.427907
O O12 0.908998 0.500000 0.830342
O O13 0.861989 0.714077 0.902393
O O14 0.830206 0.787209 0.805150
O O15 0.000000 0.784533 0.841352
O O16 0.175605 0.267554 0.500000
O O17 0.149080 0.273215 0.605272
O O18 0.211133 0.000000 0.558905
O O19 0.191798 0.000000 0.944167
O O20 0.208343 0.719145 0.000000
O O21 0.160727 0.719256 0.707075
O O22 0.000000 0.729181 0.662307
O O23 0.104317 0.000000 0.660231
O O24 0.759109 0.500000 0.230436
#
# Coordination Sequence:
#
# PCOD9385290 Si02
#       8
#     8   8   8   8   8   8   8   8
#     4   9  17  30  51  78 105 133 164 200 250 310
#     4   8  14  27  50  79 109 143 183 221 255 299
#     4   9  16  27  46  71  98 130 168 209 252 301
#     4  10  22  39  57  78 104 136 177 223 269 318
#     4   9  17  29  45  69 102 135 169 212 259 309
#     4  10  21  36  55  81 113 147 180 218 267 319
#     4  10  20  33  51  75 100 130 172 219 266 315
#     4  10  20  36  58  80 104 134 169 214 263 312
#
# _framework density 21.862815000000001
#
# number of rings (size 3 to 8) (size 9 to 14) (size 15 to 20)
#    0.000    2.625    1.250    1.125    0.000    3.250 
#    0.000    5.625    0.000    3.750    0.000    2.625 
#    0.000    0.000    0.000    0.000    0.000    0.000 
#
# Total GULP energy -357079.804153 kJ/mol
# GULP energy per Si atom -5579.371940 kJ/mol
# Density = 2.181305 g / cm^3
# Si number density = 21.862815 Si / 1000 Ang^3
#
#
#
# Elastic Constant Matrix: (Units=GPa)
#
#
# Indices 1 2 3 4 5 6 
#
# 1 129.9661 -6.1703 46.9864 0.0000 0.0000 0.0000
# 2 -6.1703 52.3203 -9.1598 0.0000 0.0000 0.0000
# 3 46.9864 -9.1598 79.1930 0.0000 0.0000 0.0000
# 4 0.0000 0.0000 0.0000 12.5277 0.0000 0.0000
# 5 0.0000 0.0000 0.0000 0.0000 -2.4165 0.0000
# 6 0.0000 0.0000 0.0000 0.0000 0.0000 -62.5440
#
#
#
# Elastic Compliance Matrix: (Units=1/GPa)
#
#
# Indices 1 2 3 4 5 6 
#
# 1 0.009796 0.000141 -0.005796 0.000000 0.000000 0.000000
# 2 0.000141 0.019510 0.002173 0.000000 0.000000 0.000000
# 3 -0.005796 0.002173 0.016318 0.000000 0.000000 0.000000
# 4 0.000000 0.000000 0.000000 0.079823 0.000000 0.000000
# 5 0.000000 0.000000 0.000000 0.000000 -0.413817 0.000000
# 6 0.000000 0.000000 0.000000 0.000000 0.000000 -0.015989
#
#
# Mechanical properties :
#
#
# Convention : Reuss Voigt Hill
#
# Bulk Modulus (GPa) = 25.86681 36.08800 30.97740
# Shear Modulus (GPa) = -17.57421 4.83498 -6.36962
#
# Velocity S-wave (km/s) = -2.83828 1.48873 -1.70873
# Velocity P-wave (km/s) = 1.05639 4.41559 3.21041
#
# Compressibility (1/GPa) = 0.03865958
#
# Stress axis : x y z
#
# Youngs Moduli (GPa) = 102.07784 51.25549 61.28326
#
# Poissons Ratio (x) = -0.00721 0.35521
# Poissons Ratio (y) = -0.01435 -0.13318
# Poissons Ratio (z) = 0.59166 -0.11139
#
# Static dielectric constant tensor:
#      x y z
#    x 1.819520 0.000000 0.000000 
#    y 0.000000 1.823230 0.000000 
#    z 0.000000 0.000000 1.776550 
# 
# From -- ./inp_files/21933.got.cif
#   From: 2010.05.17/outbox.cif.g08.bks.cpg/sg47_11_cif.got.tgz:21933.got - 2010.06.03 20:15:42.
