data_PCOD9385763
_publ_section_title
;
Structure prediction by ZEFSAII (Michael W. Deem and Ramdas Pophale) SiO2 
 PCOD9385763
Probable space group: P M M M
;
_chemical_formula_sum "Si O2"
_cell_formula_units_Z 52
_cell_length_a 30.599392
_cell_length_b 10.676071
_cell_length_c 9.076804
_cell_angle_alpha 90.000000
_cell_angle_beta 90.000000
_cell_angle_gamma 90.000000
_cell_volume 2965.221963
_symmetry_space_group_name_H-M "P M M M"
_symmetry_group_IT_number 47
_symmetry_cell_setting 'orthorhombic'
loop_
_space_group_symop_operation_xyz
x,y,z
-x,-y,z
x,-y,-z
-x,y,-z
-x,-y,-z
x,y,-z
-x,y,z
x,-y,z
loop_
_atom_site_type_symbol
_atom_site_label
_atom_site_fract_x
_atom_site_fract_y
_atom_site_fract_z
Si Si1 0.447484 0.500000 0.166765
Si Si2 0.109359 0.356922 0.322351
Si Si3 0.788999 0.641187 0.679021
Si Si4 0.449389 0.758676 0.323877
Si Si5 0.051408 0.857573 0.822851
Si Si6 0.367304 0.853416 0.835871
Si Si7 0.279238 0.852746 0.322350
O O1 0.500000 0.500000 0.153809
O O2 0.437291 0.622528 0.260110
O O3 0.429716 0.500000 0.000000
O O4 0.106878 0.348384 0.500000
O O5 0.096612 0.500000 0.281588
O O6 0.160307 0.340191 0.279605
O O7 0.079808 0.250221 0.251306
O O8 0.787836 0.640645 0.500000
O O9 0.775576 0.500000 0.726519
O O10 0.758199 0.755509 0.726847
O O11 0.446874 0.761425 0.500000
O O12 0.500000 0.787286 0.282927
O O13 0.412716 0.842797 0.250335
O O14 0.000000 0.842081 0.787273
O O15 0.064165 0.000000 0.778912
O O16 0.055537 0.849847 0.000000
O O17 0.325310 0.807502 0.745598
O O18 0.358804 0.000000 0.851387
O O19 0.370822 0.797445 0.000000
O O20 0.282401 0.848592 0.500000
O O21 0.270671 0.000000 0.284031
#
# Coordination Sequence:
#
# PCOD9385763 Si02
#       7
#     4   8   8   8   8   8   8
#     4   9  17  31  51  73  99 129 159 195 239 285
#     4   9  18  32  51  77 107 136 169 213 263 315
#     4   8  15  30  51  75 103 131 161 204 257 308
#     4  10  20  34  53  76 101 130 166 206 246 292
#     4   9  19  35  51  69  99 139 181 223 264 308
#     4  10  21  36  52  71  99 133 166 203 250 302
#     4   9  17  31  52  74  96 127 167 207 248 300
#
# _framework density 17.536629999999999
#
# number of rings (size 3 to 8) (size 9 to 14) (size 15 to 20)
#    0.000    2.846    0.000    2.538    0.000    4.923 
#    1.385    6.154    0.000    2.769    0.000    0.000 
#    0.000    0.000    0.000    0.000    0.000    0.000 
#
# Total GULP energy -289509.309083 kJ/mol
# GULP energy per Si atom -5567.486713 kJ/mol
# Density = 1.749672 g / cm^3
# Si number density = 17.536630 Si / 1000 Ang^3
#
#
#
# Elastic Constant Matrix: (Units=GPa)
#
#
# Indices 1 2 3 4 5 6 
#
# 1 105.4161 83.3502 41.1317 0.0000 0.0000 0.0000
# 2 83.3502 110.6038 39.9421 0.0000 0.0000 0.0000
# 3 41.1317 39.9421 42.3043 0.0000 0.0000 0.0000
# 4 0.0000 0.0000 0.0000 21.0911 0.0000 0.0000
# 5 0.0000 0.0000 0.0000 0.0000 1.7327 0.0000
# 6 0.0000 0.0000 0.0000 0.0000 0.0000 1042.5993
#
#
#
# Elastic Compliance Matrix: (Units=1/GPa)
#
#
# Indices 1 2 3 4 5 6 
#
# 1 0.026151 -0.015971 -0.010347 0.000000 0.000000 0.000000
# 2 -0.015971 0.023472 -0.006634 0.000000 0.000000 0.000000
# 3 -0.010347 -0.006634 0.039962 0.000000 0.000000 0.000000
# 4 0.000000 0.000000 0.000000 0.047413 0.000000 0.000000
# 5 0.000000 0.000000 0.000000 0.000000 0.577142 0.000000
# 6 0.000000 0.000000 0.000000 0.000000 0.000000 0.000959
#
#
# Mechanical properties :
#
#
# Convention : Reuss Voigt Hill
#
# Bulk Modulus (GPa) = 42.22602 65.24136 53.73369
# Shear Modulus (GPa) = 6.33795 219.34462 112.84129
#
# Velocity S-wave (km/s) = 1.90315 11.19596 8.03030
# Velocity P-wave (km/s) = 5.38148 14.29742 10.80224
#
# Compressibility (1/GPa) = 0.02368208
#
# Stress axis : x y z
#
# Youngs Moduli (GPa) = 38.23904 42.60347 25.02367
#
# Poissons Ratio (x) = 0.68041 0.25893
# Poissons Ratio (y) = 0.61070 0.16600
# Poissons Ratio (z) = 0.39568 0.28262
#
# Static dielectric constant tensor:
#      x y z
#    x 1.581160 0.000000 0.000000 
#    y 0.000000 1.657710 0.000000 
#    z 0.000000 0.000000 1.605130 
# 
# From -- ./inp_files/13248.got.cif
#   From: 2010.05.17/outbox.cif.g08.bks.cpg/sg47_7_cif.got.tgz:13248.got - 2010.06.03 20:15:42.
