data_PCOD9385588
_publ_section_title
;
Structure prediction by ZEFSAII (Michael W. Deem and Ramdas Pophale) SiO2 
 PCOD9385588
Probable space group: P M M M
;
_chemical_formula_sum "Si O2"
_cell_formula_units_Z 52
_cell_length_a 15.195542
_cell_length_b 20.592041
_cell_length_c 7.957123
_cell_angle_alpha 90.000000
_cell_angle_beta 90.000000
_cell_angle_gamma 90.000000
_cell_volume 2489.841268
_symmetry_space_group_name_H-M "P M M M"
_symmetry_group_IT_number 47
_symmetry_cell_setting 'orthorhombic'
loop_
_space_group_symop_operation_xyz
x,y,z
-x,-y,z
x,-y,-z
-x,y,-z
-x,-y,-z
x,y,-z
-x,y,z
x,-y,z
loop_
_atom_site_type_symbol
_atom_site_label
_atom_site_fract_x
_atom_site_fract_y
_atom_site_fract_z
Si Si1 0.100699 0.000000 0.198473
Si Si2 0.906606 0.369223 0.000000
Si Si3 0.101624 0.137952 0.299157
Si Si4 0.395769 0.069757 0.794978
Si Si5 0.292523 0.423292 0.000000
Si Si6 0.333793 0.659107 0.682030
Si Si7 0.860623 0.718178 0.308828
Si Si8 0.604166 0.207788 0.810562
O O1 0.142037 0.069204 0.245069
O O2 0.000000 0.000000 0.272616
O O3 0.093621 0.000000 0.000000
O O4 0.906232 0.323601 0.835130
O O5 0.813212 0.407176 0.000000
O O6 0.000000 0.406746 0.000000
O O7 0.098958 0.136285 0.500000
O O8 0.144668 0.206556 0.253025
O O9 0.000000 0.140308 0.235446
O O10 0.500000 0.067213 0.751302
O O11 0.359536 0.139697 0.736759
O O12 0.357286 0.000000 0.740750
O O13 0.390964 0.071965 0.000000
O O14 0.336271 0.390123 0.836631
O O15 0.303748 0.500000 0.000000
O O16 0.355729 0.630431 0.500000
O O17 0.234588 0.686169 0.679319
O O18 0.385611 0.725741 0.712359
O O19 0.898305 0.716610 0.500000
O O20 0.500000 0.196483 0.825789
O O21 0.640459 0.217909 0.000000
#
# Coordination Sequence:
#
# PCOD9385588 Si02
#       8
#     4   4   8   8   4   8   8   8
#     4   9  17  25  35  57  87 117 158 215 266 307
#     4  10  20  33  56  86 111 138 169 207 254 307
#     4   9  16  27  43  61  85 122 166 211 259 308
#     4   7  10  18  36  66 102 138 177 220 266 317
#     4  10  22  41  61  84 114 146 176 210 257 317
#     4  10  20  36  58  82 109 143 180 219 264 318
#     4   9  19  33  50  74 104 138 174 215 261 311
#     4   9  16  28  51  81 111 144 184 231 278 319
#
# _framework density 20.884865999999999
#
# number of rings (size 3 to 8) (size 9 to 14) (size 15 to 20)
#    0.000    3.000    0.769    2.077    1.077    2.615 
#    0.000    0.000    1.692    1.385    0.000    7.538 
#    0.000    0.000    0.000    0.000    0.000    0.000 
#
# Total GULP energy -289583.982789 kJ/mol
# GULP energy per Si atom -5568.922746 kJ/mol
# Density = 2.083733 g / cm^3
# Si number density = 20.884866 Si / 1000 Ang^3
#
#
#
# Elastic Constant Matrix: (Units=GPa)
#
#
# Indices 1 2 3 4 5 6 
#
# 1 9.4647 4.9386 10.5299 0.0000 0.0000 0.0000
# 2 4.9386 159.6580 60.9548 0.0000 0.0000 0.0000
# 3 10.5299 60.9548 89.3753 0.0000 0.0000 0.0000
# 4 0.0000 0.0000 0.0000 3.4258 0.0000 0.0000
# 5 0.0000 0.0000 0.0000 0.0000 -20.7460 0.0000
# 6 0.0000 0.0000 0.0000 0.0000 0.0000 52.0098
#
#
#
# Elastic Compliance Matrix: (Units=1/GPa)
#
#
# Indices 1 2 3 4 5 6 
#
# 1 0.122227 0.002321 -0.015984 0.000000 0.000000 0.000000
# 2 0.002321 0.008512 -0.006079 0.000000 0.000000 0.000000
# 3 -0.015984 -0.006079 0.017218 0.000000 0.000000 0.000000
# 4 0.000000 0.000000 0.000000 0.291900 0.000000 0.000000
# 5 0.000000 0.000000 0.000000 0.000000 -0.048202 0.000000
# 6 0.000000 0.000000 0.000000 0.000000 0.000000 0.019227
#
#
# Mechanical properties :
#
#
# Convention : Reuss Voigt Hill
#
# Bulk Modulus (GPa) = 9.21872 45.70496 27.46184
# Shear Modulus (GPa) = 10.27701 19.07626 14.67664
#
# Velocity S-wave (km/s) = 2.22069 3.02553 2.65380
# Velocity P-wave (km/s) = 3.31647 5.84268 4.75057
#
# Compressibility (1/GPa) = 0.10847489
#
# Stress axis : x y z
#
# Youngs Moduli (GPa) = 8.18150 117.47459 58.07905
#
# Poissons Ratio (x) = -0.27272 0.92831
# Poissons Ratio (y) = -0.01899 0.35307
# Poissons Ratio (z) = 0.13077 0.71414
#
# Static dielectric constant tensor:
#      x y z
#    x 1.824520 0.000000 0.000000 
#    y 0.000000 1.756270 0.000000 
#    z 0.000000 0.000000 1.776660 
# 
# From -- ./inp_files/9599.got.cif
#   From: 2010.05.17/outbox.cif.g08.bks.cpg/sg47_5_cif.got.tgz:9599.got - 2010.06.03 20:15:42.
