data_PCOD9385093
_publ_section_title
;
Structure prediction by ZEFSAII (Michael W. Deem and Ramdas Pophale) SiO2 
 PCOD9385093
Probable space group: P M M M
;
_chemical_formula_sum "Si O2"
_cell_formula_units_Z 52
_cell_length_a 8.869231
_cell_length_b 24.270035
_cell_length_c 13.364244
_cell_angle_alpha 90.000000
_cell_angle_beta 90.000000
_cell_angle_gamma 90.000000
_cell_volume 2876.741014
_symmetry_space_group_name_H-M "P M M M"
_symmetry_group_IT_number 47
_symmetry_cell_setting 'orthorhombic'
loop_
_space_group_symop_operation_xyz
x,y,z
-x,-y,z
x,-y,-z
-x,y,-z
-x,-y,-z
x,y,-z
-x,y,z
x,-y,z
loop_
_atom_site_type_symbol
_atom_site_label
_atom_site_fract_x
_atom_site_fract_y
_atom_site_fract_z
Si Si1 0.816324 0.563427 0.886955
Si Si2 0.818136 0.357154 0.290710
Si Si3 0.180062 0.770959 0.710275
Si Si4 0.683771 0.063296 0.000000
Si Si5 0.673298 0.773995 0.500000
Si Si6 0.319765 0.872804 0.800262
Si Si7 0.327674 0.359976 0.500000
Si Si8 0.178196 0.066310 0.612306
O O1 0.771697 0.500000 0.867932
O O2 0.765561 0.604783 0.800639
O O3 0.000000 0.564487 0.886530
O O4 0.768812 0.578466 0.000000
O O5 0.776018 0.292970 0.274767
O O6 0.753985 0.376284 0.397472
O O7 0.000000 0.359114 0.295740
O O8 0.242000 0.789450 0.601628
O O9 0.249178 0.812260 0.790647
O O10 0.000000 0.774387 0.710176
O O11 0.730559 0.095096 0.100226
O O12 0.500000 0.062316 0.000000
O O13 0.735501 0.000000 0.000000
O O14 0.500000 0.792920 0.500000
O O15 0.673034 0.706993 0.500000
O O16 0.500000 0.868800 0.800970
O O17 0.266930 0.906095 0.702363
O O18 0.500000 0.378658 0.500000
O O19 0.227986 0.082760 0.500000
O O20 0.000000 0.079675 0.621324
O O21 0.191999 0.000000 0.618558
#
# Coordination Sequence:
#
# PCOD9385093 Si02
#       8
#     8   8   8   4   4   8   4   8
#     4   8  14  27  50  79 106 132 171 224 272 311
#     4   9  17  31  51  76 104 139 176 212 259 314
#     4  10  20  33  49  75 110 143 171 210 264 316
#     4   9  20  40  61  77  97 131 174 221 264 298
#     4   9  17  31  51  74  99 136 180 216 249 302
#     4  11  22  36  56  79 103 135 179 223 258 307
#     4   9  17  29  48  72 101 137 175 214 253 300
#     4   9  19  36  56  79 109 139 165 204 263 320
#
# _framework density 18.076011000000001
#
# number of rings (size 3 to 8) (size 9 to 14) (size 15 to 20)
#    0.000    2.692    0.000    2.769    1.077    3.692 
#    1.385    2.692    0.000    6.000    0.000    1.077 
#    0.000    0.000    0.000    0.000    0.000    0.000 
#
# Total GULP energy -290070.612943 kJ/mol
# GULP energy per Si atom -5578.281018 kJ/mol
# Density = 1.803487 g / cm^3
# Si number density = 18.076011 Si / 1000 Ang^3
#
#
#
# Elastic Constant Matrix: (Units=GPa)
#
#
# Indices 1 2 3 4 5 6 
#
# 1 36.0526 29.4257 39.5689 0.0000 0.0000 0.0000
# 2 29.4257 97.4920 96.7099 0.0000 0.0000 0.0000
# 3 39.5689 96.7099 170.6388 0.0000 0.0000 0.0000
# 4 0.0000 0.0000 0.0000 36.5989 0.0000 0.0000
# 5 0.0000 0.0000 0.0000 0.0000 1.4151 0.0000
# 6 0.0000 0.0000 0.0000 0.0000 0.0000 14.0766
#
#
#
# Elastic Compliance Matrix: (Units=1/GPa)
#
#
# Indices 1 2 3 4 5 6 
#
# 1 0.038867 -0.006374 -0.005400 0.000000 0.000000 0.000000
# 2 -0.006374 0.024475 -0.012393 0.000000 0.000000 0.000000
# 3 -0.005400 -0.012393 0.014136 0.000000 0.000000 0.000000
# 4 0.000000 0.000000 0.000000 0.027323 0.000000 0.000000
# 5 0.000000 0.000000 0.000000 0.000000 0.706651 0.000000
# 6 0.000000 0.000000 0.000000 0.000000 0.000000 0.071040
#
#
# Mechanical properties :
#
#
# Convention : Reuss Voigt Hill
#
# Bulk Modulus (GPa) = 34.31352 70.62137 52.46744
# Shear Modulus (GPa) = 5.31609 19.65005 12.48307
#
# Velocity S-wave (km/s) = 1.71678 3.30066 2.63075
# Velocity P-wave (km/s) = 4.79102 7.32665 6.19006
#
# Compressibility (1/GPa) = 0.02914303
#
# Stress axis : x y z
#
# Youngs Moduli (GPa) = 25.72904 40.85845 70.73991
#
# Poissons Ratio (x) = 0.26044 0.38200
# Poissons Ratio (y) = 0.16400 0.87668
# Poissons Ratio (z) = 0.13894 0.50636
#
# Static dielectric constant tensor:
#      x y z
#    x 1.608030 0.000000 0.000000 
#    y 0.000000 1.636700 0.000000 
#    z 0.000000 0.000000 1.604010 
# 
# From -- ./inp_files/15584.got.cif
#   From: 2010.05.17/outbox.cif.g08.bks.cpg/sg47_8_cif.got.tgz:15584.got - 2010.06.03 20:15:42.
