data_PCOD9385227
_publ_section_title
;
Structure prediction by ZEFSAII (Michael W. Deem and Ramdas Pophale) SiO2 
 PCOD9385227
Probable space group: P M M M
;
_chemical_formula_sum "Si O2"
_cell_formula_units_Z 48
_cell_length_a 31.905425
_cell_length_b 9.035170
_cell_length_c 9.238035
_cell_angle_alpha 90.000000
_cell_angle_beta 90.000000
_cell_angle_gamma 90.000000
_cell_volume 2663.057022
_symmetry_space_group_name_H-M "P M M M"
_symmetry_group_IT_number 47
_symmetry_cell_setting 'orthorhombic'
loop_
_space_group_symop_operation_xyz
x,y,z
-x,-y,z
x,-y,-z
-x,y,-z
-x,-y,-z
x,y,-z
-x,y,z
x,-y,z
loop_
_atom_site_type_symbol
_atom_site_label
_atom_site_fract_x
_atom_site_fract_y
_atom_site_fract_z
Si Si1 0.500000 0.170484 0.823783
Si Si2 0.168836 0.822039 0.170416
Si Si3 0.247234 0.676141 0.328352
Si Si4 0.000000 0.180806 0.832849
Si Si5 0.916116 0.180427 0.333191
Si Si6 0.413733 0.326044 0.825800
Si Si7 0.335172 0.825522 0.326775
O O1 0.457533 0.252357 0.778228
O O2 0.500000 0.000000 0.776906
O O3 0.500000 0.172254 0.000000
O O4 0.208886 0.744788 0.240648
O O5 0.126237 0.774912 0.251318
O O6 0.172917 0.000000 0.187565
O O7 0.165778 0.790350 0.000000
O O8 0.241142 0.706359 0.500000
O O9 0.249252 0.500000 0.308456
O O10 0.291398 0.748952 0.284701
O O11 0.957974 0.228664 0.750220
O O12 0.000000 0.000000 0.832065
O O13 0.000000 0.227328 0.000000
O O14 0.916145 0.228586 0.500000
O O15 0.916632 0.000000 0.332927
O O16 0.413965 0.500000 0.792150
O O17 0.374346 0.247683 0.752632
O O18 0.410751 0.309939 0.000000
O O19 0.339942 0.806479 0.500000
O O20 0.333310 0.000000 0.295519
#
# Coordination Sequence:
#
# PCOD9385227 Si02
#       7
#     4   8   8   4   8   8   8
#     4   9  17  31  52  77 106 141 180 222 266 311
#     4  10  20  33  50  74 103 134 169 211 259 308
#     4  10  21  37  56  76  99 131 170 210 255 309
#     4   9  15  23  37  61  96 133 168 211 262 311
#     4   9  16  26  42  65  95 132 172 212 256 308
#     4  10  20  34  54  80 109 141 177 217 262 313
#     4  10  21  37  57  80 106 137 173 214 261 312
#
# _framework density 18.024398000000001
#
# number of rings (size 3 to 8) (size 9 to 14) (size 15 to 20)
#    0.000    2.333    0.000    3.000    0.000    8.667 
#    0.000    0.417    0.000    2.500    0.000    0.583 
#    0.000    4.667    0.000    0.000    0.000    0.000 
#
# Total GULP energy -267953.879711 kJ/mol
# GULP energy per Si atom -5582.372494 kJ/mol
# Density = 1.798337 g / cm^3
# Si number density = 18.024398 Si / 1000 Ang^3
#
#
#
# Elastic Constant Matrix: (Units=GPa)
#
#
# Indices 1 2 3 4 5 6 
#
# 1 229.5648 81.1446 102.9238 0.0000 0.0000 0.0000
# 2 81.1446 66.4156 58.6900 0.0000 0.0000 0.0000
# 3 102.9238 58.6900 94.2137 0.0000 0.0000 0.0000
# 4 0.0000 0.0000 0.0000 20.6823 0.0000 0.0000
# 5 0.0000 0.0000 0.0000 0.0000 39.6298 0.0000
# 6 0.0000 0.0000 0.0000 0.0000 0.0000 -20.4266
#
#
#
# Elastic Compliance Matrix: (Units=1/GPa)
#
#
# Indices 1 2 3 4 5 6 
#
# 1 0.009310 -0.005310 -0.006863 0.000000 0.000000 0.000000
# 2 -0.005310 0.036524 -0.016951 0.000000 0.000000 0.000000
# 3 -0.006863 -0.016951 0.028671 0.000000 0.000000 0.000000
# 4 0.000000 0.000000 0.000000 0.048350 0.000000 0.000000
# 5 0.000000 0.000000 0.000000 0.000000 0.025234 0.000000
# 6 0.000000 0.000000 0.000000 0.000000 0.000000 -0.048956
#
#
# Mechanical properties :
#
#
# Convention : Reuss Voigt Hill
#
# Bulk Modulus (GPa) = 61.51353 97.30123 79.40738
# Shear Modulus (GPa) = 30.71244 17.80616 24.25930
#
# Velocity S-wave (km/s) = 4.13236 3.14649 3.67265
# Velocity P-wave (km/s) = 7.54788 8.20370 7.88262
#
# Compressibility (1/GPa) = 0.01625659
#
# Stress axis : x y z
#
# Youngs Moduli (GPa) = 107.41283 27.37919 34.87839
#
# Poissons Ratio (x) = 0.14539 0.23936
# Poissons Ratio (y) = 0.57038 0.59124
# Poissons Ratio (z) = 0.73713 0.46412
#
# Static dielectric constant tensor:
#      x y z
#    x 1.583150 0.000000 0.000000 
#    y 0.000000 1.599050 0.000000 
#    z 0.000000 0.000000 1.605140 
# 
# From -- ./inp_files/2601.got.cif
#   From: 2010.05.17/outbox.cif.g08.bks.cpg/sg47_2_cif.got.tgz:2601.got - 2010.06.03 20:15:42.
