data_PCOD9385623
_publ_section_title
;
Structure prediction by ZEFSAII (Michael W. Deem and Ramdas Pophale) SiO2 
 PCOD9385623
Probable space group: P M M M
;
_chemical_formula_sum "Si O2"
_cell_formula_units_Z 64
_cell_length_a 8.532527
_cell_length_b 32.407106
_cell_length_c 14.702374
_cell_angle_alpha 90.000000
_cell_angle_beta 90.000000
_cell_angle_gamma 90.000000
_cell_volume 4065.419697
_symmetry_space_group_name_H-M "P M M M"
_symmetry_group_IT_number 47
_symmetry_cell_setting 'orthorhombic'
loop_
_space_group_symop_operation_xyz
x,y,z
-x,-y,z
x,-y,-z
-x,y,-z
-x,-y,-z
x,y,-z
-x,y,z
x,-y,z
loop_
_atom_site_type_symbol
_atom_site_label
_atom_site_fract_x
_atom_site_fract_y
_atom_site_fract_z
Si Si1 0.310452 0.204815 0.894327
Si Si2 0.190953 0.953593 0.104948
Si Si3 0.812264 0.253404 0.603051
Si Si4 0.312350 0.160484 0.397037
Si Si5 0.687570 0.712973 0.785805
Si Si6 0.189876 0.365357 0.894002
Si Si7 0.186244 0.455633 0.889992
Si Si8 0.187879 0.125779 0.215509
O O1 0.500000 0.203451 0.891175
O O2 0.259549 0.246481 0.842586
O O3 0.246566 0.164714 0.843152
O O4 0.262203 0.205498 0.000000
O O5 0.244366 0.916665 0.169341
O O6 0.000000 0.953497 0.106227
O O7 0.241211 0.000000 0.130567
O O8 0.237465 0.946041 0.000000
O O9 0.765859 0.265420 0.500000
O O10 0.750168 0.206907 0.618260
O O11 0.746193 0.281576 0.682977
O O12 0.000000 0.252784 0.607776
O O13 0.267174 0.148394 0.500000
O O14 0.500000 0.161615 0.391295
O O15 0.246519 0.131889 0.317967
O O16 0.500000 0.712620 0.786829
O O17 0.749736 0.672015 0.833862
O O18 0.246906 0.410721 0.861062
O O19 0.000000 0.365869 0.892332
O O20 0.236751 0.359738 0.000000
O O21 0.252533 0.500000 0.858384
O O22 0.000000 0.456185 0.869512
O O23 0.198532 0.455232 0.000000
O O24 0.000000 0.126031 0.214783
#
# Coordination Sequence:
#
# PCOD9385623 Si02
#       8
#     8   8   8   8   8   8   8   8
#     4  10  21  34  45  61  91 130 163 189 221 265
#     4   8  15  29  48  71  99 126 151 184 229 277
#     4  10  20  34  52  72  91 113 149 197 239 272
#     4  10  20  34  51  70  94 124 154 184 227 281
#     4  11  21  32  46  64  92 130 162 186 224 278
#     4   9  17  28  43  64  91 125 163 201 237 272
#     4   7  10  19  37  60  84 112 151 198 242 278
#     4  11  20  30  50  76  96 118 154 196 235 272
#
# _framework density 15.742533
#
# number of rings (size 3 to 8) (size 9 to 14) (size 15 to 20)
#    0.000    2.500    1.250    3.750    0.000    3.500 
#    0.000    0.000    0.000    2.250    0.000    8.750 
#    0.000    0.500    0.000    5.750    0.000    1.875 
#
# Total GULP energy -356703.911642 kJ/mol
# GULP energy per Si atom -5573.498619 kJ/mol
# Density = 1.570670 g / cm^3
# Si number density = 15.742533 Si / 1000 Ang^3
#
#
#
# Elastic Constant Matrix: (Units=GPa)
#
#
# Indices 1 2 3 4 5 6 
#
# 1 17.1963 24.3545 23.3118 0.0000 0.0000 0.0000
# 2 24.3545 156.1114 85.2613 0.0000 0.0000 0.0000
# 3 23.3118 85.2613 113.7837 0.0000 0.0000 0.0000
# 4 0.0000 0.0000 0.0000 8.4819 0.0000 0.0000
# 5 0.0000 0.0000 0.0000 0.0000 20.5824 0.0000
# 6 0.0000 0.0000 0.0000 0.0000 0.0000 -26.3678
#
#
#
# Elastic Compliance Matrix: (Units=1/GPa)
#
#
# Indices 1 2 3 4 5 6 
#
# 1 0.083991 -0.006272 -0.012508 0.000000 0.000000 0.000000
# 2 -0.006272 0.011312 -0.007191 0.000000 0.000000 0.000000
# 3 -0.012508 -0.007191 0.016740 0.000000 0.000000 0.000000
# 4 0.000000 0.000000 0.000000 0.117898 0.000000 0.000000
# 5 0.000000 0.000000 0.000000 0.000000 0.048585 0.000000
# 6 0.000000 0.000000 0.000000 0.000000 0.000000 -0.037925
#
#
# Mechanical properties :
#
#
# Convention : Reuss Voigt Hill
#
# Bulk Modulus (GPa) = 16.63896 61.43850 39.03873
# Shear Modulus (GPa) = 15.99612 10.81690 13.40651
#
# Velocity S-wave (km/s) = 3.19110 2.62413 2.92140
# Velocity P-wave (km/s) = 4.91629 6.94933 6.01926
#
# Compressibility (1/GPa) = 0.06009990
#
# Stress axis : x y z
#
# Youngs Moduli (GPa) = 11.90607 88.40468 59.73779
#
# Poissons Ratio (x) = 0.55445 0.74722
# Poissons Ratio (y) = 0.07467 0.42959
# Poissons Ratio (z) = 0.14892 0.63573
#
# Static dielectric constant tensor:
#      x y z
#    x 1.534570 0.000000 0.000000 
#    y 0.000000 1.533950 0.000000 
#    z 0.000000 0.000000 1.517190 
# 
# From -- ./inp_files/8255.got.cif
#   From: 2010.05.17/outbox.cif.g08.bks.cpg/sg47_5_cif.got.tgz:8255.got - 2010.06.03 20:15:42.
