data_PCOD9385669
_publ_section_title
;
Structure prediction by ZEFSAII (Michael W. Deem and Ramdas Pophale) SiO2 
 PCOD9385669
Probable space group: P M M M
;
_chemical_formula_sum "Si O2"
_cell_formula_units_Z 52
_cell_length_a 20.404675
_cell_length_b 7.498464
_cell_length_c 16.096558
_cell_angle_alpha 90.000000
_cell_angle_beta 90.000000
_cell_angle_gamma 90.000000
_cell_volume 2462.833268
_symmetry_space_group_name_H-M "P M M M"
_symmetry_group_IT_number 47
_symmetry_cell_setting 'orthorhombic'
loop_
_space_group_symop_operation_xyz
x,y,z
-x,-y,z
x,-y,-z
-x,y,-z
-x,-y,-z
x,y,-z
-x,y,z
x,-y,z
loop_
_atom_site_type_symbol
_atom_site_label
_atom_site_fract_x
_atom_site_fract_y
_atom_site_fract_z
Si Si1 0.207414 0.218421 0.406871
Si Si2 0.296562 0.788884 0.256638
Si Si3 0.928277 0.784179 0.329900
Si Si4 0.928140 0.290736 0.865751
Si Si5 0.574175 0.790071 0.183159
Si Si6 0.784785 0.283972 0.909476
Si Si7 0.423982 0.712908 0.000000
O O1 0.224542 0.273666 0.500000
O O2 0.256236 0.281928 0.334879
O O3 0.133966 0.275317 0.382274
O O4 0.207480 0.000000 0.405431
O O5 0.369237 0.713308 0.241408
O O6 0.254975 0.770305 0.171953
O O7 0.304144 0.000000 0.270941
O O8 0.922208 0.725340 0.234111
O O9 0.000000 0.726810 0.360583
O O10 0.927484 0.000000 0.329202
O O11 0.929824 0.500000 0.887719
O O12 0.860206 0.219343 0.901839
O O13 0.000000 0.215455 0.888788
O O14 0.500000 0.714468 0.187036
O O15 0.601184 0.773759 0.088862
O O16 0.568453 0.000000 0.200273
O O17 0.785418 0.500000 0.908308
O O18 0.758086 0.228848 0.000000
O O19 0.421332 0.500000 0.000000
O O20 0.500000 0.773413 0.000000
#
# Coordination Sequence:
#
# PCOD9385669 Si02
#       7
#     8   8   8   8   8   8   4
#     4   9  17  30  49  73  98 123 156 200 246 289
#     4  10  20  34  52  72  96 128 163 198 242 293
#     4   9  16  27  46  70  94 121 155 195 238 286
#     4   9  17  30  48  67  91 126 164 200 238 281
#     4   9  18  32  49  69  96 130 165 198 234 283
#     4  10  21  34  48  70  99 130 164 202 243 283
#     4   9  17  29  47  73 101 127 158 195 234 277
#
# _framework density 21.113893000000001
#
# number of rings (size 3 to 8) (size 9 to 14) (size 15 to 20)
#    0.000    2.692    1.538    0.231    1.077    2.462 
#    0.000    3.077    0.000    2.308    0.000    8.615 
#    0.000    0.000    0.000    5.231    0.000    5.538 
#
# Total GULP energy -290132.681481 kJ/mol
# GULP energy per Si atom -5579.474644 kJ/mol
# Density = 2.106584 g / cm^3
# Si number density = 21.113893 Si / 1000 Ang^3
#
#
#
# Elastic Constant Matrix: (Units=GPa)
#
#
# Indices 1 2 3 4 5 6 
#
# 1 152.5390 5.8827 87.5117 0.0000 0.0000 0.0000
# 2 5.8827 58.0519 -2.2963 0.0000 0.0000 0.0000
# 3 87.5117 -2.2963 141.3157 0.0000 0.0000 0.0000
# 4 0.0000 0.0000 0.0000 9.0036 0.0000 0.0000
# 5 0.0000 0.0000 0.0000 0.0000 9.9175 0.0000
# 6 0.0000 0.0000 0.0000 0.0000 0.0000 2.9494
#
#
#
# Elastic Compliance Matrix: (Units=1/GPa)
#
#
# Indices 1 2 3 4 5 6 
#
# 1 0.010264 -0.001292 -0.006377 0.000000 0.000000 0.000000
# 2 -0.001292 0.017400 0.001083 0.000000 0.000000 0.000000
# 3 -0.006377 0.001083 0.011043 0.000000 0.000000 0.000000
# 4 0.000000 0.000000 0.000000 0.111067 0.000000 0.000000
# 5 0.000000 0.000000 0.000000 0.000000 0.100832 0.000000
# 6 0.000000 0.000000 0.000000 0.000000 0.000000 0.339052
#
#
# Mechanical properties :
#
#
# Convention : Reuss Voigt Hill
#
# Bulk Modulus (GPa) = 39.16352 59.34475 49.25414
# Shear Modulus (GPa) = 8.17873 21.76132 14.97003
#
# Velocity S-wave (km/s) = 1.97029 3.21388 2.66562
# Velocity P-wave (km/s) = 4.87494 6.47611 5.73171
#
# Compressibility (1/GPa) = 0.02553397
#
# Stress axis : x y z
#
# Youngs Moduli (GPa) = 97.42639 57.47207 90.55397
#
# Poissons Ratio (x) = 0.07428 0.57748
# Poissons Ratio (y) = 0.12591 -0.09807
# Poissons Ratio (z) = 0.62131 -0.06225
#
# Static dielectric constant tensor:
#      x y z
#    x 1.806100 0.000000 0.000000 
#    y 0.000000 1.833590 0.000000 
#    z 0.000000 0.000000 1.732550 
# 
# From -- ./inp_files/10984.got.cif
#   From: 2010.05.17/outbox.cif.g08.bks.cpg/sg47_6_cif.got.tgz:10984.got - 2010.06.03 20:15:42.
