data_PCOD9385801
_publ_section_title
;
Structure prediction by ZEFSAII (Michael W. Deem and Ramdas Pophale) SiO2 
 PCOD9385801
Probable space group: P M M M
;
_chemical_formula_sum "Si O2"
_cell_formula_units_Z 48
_cell_length_a 7.580382
_cell_length_b 35.480169
_cell_length_c 9.500067
_cell_angle_alpha 90.000000
_cell_angle_beta 90.000000
_cell_angle_gamma 90.000000
_cell_volume 2555.073747
_symmetry_space_group_name_H-M "P M M M"
_symmetry_group_IT_number 47
_symmetry_cell_setting 'orthorhombic'
loop_
_space_group_symop_operation_xyz
x,y,z
-x,-y,z
x,-y,-z
-x,y,-z
-x,-y,-z
x,y,-z
-x,y,z
x,-y,z
loop_
_atom_site_type_symbol
_atom_site_label
_atom_site_fract_x
_atom_site_fract_y
_atom_site_fract_z
Si Si1 0.291751 0.642760 0.839781
Si Si2 0.500000 0.060335 0.170232
Si Si3 0.796077 0.000000 0.829461
Si Si4 0.206926 0.199852 0.667634
Si Si5 0.783331 0.500000 0.838210
Si Si6 0.500000 0.138861 0.668838
Si Si7 0.792160 0.429103 0.341835
Si Si8 0.212039 0.272833 0.839537
O O1 0.500000 0.637401 0.848840
O O2 0.224106 0.610614 0.737038
O O3 0.259072 0.685354 0.788390
O O4 0.218328 0.639679 0.000000
O O5 0.674674 0.035996 0.209365
O O6 0.500000 0.100162 0.246780
O O7 0.500000 0.064350 0.000000
O O8 0.000000 0.000000 0.779030
O O9 0.803254 0.000000 0.000000
O O10 0.220347 0.205909 0.500000
O O11 0.329519 0.164482 0.703443
O O12 0.269537 0.237594 0.746421
O O13 0.000000 0.193187 0.701199
O O14 0.722129 0.537163 0.755257
O O15 0.000000 0.500000 0.841027
O O16 0.725871 0.500000 0.000000
O O17 0.500000 0.132048 0.500000
O O18 0.717573 0.428308 0.500000
O O19 0.000000 0.436842 0.354924
O O20 0.000000 0.271254 0.842946
O O21 0.278343 0.269472 0.000000
#
# Coordination Sequence:
#
# PCOD9385801 Si02
#       8
#     8   4   4   8   4   4   8   8
#     4  10  21  35  51  74 103 133 165 203 251 306
#     4   9  18  32  52  80 106 136 182 224 263 321
#     4   8  15  31  54  78 108 142 176 222 276 322
#     4   9  19  35  52  71  99 137 179 217 260 320
#     4   9  17  31  54  79 100 127 162 200 246 299
#     4  10  21  35  51  74 108 146 178 219 275 320
#     4  10  20  34  53  77 103 130 163 203 245 294
#     4   9  18  33  53  76 100 127 164 213 261 302
#
# _framework density 18.786152000000001
#
# number of rings (size 3 to 8) (size 9 to 14) (size 15 to 20)
#    0.000    2.667    0.000    1.750    1.167    5.000 
#    0.000    2.917    0.000    3.000    0.000    0.000 
#    0.000    0.000    0.000    0.000    0.000    0.000 
#
# Total GULP energy -267690.959615 kJ/mol
# GULP energy per Si atom -5576.894992 kJ/mol
# Density = 1.874339 g / cm^3
# Si number density = 18.786152 Si / 1000 Ang^3
#
#
#
# Elastic Constant Matrix: (Units=GPa)
#
#
# Indices 1 2 3 4 5 6 
#
# 1 83.6548 47.1425 33.2223 0.0000 0.0000 0.0000
# 2 47.1425 189.1698 94.5503 0.0000 0.0000 0.0000
# 3 33.2223 94.5503 86.0178 0.0000 0.0000 0.0000
# 4 0.0000 0.0000 0.0000 56.4211 0.0000 0.0000
# 5 0.0000 0.0000 0.0000 0.0000 10.2963 0.0000
# 6 0.0000 0.0000 0.0000 0.0000 0.0000 26.3407
#
#
#
# Elastic Compliance Matrix: (Units=1/GPa)
#
#
# Indices 1 2 3 4 5 6 
#
# 1 0.014389 -0.001793 -0.003586 0.000000 0.000000 0.000000
# 2 -0.001793 0.011955 -0.012448 0.000000 0.000000 0.000000
# 3 -0.003586 -0.012448 0.026693 0.000000 0.000000 0.000000
# 4 0.000000 0.000000 0.000000 0.017724 0.000000 0.000000
# 5 0.000000 0.000000 0.000000 0.000000 0.097122 0.000000
# 6 0.000000 0.000000 0.000000 0.000000 0.000000 0.037964
#
#
# Mechanical properties :
#
#
# Convention : Reuss Voigt Hill
#
# Bulk Modulus (GPa) = 57.53076 78.74140 68.13608
# Shear Modulus (GPa) = 20.21864 30.87345 25.54604
#
# Velocity S-wave (km/s) = 3.28419 4.05830 3.69159
# Velocity P-wave (km/s) = 6.71355 7.99783 7.38367
#
# Compressibility (1/GPa) = 0.01738201
#
# Stress axis : x y z
#
# Youngs Moduli (GPa) = 69.49916 83.64672 37.46233
#
# Poissons Ratio (x) = 0.15002 0.13434
# Poissons Ratio (y) = 0.12465 0.46634
# Poissons Ratio (z) = 0.24922 1.04125
#
# Static dielectric constant tensor:
#      x y z
#    x 1.690350 0.000000 0.000000 
#    y 0.000000 1.617580 0.000000 
#    z 0.000000 0.000000 1.656930 
# 
# From -- ./inp_files/2847.got.cif
#   From: 2010.05.17/outbox.cif.g08.bks.cpg/sg47_2_cif.got.tgz:2847.got - 2010.06.03 20:15:42.
