data_PCOD9385017
_publ_section_title
;
Structure prediction by ZEFSAII (Michael W. Deem and Ramdas Pophale) SiO2 
 PCOD9385017
Probable space group: P M M M
;
_chemical_formula_sum "Si O2"
_cell_formula_units_Z 64
_cell_length_a 27.328877
_cell_length_b 7.827990
_cell_length_c 14.875486
_cell_angle_alpha 90.000000
_cell_angle_beta 90.000000
_cell_angle_gamma 90.000000
_cell_volume 3182.315336
_symmetry_space_group_name_H-M "P M M M"
_symmetry_group_IT_number 47
_symmetry_cell_setting 'orthorhombic'
loop_
_space_group_symop_operation_xyz
x,y,z
-x,-y,z
x,-y,-z
-x,y,-z
-x,-y,-z
x,y,-z
-x,y,z
x,-y,z
loop_
_atom_site_type_symbol
_atom_site_label
_atom_site_fract_x
_atom_site_fract_y
_atom_site_fract_z
Si Si1 0.186994 0.708633 0.099850
Si Si2 0.245811 0.204971 0.397880
Si Si3 0.699746 0.294367 0.100462
Si Si4 0.658993 0.205215 0.708701
Si Si5 0.054711 0.794362 0.602303
Si Si6 0.445375 0.803539 0.296016
Si Si7 0.558498 0.694825 0.097519
Si Si8 0.850545 0.702887 0.713803
O O1 0.186141 0.500000 0.098593
O O2 0.243706 0.758704 0.114647
O O3 0.156025 0.770171 0.184637
O O4 0.172022 0.765633 0.000000
O O5 0.243727 0.270366 0.500000
O O6 0.293369 0.271144 0.344280
O O7 0.195616 0.239490 0.345580
O O8 0.250872 0.000000 0.401979
O O9 0.699139 0.500000 0.099115
O O10 0.668344 0.238529 0.185577
O O11 0.685601 0.235573 0.000000
O O12 0.606526 0.273842 0.672976
O O13 0.656951 0.000000 0.697713
O O14 0.064599 0.734337 0.500000
O O15 0.098381 0.746510 0.667713
O O16 0.000000 0.734995 0.628069
O O17 0.053343 0.000000 0.599283
O O18 0.500000 0.727476 0.312580
O O19 0.436640 0.800487 0.188144
O O20 0.447824 0.000000 0.326587
O O21 0.500000 0.679944 0.090107
O O22 0.577727 0.500000 0.109558
O O23 0.575723 0.759698 0.000000
O O24 0.847190 0.500000 0.718743
#
# Coordination Sequence:
#
# PCOD9385017 Si02
#       8
#     8   8   8   8   8   8   8   8
#     4   8  15  29  48  71 102 137 168 200 244 298
#     4  10  21  36  52  71  99 133 163 195 247 313
#     4   9  17  31  50  70  96 131 165 197 241 296
#     4  10  20  33  49  69  94 124 160 204 247 293
#     4   9  19  36  55  75 106 150 189 216 252 304
#     4   9  18  31  45  61  83 114 151 192 242 294
#     4   8  14  25  40  58  81 109 143 182 220 265
#     4  11  20  31  54  84 109 134 170 215 255 292
#
# _framework density 20.111143999999999
#
# number of rings (size 3 to 8) (size 9 to 14) (size 15 to 20)
#    0.000    2.750    1.250    2.250    0.000    3.750 
#    0.000    4.375    0.000    2.250    0.000    5.250 
#    0.000    0.000    0.000    5.375    0.000    5.750 
#
# Total GULP energy -356658.639338 kJ/mol
# GULP energy per Si atom -5572.791240 kJ/mol
# Density = 2.006537 g / cm^3
# Si number density = 20.111144 Si / 1000 Ang^3
#
#
#
# Elastic Constant Matrix: (Units=GPa)
#
#
# Indices 1 2 3 4 5 6 
#
# 1 171.9519 3.7362 92.7561 0.0000 0.0000 0.0000
# 2 3.7362 25.1805 3.5546 0.0000 0.0000 0.0000
# 3 92.7561 3.5546 109.1354 0.0000 0.0000 0.0000
# 4 0.0000 0.0000 0.0000 16.7902 0.0000 0.0000
# 5 0.0000 0.0000 0.0000 0.0000 -26.3311 0.0000
# 6 0.0000 0.0000 0.0000 0.0000 0.0000 -5.7690
#
#
#
# Elastic Compliance Matrix: (Units=1/GPa)
#
#
# Indices 1 2 3 4 5 6 
#
# 1 0.010742 -0.000306 -0.009119 0.000000 0.000000 0.000000
# 2 -0.000306 0.039905 -0.001039 0.000000 0.000000 0.000000
# 3 -0.009119 -0.001039 0.016948 0.000000 0.000000 0.000000
# 4 0.000000 0.000000 0.000000 0.059559 0.000000 0.000000
# 5 0.000000 0.000000 0.000000 0.000000 -0.037978 0.000000
# 6 0.000000 0.000000 0.000000 0.000000 0.000000 -0.173340
#
#
# Mechanical properties :
#
#
# Convention : Reuss Voigt Hill
#
# Bulk Modulus (GPa) = 21.42975 56.26242 38.84608
# Shear Modulus (GPa) = -104.86544 10.68608 -47.08968
#
# Velocity S-wave (km/s) = -7.22884 2.30761 -4.84413
# Velocity P-wave (km/s) = 7.68089 5.92761 3.45395
#
# Compressibility (1/GPa) = 0.04666410
#
# Stress axis : x y z
#
# Youngs Moduli (GPa) = 93.09655 25.05928 59.00561
#
# Poissons Ratio (x) = 0.00768 0.53810
# Poissons Ratio (y) = 0.02853 0.06132
# Poissons Ratio (z) = 0.84899 0.02604
#
# Static dielectric constant tensor:
#      x y z
#    x 1.757980 0.000000 0.000000 
#    y 0.000000 1.750660 0.000000 
#    z 0.000000 0.000000 1.735150 
# 
# From -- ./inp_files/25615.got.cif
#   From: 2010.05.17/outbox.cif.g08.bks.cpg/sg47_13_cif.got.tgz:25615.got - 2010.06.03 20:15:42.
