data_PCOD9385414
_publ_section_title
;
Structure prediction by ZEFSAII (Michael W. Deem and Ramdas Pophale) SiO2 
 PCOD9385414
Probable space group: P M M M
;
_chemical_formula_sum "Si O2"
_cell_formula_units_Z 37
_cell_length_a 23.947026
_cell_length_b 7.814367
_cell_length_c 9.786607
_cell_angle_alpha 90.000000
_cell_angle_beta 90.000000
_cell_angle_gamma 90.000000
_cell_volume 1831.376084
_symmetry_space_group_name_H-M "P M M M"
_symmetry_group_IT_number 47
_symmetry_cell_setting 'orthorhombic'
loop_
_space_group_symop_operation_xyz
x,y,z
-x,-y,z
x,-y,-z
-x,y,-z
-x,-y,-z
x,y,-z
-x,y,z
x,-y,z
loop_
_atom_site_type_symbol
_atom_site_label
_atom_site_fract_x
_atom_site_fract_y
_atom_site_fract_z
Si Si1 0.000000 0.000000 0.000000
Si Si2 0.883615 0.792124 0.653539
Si Si3 0.560127 0.793933 0.339606
Si Si4 0.784589 0.203568 0.153841
Si Si5 0.000000 0.693388 0.226040
Si Si6 0.682231 0.701876 0.656381
O O1 0.000000 0.152317 0.117535
O O2 0.865197 0.748810 0.500000
O O3 0.838217 0.730241 0.763419
O O4 0.944090 0.717810 0.685563
O O5 0.887257 0.000000 0.661774
O O6 0.560004 0.743315 0.500000
O O7 0.500000 0.735719 0.281351
O O8 0.619758 0.733332 0.286561
O O9 0.560485 0.000000 0.334191
O O10 0.729553 0.228861 0.244354
O O11 0.792967 0.000000 0.142477
O O12 0.779723 0.273435 0.000000
O O13 0.000000 0.500000 0.168951
O O14 0.685666 0.773039 0.500000
O O15 0.690391 0.500000 0.647118
#
# Coordination Sequence:
#
# PCOD9385414 Si02
#       6
#     1   8   8   8   4   8
#     4  12  26  48  66  94 144 168 208 264 294 378
#     4  10  21  40  66  94 126 162 200 252 311 364
#     4   8  14  26  47  75 105 138 180 230 282 341
#     4  10  22  38  60  85 113 154 201 243 292 350
#     4  12  26  42  70  99 128 173 211 254 311 363
#     4  10  20  33  51  78 113 150 188 235 289 345
#
# _framework density 20.203389000000001
#
# number of rings (size 3 to 8) (size 9 to 14) (size 15 to 20)
#    0.000    2.162    1.081    2.432    1.514    5.622 
#    0.000    2.162    0.000    0.649    0.000    4.541 
#    0.000    0.000    0.000    0.000    0.000    0.000 
#
# Total GULP energy -206128.299546 kJ/mol
# GULP energy per Si atom -5571.035123 kJ/mol
# Density = 2.015740 g / cm^3
# Si number density = 20.203389 Si / 1000 Ang^3
#
#
#
# Elastic Constant Matrix: (Units=GPa)
#
#
# Indices 1 2 3 4 5 6 
#
# 1 172.6825 0.7234 77.5713 0.0000 0.0000 0.0000
# 2 0.7234 59.3887 22.4183 0.0000 0.0000 0.0000
# 3 77.5713 22.4183 115.8151 0.0000 0.0000 0.0000
# 4 0.0000 0.0000 0.0000 7.9299 0.0000 0.0000
# 5 0.0000 0.0000 0.0000 0.0000 -10.5954 0.0000
# 6 0.0000 0.0000 0.0000 0.0000 0.0000 -989.0436
#
#
#
# Elastic Compliance Matrix: (Units=1/GPa)
#
#
# Indices 1 2 3 4 5 6 
#
# 1 0.008546 0.002219 -0.006153 0.000000 0.000000 0.000000
# 2 0.002219 0.018742 -0.005114 0.000000 0.000000 0.000000
# 3 -0.006153 -0.005114 0.013746 0.000000 0.000000 0.000000
# 4 0.000000 0.000000 0.000000 0.126105 0.000000 0.000000
# 5 0.000000 0.000000 0.000000 0.000000 -0.094381 0.000000
# 6 0.000000 0.000000 0.000000 0.000000 0.000000 -0.001011
#
#
# Mechanical properties :
#
#
# Convention : Reuss Voigt Hill
#
# Bulk Modulus (GPa) = 43.59925 61.03470 52.31698
# Shear Modulus (GPa) = 51.28799 -181.86359 -65.28780
#
# Velocity S-wave (km/s) = 5.04390 -9.49799 -5.69082
# Velocity P-wave (km/s) = 7.45307 9.48718 4.15081
#
# Compressibility (1/GPa) = 0.02293617
#
# Stress axis : x y z
#
# Youngs Moduli (GPa) = 117.01587 53.35726 72.74965
#
# Poissons Ratio (x) = -0.11838 0.44765
# Poissons Ratio (y) = -0.25962 0.37203
# Poissons Ratio (z) = 0.72004 0.27286
#
# Static dielectric constant tensor:
#      x y z
#    x 1.723240 0.000000 0.000000 
#    y 0.000000 1.728940 0.000000 
#    z 0.000000 0.000000 1.715660 
# 
# From -- ./inp_files/1544.got.cif
#   From: 2010.05.17/outbox.cif.g08.bks.cpg/sg47_1_cif.got.tgz:1544.got - 2010.06.03 20:15:42.
