data_PCOD9385698
_publ_section_title
;
Structure prediction by ZEFSAII (Michael W. Deem and Ramdas Pophale) SiO2 
 PCOD9385698
Probable space group: P M M M
;
_chemical_formula_sum "Si O2"
_cell_formula_units_Z 52
_cell_length_a 8.965495
_cell_length_b 14.624736
_cell_length_c 25.541206
_cell_angle_alpha 90.000000
_cell_angle_beta 90.000000
_cell_angle_gamma 90.000000
_cell_volume 3348.911784
_symmetry_space_group_name_H-M "P M M M"
_symmetry_group_IT_number 47
_symmetry_cell_setting 'orthorhombic'
loop_
_space_group_symop_operation_xyz
x,y,z
-x,-y,z
x,-y,-z
-x,y,-z
-x,-y,-z
x,y,-z
-x,y,z
x,-y,z
loop_
_atom_site_type_symbol
_atom_site_label
_atom_site_fract_x
_atom_site_fract_y
_atom_site_fract_z
Si Si1 0.820589 0.107559 0.838015
Si Si2 0.170605 0.893669 0.343327
Si Si3 0.323342 0.778955 0.743256
Si Si4 0.179112 0.216520 0.057741
Si Si5 0.000000 0.889036 0.559101
Si Si6 0.176641 0.395222 0.785720
Si Si7 0.678542 0.603472 0.099295
O O1 0.740170 0.161150 0.791462
O O2 0.777634 0.151987 0.893778
O O3 0.000000 0.117834 0.832081
O O4 0.786174 0.000000 0.836390
O O5 0.274895 0.829893 0.309647
O O6 0.000000 0.889574 0.320932
O O7 0.141398 0.865598 0.403878
O O8 0.217126 0.000000 0.341019
O O9 0.500000 0.771084 0.747476
O O10 0.247563 0.679962 0.748290
O O11 0.252918 0.315407 0.065525
O O12 0.000000 0.226983 0.060292
O O13 0.216988 0.179852 0.000000
O O14 0.000000 0.854538 0.500000
O O15 0.000000 0.000000 0.557473
O O16 0.198391 0.500000 0.768255
O O17 0.254121 0.386009 0.842422
O O18 0.000000 0.378854 0.791797
O O19 0.500000 0.611732 0.101407
O O20 0.714986 0.500000 0.081251
#
# Coordination Sequence:
#
# PCOD9385698 Si02
#       7
#     8   8   8   8   4   8   8
#     4  10  21  36  53  70  92 126 165 205 250 299
#     4   8  16  29  47  72 102 137 176 212 242 280
#     4  12  22  31  48  74 106 136 163 200 248 301
#     4  10  21  36  53  72  92 120 161 205 248 299
#     4   7  12  26  50  76 101 137 184 224 250 275
#     4  10  20  34  53  73  95 126 162 200 245 300
#     4  10  20  34  52  74  97 121 151 190 245 307
#
# _framework density 15.527431999999999
#
# number of rings (size 3 to 8) (size 9 to 14) (size 15 to 20)
#    0.462    1.769    1.538    2.769    0.000    5.231 
#    0.000    3.077    0.000    0.462    0.000    4.308 
#    0.000    1.231    0.000    1.385    0.000    0.000 
#
# Total GULP energy -289813.959755 kJ/mol
# GULP energy per Si atom -5573.345380 kJ/mol
# Density = 1.549209 g / cm^3
# Si number density = 15.527432 Si / 1000 Ang^3
#
#
#
# Elastic Constant Matrix: (Units=GPa)
#
#
# Indices 1 2 3 4 5 6 
#
# 1 35.8015 28.9648 27.8715 0.0000 0.0000 0.0000
# 2 28.9648 73.3467 39.8290 0.0000 0.0000 0.0000
# 3 27.8715 39.8290 97.0598 0.0000 0.0000 0.0000
# 4 0.0000 0.0000 0.0000 11.6676 0.0000 0.0000
# 5 0.0000 0.0000 0.0000 0.0000 -5.6290 0.0000
# 6 0.0000 0.0000 0.0000 0.0000 0.0000 13.0387
#
#
#
# Elastic Compliance Matrix: (Units=1/GPa)
#
#
# Indices 1 2 3 4 5 6 
#
# 1 0.044626 -0.013722 -0.007184 0.000000 0.000000 0.000000
# 2 -0.013722 0.021762 -0.004990 0.000000 0.000000 0.000000
# 3 -0.007184 -0.004990 0.014413 0.000000 0.000000 0.000000
# 4 0.000000 0.000000 0.000000 0.085708 0.000000 0.000000
# 5 0.000000 0.000000 0.000000 0.000000 -0.177651 0.000000
# 6 0.000000 0.000000 0.000000 0.000000 0.000000 0.076695
#
#
# Mechanical properties :
#
#
# Convention : Reuss Voigt Hill
#
# Bulk Modulus (GPa) = 34.47036 44.39318 39.43177
# Shear Modulus (GPa) = 39.36556 11.11830 25.24193
#
# Velocity S-wave (km/s) = 5.04057 2.67880 4.03629
# Velocity P-wave (km/s) = 7.49161 6.18225 6.86820
#
# Compressibility (1/GPa) = 0.02901043
#
# Stress axis : x y z
#
# Youngs Moduli (GPa) = 22.40843 45.95086 69.37957
#
# Poissons Ratio (x) = 0.63054 0.49841
# Poissons Ratio (y) = 0.30749 0.34620
# Poissons Ratio (z) = 0.16098 0.22929
#
# Static dielectric constant tensor:
#      x y z
#    x 1.513370 0.000000 0.000000 
#    y 0.000000 1.519390 0.000000 
#    z 0.000000 0.000000 1.521410 
# 
# From -- ./inp_files/31990.got.cif
#   From: 2010.05.17/outbox.cif.g08.bks.cpg/sg47_16_cif.got.tgz:31990.got - 2010.06.03 20:15:42.
