data_PCOD9385359
_publ_section_title
;
Structure prediction by ZEFSAII (Michael W. Deem and Ramdas Pophale) SiO2 
 PCOD9385359
Probable space group: P M M M
;
_chemical_formula_sum "Si O2"
_cell_formula_units_Z 36
_cell_length_a 9.650362
_cell_length_b 9.299517
_cell_length_c 23.671957
_cell_angle_alpha 90.000000
_cell_angle_beta 90.000000
_cell_angle_gamma 90.000000
_cell_volume 2124.409137
_symmetry_space_group_name_H-M "P M M M"
_symmetry_group_IT_number 47
_symmetry_cell_setting 'orthorhombic'
loop_
_space_group_symop_operation_xyz
x,y,z
-x,-y,z
x,-y,-z
-x,y,-z
-x,-y,-z
x,y,-z
-x,y,z
x,-y,z
loop_
_atom_site_type_symbol
_atom_site_label
_atom_site_fract_x
_atom_site_fract_y
_atom_site_fract_z
Si Si1 0.165929 0.170414 0.114299
Si Si2 0.665321 0.671119 0.788934
Si Si3 0.662432 0.672148 0.659405
Si Si4 0.163985 0.827983 0.563708
Si Si5 0.168307 0.334562 0.000000
O O1 0.247582 0.239028 0.166403
O O2 0.209536 0.250650 0.056630
O O3 0.000000 0.191542 0.121367
O O4 0.190811 0.000000 0.109784
O O5 0.500000 0.693613 0.796030
O O6 0.690922 0.500000 0.796265
O O7 0.700933 0.709677 0.724053
O O8 0.500000 0.706959 0.652071
O O9 0.676878 0.500000 0.654198
O O10 0.752181 0.750101 0.612460
O O11 0.206726 0.784310 0.500000
O O12 0.000000 0.798640 0.569163
O O13 0.182271 0.000000 0.567892
O O14 0.216087 0.500000 0.000000
O O15 0.000000 0.336405 0.000000
#
# Coordination Sequence:
#
# PCOD9385359 Si02
#       5
#     8   8   8   8   4
#     4  10  20  33  51  77 106 133 164 205 251 297
#     4   9  19  36  54  72  99 134 169 206 249 296
#     4   9  19  35  53  74 100 130 166 208 251 295
#     4   9  19  35  52  72 101 134 166 203 248 297
#     4   9  17  31  52  75 100 133 170 206 246 293
#
# _framework density 16.945889000000001
#
# number of rings (size 3 to 8) (size 9 to 14) (size 15 to 20)
#    0.000    2.778    0.000    3.000    0.000    6.667 
#    0.000   10.556    0.000    3.333    0.000    0.000 
#    0.000    0.000    0.000    0.000    0.000    0.000 
#
# Total GULP energy -200754.837483 kJ/mol
# GULP energy per Si atom -5576.523263 kJ/mol
# Density = 1.690732 g / cm^3
# Si number density = 16.945889 Si / 1000 Ang^3
#
#
#
# Elastic Constant Matrix: (Units=GPa)
#
#
# Indices 1 2 3 4 5 6 
#
# 1 47.4017 56.3107 87.1806 0.0000 0.0000 0.0000
# 2 56.3107 86.2277 102.8962 0.0000 0.0000 0.0000
# 3 87.1806 102.8962 202.5258 0.0000 0.0000 0.0000
# 4 0.0000 0.0000 0.0000 62.2747 0.0000 0.0000
# 5 0.0000 0.0000 0.0000 0.0000 67.2212 0.0000
# 6 0.0000 0.0000 0.0000 0.0000 0.0000 29.4553
#
#
#
# Elastic Compliance Matrix: (Units=1/GPa)
#
#
# Indices 1 2 3 4 5 6 
#
# 1 0.177950 -0.062990 -0.044599 0.000000 0.000000 0.000000
# 2 -0.062990 0.051752 0.000822 0.000000 0.000000 0.000000
# 3 -0.044599 0.000822 0.023718 0.000000 0.000000 0.000000
# 4 0.000000 0.000000 0.000000 0.016058 0.000000 0.000000
# 5 0.000000 0.000000 0.000000 0.000000 0.014876 0.000000
# 6 0.000000 0.000000 0.000000 0.000000 0.000000 0.033950
#
#
# Mechanical properties :
#
#
# Convention : Reuss Voigt Hill
#
# Bulk Modulus (GPa) = 25.07090 92.10335 58.58712
# Shear Modulus (GPa) = 9.17207 37.77475 23.47341
#
# Velocity S-wave (km/s) = 2.32902 4.72650 3.72586
# Velocity P-wave (km/s) = 4.69672 9.17910 7.29092
#
# Compressibility (1/GPa) = 0.03988688
#
# Stress axis : x y z
#
# Youngs Moduli (GPa) = 5.61956 19.32291 42.16130
#
# Poissons Ratio (x) = 1.21714 1.88034
# Poissons Ratio (y) = 0.35397 -0.03464
# Poissons Ratio (z) = 0.25062 -0.01588
#
# Static dielectric constant tensor:
#      x y z
#    x 1.553050 0.000000 0.000000 
#    y 0.000000 1.559370 0.000000 
#    z 0.000000 0.000000 1.556820 
# 
# From -- ./inp_files/1347.got.cif
#   From: 2010.05.17/outbox.cif.g08.bks.cpg/sg47_1_cif.got.tgz:1347.got - 2010.06.03 20:15:42.
