data_PCOD9385264
_publ_section_title
;
Structure prediction by ZEFSAII (Michael W. Deem and Ramdas Pophale) SiO2 
 PCOD9385264
Probable space group: P M M M
;
_chemical_formula_sum "Si O2"
_cell_formula_units_Z 37
_cell_length_a 23.203812
_cell_length_b 7.350794
_cell_length_c 9.845580
_cell_angle_alpha 90.000000
_cell_angle_beta 90.000000
_cell_angle_gamma 90.000000
_cell_volume 1679.325550
_symmetry_space_group_name_H-M "P M M M"
_symmetry_group_IT_number 47
_symmetry_cell_setting 'orthorhombic'
loop_
_space_group_symop_operation_xyz
x,y,z
-x,-y,z
x,-y,-z
-x,y,-z
-x,-y,-z
x,y,-z
-x,y,z
x,-y,z
loop_
_atom_site_type_symbol
_atom_site_label
_atom_site_fract_x
_atom_site_fract_y
_atom_site_fract_z
Si Si1 0.125658 0.720312 0.148132
Si Si2 0.777043 0.717178 0.346769
Si Si3 0.000000 0.000000 0.500000
Si Si4 0.566007 0.778378 0.345684
Si Si5 0.332058 0.217435 0.154059
Si Si6 0.000000 0.280777 0.750438
O O1 0.129928 0.500000 0.147983
O O2 0.165960 0.786772 0.270060
O O3 0.058800 0.761958 0.170089
O O4 0.145881 0.783580 0.000000
O O5 0.769419 0.788203 0.500000
O O6 0.783142 0.500000 0.358024
O O7 0.723042 0.749318 0.248691
O O8 0.000000 0.840475 0.617385
O O9 0.581767 0.723520 0.500000
O O10 0.500000 0.723026 0.319554
O O11 0.611693 0.714596 0.234809
O O12 0.566578 0.000000 0.344803
O O13 0.338235 0.000000 0.144395
O O14 0.325916 0.287148 0.000000
O O15 0.000000 0.500000 0.723192
#
# Coordination Sequence:
#
# PCOD9385264 Si02
#       6
#     8   8   1   8   8   4
#     4   9  18  36  63  88 110 145 190 233 287 346
#     4  10  21  36  56  82 109 142 187 232 276 333
#     4  12  26  40  58  98 128 160 204 240 298 354
#     4   8  14  26  46  71 100 135 176 222 272 328
#     4  10  20  33  50  76 108 142 180 222 275 333
#     4  10  22  41  65  89 124 161 198 248 294 352
#
# _framework density 22.032654000000001
#
# number of rings (size 3 to 8) (size 9 to 14) (size 15 to 20)
#    0.000    2.595    0.000    2.432    1.514    4.324 
#    1.946    3.243    0.000    0.649    0.000    4.541 
#    0.000    0.000    0.000    0.000    0.000    0.000 
#
# Total GULP energy -206401.631325 kJ/mol
# GULP energy per Si atom -5578.422468 kJ/mol
# Density = 2.198251 g / cm^3
# Si number density = 22.032654 Si / 1000 Ang^3
#
#
#
# Elastic Constant Matrix: (Units=GPa)
#
#
# Indices 1 2 3 4 5 6 
#
# 1 152.3310 -0.0042 116.4306 0.0000 0.0000 0.0000
# 2 -0.0042 87.0828 13.7685 0.0000 0.0000 0.0000
# 3 116.4306 13.7685 233.5323 0.0000 0.0000 0.0000
# 4 0.0000 0.0000 0.0000 -6.7775 0.0000 0.0000
# 5 0.0000 0.0000 0.0000 0.0000 57.5466 0.0000
# 6 0.0000 0.0000 0.0000 0.0000 0.0000 11.6216
#
#
#
# Elastic Compliance Matrix: (Units=1/GPa)
#
#
# Indices 1 2 3 4 5 6 
#
# 1 0.010668 0.000849 -0.005369 0.000000 0.000000 0.000000
# 2 0.000849 0.011659 -0.001111 0.000000 0.000000 0.000000
# 3 -0.005369 -0.001111 0.007024 0.000000 0.000000 0.000000
# 4 0.000000 0.000000 0.000000 -0.147547 0.000000 0.000000
# 5 0.000000 0.000000 0.000000 0.000000 0.017377 0.000000
# 6 0.000000 0.000000 0.000000 0.000000 0.000000 0.086047
#
#
# Mechanical properties :
#
#
# Convention : Reuss Voigt Hill
#
# Bulk Modulus (GPa) = 55.27662 81.48176 68.37919
# Shear Modulus (GPa) = 1984.80031 35.32823 1010.06427
#
# Velocity S-wave (km/s) = 30.04664 4.00865 21.43443
# Velocity P-wave (km/s) = 35.05534 7.64776 25.37090
#
# Compressibility (1/GPa) = 0.01809083
#
# Stress axis : x y z
#
# Youngs Moduli (GPa) = 93.73617 85.77064 142.36346
#
# Poissons Ratio (x) = -0.07285 0.76433
# Poissons Ratio (y) = -0.07962 0.15815
# Poissons Ratio (z) = 0.50326 0.09528
#
# Static dielectric constant tensor:
#      x y z
#    x 1.773120 0.000000 0.000000 
#    y 0.000000 1.887110 0.000000 
#    z 0.000000 0.000000 1.773510 
# 
# From -- ./inp_files/12085.got.cif
#   From: 2010.05.17/outbox.cif.g08.bks.cpg/sg47_7_cif.got.tgz:12085.got - 2010.06.03 20:15:42.
