data_PCOD9385251
_publ_section_title
;
Structure prediction by ZEFSAII (Michael W. Deem and Ramdas Pophale) SiO2 
 PCOD9385251
Probable space group: P M M M
;
_chemical_formula_sum "Si O2"
_cell_formula_units_Z 44
_cell_length_a 16.582147
_cell_length_b 14.900610
_cell_length_c 9.105750
_cell_angle_alpha 90.000000
_cell_angle_beta 90.000000
_cell_angle_gamma 90.000000
_cell_volume 2249.886093
_symmetry_space_group_name_H-M "P M M M"
_symmetry_group_IT_number 47
_symmetry_cell_setting 'orthorhombic'
loop_
_space_group_symop_operation_xyz
x,y,z
-x,-y,z
x,-y,-z
-x,y,-z
-x,-y,-z
x,y,-z
-x,y,z
x,-y,z
loop_
_atom_site_type_symbol
_atom_site_label
_atom_site_fract_x
_atom_site_fract_y
_atom_site_fract_z
Si Si1 0.143866 0.240867 0.668886
Si Si2 0.411932 0.831847 0.165560
Si Si3 0.279846 0.094540 0.660052
Si Si4 0.761819 0.397435 0.173369
Si Si5 0.408589 0.355319 0.675148
Si Si6 0.000000 0.893404 0.679100
O O1 0.123462 0.266445 0.500000
O O2 0.222404 0.178462 0.665968
O O3 0.173618 0.327766 0.758228
O O4 0.075493 0.170699 0.722932
O O5 0.500000 0.873702 0.174654
O O6 0.342903 0.898587 0.211100
O O7 0.408589 0.748762 0.277081
O O8 0.400925 0.797114 0.000000
O O9 0.321276 0.096578 0.500000
O O10 0.233681 0.000000 0.667213
O O11 0.789874 0.500000 0.191705
O O12 0.672609 0.391540 0.247933
O O13 0.752628 0.378397 0.000000
O O14 0.400997 0.366222 0.500000
O O15 0.500000 0.388810 0.716550
O O16 0.000000 0.897647 0.500000
O O17 0.000000 0.000000 0.726722
#
# Coordination Sequence:
#
# PCOD9385251 Si02
#       6
#     8   8   8   8   8   4
#     4  10  20  37  62  90 119 153 191 239 294 349
#     4  10  20  33  50  74 108 151 196 240 287 340
#     4  10  20  33  52  80 112 148 191 236 287 347
#     4  11  24  40  59  85 119 160 202 245 297 353
#     4  10  20  35  57  84 114 151 198 252 305 352
#     4   9  18  36  66 101 130 154 187 235 292 353
#
# _framework density 19.556546000000001
#
# number of rings (size 3 to 8) (size 9 to 14) (size 15 to 20)
#    0.000    1.909    1.818    2.182    0.000    6.909 
#    0.000    4.545    0.000    4.909    0.000    0.000 
#    0.000    0.000    0.000    0.000    0.000    0.000 
#
# Total GULP energy -244996.536230 kJ/mol
# GULP energy per Si atom -5568.103096 kJ/mol
# Density = 1.951203 g / cm^3
# Si number density = 19.556546 Si / 1000 Ang^3
#
#
#
# Elastic Constant Matrix: (Units=GPa)
#
#
# Indices 1 2 3 4 5 6 
#
# 1 92.3015 48.3729 41.3975 0.0000 0.0000 0.0000
# 2 48.3729 120.8754 42.5901 0.0000 0.0000 0.0000
# 3 41.3975 42.5901 70.1650 0.0000 0.0000 0.0000
# 4 0.0000 0.0000 0.0000 33.6658 0.0000 0.0000
# 5 0.0000 0.0000 0.0000 0.0000 4.9168 0.0000
# 6 0.0000 0.0000 0.0000 0.0000 0.0000 3.1888
#
#
#
# Elastic Compliance Matrix: (Units=1/GPa)
#
#
# Indices 1 2 3 4 5 6 
#
# 1 0.016080 -0.003933 -0.007099 0.000000 0.000000 0.000000
# 2 -0.003933 0.011486 -0.004651 0.000000 0.000000 0.000000
# 3 -0.007099 -0.004651 0.021264 0.000000 0.000000 0.000000
# 4 0.000000 0.000000 0.000000 0.029704 0.000000 0.000000
# 5 0.000000 0.000000 0.000000 0.000000 0.203386 0.000000
# 6 0.000000 0.000000 0.000000 0.000000 0.000000 0.313600
#
#
# Mechanical properties :
#
#
# Convention : Reuss Voigt Hill
#
# Bulk Modulus (GPa) = 57.26886 60.89586 59.08236
# Shear Modulus (GPa) = 7.90254 18.41970 13.16112
#
# Velocity S-wave (km/s) = 2.01237 3.07232 2.59700
# Velocity P-wave (km/s) = 5.89464 6.61751 6.26651
#
# Compressibility (1/GPa) = 0.01746150
#
# Stress axis : x y z
#
# Youngs Moduli (GPa) = 62.19079 87.06306 47.02769
#
# Poissons Ratio (x) = 0.34245 0.33387
# Poissons Ratio (y) = 0.24462 0.21874
# Poissons Ratio (z) = 0.44152 0.40495
#
# Static dielectric constant tensor:
#      x y z
#    x 1.723140 0.000000 0.000000 
#    y 0.000000 1.700030 0.000000 
#    z 0.000000 0.000000 1.696790 
# 
# From -- ./inp_files/8944.got.cif
#   From: 2010.05.17/outbox.cif.g08.bks.cpg/sg47_5_cif.got.tgz:8944.got - 2010.06.03 20:15:42.
