data_PCOD9385274
_publ_section_title
;
Structure prediction by ZEFSAII (Michael W. Deem and Ramdas Pophale) SiO2 
 PCOD9385274
Probable space group: P M M M
;
_chemical_formula_sum "Si O2"
_cell_formula_units_Z 48
_cell_length_a 16.789270
_cell_length_b 8.895833
_cell_length_c 18.926450
_cell_angle_alpha 90.000000
_cell_angle_beta 90.000000
_cell_angle_gamma 90.000000
_cell_volume 2826.751274
_symmetry_space_group_name_H-M "P M M M"
_symmetry_group_IT_number 47
_symmetry_cell_setting 'orthorhombic'
loop_
_space_group_symop_operation_xyz
x,y,z
-x,-y,z
x,-y,-z
-x,y,-z
-x,-y,-z
x,y,-z
-x,y,z
x,-y,z
loop_
_atom_site_type_symbol
_atom_site_label
_atom_site_fract_x
_atom_site_fract_y
_atom_site_fract_z
Si Si1 0.833804 0.179575 0.917563
Si Si2 0.000000 0.670880 0.085620
Si Si3 0.590719 0.181229 0.720051
Si Si4 0.000000 0.316753 0.417347
Si Si5 0.257169 0.679877 0.791649
Si Si6 0.320972 0.180597 0.421225
Si Si7 0.832357 0.318677 0.649356
O O1 0.919759 0.243673 0.894606
O O2 0.770013 0.249605 0.865086
O O3 0.834031 0.000000 0.912991
O O4 0.821191 0.221027 0.000000
O O5 0.000000 0.500000 0.112549
O O6 0.000000 0.665664 0.000000
O O7 0.500000 0.225652 0.734675
O O8 0.657014 0.258961 0.768144
O O9 0.615913 0.219507 0.639599
O O10 0.596643 0.000000 0.727572
O O11 0.080593 0.268794 0.376967
O O12 0.000000 0.500000 0.417303
O O13 0.000000 0.270130 0.500000
O O14 0.257977 0.500000 0.796033
O O15 0.194701 0.723376 0.728969
O O16 0.345121 0.225571 0.500000
O O17 0.236772 0.253489 0.400488
O O18 0.311737 0.000000 0.419688
O O19 0.830377 0.500000 0.645481
#
# Coordination Sequence:
#
# PCOD9385274 Si02
#       7
#     8   4   8   4   8   8   8
#     4  10  20  34  53  77 105 136 170 207 247 295
#     4   9  17  30  49  74 104 135 166 201 240 280
#     4   9  18  33  52  72  96 128 163 200 247 304
#     4   9  16  27  45  66  89 123 168 210 239 270
#     4  10  20  33  51  74 100 130 163 204 252 302
#     4   9  17  29  46  69  96 124 157 201 249 295
#     4   9  18  31  46  66  92 126 167 205 244 290
#
# _framework density 16.980623999999999
#
# number of rings (size 3 to 8) (size 9 to 14) (size 15 to 20)
#    0.000    2.667    0.000    1.750    0.000    5.000 
#    0.000    3.750    0.000    2.000    0.000    8.167 
#    0.000    0.000    0.000    0.000    0.000    0.000 
#
# Total GULP energy -267609.390875 kJ/mol
# GULP energy per Si atom -5575.195643 kJ/mol
# Density = 1.694198 g / cm^3
# Si number density = 16.980624 Si / 1000 Ang^3
#
#
#
# Elastic Constant Matrix: (Units=GPa)
#
#
# Indices 1 2 3 4 5 6 
#
# 1 139.6084 40.5440 75.3277 0.0000 0.0000 0.0000
# 2 40.5440 31.9661 43.0244 0.0000 0.0000 0.0000
# 3 75.3277 43.0244 108.5981 0.0000 0.0000 0.0000
# 4 0.0000 0.0000 0.0000 19.9343 0.0000 0.0000
# 5 0.0000 0.0000 0.0000 0.0000 11.6505 0.0000
# 6 0.0000 0.0000 0.0000 0.0000 0.0000 22.7241
#
#
#
# Elastic Compliance Matrix: (Units=1/GPa)
#
#
# Indices 1 2 3 4 5 6 
#
# 1 0.012550 -0.009000 -0.005139 0.000000 0.000000 0.000000
# 2 -0.009000 0.073475 -0.022867 0.000000 0.000000 0.000000
# 3 -0.005139 -0.022867 0.021832 0.000000 0.000000 0.000000
# 4 0.000000 0.000000 0.000000 0.050165 0.000000 0.000000
# 5 0.000000 0.000000 0.000000 0.000000 0.085833 0.000000
# 6 0.000000 0.000000 0.000000 0.000000 0.000000 0.044006
#
#
# Mechanical properties :
#
#
# Convention : Reuss Voigt Hill
#
# Bulk Modulus (GPa) = 29.54616 66.44052 47.99334
# Shear Modulus (GPa) = 13.39928 18.94691 16.17309
#
# Velocity S-wave (km/s) = 2.81213 3.34398 3.08952
# Velocity P-wave (km/s) = 5.28978 7.35675 6.40717
#
# Compressibility (1/GPa) = 0.03384534
#
# Stress axis : x y z
#
# Youngs Moduli (GPa) = 79.68423 13.61001 45.80373
#
# Poissons Ratio (x) = 0.12249 0.23539
# Poissons Ratio (y) = 0.71717 1.04738
# Poissons Ratio (z) = 0.40951 0.31122
#
# Static dielectric constant tensor:
#      x y z
#    x 1.553470 0.000000 0.000000 
#    y 0.000000 1.566310 0.000000 
#    z 0.000000 0.000000 1.580340 
# 
# From -- ./inp_files/28013.got.cif
#   From: 2010.05.17/outbox.cif.g08.bks.cpg/sg47_15_cif.got.tgz:28013.got - 2010.06.03 20:15:42.
