data_PCOD9385401
_publ_section_title
;
Structure prediction by ZEFSAII (Michael W. Deem and Ramdas Pophale) SiO2 
 PCOD9385401
Probable space group: P M M M
;
_chemical_formula_sum "Si O2"
_cell_formula_units_Z 36
_cell_length_a 7.466619
_cell_length_b 25.542105
_cell_length_c 9.290659
_cell_angle_alpha 90.000000
_cell_angle_beta 90.000000
_cell_angle_gamma 90.000000
_cell_volume 1771.850997
_symmetry_space_group_name_H-M "P M M M"
_symmetry_group_IT_number 47
_symmetry_cell_setting 'orthorhombic'
loop_
_space_group_symop_operation_xyz
x,y,z
-x,-y,z
x,-y,-z
-x,y,-z
-x,-y,-z
x,y,-z
-x,y,z
x,-y,z
loop_
_atom_site_type_symbol
_atom_site_label
_atom_site_fract_x
_atom_site_fract_y
_atom_site_fract_z
Si Si1 0.212212 0.662192 0.338523
Si Si2 0.715612 0.558402 0.835632
Si Si3 0.781807 0.762295 0.164417
Si Si4 0.500000 0.937547 0.170253
Si Si5 0.214103 0.868415 0.670545
O O1 0.286574 0.663803 0.500000
O O2 0.233644 0.605575 0.267239
O O3 0.282633 0.708568 0.237230
O O4 0.000000 0.671675 0.349331
O O5 0.500000 0.557117 0.838970
O O6 0.776607 0.500000 0.792236
O O7 0.777088 0.568080 0.000000
O O8 0.734973 0.812419 0.260513
O O9 0.000000 0.760824 0.160149
O O10 0.720253 0.767512 0.000000
O O11 0.672043 0.911995 0.247060
O O12 0.500000 0.000000 0.186676
O O13 0.500000 0.925119 0.000000
O O14 0.251165 0.868882 0.500000
O O15 0.000000 0.875545 0.690048
#
# Coordination Sequence:
#
# PCOD9385401 Si02
#       5
#     8   8   8   4   8
#     4  10  20  33  51  78 110 140 175 223 277 334
#     4   9  19  36  54  71  96 133 178 227 277 332
#     4   9  17  32  56  83 112 147 186 229 280 340
#     4  11  25  43  63  91 127 165 208 255 296 345
#     4  10  21  39  64  92 124 162 202 249 306 361
#
# _framework density 20.317737000000001
#
# number of rings (size 3 to 8) (size 9 to 14) (size 15 to 20)
#    0.000    2.333    0.000    3.000    0.000    8.000 
#    2.000    5.556    0.000    0.000    0.000    0.000 
#    0.000    0.000    0.000    0.000    0.000    0.000 
#
# Total GULP energy -201094.893046 kJ/mol
# GULP energy per Si atom -5585.969251 kJ/mol
# Density = 2.027149 g / cm^3
# Si number density = 20.317737 Si / 1000 Ang^3
#
#
#
# Elastic Constant Matrix: (Units=GPa)
#
#
# Indices 1 2 3 4 5 6 
#
# 1 69.4246 32.0967 43.0860 0.0000 0.0000 0.0000
# 2 32.0967 152.6070 116.2045 0.0000 0.0000 0.0000
# 3 43.0860 116.2045 191.8752 0.0000 0.0000 0.0000
# 4 0.0000 0.0000 0.0000 -94.7471 0.0000 0.0000
# 5 0.0000 0.0000 0.0000 0.0000 15.9282 0.0000
# 6 0.0000 0.0000 0.0000 0.0000 0.0000 33.1267
#
#
#
# Elastic Compliance Matrix: (Units=1/GPa)
#
#
# Indices 1 2 3 4 5 6 
#
# 1 0.016860 -0.001231 -0.003041 0.000000 0.000000 0.000000
# 2 -0.001231 0.012251 -0.007143 0.000000 0.000000 0.000000
# 3 -0.003041 -0.007143 0.010220 0.000000 0.000000 0.000000
# 4 0.000000 0.000000 0.000000 -0.010554 0.000000 0.000000
# 5 0.000000 0.000000 0.000000 0.000000 0.062782 0.000000
# 6 0.000000 0.000000 0.000000 0.000000 0.000000 0.030187
#
#
# Mechanical properties :
#
#
# Convention : Reuss Voigt Hill
#
# Bulk Modulus (GPa) = 60.59623 88.52011 74.55817
# Shear Modulus (GPa) = 33.31652 5.69620 19.50636
#
# Velocity S-wave (km/s) = 4.05381 1.67620 3.10185
# Velocity P-wave (km/s) = 7.19723 6.88540 7.04304
#
# Compressibility (1/GPa) = 0.01650268
#
# Stress axis : x y z
#
# Youngs Moduli (GPa) = 59.31131 81.62750 97.84272
#
# Poissons Ratio (x) = 0.10046 0.29750
# Poissons Ratio (y) = 0.07300 0.69889
# Poissons Ratio (z) = 0.18034 0.58307
#
# Static dielectric constant tensor:
#      x y z
#    x 1.765530 0.000000 0.000000 
#    y 0.000000 1.681080 0.000000 
#    z 0.000000 0.000000 1.696680 
# 
# From -- ./inp_files/1422.got.cif
#   From: 2010.05.17/outbox.cif.g08.bks.cpg/sg47_1_cif.got.tgz:1422.got - 2010.06.03 20:15:42.
