data_PCOD9385951
_publ_section_title
;
Structure prediction by ZEFSAII (Michael W. Deem and Ramdas Pophale) SiO2 
 PCOD9385951
Probable space group: P M M M
;
_chemical_formula_sum "Si O2"
_cell_formula_units_Z 64
_cell_length_a 25.477474
_cell_length_b 8.246289
_cell_length_c 15.224752
_cell_angle_alpha 90.000000
_cell_angle_beta 90.000000
_cell_angle_gamma 90.000000
_cell_volume 3198.638389
_symmetry_space_group_name_H-M "P M M M"
_symmetry_group_IT_number 47
_symmetry_cell_setting 'orthorhombic'
loop_
_space_group_symop_operation_xyz
x,y,z
-x,-y,z
x,-y,-z
-x,y,-z
-x,-y,-z
x,y,-z
-x,y,z
x,-y,z
loop_
_atom_site_type_symbol
_atom_site_label
_atom_site_fract_x
_atom_site_fract_y
_atom_site_fract_z
Si Si1 0.940364 0.804195 0.601751
Si Si2 0.305205 0.312435 0.595925
Si Si3 0.579489 0.189681 0.403922
Si Si4 0.749680 0.809914 0.234748
Si Si5 0.938435 0.192279 0.102047
Si Si6 0.863626 0.685142 0.752386
Si Si7 0.557365 0.801869 0.790418
Si Si8 0.660123 0.801891 0.101077
O O1 0.932109 0.756115 0.500000
O O2 0.895777 0.741775 0.666731
O O3 0.000000 0.752809 0.627330
O O4 0.939792 0.000000 0.605086
O O5 0.280581 0.283583 0.500000
O O6 0.322153 0.500000 0.599357
O O7 0.357568 0.205807 0.601930
O O8 0.267776 0.276260 0.676050
O O9 0.564281 0.259311 0.500000
O O10 0.559985 0.256516 0.310905
O O11 0.564843 0.000000 0.405701
O O12 0.811347 0.783765 0.224514
O O13 0.712066 0.752681 0.155364
O O14 0.738787 0.000000 0.245661
O O15 0.903420 0.293646 0.167212
O O16 0.000000 0.225807 0.114794
O O17 0.930617 0.000000 0.120039
O O18 0.925868 0.220790 0.000000
O O19 0.847667 0.500000 0.740581
O O20 0.500000 0.758342 0.827280
O O21 0.607840 0.748651 0.846225
O O22 0.560007 0.000000 0.787748
O O23 0.659289 0.000000 0.099468
O O24 0.660373 0.747151 0.000000
#
# Coordination Sequence:
#
# PCOD9385951 Si02
#       8
#     8   8   8   8   8   8   8   8
#     4   9  19  38  63  88 116 155 201 241 277 326
#     4  10  20  34  54  79 106 137 174 220 273 325
#     4   9  16  28  48  75 107 143 180 214 257 319
#     4  11  22  38  58  78 105 145 190 232 275 331
#     4   9  19  38  63  87 112 147 191 235 279 331
#     4  12  25  37  54  85 121 152 186 233 289 345
#     4   9  16  27  47  79 114 142 174 222 277 330
#     4   9  18  33  53  78 106 137 178 229 283 335
#
# _framework density 20.008513000000001
#
# number of rings (size 3 to 8) (size 9 to 14) (size 15 to 20)
#    0.000    2.250    1.250    3.000    0.000    4.750 
#    0.000    5.000    0.000    1.500    0.000    1.750 
#    0.000    1.000    0.000    0.000    0.000    0.000 
#
# Total GULP energy -357086.548994 kJ/mol
# GULP energy per Si atom -5579.477328 kJ/mol
# Density = 1.996297 g / cm^3
# Si number density = 20.008513 Si / 1000 Ang^3
#
#
#
# Elastic Constant Matrix: (Units=GPa)
#
#
# Indices 1 2 3 4 5 6 
#
# 1 92.5738 9.5479 66.8440 0.0000 0.0000 0.0000
# 2 9.5479 17.8198 17.1320 0.0000 0.0000 0.0000
# 3 66.8440 17.1320 124.0410 0.0000 0.0000 0.0000
# 4 0.0000 0.0000 0.0000 -35.5440 0.0000 0.0000
# 5 0.0000 0.0000 0.0000 0.0000 50.2609 0.0000
# 6 0.0000 0.0000 0.0000 0.0000 0.0000 -14.5259
#
#
#
# Elastic Compliance Matrix: (Units=1/GPa)
#
#
# Indices 1 2 3 4 5 6 
#
# 1 0.017685 -0.000361 -0.009480 0.000000 0.000000 0.000000
# 2 -0.000361 0.064717 -0.008744 0.000000 0.000000 0.000000
# 3 -0.009480 -0.008744 0.014378 0.000000 0.000000 0.000000
# 4 0.000000 0.000000 0.000000 -0.028134 0.000000 0.000000
# 5 0.000000 0.000000 0.000000 0.000000 0.019896 0.000000
# 6 0.000000 0.000000 0.000000 0.000000 0.000000 -0.068843
#
#
# Mechanical properties :
#
#
# Convention : Reuss Voigt Hill
#
# Bulk Modulus (GPa) = 16.77580 46.83136 31.80358
# Shear Modulus (GPa) = 65.15558 9.43227 37.29392
#
# Velocity S-wave (km/s) = 5.71267 2.17356 4.32198
# Velocity P-wave (km/s) = 7.20523 5.45488 6.39027
#
# Compressibility (1/GPa) = 0.05960966
#
# Stress axis : x y z
#
# Youngs Moduli (GPa) = 56.54603 15.45189 69.54964
#
# Poissons Ratio (x) = 0.00558 0.65934
# Poissons Ratio (y) = 0.02043 0.60812
# Poissons Ratio (z) = 0.53607 0.13511
#
# Static dielectric constant tensor:
#      x y z
#    x 1.697440 0.000000 0.000000 
#    y 0.000000 1.716060 0.000000 
#    z 0.000000 0.000000 1.706460 
# 
# From -- ./inp_files/25540.got.cif
#   From: 2010.05.17/outbox.cif.g08.bks.cpg/sg47_13_cif.got.tgz:25540.got - 2010.06.03 20:15:42.
