data_PCOD9385748
_publ_section_title
;
Structure prediction by ZEFSAII (Michael W. Deem and Ramdas Pophale) SiO2 
 PCOD9385748
Probable space group: P M M M
;
_chemical_formula_sum "Si O2"
_cell_formula_units_Z 64
_cell_length_a 14.702973
_cell_length_b 32.866139
_cell_length_c 8.157403
_cell_angle_alpha 90.000000
_cell_angle_beta 90.000000
_cell_angle_gamma 90.000000
_cell_volume 3941.901479
_symmetry_space_group_name_H-M "P M M M"
_symmetry_group_IT_number 47
_symmetry_cell_setting 'orthorhombic'
loop_
_space_group_symop_operation_xyz
x,y,z
-x,-y,z
x,-y,-z
-x,y,-z
-x,-y,-z
x,y,-z
-x,y,z
x,-y,z
loop_
_atom_site_type_symbol
_atom_site_label
_atom_site_fract_x
_atom_site_fract_y
_atom_site_fract_z
Si Si1 0.608947 0.543822 0.698331
Si Si2 0.394276 0.875047 0.698884
Si Si3 0.102139 0.835735 0.693033
Si Si4 0.281449 0.203716 0.195207
Si Si5 0.392576 0.631624 0.302729
Si Si6 0.292979 0.044195 0.305368
Si Si7 0.395348 0.719345 0.196831
Si Si8 0.897852 0.072876 0.807686
O O1 0.619034 0.543649 0.500000
O O2 0.500000 0.543981 0.728723
O O3 0.644316 0.500000 0.759913
O O4 0.644796 0.587791 0.756594
O O5 0.388406 0.874247 0.500000
O O6 0.500000 0.874043 0.744951
O O7 0.341663 0.835765 0.763270
O O8 0.346449 0.916505 0.759470
O O9 0.106861 0.845395 0.500000
O O10 0.181594 0.804631 0.734626
O O11 0.115700 0.878565 0.785275
O O12 0.000000 0.821028 0.730697
O O13 0.332925 0.243883 0.258664
O O14 0.273433 0.207052 0.000000
O O15 0.386491 0.632143 0.500000
O O16 0.500000 0.631667 0.259099
O O17 0.357362 0.674607 0.238343
O O18 0.310410 0.043372 0.500000
O O19 0.185774 0.051103 0.278579
O O20 0.319474 0.000000 0.236900
O O21 0.500000 0.722806 0.259200
O O22 0.399880 0.722627 0.000000
O O23 0.000000 0.063446 0.746014
O O24 0.894658 0.063022 0.000000
#
# Coordination Sequence:
#
# PCOD9385748 Si02
#       8
#     8   8   8   8   8   8   8   8
#     4   7   9  14  26  45  68  94 129 177 227 265
#     4  10  21  36  53  72  93 119 151 185 220 256
#     4  10  20  34  53  75  97 118 140 171 213 260
#     4  11  21  33  51  72  93 118 148 181 218 261
#     4   8  13  21  34  52  73 101 141 185 223 259
#     4  10  21  36  53  73  97 124 151 179 215 258
#     4   9  18  30  41  57  85 119 149 179 220 261
#     4  10  20  34  53  76  99 122 146 173 209 253
#
# _framework density 16.23582
#
# number of rings (size 3 to 8) (size 9 to 14) (size 15 to 20)
#    0.000    2.625    1.250    2.625    0.000    4.000 
#    0.000    3.750    0.000    0.375    0.000    4.375 
#    0.000    0.000    0.000    0.000    0.000    0.625 
#
# Total GULP energy -356532.551679 kJ/mol
# GULP energy per Si atom -5570.821120 kJ/mol
# Density = 1.619887 g / cm^3
# Si number density = 16.235820 Si / 1000 Ang^3
#
#
#
# Elastic Constant Matrix: (Units=GPa)
#
#
# Indices 1 2 3 4 5 6 
#
# 1 53.5684 34.6111 0.9564 0.0000 0.0000 0.0000
# 2 34.6111 132.1105 3.1173 0.0000 0.0000 0.0000
# 3 0.9564 3.1173 6.3079 0.0000 0.0000 0.0000
# 4 0.0000 0.0000 0.0000 32.1781 0.0000 0.0000
# 5 0.0000 0.0000 0.0000 0.0000 12.4180 0.0000
# 6 0.0000 0.0000 0.0000 0.0000 0.0000 3.4884
#
#
#
# Elastic Compliance Matrix: (Units=1/GPa)
#
#
# Indices 1 2 3 4 5 6 
#
# 1 0.022473 -0.005876 -0.000503 0.000000 0.000000 0.000000
# 2 -0.005876 0.009195 -0.003653 0.000000 0.000000 0.000000
# 3 -0.000503 -0.003653 0.160412 0.000000 0.000000 0.000000
# 4 0.000000 0.000000 0.000000 0.031077 0.000000 0.000000
# 5 0.000000 0.000000 0.000000 0.000000 0.080528 0.000000
# 6 0.000000 0.000000 0.000000 0.000000 0.000000 0.286663
#
#
# Mechanical properties :
#
#
# Convention : Reuss Voigt Hill
#
# Bulk Modulus (GPa) = 5.81343 29.92849 17.87096
# Shear Modulus (GPa) = 7.48781 19.83704 13.66242
#
# Velocity S-wave (km/s) = 2.14986 3.49923 2.90401
# Velocity P-wave (km/s) = 3.12265 5.89913 4.71968
#
# Compressibility (1/GPa) = 0.17201549
#
# Stress axis : x y z
#
# Youngs Moduli (GPa) = 44.49765 108.75485 6.23393
#
# Poissons Ratio (x) = 0.63902 0.00314
# Poissons Ratio (y) = 0.26146 0.02277
# Poissons Ratio (z) = 0.02240 0.39731
#
# Static dielectric constant tensor:
#      x y z
#    x 1.529420 0.000000 0.000000 
#    y 0.000000 1.590450 0.000000 
#    z 0.000000 0.000000 1.569160 
# 
# From -- ./inp_files/8214.got.cif
#   From: 2010.05.17/outbox.cif.g08.bks.cpg/sg47_5_cif.got.tgz:8214.got - 2010.06.03 20:15:42.
