data_PCOD9385335
_publ_section_title
;
Structure prediction by ZEFSAII (Michael W. Deem and Ramdas Pophale) SiO2 
 PCOD9385335
Probable space group: P M M M
;
_chemical_formula_sum "Si O2"
_cell_formula_units_Z 52
_cell_length_a 19.898909
_cell_length_b 7.800484
_cell_length_c 16.370581
_cell_angle_alpha 90.000000
_cell_angle_beta 90.000000
_cell_angle_gamma 90.000000
_cell_volume 2541.059939
_symmetry_space_group_name_H-M "P M M M"
_symmetry_group_IT_number 47
_symmetry_cell_setting 'orthorhombic'
loop_
_space_group_symop_operation_xyz
x,y,z
-x,-y,z
x,-y,-z
-x,y,-z
-x,-y,-z
x,y,-z
-x,y,z
x,-y,z
loop_
_atom_site_type_symbol
_atom_site_label
_atom_site_fract_x
_atom_site_fract_y
_atom_site_fract_z
Si Si1 0.423899 0.298804 0.818636
Si Si2 0.925098 0.705910 0.667562
Si Si3 0.710728 0.798452 0.251888
Si Si4 0.218044 0.789639 0.911635
Si Si5 0.785921 0.796385 0.409880
Si Si6 0.073699 0.795435 0.141543
Si Si7 0.581613 0.805602 0.000000
O O1 0.500000 0.228714 0.811216
O O2 0.426289 0.500000 0.802555
O O3 0.368745 0.219232 0.759564
O O4 0.400932 0.274014 0.912880
O O5 0.923030 0.500000 0.666092
O O6 0.863726 0.773296 0.614485
O O7 0.916774 0.764090 0.761613
O O8 0.000000 0.761195 0.641025
O O9 0.744125 0.726572 0.169128
O O10 0.741791 0.724478 0.334873
O O11 0.727842 0.000000 0.252257
O O12 0.140330 0.734082 0.903416
O O13 0.219854 0.000000 0.910431
O O14 0.245546 0.736186 0.000000
O O15 0.773004 0.723468 0.500000
O O16 0.772471 0.000000 0.414050
O O17 0.000000 0.725289 0.118639
O O18 0.071496 0.000000 0.128404
O O19 0.500000 0.805565 0.000000
O O20 0.607007 0.000000 0.000000
#
# Coordination Sequence:
#
# PCOD9385335 Si02
#       7
#     8   8   8   8   8   8   4
#     4  10  21  36  54  79 112 147 181 219 264 316
#     4  10  20  33  51  76 106 139 176 220 270 322
#     4  10  20  35  55  79 107 139 176 218 267 322
#     4   9  17  29  47  75 107 136 172 219 265 308
#     4  10  21  38  59  81 105 136 176 221 270 324
#     4   9  16  29  50  72  99 138 182 223 263 308
#     4   9  17  31  53  81 111 145 184 221 258 303
#
# _framework density 20.463899999999999
#
# number of rings (size 3 to 8) (size 9 to 14) (size 15 to 20)
#    0.000    2.385    1.538    1.154    1.077    4.308 
#    0.000    3.077    0.000    1.846    0.000    5.385 
#    0.000    0.000    0.000    0.000    0.000    0.000 
#
# Total GULP energy -290198.938383 kJ/mol
# GULP energy per Si atom -5580.748815 kJ/mol
# Density = 2.041732 g / cm^3
# Si number density = 20.463900 Si / 1000 Ang^3
#
#
#
# Elastic Constant Matrix: (Units=GPa)
#
#
# Indices 1 2 3 4 5 6 
#
# 1 106.9404 -6.6173 85.7568 0.0000 0.0000 0.0000
# 2 -6.6173 21.8027 1.5789 0.0000 0.0000 0.0000
# 3 85.7568 1.5789 143.8281 0.0000 0.0000 0.0000
# 4 0.0000 0.0000 0.0000 -24.7629 0.0000 0.0000
# 5 0.0000 0.0000 0.0000 0.0000 20.0408 0.0000
# 6 0.0000 0.0000 0.0000 0.0000 0.0000 2.0009
#
#
#
# Elastic Compliance Matrix: (Units=1/GPa)
#
#
# Indices 1 2 3 4 5 6 
#
# 1 0.018802 0.006524 -0.011282 0.000000 0.000000 0.000000
# 2 0.006524 0.048166 -0.004418 0.000000 0.000000 0.000000
# 3 -0.011282 -0.004418 0.013728 0.000000 0.000000 0.000000
# 4 0.000000 0.000000 0.000000 -0.040383 0.000000 0.000000
# 5 0.000000 0.000000 0.000000 0.000000 0.049898 0.000000
# 6 0.000000 0.000000 0.000000 0.000000 0.000000 0.499786
#
#
# Mechanical properties :
#
#
# Convention : Reuss Voigt Hill
#
# Bulk Modulus (GPa) = 16.04053 48.22311 32.13182
# Shear Modulus (GPa) = 7.94745 12.24592 10.09669
#
# Velocity S-wave (km/s) = 1.97283 2.44891 2.22365
# Velocity P-wave (km/s) = 3.61177 5.62248 4.72532
#
# Compressibility (1/GPa) = 0.06234207
#
# Stress axis : x y z
#
# Youngs Moduli (GPa) = 53.18570 20.76157 72.84256
#
# Poissons Ratio (x) = -0.13544 0.82183
# Poissons Ratio (y) = -0.34696 0.32185
# Poissons Ratio (z) = 0.60005 0.09173
#
# Static dielectric constant tensor:
#      x y z
#    x 1.758410 0.000000 0.000000 
#    y 0.000000 1.748720 0.000000 
#    z 0.000000 0.000000 1.736510 
# 
# From -- ./inp_files/24970.got.cif
#   From: 2010.05.17/outbox.cif.g08.bks.cpg/sg47_13_cif.got.tgz:24970.got - 2010.06.03 20:15:42.
