data_PCOD9385933
_publ_section_title
;
Structure prediction by ZEFSAII (Michael W. Deem and Ramdas Pophale) SiO2 
 PCOD9385933
Probable space group: P M M M
;
_chemical_formula_sum "Si O2"
_cell_formula_units_Z 48
_cell_length_a 33.996869
_cell_length_b 9.493583
_cell_length_c 7.934361
_cell_angle_alpha 90.000000
_cell_angle_beta 90.000000
_cell_angle_gamma 90.000000
_cell_volume 2560.831656
_symmetry_space_group_name_H-M "P M M M"
_symmetry_group_IT_number 47
_symmetry_cell_setting 'orthorhombic'
loop_
_space_group_symop_operation_xyz
x,y,z
-x,-y,z
x,-y,-z
-x,y,-z
-x,-y,-z
x,y,-z
-x,y,z
x,-y,z
loop_
_atom_site_type_symbol
_atom_site_label
_atom_site_fract_x
_atom_site_fract_y
_atom_site_fract_z
Si Si1 0.179865 0.161306 0.297396
Si Si2 0.044941 0.671259 0.000000
Si Si3 0.897839 0.669364 0.302429
Si Si4 0.733439 0.160795 0.797672
Si Si5 0.500000 0.161409 0.799153
Si Si6 0.415111 0.838671 0.299794
Si Si7 0.660127 0.341157 0.201990
O O1 0.180244 0.157323 0.500000
O O2 0.142912 0.256731 0.249650
O O3 0.222707 0.213607 0.241373
O O4 0.175338 0.000000 0.234947
O O5 0.068614 0.712032 0.830823
O O6 0.043946 0.500000 0.000000
O O7 0.000000 0.721627 0.000000
O O8 0.906220 0.704828 0.500000
O O9 0.893522 0.500000 0.294234
O O10 0.698172 0.257102 0.731763
O O11 0.730262 0.000000 0.732367
O O12 0.729771 0.154214 0.000000
O O13 0.458237 0.222329 0.743078
O O14 0.500000 0.000000 0.731052
O O15 0.500000 0.157111 0.000000
O O16 0.411960 0.846218 0.500000
O O17 0.379388 0.745685 0.235096
O O18 0.412827 0.000000 0.231445
O O19 0.657785 0.500000 0.269081
O O20 0.664604 0.349923 0.000000
#
# Coordination Sequence:
#
# PCOD9385933 Si02
#       7
#     8   4   8   8   4   8   8
#     4   9  18  32  50  73 101 133 168 208 256 307
#     4   9  18  32  51  77 105 135 175 219 261 308
#     4   9  18  32  50  74 103 135 172 215 263 312
#     4   9  18  32  50  72  98 131 171 212 253 300
#     4   9  17  31  54  81 104 129 164 206 252 301
#     4  10  20  34  54  79 105 133 167 209 255 303
#     4  10  21  36  52  73 103 138 174 211 255 306
#
# _framework density 18.74391
#
# number of rings (size 3 to 8) (size 9 to 14) (size 15 to 20)
#    0.000    2.667    0.000    1.250    1.167    4.667 
#    0.000    3.750    0.000    3.500    0.000    2.333 
#    0.000    0.000    0.000    0.000    0.000    0.000 
#
# Total GULP energy -267603.299010 kJ/mol
# GULP energy per Si atom -5575.068729 kJ/mol
# Density = 1.870125 g / cm^3
# Si number density = 18.743910 Si / 1000 Ang^3
#
#
#
# Elastic Constant Matrix: (Units=GPa)
#
#
# Indices 1 2 3 4 5 6 
#
# 1 203.7110 74.9556 41.4919 0.0000 0.0000 0.0000
# 2 74.9556 58.1757 23.0402 0.0000 0.0000 0.0000
# 3 41.4919 23.0402 42.4440 0.0000 0.0000 0.0000
# 4 0.0000 0.0000 0.0000 12.7132 0.0000 0.0000
# 5 0.0000 0.0000 0.0000 0.0000 77.1381 0.0000
# 6 0.0000 0.0000 0.0000 0.0000 0.0000 28.5639
#
#
#
# Elastic Compliance Matrix: (Units=1/GPa)
#
#
# Indices 1 2 3 4 5 6 
#
# 1 0.009713 -0.011152 -0.003442 0.000000 0.000000 0.000000
# 2 -0.011152 0.034700 -0.007935 0.000000 0.000000 0.000000
# 3 -0.003442 -0.007935 0.031232 0.000000 0.000000 0.000000
# 4 0.000000 0.000000 0.000000 0.078658 0.000000 0.000000
# 5 0.000000 0.000000 0.000000 0.000000 0.012964 0.000000
# 6 0.000000 0.000000 0.000000 0.000000 0.000000 0.035009
#
#
# Mechanical properties :
#
#
# Convention : Reuss Voigt Hill
#
# Bulk Modulus (GPa) = 32.69163 64.81180 48.75172
# Shear Modulus (GPa) = 19.41518 34.67258 27.04388
#
# Velocity S-wave (km/s) = 3.22190 4.30560 3.80255
# Velocity P-wave (km/s) = 5.59642 7.70521 6.73387
#
# Compressibility (1/GPa) = 0.03058887
#
# Stress axis : x y z
#
# Youngs Moduli (GPa) = 102.95239 28.81823 32.01802
#
# Poissons Ratio (x) = 0.32137 0.11020
# Poissons Ratio (y) = 1.14810 0.25406
# Poissons Ratio (z) = 0.35434 0.22867
#
# Static dielectric constant tensor:
#      x y z
#    x 1.637250 0.000000 0.000000 
#    y 0.000000 1.658050 0.000000 
#    z 0.000000 0.000000 1.667190 
# 
# From -- ./inp_files/2783.got.cif
#   From: 2010.05.17/outbox.cif.g08.bks.cpg/sg47_2_cif.got.tgz:2783.got - 2010.06.03 20:15:42.
