data_PCOD9385344
_publ_section_title
;
Structure prediction by ZEFSAII (Michael W. Deem and Ramdas Pophale) SiO2 
 PCOD9385344
Probable space group: P M M M
;
_chemical_formula_sum "Si O2"
_cell_formula_units_Z 44
_cell_length_a 17.145581
_cell_length_b 7.561594
_cell_length_c 15.039209
_cell_angle_alpha 90.000000
_cell_angle_beta 90.000000
_cell_angle_gamma 90.000000
_cell_volume 1949.802202
_symmetry_space_group_name_H-M "P M M M"
_symmetry_group_IT_number 47
_symmetry_cell_setting 'orthorhombic'
loop_
_space_group_symop_operation_xyz
x,y,z
-x,-y,z
x,-y,-z
-x,y,-z
-x,-y,-z
x,y,-z
-x,y,z
x,-y,z
loop_
_atom_site_type_symbol
_atom_site_label
_atom_site_fract_x
_atom_site_fract_y
_atom_site_fract_z
Si Si1 0.086524 0.705885 0.356928
Si Si2 0.738477 0.715876 0.399167
Si Si3 0.500000 0.793679 0.897344
Si Si4 0.637226 0.694429 0.239847
Si Si5 0.917123 0.786125 0.850761
Si Si6 0.249417 0.786105 0.905281
O O1 0.085824 0.500000 0.384355
O O2 0.171368 0.778766 0.385915
O O3 0.088233 0.718589 0.250024
O O4 0.000000 0.779205 0.383776
O O5 0.715678 0.755136 0.500000
O O6 0.741306 0.500000 0.388090
O O7 0.673524 0.782246 0.328619
O O8 0.426810 0.758942 0.831438
O O9 0.500000 0.000000 0.912013
O O10 0.500000 0.715227 0.000000
O O11 0.609655 0.500000 0.266565
O O12 0.712766 0.693328 0.177515
O O13 0.840921 0.737910 0.903887
O O14 0.000000 0.729282 0.888544
O O15 0.916941 0.000000 0.845890
O O16 0.257030 0.000000 0.895074
O O17 0.285952 0.738787 0.000000
#
# Coordination Sequence:
#
# PCOD9385344 Si02
#       6
#     8   8   4   8   8   8
#     4   9  16  28  49  76 107 146 193 241 282 319
#     4   9  18  33  54  83 117 151 189 232 279 328
#     4  11  25  45  68  91 116 146 177 215 270 335
#     4  11  22  38  61  88 115 144 179 226 277 329
#     4   9  17  29  46  69 101 143 189 234 277 323
#     4  10  20  33  51  76 108 147 187 228 279 335
#
# _framework density 22.566393000000001
#
# number of rings (size 3 to 8) (size 9 to 14) (size 15 to 20)
#    0.000    2.273    1.818    1.364    0.000    4.000 
#    0.000    4.091    0.000    7.636    0.000    6.364 
#    0.000    0.000    0.000    0.000    0.000    0.000 
#
# Total GULP energy -245062.674061 kJ/mol
# GULP energy per Si atom -5569.606229 kJ/mol
# Density = 2.251503 g / cm^3
# Si number density = 22.566393 Si / 1000 Ang^3
#
#
#
# Elastic Constant Matrix: (Units=GPa)
#
#
# Indices 1 2 3 4 5 6 
#
# 1 127.9233 14.3388 69.5460 0.0000 0.0000 0.0000
# 2 14.3388 45.6166 7.4178 0.0000 0.0000 0.0000
# 3 69.5460 7.4178 161.6099 0.0000 0.0000 0.0000
# 4 0.0000 0.0000 0.0000 2.5600 0.0000 0.0000
# 5 0.0000 0.0000 0.0000 0.0000 43.3953 0.0000
# 6 0.0000 0.0000 0.0000 0.0000 0.0000 10.0078
#
#
#
# Elastic Compliance Matrix: (Units=1/GPa)
#
#
# Indices 1 2 3 4 5 6 
#
# 1 0.010499 -0.002585 -0.004399 0.000000 0.000000 0.000000
# 2 -0.002585 0.022723 0.000069 0.000000 0.000000 0.000000
# 3 -0.004399 0.000069 0.008078 0.000000 0.000000 0.000000
# 4 0.000000 0.000000 0.000000 0.390624 0.000000 0.000000
# 5 0.000000 0.000000 0.000000 0.000000 0.023044 0.000000
# 6 0.000000 0.000000 0.000000 0.000000 0.000000 0.099922
#
#
# Mechanical properties :
#
#
# Convention : Reuss Voigt Hill
#
# Bulk Modulus (GPa) = 36.40330 57.52835 46.96583
# Shear Modulus (GPa) = 8.65238 27.44909 18.05074
#
# Velocity S-wave (km/s) = 1.96023 3.49143 2.83131
# Velocity P-wave (km/s) = 4.61411 6.46543 5.61657
#
# Compressibility (1/GPa) = 0.02747004
#
# Stress axis : x y z
#
# Youngs Moduli (GPa) = 95.25119 44.00825 123.79770
#
# Poissons Ratio (x) = 0.11375 0.54462
# Poissons Ratio (y) = 0.24619 -0.00858
# Poissons Ratio (z) = 0.41903 -0.00305
#
# Static dielectric constant tensor:
#      x y z
#    x 1.902390 0.000000 0.000000 
#    y 0.000000 1.907490 0.000000 
#    z 0.000000 0.000000 1.809630 
# 
# From -- ./inp_files/6155.got.cif
#   From: 2010.05.17/outbox.cif.g08.bks.cpg/sg47_4_cif.got.tgz:6155.got - 2010.06.03 20:15:42.
