data_PCOD9385765
_publ_section_title
;
Structure prediction by ZEFSAII (Michael W. Deem and Ramdas Pophale) SiO2 
 PCOD9385765
Probable space group: P M M M
;
_chemical_formula_sum "Si O2"
_cell_formula_units_Z 44
_cell_length_a 29.595938
_cell_length_b 9.271794
_cell_length_c 9.065821
_cell_angle_alpha 90.000000
_cell_angle_beta 90.000000
_cell_angle_gamma 90.000000
_cell_volume 2487.728735
_symmetry_space_group_name_H-M "P M M M"
_symmetry_group_IT_number 47
_symmetry_cell_setting 'orthorhombic'
loop_
_space_group_symop_operation_xyz
x,y,z
-x,-y,z
x,-y,-z
-x,y,-z
-x,-y,-z
x,y,-z
-x,y,z
x,-y,z
loop_
_atom_site_type_symbol
_atom_site_label
_atom_site_fract_x
_atom_site_fract_y
_atom_site_fract_z
Si Si1 0.450249 0.831031 0.320768
Si Si2 0.000000 0.333922 0.179573
Si Si3 0.824840 0.671235 0.675690
Si Si4 0.360207 0.327526 0.675072
Si Si5 0.268163 0.675579 0.169658
Si Si6 0.091103 0.169474 0.177722
O O1 0.450394 0.821133 0.500000
O O2 0.500000 0.779607 0.270795
O O3 0.406348 0.745156 0.269725
O O4 0.446234 0.000000 0.283848
O O5 0.954653 0.250987 0.225163
O O6 0.000000 0.500000 0.228774
O O7 0.000000 0.334137 0.000000
O O8 0.824545 0.688688 0.500000
O O9 0.830436 0.500000 0.708223
O O10 0.776654 0.718615 0.742156
O O11 0.865676 0.758103 0.747828
O O12 0.355354 0.298482 0.500000
O O13 0.363943 0.500000 0.692709
O O14 0.315012 0.276394 0.756801
O O15 0.269035 0.500000 0.173218
O O16 0.265193 0.721022 0.000000
O O17 0.088157 0.000000 0.211970
O O18 0.094950 0.183964 0.000000
#
# Coordination Sequence:
#
# PCOD9385765 Si02
#       6
#     8   4   8   8   8   8
#     4   8  14  25  41  62  89 120 152 186 228 280
#     4   9  17  31  54  81 106 135 172 210 246 289
#     4  10  20  34  53  76 101 131 169 210 250 295
#     4   9  16  26  43  68  94 118 150 195 240 279
#     4   9  17  30  49  71  95 125 160 198 242 292
#     4  10  20  34  53  78 108 139 170 206 249 295
#
# _framework density 17.686817000000001
#
# number of rings (size 3 to 8) (size 9 to 14) (size 15 to 20)
#    0.000    2.818    0.000    2.455    0.000    5.818 
#    0.000    3.182    0.000    7.091    0.000    3.818 
#    0.000    0.000    0.000    0.000    0.000    0.000 
#
# Total GULP energy -245277.289755 kJ/mol
# GULP energy per Si atom -5574.483858 kJ/mol
# Density = 1.764656 g / cm^3
# Si number density = 17.686817 Si / 1000 Ang^3
#
#
#
# Elastic Constant Matrix: (Units=GPa)
#
#
# Indices 1 2 3 4 5 6 
#
# 1 223.6097 84.4220 61.9910 0.0000 0.0000 0.0000
# 2 84.4220 65.1476 42.8593 0.0000 0.0000 0.0000
# 3 61.9910 42.8593 37.1583 0.0000 0.0000 0.0000
# 4 0.0000 0.0000 0.0000 14.2275 0.0000 0.0000
# 5 0.0000 0.0000 0.0000 0.0000 32.4811 0.0000
# 6 0.0000 0.0000 0.0000 0.0000 0.0000 -22.0176
#
#
#
# Elastic Compliance Matrix: (Units=1/GPa)
#
#
# Indices 1 2 3 4 5 6 
#
# 1 0.009127 -0.007505 -0.006570 0.000000 0.000000 0.000000
# 2 -0.007505 0.069814 -0.068005 0.000000 0.000000 0.000000
# 3 -0.006570 -0.068005 0.116312 0.000000 0.000000 0.000000
# 4 0.000000 0.000000 0.000000 0.070286 0.000000 0.000000
# 5 0.000000 0.000000 0.000000 0.000000 0.030787 0.000000
# 6 0.000000 0.000000 0.000000 0.000000 0.000000 -0.045418
#
#
# Mechanical properties :
#
#
# Convention : Reuss Voigt Hill
#
# Bulk Modulus (GPa) = 32.16210 78.27336 55.21773
# Shear Modulus (GPa) = 11.75275 14.04774 12.90024
#
# Velocity S-wave (km/s) = 2.58057 2.82130 2.70362
# Velocity P-wave (km/s) = 5.20604 7.41379 6.40574
#
# Compressibility (1/GPa) = 0.03109250
#
# Stress axis : x y z
#
# Youngs Moduli (GPa) = 109.56654 14.32374 8.59760
#
# Poissons Ratio (x) = 0.10750 0.05649
# Poissons Ratio (y) = 0.82227 0.58468
# Poissons Ratio (z) = 0.71986 0.97409
#
# Static dielectric constant tensor:
#      x y z
#    x 1.595190 0.000000 0.000000 
#    y 0.000000 1.590660 0.000000 
#    z 0.000000 0.000000 1.596520 
# 
# From -- ./inp_files/2100.got.cif
#   From: 2010.05.17/outbox.cif.g08.bks.cpg/sg47_2_cif.got.tgz:2100.got - 2010.06.03 20:15:42.
