data_PCOD9385486
_publ_section_title
;
Structure prediction by ZEFSAII (Michael W. Deem and Ramdas Pophale) SiO2 
 PCOD9385486
Probable space group: P M M M
;
_chemical_formula_sum "Si O2"
_cell_formula_units_Z 64
_cell_length_a 15.160364
_cell_length_b 7.805543
_cell_length_c 26.119100
_cell_angle_alpha 90.000000
_cell_angle_beta 90.000000
_cell_angle_gamma 90.000000
_cell_volume 3090.800384
_symmetry_space_group_name_H-M "P M M M"
_symmetry_group_IT_number 47
_symmetry_cell_setting 'orthorhombic'
loop_
_space_group_symop_operation_xyz
x,y,z
-x,-y,z
x,-y,-z
-x,y,-z
-x,-y,-z
x,y,-z
-x,y,z
x,-y,z
loop_
_atom_site_type_symbol
_atom_site_label
_atom_site_fract_x
_atom_site_fract_y
_atom_site_fract_z
Si Si1 0.403183 0.300515 0.574249
Si Si2 0.752764 0.210262 0.135282
Si Si3 0.595642 0.207286 0.307966
Si Si4 0.601839 0.791039 0.942025
Si Si5 0.795253 0.799844 0.444795
Si Si6 0.900001 0.297587 0.657917
Si Si7 0.769469 0.205398 0.251392
Si Si8 0.899613 0.791015 0.056942
O O1 0.500000 0.230879 0.558112
O O2 0.400461 0.500000 0.559939
O O3 0.402185 0.283786 0.635537
O O4 0.311017 0.219583 0.557486
O O5 0.665190 0.264545 0.104197
O O6 0.769826 0.269379 0.193146
O O7 0.833772 0.266526 0.100174
O O8 0.750846 0.000000 0.136253
O O9 0.500000 0.245797 0.284368
O O10 0.679263 0.269669 0.277015
O O11 0.601578 0.000000 0.313477
O O12 0.500000 0.739269 0.934866
O O13 0.603788 0.000000 0.942143
O O14 0.629669 0.738979 0.000000
O O15 0.824184 0.724057 0.500000
O O16 0.841952 0.734426 0.393273
O O17 0.815606 0.000000 0.445557
O O18 0.907295 0.500000 0.662352
O O19 0.848696 0.239391 0.709064
O O20 0.000000 0.225744 0.653636
O O21 0.762951 0.000000 0.248120
O O22 0.000000 0.736350 0.065240
O O23 0.899198 0.000000 0.057299
O O24 0.871597 0.738363 0.000000
#
# Coordination Sequence:
#
# PCOD9385486 Si02
#       8
#     8   8   8   8   8   8   8   8
#     4  10  20  34  56  86 118 153 189 222 259 306
#     4   9  16  24  37  61  93 128 169 215 263 318
#     4   9  17  30  49  73 104 142 181 219 262 315
#     4   8  13  21  34  55  90 139 186 222 261 313
#     4  11  24  41  63  91 120 148 180 222 272 325
#     4  11  25  44  64  83 106 141 183 227 278 336
#     4  10  20  33  52  79 108 141 179 223 278 332
#     4   8  13  21  33  50  77 116 158 201 255 316
#
# _framework density 20.706610000000001
#
# number of rings (size 3 to 8) (size 9 to 14) (size 15 to 20)
#    0.000    2.500    1.250    2.250    0.000    5.750 
#    0.000    6.250    0.000    0.000    0.000    0.000 
#    0.000    2.000    0.000    8.250    0.000    6.500 
#
# Total GULP energy -356877.589116 kJ/mol
# GULP energy per Si atom -5576.212330 kJ/mol
# Density = 2.065948 g / cm^3
# Si number density = 20.706610 Si / 1000 Ang^3
#
#
#
# Elastic Constant Matrix: (Units=GPa)
#
#
# Indices 1 2 3 4 5 6 
#
# 1 137.5074 2.8087 107.6130 0.0000 0.0000 0.0000
# 2 2.8087 24.7764 7.2202 0.0000 0.0000 0.0000
# 3 107.6130 7.2202 199.8672 0.0000 0.0000 0.0000
# 4 0.0000 0.0000 0.0000 -393.2227 0.0000 0.0000
# 5 0.0000 0.0000 0.0000 0.0000 -27.5201 0.0000
# 6 0.0000 0.0000 0.0000 0.0000 0.0000 13.2765
#
#
#
# Elastic Compliance Matrix: (Units=1/GPa)
#
#
# Indices 1 2 3 4 5 6 
#
# 1 0.012576 0.000553 -0.006791 0.000000 0.000000 0.000000
# 2 0.000553 0.040815 -0.001772 0.000000 0.000000 0.000000
# 3 -0.006791 -0.001772 0.008724 0.000000 0.000000 0.000000
# 4 0.000000 0.000000 0.000000 -0.002543 0.000000 0.000000
# 5 0.000000 0.000000 0.000000 0.000000 -0.036337 0.000000
# 6 0.000000 0.000000 0.000000 0.000000 0.000000 0.075321
#
#
# Mechanical properties :
#
#
# Convention : Reuss Voigt Hill
#
# Bulk Modulus (GPa) = 21.69474 66.38165 44.03819
# Shear Modulus (GPa) = 38.47934 -65.19265 -13.35666
#
# Velocity S-wave (km/s) = 4.31549 -5.61715 -2.54253
# Velocity P-wave (km/s) = 5.94401 3.15309 3.56295
#
# Compressibility (1/GPa) = 0.04609413
#
# Stress axis : x y z
#
# Youngs Moduli (GPa) = 79.51869 24.50098 114.62922
#
# Poissons Ratio (x) = -0.01356 0.77845
# Poissons Ratio (y) = -0.04401 0.20317
# Poissons Ratio (z) = 0.54001 0.04343
#
# Static dielectric constant tensor:
#      x y z
#    x 1.754740 0.000000 0.000000 
#    y 0.000000 1.752980 0.000000 
#    z 0.000000 0.000000 1.750710 
# 
# From -- ./inp_files/32798.got.cif
#   From: 2010.05.17/outbox.cif.g08.bks.cpg/sg47_17_cif.got.tgz:32798.got - 2010.06.03 20:15:42.
