data_PCOD9385842
_publ_section_title
;
Structure prediction by ZEFSAII (Michael W. Deem and Ramdas Pophale) SiO2 
 PCOD9385842
Probable space group: P M M M
;
_chemical_formula_sum "Si O2"
_cell_formula_units_Z 40
_cell_length_a 9.238160
_cell_length_b 15.804566
_cell_length_c 14.355660
_cell_angle_alpha 90.000000
_cell_angle_beta 90.000000
_cell_angle_gamma 90.000000
_cell_volume 2095.999709
_symmetry_space_group_name_H-M "P M M M"
_symmetry_group_IT_number 47
_symmetry_cell_setting 'orthorhombic'
loop_
_space_group_symop_operation_xyz
x,y,z
-x,-y,z
x,-y,-z
-x,y,-z
-x,-y,-z
x,y,-z
-x,y,z
x,-y,z
loop_
_atom_site_type_symbol
_atom_site_label
_atom_site_fract_x
_atom_site_fract_y
_atom_site_fract_z
Si Si1 0.164015 0.202759 0.140935
Si Si2 0.327960 0.594103 0.680940
Si Si3 0.330328 0.096178 0.000000
Si Si4 0.675370 0.897510 0.500000
Si Si5 0.170193 0.230649 0.359459
Si Si6 0.667508 0.632403 0.102971
O O1 0.175274 0.204797 0.251495
O O2 0.218005 0.292806 0.104675
O O3 0.000000 0.186405 0.113947
O O4 0.266658 0.137145 0.091985
O O5 0.500000 0.605281 0.663019
O O6 0.284658 0.500000 0.646603
O O7 0.242998 0.675112 0.639021
O O8 0.311536 0.591705 0.794644
O O9 0.500000 0.107463 0.000000
O O10 0.289704 0.000000 0.000000
O O11 0.500000 0.891523 0.500000
O O12 0.743816 0.842200 0.415285
O O13 0.710406 0.000000 0.500000
O O14 0.000000 0.234938 0.387241
O O15 0.500000 0.663211 0.105810
O O16 0.681022 0.590503 0.000000
#
# Coordination Sequence:
#
# PCOD9385842 Si02
#       6
#     8   8   4   4   8   8
#     4  10  20  34  53  77 108 148 191 233 283 343
#     4   9  18  33  54  83 121 163 205 248 292 344
#     4  11  23  35  49  73 106 145 190 239 289 344
#     4  11  25  45  70  97 120 145 185 240 300 363
#     4  10  22  40  63  90 121 157 193 239 299 358
#     4   9  16  27  47  74 107 151 199 243 286 332
#
# _framework density 19.083971999999999
#
# number of rings (size 3 to 8) (size 9 to 14) (size 15 to 20)
#    0.000    2.200    1.000    1.800    0.000    5.600 
#    0.000    6.500    0.000    3.000    0.000    5.600 
#    0.000    0.000    0.000    0.000    0.000    0.000 
#
# Total GULP energy -222678.104469 kJ/mol
# GULP energy per Si atom -5566.952612 kJ/mol
# Density = 1.904054 g / cm^3
# Si number density = 19.083972 Si / 1000 Ang^3
#
#
#
# Elastic Constant Matrix: (Units=GPa)
#
#
# Indices 1 2 3 4 5 6 
#
# 1 157.3271 99.8984 51.3682 0.0000 0.0000 0.0000
# 2 99.8984 157.0096 47.2055 0.0000 0.0000 0.0000
# 3 51.3682 47.2055 80.7889 0.0000 0.0000 0.0000
# 4 0.0000 0.0000 0.0000 -60.0776 0.0000 0.0000
# 5 0.0000 0.0000 0.0000 0.0000 23.6367 0.0000
# 6 0.0000 0.0000 0.0000 0.0000 0.0000 23.5248
#
#
#
# Elastic Compliance Matrix: (Units=1/GPa)
#
#
# Indices 1 2 3 4 5 6 
#
# 1 0.011503 -0.006211 -0.003685 0.000000 0.000000 0.000000
# 2 -0.006211 0.011080 -0.002525 0.000000 0.000000 0.000000
# 3 -0.003685 -0.002525 0.016196 0.000000 0.000000 0.000000
# 4 0.000000 0.000000 0.000000 -0.016645 0.000000 0.000000
# 5 0.000000 0.000000 0.000000 0.000000 0.042307 0.000000
# 6 0.000000 0.000000 0.000000 0.000000 0.000000 0.042508
#
#
# Mechanical properties :
#
#
# Convention : Reuss Voigt Hill
#
# Bulk Modulus (GPa) = 71.74832 88.00776 79.87804
# Shear Modulus (GPa) = 36.64682 10.52701 23.58691
#
# Velocity S-wave (km/s) = 4.38687 2.35120 3.51943
# Velocity P-wave (km/s) = 7.95847 7.32031 7.64605
#
# Compressibility (1/GPa) = 0.01393761
#
# Stress axis : x y z
#
# Youngs Moduli (GPa) = 86.93223 90.25257 61.74268
#
# Poissons Ratio (x) = 0.56057 0.22752
# Poissons Ratio (y) = 0.53995 0.15589
# Poissons Ratio (z) = 0.32034 0.22788
#
# Static dielectric constant tensor:
#      x y z
#    x 1.637790 0.000000 0.000000 
#    y 0.000000 1.657680 0.000000 
#    z 0.000000 0.000000 1.695320 
# 
# From -- ./inp_files/20650.got.cif
#   From: 2010.05.17/outbox.cif.g08.bks.cpg/sg47_11_cif.got.tgz:20650.got - 2010.06.03 20:15:42.
