data_PCOD9385348
_publ_section_title
;
Structure prediction by ZEFSAII (Michael W. Deem and Ramdas Pophale) SiO2 
 PCOD9385348
Probable space group: P M M M
;
_chemical_formula_sum "Si O2"
_cell_formula_units_Z 40
_cell_length_a 19.145761
_cell_length_b 7.689242
_cell_length_c 15.266178
_cell_angle_alpha 90.000000
_cell_angle_beta 90.000000
_cell_angle_gamma 90.000000
_cell_volume 2247.431608
_symmetry_space_group_name_H-M "P M M M"
_symmetry_group_IT_number 47
_symmetry_cell_setting 'orthorhombic'
loop_
_space_group_symop_operation_xyz
x,y,z
-x,-y,z
x,-y,-z
-x,y,-z
-x,-y,-z
x,y,-z
-x,y,z
x,-y,z
loop_
_atom_site_type_symbol
_atom_site_label
_atom_site_fract_x
_atom_site_fract_y
_atom_site_fract_z
Si Si1 0.914948 0.500000 0.899636
Si Si2 0.831050 0.710532 0.401674
Si Si3 0.415080 0.000000 0.099386
Si Si4 0.416284 0.296132 0.766640
Si Si5 0.082546 0.197198 0.231221
Si Si6 0.330893 0.711610 0.596973
O O1 0.893598 0.332962 0.842498
O O2 0.000000 0.500000 0.903042
O O3 0.890218 0.500000 0.000000
O O4 0.853208 0.764475 0.500000
O O5 0.833648 0.500000 0.399242
O O6 0.877181 0.778045 0.322275
O O7 0.749946 0.762362 0.390497
O O8 0.394841 0.828904 0.154020
O O9 0.500000 0.000000 0.096263
O O10 0.389313 0.000000 0.000000
O O11 0.500000 0.283641 0.755960
O O12 0.399604 0.500000 0.782339
O O13 0.378743 0.235712 0.677706
O O14 0.000000 0.228181 0.246899
O O15 0.091226 0.000000 0.200333
O O16 0.353523 0.770380 0.500000
O O17 0.332316 0.500000 0.595716
#
# Coordination Sequence:
#
# PCOD9385348 Si02
#       6
#     4   8   4   8   8   8
#     4   9  18  34  55  77 101 129 163 204 252 302
#     4   9  17  31  51  73 100 137 173 202 241 296
#     4   9  18  32  49  71  99 127 161 208 252 292
#     4   9  17  30  50  75  99 128 164 201 247 294
#     4  10  20  33  51  77 103 129 165 207 251 295
#     4   8  15  29  49  74 101 132 168 200 239 293
#
# _framework density 17.798093999999999
#
# number of rings (size 3 to 8) (size 9 to 14) (size 15 to 20)
#    0.000    3.000    1.000    1.200    0.000    2.000 
#    1.800    8.500    0.000    3.000    0.000    0.000 
#    0.000    0.000    0.000    0.000    0.000    0.000 
#
# Total GULP energy -222926.170744 kJ/mol
# GULP energy per Si atom -5573.154269 kJ/mol
# Density = 1.775759 g / cm^3
# Si number density = 17.798094 Si / 1000 Ang^3
#
#
#
# Elastic Constant Matrix: (Units=GPa)
#
#
# Indices 1 2 3 4 5 6 
#
# 1 23.6931 32.0323 52.8353 0.0000 0.0000 0.0000
# 2 32.0323 83.6409 78.8113 0.0000 0.0000 0.0000
# 3 52.8353 78.8113 194.2284 0.0000 0.0000 0.0000
# 4 0.0000 0.0000 0.0000 -12.3703 0.0000 0.0000
# 5 0.0000 0.0000 0.0000 0.0000 -16.2693 0.0000
# 6 0.0000 0.0000 0.0000 0.0000 0.0000 8.6976
#
#
#
# Elastic Compliance Matrix: (Units=1/GPa)
#
#
# Indices 1 2 3 4 5 6 
#
# 1 0.139896 -0.028686 -0.026416 0.000000 0.000000 0.000000
# 2 -0.028686 0.025239 -0.002438 0.000000 0.000000 0.000000
# 3 -0.026416 -0.002438 0.013323 0.000000 0.000000 0.000000
# 4 0.000000 0.000000 0.000000 -0.080839 0.000000 0.000000
# 5 0.000000 0.000000 0.000000 0.000000 -0.061465 0.000000
# 6 0.000000 0.000000 0.000000 0.000000 0.000000 0.114974
#
#
# Mechanical properties :
#
#
# Convention : Reuss Voigt Hill
#
# Bulk Modulus (GPa) = 15.77803 69.88000 42.82902
# Shear Modulus (GPa) = 17.40146 5.20384 11.30265
#
# Velocity S-wave (km/s) = 3.13024 1.71177 2.52275
# Velocity P-wave (km/s) = 4.68495 6.57683 5.70979
#
# Compressibility (1/GPa) = 0.06337925
#
# Stress axis : x y z
#
# Youngs Moduli (GPa) = 7.14819 39.62152 75.05577
#
# Poissons Ratio (x) = 1.13659 1.98264
# Poissons Ratio (y) = 0.20505 0.18296
# Poissons Ratio (z) = 0.18882 0.09658
#
# Static dielectric constant tensor:
#      x y z
#    x 1.585130 0.000000 0.000000 
#    y 0.000000 1.644620 0.000000 
#    z 0.000000 0.000000 1.589550 
# 
# From -- ./inp_files/18968.got.cif
#   From: 2010.05.17/outbox.cif.g08.bks.cpg/sg47_10_cif.got.tgz:18968.got - 2010.06.03 20:15:42.
