data_PCOD9385389
_publ_section_title
;
Structure prediction by ZEFSAII (Michael W. Deem and Ramdas Pophale) SiO2 
 PCOD9385389
Probable space group: P M M M
;
_chemical_formula_sum "Si O2"
_cell_formula_units_Z 64
_cell_length_a 7.840901
_cell_length_b 15.243028
_cell_length_c 24.350197
_cell_angle_alpha 90.000000
_cell_angle_beta 90.000000
_cell_angle_gamma 90.000000
_cell_volume 2910.312985
_symmetry_space_group_name_H-M "P M M M"
_symmetry_group_IT_number 47
_symmetry_cell_setting 'orthorhombic'
loop_
_space_group_symop_operation_xyz
x,y,z
-x,-y,z
x,-y,-z
-x,y,-z
-x,-y,-z
x,y,-z
-x,y,z
x,-y,z
loop_
_atom_site_type_symbol
_atom_site_label
_atom_site_fract_x
_atom_site_fract_y
_atom_site_fract_z
Si Si1 0.298604 0.635233 0.059842
Si Si2 0.792756 0.159823 0.060583
Si Si3 0.703469 0.286098 0.437892
Si Si4 0.290485 0.399772 0.338281
Si Si5 0.205288 0.094879 0.435451
Si Si6 0.803746 0.594427 0.176585
Si Si7 0.203953 0.096099 0.819831
Si Si8 0.309786 0.260271 0.750211
O O1 0.500000 0.617116 0.064777
O O2 0.268242 0.739749 0.061840
O O3 0.204616 0.595335 0.111285
O O4 0.240212 0.605148 0.000000
O O5 0.732933 0.117610 0.118055
O O6 0.000000 0.158844 0.061474
O O7 0.741854 0.123240 0.000000
O O8 0.774779 0.289860 0.500000
O O9 0.500000 0.294725 0.441784
O O10 0.762231 0.362823 0.397704
O O11 0.736510 0.188780 0.413249
O O12 0.500000 0.400998 0.335227
O O13 0.233869 0.500000 0.328657
O O14 0.229908 0.324638 0.295673
O O15 0.256569 0.095473 0.500000
O O16 0.000000 0.094846 0.433486
O O17 0.263614 0.000000 0.412481
O O18 0.742338 0.500000 0.197300
O O19 0.692979 0.673980 0.198020
O O20 0.000000 0.607474 0.193300
O O21 0.237496 0.170658 0.774618
O O22 0.000000 0.092532 0.824826
O O23 0.267902 0.000000 0.803307
O O24 0.500000 0.240402 0.731069
#
# Coordination Sequence:
#
# PCOD9385389 Si02
#       8
#     8   8   8   8   8   8   8   8
#     4  10  20  33  51  77 109 143 179 222 273 327
#     4   9  17  31  53  79 109 145 181 220 271 331
#     4   9  17  30  52  83 114 143 178 224 277 329
#     4   9  19  36  57  82 111 142 179 224 275 333
#     4   8  14  26  45  70 104 147 187 218 254 304
#     4  11  23  37  55  79 106 139 181 228 278 331
#     4  10  21  37  58  84 114 147 183 226 277 333
#     4  11  22  38  60  81 105 141 183 229 275 322
#
# _framework density 21.990763000000001
#
# number of rings (size 3 to 8) (size 9 to 14) (size 15 to 20)
#    0.000    2.375    1.250    1.875    0.000    3.500 
#    0.000    6.875    0.000    5.625    0.000    4.375 
#    0.000    0.000    0.000    0.000    0.000    0.000 
#
# Total GULP energy -356811.873331 kJ/mol
# GULP energy per Si atom -5575.185521 kJ/mol
# Density = 2.194071 g / cm^3
# Si number density = 21.990763 Si / 1000 Ang^3
#
#
#
# Elastic Constant Matrix: (Units=GPa)
#
#
# Indices 1 2 3 4 5 6 
#
# 1 26.2417 8.8684 5.9381 0.0000 0.0000 0.0000
# 2 8.8684 168.2739 67.5513 0.0000 0.0000 0.0000
# 3 5.9381 67.5513 97.2675 0.0000 0.0000 0.0000
# 4 0.0000 0.0000 0.0000 -12.5565 0.0000 0.0000
# 5 0.0000 0.0000 0.0000 0.0000 9.3189 0.0000
# 6 0.0000 0.0000 0.0000 0.0000 0.0000 -75.2682
#
#
#
# Elastic Compliance Matrix: (Units=1/GPa)
#
#
# Indices 1 2 3 4 5 6 
#
# 1 0.038920 -0.001522 -0.001319 0.000000 0.000000 0.000000
# 2 -0.001522 0.008299 -0.005671 0.000000 0.000000 0.000000
# 3 -0.001319 -0.005671 0.014300 0.000000 0.000000 0.000000
# 4 0.000000 0.000000 0.000000 -0.079640 0.000000 0.000000
# 5 0.000000 0.000000 0.000000 0.000000 0.107308 0.000000
# 6 0.000000 0.000000 0.000000 0.000000 0.000000 -0.013286
#
#
# Mechanical properties :
#
#
# Convention : Reuss Voigt Hill
#
# Bulk Modulus (GPa) = 22.47412 50.72210 36.59811
# Shear Modulus (GPa) = 46.40045 -1.73946 22.33050
#
# Velocity S-wave (km/s) = 4.59845 -0.89034 3.19007
# Velocity P-wave (km/s) = 6.19971 4.69663 5.49976
#
# Compressibility (1/GPa) = 0.04449563
#
# Stress axis : x y z
#
# Youngs Moduli (GPa) = 25.69371 120.49032 69.93054
#
# Poissons Ratio (x) = 0.18333 0.09226
# Poissons Ratio (y) = 0.03909 0.39657
# Poissons Ratio (z) = 0.03390 0.68330
#
# Static dielectric constant tensor:
#      x y z
#    x 1.804980 0.000000 0.000000 
#    y 0.000000 1.823210 0.000000 
#    z 0.000000 0.000000 1.852680 
# 
# From -- ./inp_files/32140.got.cif
#   From: 2010.05.17/outbox.cif.g08.bks.cpg/sg47_17_cif.got.tgz:32140.got - 2010.06.03 20:15:42.
