data_PCOD9385571
_publ_section_title
;
Structure prediction by ZEFSAII (Michael W. Deem and Ramdas Pophale) SiO2 
 PCOD9385571
Probable space group: P M M M
;
_chemical_formula_sum "Si O2"
_cell_formula_units_Z 44
_cell_length_a 10.037191
_cell_length_b 16.605819
_cell_length_c 14.607197
_cell_angle_alpha 90.000000
_cell_angle_beta 90.000000
_cell_angle_gamma 90.000000
_cell_volume 2434.665910
_symmetry_space_group_name_H-M "P M M M"
_symmetry_group_IT_number 47
_symmetry_cell_setting 'orthorhombic'
loop_
_space_group_symop_operation_xyz
x,y,z
-x,-y,z
x,-y,-z
-x,y,-z
-x,-y,-z
x,y,-z
-x,y,z
x,-y,z
loop_
_atom_site_type_symbol
_atom_site_label
_atom_site_fract_x
_atom_site_fract_y
_atom_site_fract_z
Si Si1 0.500000 0.097916 0.389164
Si Si2 0.648798 0.405109 0.500000
Si Si3 0.000000 0.905465 0.396770
Si Si4 0.759438 0.827825 0.707297
Si Si5 0.845685 0.353305 0.657726
Si Si6 0.839532 0.769755 0.103780
Si Si7 0.844136 0.412147 0.861080
O O1 0.500000 0.112071 0.500000
O O2 0.625631 0.139614 0.339259
O O3 0.500000 0.000000 0.376882
O O4 0.633244 0.500000 0.500000
O O5 0.500000 0.367893 0.500000
O O6 0.738510 0.383248 0.586280
O O7 0.873480 0.881227 0.337813
O O8 0.000000 0.868629 0.500000
O O9 0.000000 0.000000 0.407861
O O10 0.801925 0.737437 0.679826
O O11 0.767311 0.821815 0.817865
O O12 0.839478 0.403980 0.751223
O O13 0.000000 0.354951 0.625871
O O14 0.793468 0.675448 0.106466
O O15 0.000000 0.769225 0.124985
O O16 0.822423 0.799102 0.000000
O O17 0.787039 0.500000 0.888061
O O18 0.000000 0.413394 0.888414
#
# Coordination Sequence:
#
# PCOD9385571 Si02
#       7
#     4   4   4   8   8   8   8
#     4  11  26  44  63  89 121 154 186 232 299 366
#     4  11  25  37  47  73 112 155 200 243 288 343
#     4  11  22  36  59  87 117 148 184 234 287 346
#     4  11  21  38  60  88 118 152 193 237 290 357
#     4  10  20  33  54  78 107 151 196 244 288 342
#     4   9  17  32  55  85 118 155 198 245 295 339
#     4   8  14  26  45  74 110 146 189 238 287 334
#
# _framework density 18.072296000000001
#
# number of rings (size 3 to 8) (size 9 to 14) (size 15 to 20)
#    0.000    2.091    1.818    3.000    3.818    3.273 
#    0.000    2.273    0.000    3.273    0.000    0.000 
#    0.000    3.273    0.000    0.000    0.000    0.000 
#
# Total GULP energy -245093.144031 kJ/mol
# GULP energy per Si atom -5570.298728 kJ/mol
# Density = 1.803116 g / cm^3
# Si number density = 18.072296 Si / 1000 Ang^3
#
#
#
# Elastic Constant Matrix: (Units=GPa)
#
#
# Indices 1 2 3 4 5 6 
#
# 1 124.6898 28.8742 61.7955 0.0000 0.0000 0.0000
# 2 28.8742 74.5974 41.0210 0.0000 0.0000 0.0000
# 3 61.7955 41.0210 144.5492 0.0000 0.0000 0.0000
# 4 0.0000 0.0000 0.0000 55.3682 0.0000 0.0000
# 5 0.0000 0.0000 0.0000 0.0000 17.8902 0.0000
# 6 0.0000 0.0000 0.0000 0.0000 0.0000 22.3682
#
#
#
# Elastic Compliance Matrix: (Units=1/GPa)
#
#
# Indices 1 2 3 4 5 6 
#
# 1 0.010392 -0.001871 -0.003911 0.000000 0.000000 0.000000
# 2 -0.001871 0.016221 -0.003803 0.000000 0.000000 0.000000
# 3 -0.003911 -0.003803 0.009670 0.000000 0.000000 0.000000
# 4 0.000000 0.000000 0.000000 0.018061 0.000000 0.000000
# 5 0.000000 0.000000 0.000000 0.000000 0.055896 0.000000
# 6 0.000000 0.000000 0.000000 0.000000 0.000000 0.044706
#
#
# Mechanical properties :
#
#
# Convention : Reuss Voigt Hill
#
# Bulk Modulus (GPa) = 58.44502 67.46865 62.95683
# Shear Modulus (GPa) = 27.80534 33.26838 30.53686
#
# Velocity S-wave (km/s) = 3.92671 4.29517 4.11506
# Velocity P-wave (km/s) = 7.27794 7.87475 7.58222
#
# Compressibility (1/GPa) = 0.01711010
#
# Stress axis : x y z
#
# Youngs Moduli (GPa) = 96.23015 61.64825 103.41760
#
# Poissons Ratio (x) = 0.11537 0.40451
# Poissons Ratio (y) = 0.18009 0.39332
# Poissons Ratio (z) = 0.37640 0.23446
#
# Static dielectric constant tensor:
#      x y z
#    x 1.634950 0.000000 0.000000 
#    y 0.000000 1.706660 0.000000 
#    z 0.000000 0.000000 1.660830 
# 
# From -- ./inp_files/20970.got.cif
#   From: 2010.05.17/outbox.cif.g08.bks.cpg/sg47_11_cif.got.tgz:20970.got - 2010.06.03 20:15:42.
