data_PCOD9385944
_publ_section_title
;
Structure prediction by ZEFSAII (Michael W. Deem and Ramdas Pophale) SiO2 
 PCOD9385944
Probable space group: P M M M
;
_chemical_formula_sum "Si O2"
_cell_formula_units_Z 48
_cell_length_a 7.740960
_cell_length_b 9.405220
_cell_length_c 31.864420
_cell_angle_alpha 90.000000
_cell_angle_beta 90.000000
_cell_angle_gamma 90.000000
_cell_volume 2319.902858
_symmetry_space_group_name_H-M "P M M M"
_symmetry_group_IT_number 47
_symmetry_cell_setting 'orthorhombic'
loop_
_space_group_symop_operation_xyz
x,y,z
-x,-y,z
x,-y,-z
-x,y,-z
-x,-y,-z
x,y,-z
-x,y,z
x,-y,z
loop_
_atom_site_type_symbol
_atom_site_label
_atom_site_fract_x
_atom_site_fract_y
_atom_site_fract_z
Si Si1 0.288371 0.835771 0.500000
Si Si2 0.292681 0.839394 0.082541
Si Si3 0.794037 0.661087 0.000000
Si Si4 0.207717 0.337258 0.744450
Si Si5 0.292214 0.337804 0.418342
Si Si6 0.707750 0.337454 0.838197
Si Si7 0.791827 0.161410 0.664707
O O1 0.500000 0.836420 0.500000
O O2 0.230728 0.751992 0.541527
O O3 0.232964 0.000000 0.500000
O O4 0.500000 0.848569 0.086732
O O5 0.258414 0.746282 0.041484
O O6 0.226043 0.760699 0.124260
O O7 0.225404 0.000000 0.078158
O O8 0.723614 0.500000 0.000000
O O9 0.000000 0.652690 0.000000
O O10 0.272694 0.500000 0.740193
O O11 0.250343 0.286429 0.791316
O O12 0.272550 0.238039 0.707013
O O13 0.000000 0.342656 0.741196
O O14 0.500000 0.344801 0.421708
O O15 0.226647 0.500000 0.418114
O O16 0.250497 0.255906 0.375639
O O17 0.500000 0.342936 0.841583
O O18 0.772953 0.500000 0.842251
O O19 0.000000 0.154657 0.667565
O O20 0.726860 0.000000 0.660395
#
# Coordination Sequence:
#
# PCOD9385944 Si02
#       7
#     4   8   4   8   8   8   8
#     4   9  17  31  52  77 106 137 168 208 260 313
#     4  10  21  37  57  81 109 141 176 214 260 313
#     4  11  24  39  56  80 108 139 178 221 262 308
#     4   9  18  33  52  73 100 136 175 214 257 306
#     4  10  20  34  54  79 105 135 173 215 259 310
#     4   9  18  33  53  77 105 137 174 215 257 304
#     4  10  21  36  53  75 105 140 177 217 262 312
#
# _framework density 20.690521
#
# number of rings (size 3 to 8) (size 9 to 14) (size 15 to 20)
#    0.000    2.333    0.000    2.250    0.000    7.667 
#    0.000    3.750    0.000    2.500    0.000    0.000 
#    0.000    0.000    0.000    0.000    0.000    0.000 
#
# Total GULP energy -268106.642618 kJ/mol
# GULP energy per Si atom -5585.555055 kJ/mol
# Density = 2.064343 g / cm^3
# Si number density = 20.690521 Si / 1000 Ang^3
#
#
#
# Elastic Constant Matrix: (Units=GPa)
#
#
# Indices 1 2 3 4 5 6 
#
# 1 29.8749 7.5932 -0.6546 0.0000 0.0000 0.0000
# 2 7.5932 201.0999 147.5805 0.0000 0.0000 0.0000
# 3 -0.6546 147.5805 227.6300 0.0000 0.0000 0.0000
# 4 0.0000 0.0000 0.0000 203.0381 0.0000 0.0000
# 5 0.0000 0.0000 0.0000 0.0000 33.4458 0.0000
# 6 0.0000 0.0000 0.0000 0.0000 0.0000 15.0060
#
#
#
# Elastic Compliance Matrix: (Units=1/GPa)
#
#
# Indices 1 2 3 4 5 6 
#
# 1 0.034173 -0.002599 0.001783 0.000000 0.000000 0.000000
# 2 -0.002599 0.009684 -0.006286 0.000000 0.000000 0.000000
# 3 0.001783 -0.006286 0.008473 0.000000 0.000000 0.000000
# 4 0.000000 0.000000 0.000000 0.004925 0.000000 0.000000
# 5 0.000000 0.000000 0.000000 0.000000 0.029899 0.000000
# 6 0.000000 0.000000 0.000000 0.000000 0.000000 0.066640
#
#
# Mechanical properties :
#
#
# Convention : Reuss Voigt Hill
#
# Bulk Modulus (GPa) = 26.22823 85.29364 55.76094
# Shear Modulus (GPa) = 27.66926 70.57035 49.11981
#
# Velocity S-wave (km/s) = 3.66087 5.84651 4.87768
# Velocity P-wave (km/s) = 5.52931 9.32140 7.66361
#
# Compressibility (1/GPa) = 0.03812685
#
# Stress axis : x y z
#
# Youngs Moduli (GPa) = 29.26324 103.26646 118.01509
#
# Poissons Ratio (x) = 0.26839 -0.21046
# Poissons Ratio (y) = 0.07605 0.74181
# Poissons Ratio (z) = -0.05219 0.64911
#
# Static dielectric constant tensor:
#      x y z
#    x 1.769110 0.000000 0.000000 
#    y 0.000000 1.734120 0.000000 
#    z 0.000000 0.000000 1.696080 
# 
# From -- ./inp_files/2579.got.cif
#   From: 2010.05.17/outbox.cif.g08.bks.cpg/sg47_2_cif.got.tgz:2579.got - 2010.06.03 20:15:42.
