data_PCOD9385858
_publ_section_title
;
Structure prediction by ZEFSAII (Michael W. Deem and Ramdas Pophale) SiO2 
 PCOD9385858
Probable space group: P M M M
;
_chemical_formula_sum "Si O2"
_cell_formula_units_Z 56
_cell_length_a 15.388129
_cell_length_b 9.411002
_cell_length_c 21.099158
_cell_angle_alpha 90.000000
_cell_angle_beta 90.000000
_cell_angle_gamma 90.000000
_cell_volume 3055.531803
_symmetry_space_group_name_H-M "P M M M"
_symmetry_group_IT_number 47
_symmetry_cell_setting 'orthorhombic'
loop_
_space_group_symop_operation_xyz
x,y,z
-x,-y,z
x,-y,-z
-x,y,-z
-x,-y,-z
x,y,-z
-x,y,z
x,-y,z
loop_
_atom_site_type_symbol
_atom_site_label
_atom_site_fract_x
_atom_site_fract_y
_atom_site_fract_z
Si Si1 0.599706 0.169492 0.241919
Si Si2 0.355106 0.664359 0.629559
Si Si3 0.849748 0.341695 0.379745
Si Si4 0.895787 0.160413 0.500000
Si Si5 0.099435 0.331551 0.924137
Si Si6 0.905943 0.844382 0.730180
Si Si7 0.396092 0.164227 0.500000
Si Si8 0.235424 0.835881 0.160589
O O1 0.500000 0.187250 0.220171
O O2 0.610163 0.254012 0.308223
O O3 0.671433 0.213236 0.189078
O O4 0.614286 0.000000 0.253918
O O5 0.386945 0.500000 0.625230
O O6 0.251479 0.657518 0.637426
O O7 0.371529 0.750020 0.564092
O O8 0.878273 0.500000 0.395821
O O9 0.863075 0.241166 0.438840
O O10 0.899842 0.277915 0.320674
O O11 0.000000 0.161410 0.500000
O O12 0.864497 0.000000 0.500000
O O13 0.104456 0.500000 0.909822
O O14 0.179664 0.252990 0.890194
O O15 0.000000 0.284873 0.906627
O O16 0.106247 0.314236 0.000000
O O17 0.828194 0.834851 0.778827
O O18 0.000000 0.838871 0.762477
O O19 0.899711 0.000000 0.697924
O O20 0.500000 0.156298 0.500000
O O21 0.362971 0.000000 0.500000
O O22 0.245038 0.000000 0.139047
#
# Coordination Sequence:
#
# PCOD9385858 Si02
#       8
#     8   8   8   4   8   8   4   8
#     4  10  21  38  60  84 112 149 192 236 286 343
#     4  11  23  38  56  80 108 138 179 232 288 345
#     4  11  23  37  53  75 102 134 176 223 272 330
#     4  11  24  39  54  72  96 133 180 226 277 335
#     4   9  19  36  58  87 124 162 196 231 274 326
#     4  10  20  34  53  78 108 142 180 221 270 326
#     4  11  24  39  56  78 102 133 176 226 287 355
#     4  10  20  35  57  85 117 150 189 235 278 324
#
# _framework density 18.327414000000001
#
# number of rings (size 3 to 8) (size 9 to 14) (size 15 to 20)
#    0.000    1.714    1.429    3.429    0.000   10.857 
#    0.000    0.714    0.000    0.429    0.000    3.000 
#    0.000    0.000    0.000    0.000    0.000    0.000 
#
# Total GULP energy -312366.072022 kJ/mol
# GULP energy per Si atom -5577.965572 kJ/mol
# Density = 1.828570 g / cm^3
# Si number density = 18.327414 Si / 1000 Ang^3
#
#
#
# Elastic Constant Matrix: (Units=GPa)
#
#
# Indices 1 2 3 4 5 6 
#
# 1 124.1705 40.7934 40.9073 0.0000 0.0000 0.0000
# 2 40.7934 110.5597 50.2330 0.0000 0.0000 0.0000
# 3 40.9073 50.2330 72.1945 0.0000 0.0000 0.0000
# 4 0.0000 0.0000 0.0000 35.1608 0.0000 0.0000
# 5 0.0000 0.0000 0.0000 0.0000 23.6415 0.0000
# 6 0.0000 0.0000 0.0000 0.0000 0.0000 24.8807
#
#
#
# Elastic Compliance Matrix: (Units=1/GPa)
#
#
# Indices 1 2 3 4 5 6 
#
# 1 0.010103 -0.001648 -0.004578 0.000000 0.000000 0.000000
# 2 -0.001648 0.013495 -0.008456 0.000000 0.000000 0.000000
# 3 -0.004578 -0.008456 0.022329 0.000000 0.000000 0.000000
# 4 0.000000 0.000000 0.000000 0.028441 0.000000 0.000000
# 5 0.000000 0.000000 0.000000 0.000000 0.042298 0.000000
# 6 0.000000 0.000000 0.000000 0.000000 0.000000 0.040192
#
#
# Mechanical properties :
#
#
# Convention : Reuss Voigt Hill
#
# Bulk Modulus (GPa) = 60.37439 63.42133 61.89786
# Shear Modulus (GPa) = 26.07652 28.40267 27.23960
#
# Velocity S-wave (km/s) = 3.77611 3.94094 3.85941
# Velocity P-wave (km/s) = 7.21288 7.44230 7.32849
#
# Compressibility (1/GPa) = 0.01656331
#
# Stress axis : x y z
#
# Youngs Moduli (GPa) = 98.98056 74.10213 44.78392
#
# Poissons Ratio (x) = 0.12209 0.20503
# Poissons Ratio (y) = 0.16308 0.37870
# Poissons Ratio (z) = 0.45315 0.62662
#
# Static dielectric constant tensor:
#      x y z
#    x 1.659990 0.000000 0.000000 
#    y 0.000000 1.657010 0.000000 
#    z 0.000000 0.000000 1.600460 
# 
# From -- ./inp_files/31057.got.cif
#   From: 2010.05.17/outbox.cif.g08.bks.cpg/sg47_16_cif.got.tgz:31057.got - 2010.06.03 20:15:42.
