data_PCOD9385859
_publ_section_title
;
Structure prediction by ZEFSAII (Michael W. Deem and Ramdas Pophale) SiO2 
 PCOD9385859
Probable space group: P M M M
;
_chemical_formula_sum "Si O2"
_cell_formula_units_Z 64
_cell_length_a 21.330001
_cell_length_b 20.355449
_cell_length_c 8.371410
_cell_angle_alpha 90.000000
_cell_angle_beta 90.000000
_cell_angle_gamma 90.000000
_cell_volume 3634.713423
_symmetry_space_group_name_H-M "P M M M"
_symmetry_group_IT_number 47
_symmetry_cell_setting 'orthorhombic'
loop_
_space_group_symop_operation_xyz
x,y,z
-x,-y,z
x,-y,-z
-x,y,-z
-x,-y,-z
x,y,-z
-x,y,z
x,-y,z
loop_
_atom_site_type_symbol
_atom_site_label
_atom_site_fract_x
_atom_site_fract_y
_atom_site_fract_z
Si Si1 0.689051 0.789485 0.309136
Si Si2 0.069325 0.786856 0.306458
Si Si3 0.738312 0.072491 0.305549
Si Si4 0.114613 0.072241 0.305766
Si Si5 0.569227 0.710404 0.807107
Si Si6 0.377613 0.427310 0.806919
Si Si7 0.190301 0.290813 0.811061
Si Si8 0.234411 0.426295 0.308508
O O1 0.685589 0.791223 0.500000
O O2 0.700766 0.863871 0.249098
O O3 0.626121 0.756217 0.245912
O O4 0.749889 0.746667 0.263426
O O5 0.072297 0.786421 0.500000
O O6 0.079155 0.862541 0.252991
O O7 0.126461 0.743577 0.244206
O O8 0.000000 0.764153 0.258088
O O9 0.736282 0.072690 0.500000
O O10 0.811851 0.079485 0.263326
O O11 0.717007 0.000000 0.252154
O O12 0.111353 0.071367 0.500000
O O13 0.092854 0.000000 0.250839
O O14 0.500000 0.731088 0.752309
O O15 0.583417 0.635683 0.752308
O O16 0.569149 0.709581 0.000000
O O17 0.398756 0.500000 0.752948
O O18 0.305809 0.418450 0.752383
O O19 0.378723 0.427376 0.000000
O O20 0.194291 0.366641 0.759268
O O21 0.196164 0.286189 0.000000
O O22 0.234844 0.422426 0.500000
O O23 0.213837 0.500000 0.261598
#
# Coordination Sequence:
#
# PCOD9385859 Si02
#       8
#     8   8   8   8   8   8   8   8
#     4  11  20  33  56  80 103 134 178 226 269 312
#     4  10  20  34  53  78 108 142 181 223 265 308
#     4   8  14  26  48  77 104 129 165 220 275 315
#     4   8  13  24  45  75 108 138 172 214 260 309
#     4  10  21  35  50  73 108 146 180 216 263 318
#     4   9  17  30  49  74 105 141 177 209 249 305
#     4  12  23  35  54  78 108 144 179 215 260 315
#     4  10  20  34  55  82 108 133 168 218 268 309
#
# _framework density 17.607990000000001
#
# number of rings (size 3 to 8) (size 9 to 14) (size 15 to 20)
#    0.000    2.250    2.500    2.625    0.000    1.750 
#    0.000    2.500    0.000    3.375    0.000    8.750 
#    0.000    0.000    0.000    0.000    0.000    0.000 
#
# Total GULP energy -356942.398924 kJ/mol
# GULP energy per Si atom -5577.224983 kJ/mol
# Density = 1.756791 g / cm^3
# Si number density = 17.607990 Si / 1000 Ang^3
#
#
#
# Elastic Constant Matrix: (Units=GPa)
#
#
# Indices 1 2 3 4 5 6 
#
# 1 109.9706 67.5162 12.1214 0.0000 0.0000 0.0000
# 2 67.5162 123.0450 12.9634 0.0000 0.0000 0.0000
# 3 12.1214 12.9634 12.6732 0.0000 0.0000 0.0000
# 4 0.0000 0.0000 0.0000 -1.7159 0.0000 0.0000
# 5 0.0000 0.0000 0.0000 0.0000 19.9545 0.0000
# 6 0.0000 0.0000 0.0000 0.0000 0.0000 21.0335
#
#
#
# Elastic Compliance Matrix: (Units=1/GPa)
#
#
# Indices 1 2 3 4 5 6 
#
# 1 0.014143 -0.007101 -0.006264 0.000000 0.000000 0.000000
# 2 -0.007101 0.012674 -0.006172 0.000000 0.000000 0.000000
# 3 -0.006264 -0.006172 0.091212 0.000000 0.000000 0.000000
# 4 0.000000 0.000000 0.000000 -0.582787 0.000000 0.000000
# 5 0.000000 0.000000 0.000000 0.000000 0.050114 0.000000
# 6 0.000000 0.000000 0.000000 0.000000 0.000000 0.047543
#
#
# Mechanical properties :
#
#
# Convention : Reuss Voigt Hill
#
# Bulk Modulus (GPa) = 12.66557 47.87677 30.27117
# Shear Modulus (GPa) = -16.57224 18.06028 0.74402
#
# Velocity S-wave (km/s) = -3.07119 3.20611 0.65074
# Velocity P-wave (km/s) = 2.31680 6.39960 4.21825
#
# Compressibility (1/GPa) = 0.07895418
#
# Stress axis : x y z
#
# Youngs Moduli (GPa) = 70.70550 78.90451 10.96349
#
# Poissons Ratio (x) = 0.56026 0.06868
# Poissons Ratio (y) = 0.50205 0.06767
# Poissons Ratio (z) = 0.44292 0.48703
#
# Static dielectric constant tensor:
#      x y z
#    x 1.579990 0.000000 0.000000 
#    y 0.000000 1.631530 0.000000 
#    z 0.000000 0.000000 1.609740 
# 
# From -- ./inp_files/11841.got.cif
#   From: 2010.05.17/outbox.cif.g08.bks.cpg/sg47_6_cif.got.tgz:11841.got - 2010.06.03 20:15:42.
