data_PCOD9385977
_publ_section_title
;
Structure prediction by ZEFSAII (Michael W. Deem and Ramdas Pophale) SiO2 
 PCOD9385977
Probable space group: P M M M
;
_chemical_formula_sum "Si O2"
_cell_formula_units_Z 64
_cell_length_a 23.417144
_cell_length_b 7.915731
_cell_length_c 16.599220
_cell_angle_alpha 90.000000
_cell_angle_beta 90.000000
_cell_angle_gamma 90.000000
_cell_volume 3076.894707
_symmetry_space_group_name_H-M "P M M M"
_symmetry_group_IT_number 47
_symmetry_cell_setting 'orthorhombic'
loop_
_space_group_symop_operation_xyz
x,y,z
-x,-y,z
x,-y,-z
-x,y,-z
-x,-y,-z
x,y,-z
-x,y,z
x,-y,z
loop_
_atom_site_type_symbol
_atom_site_label
_atom_site_fract_x
_atom_site_fract_y
_atom_site_fract_z
Si Si1 0.903175 0.206771 0.414400
Si Si2 0.814590 0.308717 0.212406
Si Si3 0.061917 0.795731 0.762841
Si Si4 0.563065 0.296417 0.268354
Si Si5 0.222137 0.806600 0.379365
Si Si6 0.592736 0.697447 0.909509
Si Si7 0.721446 0.193025 0.093670
Si Si8 0.349422 0.796091 0.409878
O O1 0.929050 0.257201 0.500000
O O2 0.931816 0.258838 0.330941
O O3 0.837155 0.266105 0.412567
O O4 0.902923 0.000000 0.412151
O O5 0.811692 0.500000 0.241845
O O6 0.880364 0.265627 0.195148
O O7 0.789952 0.195401 0.284200
O O8 0.772392 0.282516 0.139115
O O9 0.000000 0.739725 0.793810
O O10 0.063034 0.000000 0.764458
O O11 0.500000 0.244409 0.297136
O O12 0.564726 0.500000 0.262346
O O13 0.570146 0.231711 0.175799
O O14 0.610810 0.250350 0.334176
O O15 0.284148 0.731857 0.397820
O O16 0.224353 0.000000 0.407942
O O17 0.576296 0.500000 0.912533
O O18 0.660977 0.714084 0.899678
O O19 0.578674 0.768387 0.000000
O O20 0.714291 0.000000 0.123348
O O21 0.735396 0.186139 0.000000
O O22 0.369107 0.742404 0.500000
O O23 0.347358 0.000000 0.409904
#
# Coordination Sequence:
#
# PCOD9385977 Si02
#       8
#     8   8   8   8   8   8   8   8
#     4   8  13  23  43  71  98 122 154 200 249 295
#     4  11  21  32  50  75 104 136 168 206 251 300
#     4   9  18  32  49  69  95 131 174 214 251 294
#     4  10  22  38  54  75 105 142 182 219 258 310
#     4   9  17  31  51  74 100 129 164 208 259 313
#     4   9  18  34  57  84 112 139 168 207 256 311
#     4  10  20  34  54  80 108 134 160 195 244 303
#     4  10  21  36  55  78 102 133 177 229 279 319
#
# _framework density 20.800190000000001
#
# number of rings (size 3 to 8) (size 9 to 14) (size 15 to 20)
#    0.000    2.500    0.000    3.375    0.000    6.750 
#    0.000    3.750    0.000    9.375    0.000    8.750 
#    0.000    0.000    0.000    0.000    0.000    0.000 
#
# Total GULP energy -356699.429787 kJ/mol
# GULP energy per Si atom -5573.428590 kJ/mol
# Density = 2.075285 g / cm^3
# Si number density = 20.800190 Si / 1000 Ang^3
#
#
#
# Elastic Constant Matrix: (Units=GPa)
#
#
# Indices 1 2 3 4 5 6 
#
# 1 102.6533 4.5895 46.1046 0.0000 0.0000 0.0000
# 2 4.5895 36.1690 6.4735 0.0000 0.0000 0.0000
# 3 46.1046 6.4735 68.8644 0.0000 0.0000 0.0000
# 4 0.0000 0.0000 0.0000 6.9204 0.0000 0.0000
# 5 0.0000 0.0000 0.0000 0.0000 -77.3413 0.0000
# 6 0.0000 0.0000 0.0000 0.0000 0.0000 15.0648
#
#
#
# Elastic Compliance Matrix: (Units=1/GPa)
#
#
# Indices 1 2 3 4 5 6 
#
# 1 0.013931 -0.000100 -0.009317 0.000000 0.000000 0.000000
# 2 -0.000100 0.028122 -0.002577 0.000000 0.000000 0.000000
# 3 -0.009317 -0.002577 0.021001 0.000000 0.000000 0.000000
# 4 0.000000 0.000000 0.000000 0.144500 0.000000 0.000000
# 5 0.000000 0.000000 0.000000 0.000000 -0.012930 0.000000
# 6 0.000000 0.000000 0.000000 0.000000 0.000000 0.066380
#
#
# Mechanical properties :
#
#
# Convention : Reuss Voigt Hill
#
# Bulk Modulus (GPa) = 25.59756 35.78022 30.68889
# Shear Modulus (GPa) = 16.77776 -1.03660 7.87058
#
# Velocity S-wave (km/s) = 2.84318 -0.70671 1.94733
# Velocity P-wave (km/s) = 4.80743 4.07103 4.45447
#
# Compressibility (1/GPa) = 0.03906623
#
# Stress axis : x y z
#
# Youngs Moduli (GPa) = 71.78459 35.55954 47.61619
#
# Poissons Ratio (x) = 0.00356 0.44364
# Poissons Ratio (y) = 0.00718 0.12269
# Poissons Ratio (z) = 0.66882 0.09162
#
# Static dielectric constant tensor:
#      x y z
#    x 1.747800 0.000000 0.000000 
#    y 0.000000 1.790130 0.000000 
#    z 0.000000 0.000000 1.765210 
# 
# From -- ./inp_files/25589.got.cif
#   From: 2010.05.17/outbox.cif.g08.bks.cpg/sg47_13_cif.got.tgz:25589.got - 2010.06.03 20:15:42.
