data_PCOD9385080
_publ_section_title
;
Structure prediction by ZEFSAII (Michael W. Deem and Ramdas Pophale) SiO2 
 PCOD9385080
Probable space group: P M M M
;
_chemical_formula_sum "Si O2"
_cell_formula_units_Z 36
_cell_length_a 13.503483
_cell_length_b 9.564853
_cell_length_c 15.049952
_cell_angle_alpha 90.000000
_cell_angle_beta 90.000000
_cell_angle_gamma 90.000000
_cell_volume 1943.834190
_symmetry_space_group_name_H-M "P M M M"
_symmetry_group_IT_number 47
_symmetry_cell_setting 'orthorhombic'
loop_
_space_group_symop_operation_xyz
x,y,z
-x,-y,z
x,-y,-z
-x,y,-z
-x,-y,-z
x,y,-z
-x,y,z
x,-y,z
loop_
_atom_site_type_symbol
_atom_site_label
_atom_site_fract_x
_atom_site_fract_y
_atom_site_fract_z
Si Si1 0.883883 0.164844 0.821592
Si Si2 0.705863 0.833296 0.310929
Si Si3 0.616558 0.655433 0.836697
Si Si4 0.379580 0.842903 0.000000
Si Si5 0.616242 0.168561 0.500000
Si Si6 0.880813 0.658839 0.000000
O O1 0.812312 0.192945 0.736887
O O2 0.859896 0.257142 0.908638
O O3 0.000000 0.187649 0.799489
O O4 0.872117 0.000000 0.843977
O O5 0.633432 0.738610 0.253074
O O6 0.680424 0.795732 0.412460
O O7 0.686585 0.000000 0.300647
O O8 0.500000 0.640483 0.851670
O O9 0.660770 0.500000 0.836460
O O10 0.651550 0.755658 0.914965
O O11 0.500000 0.851536 0.000000
O O12 0.340920 0.000000 0.000000
O O13 0.500000 0.219168 0.500000
O O14 0.608526 0.000000 0.500000
O O15 0.839962 0.500000 0.000000
O O16 0.000000 0.648013 0.000000
#
# Coordination Sequence:
#
# PCOD9385080 Si02
#       6
#     8   8   8   4   4   4
#     4   9  18  33  52  76 108 142 175 215 262 310
#     4  10  20  34  54  77 100 133 177 218 262 318
#     4  10  20  33  49  72 103 135 167 209 260 310
#     4   9  17  30  49  72 100 136 174 208 247 305
#     4   9  18  34  56  80 104 131 171 225 274 317
#     4   9  17  30  51  78 106 140 180 216 253 303
#
# _framework density 18.520098999999998
#
# number of rings (size 3 to 8) (size 9 to 14) (size 15 to 20)
#    0.000    2.556    0.000    2.000    0.000    6.667 
#    0.000    2.222    0.000    5.333    0.000    0.000 
#    0.000    5.333    0.000    0.000    0.000    0.000 
#
# Total GULP energy -200589.983701 kJ/mol
# GULP energy per Si atom -5571.943992 kJ/mol
# Density = 1.847795 g / cm^3
# Si number density = 18.520099 Si / 1000 Ang^3
#
#
#
# Elastic Constant Matrix: (Units=GPa)
#
#
# Indices 1 2 3 4 5 6 
#
# 1 101.7936 34.2058 42.5060 0.0000 0.0000 0.0000
# 2 34.2058 96.3895 78.7820 0.0000 0.0000 0.0000
# 3 42.5060 78.7820 185.8231 0.0000 0.0000 0.0000
# 4 0.0000 0.0000 0.0000 11.2728 0.0000 0.0000
# 5 0.0000 0.0000 0.0000 0.0000 20.0267 0.0000
# 6 0.0000 0.0000 0.0000 0.0000 0.0000 12.6645
#
#
#
# Elastic Compliance Matrix: (Units=1/GPa)
#
#
# Indices 1 2 3 4 5 6 
#
# 1 0.011375 -0.002923 -0.001363 0.000000 0.000000 0.000000
# 2 -0.002923 0.016627 -0.006381 0.000000 0.000000 0.000000
# 3 -0.001363 -0.006381 0.008398 0.000000 0.000000 0.000000
# 4 0.000000 0.000000 0.000000 0.088709 0.000000 0.000000
# 5 0.000000 0.000000 0.000000 0.000000 0.049933 0.000000
# 6 0.000000 0.000000 0.000000 0.000000 0.000000 0.078961
#
#
# Mechanical properties :
#
#
# Convention : Reuss Voigt Hill
#
# Bulk Modulus (GPa) = 66.36671 77.22155 71.79413
# Shear Modulus (GPa) = 17.83428 24.02694 20.93061
#
# Velocity S-wave (km/s) = 3.10654 3.60577 3.36543
# Velocity P-wave (km/s) = 6.98428 7.68909 7.34514
#
# Compressibility (1/GPa) = 0.01506780
#
# Stress axis : x y z
#
# Youngs Moduli (GPa) = 87.91198 60.14384 119.07133
#
# Poissons Ratio (x) = 0.17579 0.16227
# Poissons Ratio (y) = 0.25695 0.75974
# Poissons Ratio (z) = 0.11981 0.38375
#
# Static dielectric constant tensor:
#      x y z
#    x 1.704470 0.000000 0.000000 
#    y 0.000000 1.612400 0.000000 
#    z 0.000000 0.000000 3.383690 
# 
# From -- ./inp_files/23277.got.cif
#   From: 2010.05.17/outbox.cif.g08.bks.cpg/sg47_12_cif.got.tgz:23277.got - 2010.06.03 20:15:42.
