data_PCOD9385161
_publ_section_title
;
Structure prediction by ZEFSAII (Michael W. Deem and Ramdas Pophale) SiO2 
 PCOD9385161
Probable space group: P M M M
;
_chemical_formula_sum "Si O2"
_cell_formula_units_Z 44
_cell_length_a 7.831503
_cell_length_b 9.739664
_cell_length_c 32.712509
_cell_angle_alpha 90.000000
_cell_angle_beta 90.000000
_cell_angle_gamma 90.000000
_cell_volume 2495.186135
_symmetry_space_group_name_H-M "P M M M"
_symmetry_group_IT_number 47
_symmetry_cell_setting 'orthorhombic'
loop_
_space_group_symop_operation_xyz
x,y,z
-x,-y,z
x,-y,-z
-x,y,-z
-x,-y,-z
x,y,-z
-x,y,z
x,-y,z
loop_
_atom_site_type_symbol
_atom_site_label
_atom_site_fract_x
_atom_site_fract_y
_atom_site_fract_z
Si Si1 0.794038 0.342376 0.954594
Si Si2 0.691624 0.662116 0.286248
Si Si3 0.298772 0.333108 0.500000
Si Si4 0.702436 0.844330 0.878320
Si Si5 0.000000 0.666878 0.344542
Si Si6 0.000000 0.332842 0.561985
Si Si7 0.200483 0.158630 0.788652
O O1 0.736908 0.500000 0.948828
O O2 0.739364 0.247803 0.917430
O O3 0.000000 0.343381 0.955085
O O4 0.736570 0.296677 0.000000
O O5 0.500000 0.677587 0.302581
O O6 0.719911 0.500000 0.277717
O O7 0.709950 0.747074 0.244615
O O8 0.833291 0.707825 0.318809
O O9 0.306195 0.500000 0.500000
O O10 0.500000 0.287563 0.500000
O O11 0.175021 0.292682 0.538190
O O12 0.500000 0.850069 0.872742
O O13 0.776872 0.792682 0.835334
O O14 0.767669 0.000000 0.884893
O O15 0.000000 0.715006 0.391240
O O16 0.000000 0.500000 0.346123
O O17 0.000000 0.500000 0.561492
O O18 0.000000 0.159362 0.779016
O O19 0.261896 0.000000 0.787181
#
# Coordination Sequence:
#
# PCOD9385161 Si02
#       7
#     8   8   4   8   4   4   8
#     4   9  19  36  55  74  97 126 160 196 236 286
#     4  10  20  33  50  72  98 131 169 208 254 305
#     4   8  13  21  34  55  83 118 165 213 253 299
#     4  10  21  35  51  74 101 126 156 196 241 291
#     4   9  17  30  44  63  95 130 169 215 256 303
#     4   8  14  23  36  55  83 122 164 209 257 297
#     4  10  20  35  55  75  96 127 166 206 251 299
#
# _framework density 17.633953999999999
#
# number of rings (size 3 to 8) (size 9 to 14) (size 15 to 20)
#    0.000    2.636    0.909    2.182    0.000    4.727 
#    0.000    6.364    0.000    0.000    0.000    0.000 
#    0.000    0.000    0.000    6.545    0.000   21.455 
#
# Total GULP energy -245147.424290 kJ/mol
# GULP energy per Si atom -5571.532370 kJ/mol
# Density = 1.759382 g / cm^3
# Si number density = 17.633954 Si / 1000 Ang^3
#
#
#
# Elastic Constant Matrix: (Units=GPa)
#
#
# Indices 1 2 3 4 5 6 
#
# 1 103.7628 24.7620 56.4771 0.0000 0.0000 0.0000
# 2 24.7620 26.1440 45.0184 0.0000 0.0000 0.0000
# 3 56.4771 45.0184 150.4166 0.0000 0.0000 0.0000
# 4 0.0000 0.0000 0.0000 -24.8278 0.0000 0.0000
# 5 0.0000 0.0000 0.0000 0.0000 -15.8466 0.0000
# 6 0.0000 0.0000 0.0000 0.0000 0.0000 13.3940
#
#
#
# Elastic Compliance Matrix: (Units=1/GPa)
#
#
# Indices 1 2 3 4 5 6 
#
# 1 0.012873 -0.007985 -0.002444 0.000000 0.000000 0.000000
# 2 -0.007985 0.083877 -0.022106 0.000000 0.000000 0.000000
# 3 -0.002444 -0.022106 0.014182 0.000000 0.000000 0.000000
# 4 0.000000 0.000000 0.000000 -0.040277 0.000000 0.000000
# 5 0.000000 0.000000 0.000000 0.000000 -0.063105 0.000000
# 6 0.000000 0.000000 0.000000 0.000000 0.000000 0.074661
#
#
# Mechanical properties :
#
#
# Convention : Reuss Voigt Hill
#
# Bulk Modulus (GPa) = 21.80374 59.20426 40.50400
# Shear Modulus (GPa) = 30.75700 4.81499 17.78599
#
# Velocity S-wave (km/s) = 4.18088 1.65422 3.17933
# Velocity P-wave (km/s) = 5.97477 6.10700 6.04125
#
# Compressibility (1/GPa) = 0.04586368
#
# Stress axis : x y z
#
# Youngs Moduli (GPa) = 77.68276 11.92227 70.51317
#
# Poissons Ratio (x) = 0.09519 0.17231
# Poissons Ratio (y) = 0.62026 1.55874
# Poissons Ratio (z) = 0.18983 0.26355
#
# Static dielectric constant tensor:
#      x y z
#    x 1.631410 0.000000 0.000000 
#    y 0.000000 1.591270 0.000000 
#    z 0.000000 0.000000 1.592630 
# 
# From -- ./inp_files/33993.got.cif
#   From: 2010.05.17/outbox.cif.g08.bks.cpg/sg47_17_cif.got.tgz:33993.got - 2010.06.03 20:15:42.
