data_PCOD9385997
_publ_section_title
;
Structure prediction by ZEFSAII (Michael W. Deem and Ramdas Pophale) SiO2 
 PCOD9385997
Probable space group: P M M M
;
_chemical_formula_sum "Si O2"
_cell_formula_units_Z 48
_cell_length_a 9.273848
_cell_length_b 7.726164
_cell_length_c 31.796747
_cell_angle_alpha 90.000000
_cell_angle_beta 90.000000
_cell_angle_gamma 90.000000
_cell_volume 2278.277322
_symmetry_space_group_name_H-M "P M M M"
_symmetry_group_IT_number 47
_symmetry_cell_setting 'orthorhombic'
loop_
_space_group_symop_operation_xyz
x,y,z
-x,-y,z
x,-y,-z
-x,y,-z
-x,-y,-z
x,y,-z
-x,y,z
x,-y,z
loop_
_atom_site_type_symbol
_atom_site_label
_atom_site_fract_x
_atom_site_fract_y
_atom_site_fract_z
Si Si1 0.835626 0.791537 0.249568
Si Si2 0.664254 0.291584 0.665745
Si Si3 0.664238 0.208264 0.832297
Si Si4 0.835590 0.708337 0.916977
Si Si5 0.666452 0.287987 0.000000
Si Si6 0.836299 0.292556 0.415708
Si Si7 0.663770 0.793548 0.500000
O O1 0.750263 0.749475 0.291938
O O2 0.749932 0.726612 0.208623
O O3 0.000000 0.726370 0.250896
O O4 0.842181 0.000000 0.246357
O O5 0.500000 0.226129 0.667326
O O6 0.657227 0.500000 0.662330
O O7 0.749530 0.225485 0.624810
O O8 0.500000 0.274007 0.833805
O O9 0.750092 0.248909 0.874674
O O10 0.657173 0.000000 0.828832
O O11 0.842170 0.500000 0.920028
O O12 0.000000 0.773580 0.915696
O O13 0.749747 0.769808 0.958141
O O14 0.666537 0.500000 0.000000
O O15 0.500000 0.232959 0.000000
O O16 0.845748 0.500000 0.411029
O O17 0.749751 0.259216 0.458358
O O18 0.000000 0.224805 0.417718
O O19 0.500000 0.723726 0.500000
O O20 0.655596 0.000000 0.500000
#
# Coordination Sequence:
#
# PCOD9385997 Si02
#       7
#     8   8   8   8   4   8   4
#     4  10  21  37  57  80 107 142 181 220 267 321
#     4  10  21  37  58  84 112 143 180 222 268 318
#     4  10  21  37  56  78 106 141 180 222 268 318
#     4  10  20  34  54  80 108 139 176 218 265 318
#     4   9  17  31  52  77 106 139 174 216 266 317
#     4  10  21  38  60  84 110 143 182 223 270 322
#     4  11  24  39  56  82 114 147 184 225 268 316
#
# _framework density 21.068548
#
# number of rings (size 3 to 8) (size 9 to 14) (size 15 to 20)
#    0.000    2.000    0.000    3.250    0.000    9.000 
#    0.000    0.417    0.000    2.500    0.000    0.000 
#    0.000    0.000    0.000    0.000    0.000    0.000 
#
# Total GULP energy -268326.811562 kJ/mol
# GULP energy per Si atom -5590.141908 kJ/mol
# Density = 2.102060 g / cm^3
# Si number density = 21.068548 Si / 1000 Ang^3
#
#
#
# Elastic Constant Matrix: (Units=GPa)
#
#
# Indices 1 2 3 4 5 6 
#
# 1 274.5537 10.0705 161.1349 0.0000 0.0000 0.0000
# 2 10.0705 32.3863 -2.6996 0.0000 0.0000 0.0000
# 3 161.1349 -2.6996 249.3310 0.0000 0.0000 0.0000
# 4 0.0000 0.0000 0.0000 37.5727 0.0000 0.0000
# 5 0.0000 0.0000 0.0000 0.0000 48.0066 0.0000
# 6 0.0000 0.0000 0.0000 0.0000 0.0000 19.7978
#
#
#
# Elastic Compliance Matrix: (Units=1/GPa)
#
#
# Indices 1 2 3 4 5 6 
#
# 1 0.006020 -0.002198 -0.003915 0.000000 0.000000 0.000000
# 2 -0.002198 0.031708 0.001764 0.000000 0.000000 0.000000
# 3 -0.003915 0.001764 0.006560 0.000000 0.000000 0.000000
# 4 0.000000 0.000000 0.000000 0.026615 0.000000 0.000000
# 5 0.000000 0.000000 0.000000 0.000000 0.020830 0.000000
# 6 0.000000 0.000000 0.000000 0.000000 0.000000 0.050511
#
#
# Mechanical properties :
#
#
# Convention : Reuss Voigt Hill
#
# Bulk Modulus (GPa) = 28.09763 99.25362 63.67563
# Shear Modulus (GPa) = 30.71154 46.92644 38.81899
#
# Velocity S-wave (km/s) = 3.82212 4.72457 4.29710
# Velocity P-wave (km/s) = 5.73091 8.77350 7.41005
#
# Compressibility (1/GPa) = 0.03559019
#
# Stress axis : x y z
#
# Youngs Moduli (GPa) = 166.10288 31.53790 152.44591
#
# Poissons Ratio (x) = 0.06933 0.59676
# Poissons Ratio (y) = 0.36515 -0.26892
# Poissons Ratio (z) = 0.65022 -0.05563
#
# Static dielectric constant tensor:
#      x y z
#    x 1.744710 0.000000 0.000000 
#    y 0.000000 1.790820 0.000000 
#    z 0.000000 0.000000 1.695870 
# 
# From -- ./inp_files/2592.got.cif
#   From: 2010.05.17/outbox.cif.g08.bks.cpg/sg47_2_cif.got.tgz:2592.got - 2010.06.03 20:15:42.
