data_PCOD9385165
_publ_section_title
;
Structure prediction by ZEFSAII (Michael W. Deem and Ramdas Pophale) SiO2 
 PCOD9385165
Probable space group: P M M M
;
_chemical_formula_sum "Si O2"
_cell_formula_units_Z 52
_cell_length_a 7.498489
_cell_length_b 16.224095
_cell_length_c 20.196476
_cell_angle_alpha 90.000000
_cell_angle_beta 90.000000
_cell_angle_gamma 90.000000
_cell_volume 2457.026481
_symmetry_space_group_name_H-M "P M M M"
_symmetry_group_IT_number 47
_symmetry_cell_setting 'orthorhombic'
loop_
_space_group_symop_operation_xyz
x,y,z
-x,-y,z
x,-y,-z
-x,y,-z
-x,-y,-z
x,y,-z
-x,y,z
x,-y,z
loop_
_atom_site_type_symbol
_atom_site_label
_atom_site_fract_x
_atom_site_fract_y
_atom_site_fract_z
Si Si1 0.781953 0.089067 0.216326
Si Si2 0.712616 0.000000 0.576933
Si Si3 0.208305 0.133297 0.927482
Si Si4 0.209436 0.181719 0.574602
Si Si5 0.286183 0.673733 0.073079
Si Si6 0.780818 0.253012 0.293456
Si Si7 0.789479 0.408718 0.789301
O O1 0.719911 0.095428 0.140029
O O2 0.723849 0.170866 0.254250
O O3 0.000000 0.090959 0.216186
O O4 0.727635 0.000000 0.244401
O O5 0.775098 0.911770 0.602609
O O6 0.500000 0.000000 0.578323
O O7 0.774622 0.000000 0.500000
O O8 0.219150 0.232439 0.919416
O O9 0.000000 0.110195 0.929874
O O10 0.285953 0.113052 0.000000
O O11 0.286825 0.184687 0.500000
O O12 0.279767 0.242405 0.630799
O O13 0.000000 0.198435 0.568443
O O14 0.500000 0.677367 0.073852
O O15 0.228655 0.618784 0.134465
O O16 0.229178 0.644224 0.000000
O O17 0.718044 0.334818 0.256207
O O18 0.000000 0.253056 0.292699
O O19 0.713653 0.500000 0.779083
O O20 0.000000 0.412912 0.775020
#
# Coordination Sequence:
#
# PCOD9385165 Si02
#       7
#     8   4   8   8   8   8   8
#     4   9  16  25  42  69  96 123 157 197 241 281
#     4   9  17  29  45  69 103 135 164 201 240 279
#     4   9  16  28  47  68  93 125 163 203 238 280
#     4   9  17  29  48  72  98 131 168 201 237 287
#     4  10  20  33  50  72  99 129 159 195 244 296
#     4   9  17  30  48  71  99 125 156 199 242 285
#     4  10  20  35  55  75  94 122 161 202 245 292
#
# _framework density 21.163793999999999
#
# number of rings (size 3 to 8) (size 9 to 14) (size 15 to 20)
#    0.000    2.692    1.538    0.692    1.077    2.769 
#    0.000    3.846    0.000    0.923    0.000    5.385 
#    0.000    0.000    0.000    5.231    0.000    5.538 
#
# Total GULP energy -290188.760293 kJ/mol
# GULP energy per Si atom -5580.553083 kJ/mol
# Density = 2.111562 g / cm^3
# Si number density = 21.163794 Si / 1000 Ang^3
#
#
#
# Elastic Constant Matrix: (Units=GPa)
#
#
# Indices 1 2 3 4 5 6 
#
# 1 59.7240 1.5946 1.7892 0.0000 0.0000 0.0000
# 2 1.5946 155.4433 89.8142 0.0000 0.0000 0.0000
# 3 1.7892 89.8142 140.5240 0.0000 0.0000 0.0000
# 4 0.0000 0.0000 0.0000 16.6971 0.0000 0.0000
# 5 0.0000 0.0000 0.0000 0.0000 -11.3128 0.0000
# 6 0.0000 0.0000 0.0000 0.0000 0.0000 -57.5069
#
#
#
# Elastic Compliance Matrix: (Units=1/GPa)
#
#
# Indices 1 2 3 4 5 6 
#
# 1 0.016751 -0.000077 -0.000164 0.000000 0.000000 0.000000
# 2 -0.000077 0.010200 -0.006518 0.000000 0.000000 0.000000
# 3 -0.000164 -0.006518 0.011284 0.000000 0.000000 0.000000
# 4 0.000000 0.000000 0.000000 0.059891 0.000000 0.000000
# 5 0.000000 0.000000 0.000000 0.000000 -0.088395 0.000000
# 6 0.000000 0.000000 0.000000 0.000000 0.000000 -0.017389
#
#
# Mechanical properties :
#
#
# Convention : Reuss Voigt Hill
#
# Bulk Modulus (GPa) = 40.45892 60.23193 50.34542
# Shear Modulus (GPa) = 354.62597 7.07504 180.85051
#
# Velocity S-wave (km/s) = 12.95864 1.83037 9.25410
# Velocity P-wave (km/s) = 15.59039 5.74358 11.74838
#
# Compressibility (1/GPa) = 0.02471643
#
# Stress axis : x y z
#
# Youngs Moduli (GPa) = 59.69916 98.03629 88.61732
#
# Poissons Ratio (x) = 0.00755 0.01454
# Poissons Ratio (y) = 0.00460 0.57764
# Poissons Ratio (z) = 0.00979 0.63904
#
# Static dielectric constant tensor:
#      x y z
#    x 1.789190 0.000000 0.000000 
#    y 0.000000 1.748580 0.000000 
#    z 0.000000 0.000000 1.805010 
# 
# From -- ./inp_files/11024.got.cif
#   From: 2010.05.17/outbox.cif.g08.bks.cpg/sg47_6_cif.got.tgz:11024.got - 2010.06.03 20:15:42.
