data_PCOD9385370
_publ_section_title
;
Structure prediction by ZEFSAII (Michael W. Deem and Ramdas Pophale) SiO2 
 PCOD9385370
Probable space group: P M M M
;
_chemical_formula_sum "Si O2"
_cell_formula_units_Z 48
_cell_length_a 9.371251
_cell_length_b 9.072847
_cell_length_c 31.592419
_cell_angle_alpha 90.000000
_cell_angle_beta 90.000000
_cell_angle_gamma 90.000000
_cell_volume 2686.111512
_symmetry_space_group_name_H-M "P M M M"
_symmetry_group_IT_number 47
_symmetry_cell_setting 'orthorhombic'
loop_
_space_group_symop_operation_xyz
x,y,z
-x,-y,z
x,-y,-z
-x,y,-z
-x,-y,-z
x,y,-z
-x,y,z
x,-y,z
loop_
_atom_site_type_symbol
_atom_site_label
_atom_site_fract_x
_atom_site_fract_y
_atom_site_fract_z
Si Si1 0.164303 0.679549 0.500000
Si Si2 0.330270 0.824655 0.077913
Si Si3 0.830879 0.324229 0.000000
Si Si4 0.171021 0.173608 0.757144
Si Si5 0.333622 0.322127 0.415865
Si Si6 0.670177 0.327240 0.833690
Si Si7 0.832963 0.177500 0.660812
O O1 0.163945 0.500000 0.500000
O O2 0.247176 0.725675 0.542313
O O3 0.000000 0.728694 0.500000
O O4 0.500000 0.796632 0.071767
O O5 0.242352 0.746184 0.041152
O O6 0.290068 0.760990 0.123845
O O7 0.308128 0.000000 0.076584
O O8 0.809039 0.500000 0.000000
O O9 0.000000 0.294883 0.000000
O O10 0.249389 0.265267 0.792967
O O11 0.208191 0.218163 0.708982
O O12 0.000000 0.188246 0.761137
O O13 0.205460 0.000000 0.762032
O O14 0.500000 0.282625 0.419517
O O15 0.324409 0.500000 0.413303
O O16 0.262845 0.252785 0.374464
O O17 0.500000 0.309334 0.827714
O O18 0.700122 0.500000 0.839716
O O19 0.000000 0.216680 0.654576
O O20 0.822827 0.000000 0.657833
#
# Coordination Sequence:
#
# PCOD9385370 Si02
#       7
#     4   8   4   8   8   8   8
#     4   9  17  31  52  75 100 135 176 214 256 309
#     4  10  21  38  60  83 107 141 184 223 263 316
#     4  11  24  39  56  82 114 145 178 219 268 318
#     4   9  19  36  56  77 103 138 178 218 262 312
#     4  10  20  33  51  77 107 136 169 213 263 313
#     4  10  21  36  55  81 111 141 175 217 264 313
#     4   9  19  36  55  75 102 137 177 218 260 310
#
# _framework density 17.869696000000001
#
# number of rings (size 3 to 8) (size 9 to 14) (size 15 to 20)
#    0.000    2.333    0.000    3.250    0.000    8.333 
#    0.000    5.417    0.000    2.500    0.000    0.000 
#    0.000    0.000    0.000    0.000    0.000    0.000 
#
# Total GULP energy -267981.074223 kJ/mol
# GULP energy per Si atom -5582.939046 kJ/mol
# Density = 1.782902 g / cm^3
# Si number density = 17.869696 Si / 1000 Ang^3
#
#
#
# Elastic Constant Matrix: (Units=GPa)
#
#
# Indices 1 2 3 4 5 6 
#
# 1 98.6825 57.6311 102.1353 0.0000 0.0000 0.0000
# 2 57.6311 55.3150 71.0094 0.0000 0.0000 0.0000
# 3 102.1353 71.0094 183.6658 0.0000 0.0000 0.0000
# 4 0.0000 0.0000 0.0000 37.5274 0.0000 0.0000
# 5 0.0000 0.0000 0.0000 0.0000 38.4633 0.0000
# 6 0.0000 0.0000 0.0000 0.0000 0.0000 29.7234
#
#
#
# Elastic Compliance Matrix: (Units=1/GPa)
#
#
# Indices 1 2 3 4 5 6 
#
# 1 0.033255 -0.021656 -0.010120 0.000000 0.000000 0.000000
# 2 -0.021656 0.049995 -0.007286 0.000000 0.000000 0.000000
# 3 -0.010120 -0.007286 0.013890 0.000000 0.000000 0.000000
# 4 0.000000 0.000000 0.000000 0.026647 0.000000 0.000000
# 5 0.000000 0.000000 0.000000 0.000000 0.025999 0.000000
# 6 0.000000 0.000000 0.000000 0.000000 0.000000 0.033643
#
#
# Mechanical properties :
#
#
# Convention : Reuss Voigt Hill
#
# Bulk Modulus (GPa) = 52.59215 88.80167 70.69691
# Shear Modulus (GPa) = 18.66428 28.26866 23.46647
#
# Velocity S-wave (km/s) = 3.23533 3.98167 3.62774
# Velocity P-wave (km/s) = 6.59176 8.42260 7.56278
#
# Compressibility (1/GPa) = 0.01901425
#
# Stress axis : x y z
#
# Youngs Moduli (GPa) = 30.07076 20.00218 71.99647
#
# Poissons Ratio (x) = 0.43316 0.72862
# Poissons Ratio (y) = 0.65120 0.52460
# Poissons Ratio (z) = 0.30432 0.14574
#
# Static dielectric constant tensor:
#      x y z
#    x 1.594170 0.000000 0.000000 
#    y 0.000000 1.596220 0.000000 
#    z 0.000000 0.000000 1.581730 
# 
# From -- ./inp_files/34056.got.cif
#   From: 2010.05.17/outbox.cif.g08.bks.cpg/sg47_18_cif.got.tgz:34056.got - 2010.06.03 20:15:42.
