data_PCOD9385626
_publ_section_title
;
Structure prediction by ZEFSAII (Michael W. Deem and Ramdas Pophale) SiO2 
 PCOD9385626
Probable space group: P M M M
;
_chemical_formula_sum "Si O2"
_cell_formula_units_Z 40
_cell_length_a 11.662463
_cell_length_b 8.960874
_cell_length_c 23.865368
_cell_angle_alpha 90.000000
_cell_angle_beta 90.000000
_cell_angle_gamma 90.000000
_cell_volume 2494.070842
_symmetry_space_group_name_H-M "P M M M"
_symmetry_group_IT_number 47
_symmetry_cell_setting 'orthorhombic'
loop_
_space_group_symop_operation_xyz
x,y,z
-x,-y,z
x,-y,-z
-x,y,-z
-x,-y,-z
x,y,-z
-x,y,z
x,-y,z
loop_
_atom_site_type_symbol
_atom_site_label
_atom_site_fract_x
_atom_site_fract_y
_atom_site_fract_z
Si Si1 0.237574 0.821419 0.395601
Si Si2 0.000000 0.321461 0.567211
Si Si3 0.363253 0.676921 0.708625
Si Si4 0.360706 0.674881 0.061939
Si Si5 0.637049 0.673213 0.500000
Si Si6 0.639360 0.170494 0.175446
O O1 0.112567 0.751822 0.406159
O O2 0.292360 0.765872 0.337629
O O3 0.315617 0.755870 0.445492
O O4 0.233491 0.000000 0.398092
O O5 0.000000 0.500000 0.575372
O O6 0.000000 0.293520 0.500000
O O7 0.500000 0.706223 0.701472
O O8 0.345764 0.500000 0.702040
O O9 0.330136 0.729665 0.771035
O O10 0.500000 0.682773 0.061991
O O11 0.331605 0.500000 0.067684
O O12 0.319821 0.765053 0.115956
O O13 0.323024 0.727009 0.000000
O O14 0.676789 0.500000 0.500000
O O15 0.500000 0.673806 0.500000
O O16 0.500000 0.171180 0.173271
O O17 0.676249 0.000000 0.183547
#
# Coordination Sequence:
#
# PCOD9385626 Si02
#       6
#     8   4   8   8   4   8
#     4  12  24  37  56  79 102 125 157 201 246 287
#     4  11  23  41  63  79  98 128 161 194 235 292
#     4  10  20  34  51  70  96 131 167 200 240 294
#     4   8  13  21  33  50  75 111 155 197 235 279
#     4  11  23  38  55  76 103 133 163 193 232 285
#     4   9  16  25  38  58  85 117 155 199 243 284
#
# _framework density 16.038038
#
# number of rings (size 3 to 8) (size 9 to 14) (size 15 to 20)
#    0.000    2.000    1.000    4.800    0.000    7.600 
#    0.000    2.000    0.000    0.000    0.000    0.000 
#    0.000    0.000    0.000    0.900    0.000   17.000 
#
# Total GULP energy -223139.647410 kJ/mol
# GULP energy per Si atom -5578.491185 kJ/mol
# Density = 1.600153 g / cm^3
# Si number density = 16.038038 Si / 1000 Ang^3
#
#
#
# Elastic Constant Matrix: (Units=GPa)
#
#
# Indices 1 2 3 4 5 6 
#
# 1 51.4763 42.9055 38.0131 0.0000 0.0000 0.0000
# 2 42.9055 121.3621 66.8441 0.0000 0.0000 0.0000
# 3 38.0131 66.8441 129.8840 0.0000 0.0000 0.0000
# 4 0.0000 0.0000 0.0000 7.1525 0.0000 0.0000
# 5 0.0000 0.0000 0.0000 0.0000 -4.4114 0.0000
# 6 0.0000 0.0000 0.0000 0.0000 0.0000 12.5566
#
#
#
# Elastic Compliance Matrix: (Units=1/GPa)
#
#
# Indices 1 2 3 4 5 6 
#
# 1 0.029338 -0.007875 -0.004534 0.000000 0.000000 0.000000
# 2 -0.007875 0.013613 -0.004701 0.000000 0.000000 0.000000
# 3 -0.004534 -0.004701 0.011445 0.000000 0.000000 0.000000
# 4 0.000000 0.000000 0.000000 0.139811 0.000000 0.000000
# 5 0.000000 0.000000 0.000000 0.000000 -0.226688 0.000000
# 6 0.000000 0.000000 0.000000 0.000000 0.000000 0.079640
#
#
# Mechanical properties :
#
#
# Convention : Reuss Voigt Hill
#
# Bulk Modulus (GPa) = 49.56073 66.47197 58.01635
# Shear Modulus (GPa) = 56.75094 13.39020 35.07057
#
# Velocity S-wave (km/s) = 5.95500 2.89260 4.68130
# Velocity P-wave (km/s) = 8.84600 7.25897 8.09149
#
# Compressibility (1/GPa) = 0.02017726
#
# Stress axis : x y z
#
# Youngs Moduli (GPa) = 34.08550 73.45825 87.37092
#
# Poissons Ratio (x) = 0.57848 0.39610
# Poissons Ratio (y) = 0.26842 0.41075
# Poissons Ratio (z) = 0.15453 0.34534
#
# Static dielectric constant tensor:
#      x y z
#    x 1.513850 0.000000 0.000000 
#    y 0.000000 1.536120 0.000000 
#    z 0.000000 0.000000 1.543280 
# 
# From -- ./inp_files/4142.got.cif
#   From: 2010.05.17/outbox.cif.g08.bks.cpg/sg47_3_cif.got.tgz:4142.got - 2010.06.03 20:15:42.
