data_PCOD9385284
_publ_section_title
;
Structure prediction by ZEFSAII (Michael W. Deem and Ramdas Pophale) SiO2 
 PCOD9385284
Probable space group: P M M M
;
_chemical_formula_sum "Si O2"
_cell_formula_units_Z 64
_cell_length_a 24.741546
_cell_length_b 7.339775
_cell_length_c 16.092411
_cell_angle_alpha 90.000000
_cell_angle_beta 90.000000
_cell_angle_gamma 90.000000
_cell_volume 2922.339688
_symmetry_space_group_name_H-M "P M M M"
_symmetry_group_IT_number 47
_symmetry_cell_setting 'orthorhombic'
loop_
_space_group_symop_operation_xyz
x,y,z
-x,-y,z
x,-y,-z
-x,y,-z
-x,-y,-z
x,y,-z
-x,y,z
x,-y,z
loop_
_atom_site_type_symbol
_atom_site_label
_atom_site_fract_x
_atom_site_fract_y
_atom_site_fract_z
Si Si1 0.674501 0.787093 0.408667
Si Si2 0.742331 0.222928 0.748479
Si Si3 0.676038 0.777508 0.090603
Si Si4 0.937703 0.221761 0.093910
Si Si5 0.937682 0.778258 0.406492
Si Si6 0.866858 0.222531 0.250238
Si Si7 0.440538 0.718268 0.666136
Si Si8 0.440963 0.787879 0.862053
O O1 0.683907 0.707781 0.500000
O O2 0.709403 0.712845 0.332301
O O3 0.611225 0.777272 0.385570
O O4 0.688721 0.000000 0.413066
O O5 0.711688 0.281986 0.831835
O O6 0.804595 0.278635 0.747891
O O7 0.741144 0.000000 0.748534
O O8 0.614192 0.713023 0.100739
O O9 0.674736 0.000000 0.093744
O O10 0.697137 0.725607 0.000000
O O11 0.898183 0.281556 0.167113
O O12 0.000000 0.275649 0.109757
O O13 0.937117 0.000000 0.094207
O O14 0.922966 0.278449 0.000000
O O15 0.922008 0.721593 0.500000
O O16 0.899007 0.718267 0.332480
O O17 0.000000 0.724075 0.391997
O O18 0.937113 0.000000 0.406123
O O19 0.867466 0.000000 0.250036
O O20 0.500000 0.779113 0.636300
O O21 0.440382 0.500000 0.666420
O O22 0.435049 0.779145 0.761955
O O23 0.500000 0.708826 0.882923
O O24 0.442816 0.000000 0.886300
#
# Coordination Sequence:
#
# PCOD9385284 Si02
#       8
#     8   8   8   8   8   8   8   8
#     4  10  20  34  51  68  90 122 155 187 227 275
#     4   9  17  28  39  57  83 109 144 187 226 267
#     4   9  16  26  42  63  86 111 141 181 224 263
#     4   8  13  20  29  43  66  98 137 178 218 262
#     4   8  13  20  29  42  61  87 124 170 215 257
#     4   9  15  21  32  47  67  97 133 176 221 261
#     4  10  20  33  51  74  97 119 146 185 232 276
#     4   9  16  28  48  70  93 120 149 182 222 270
#
# _framework density 21.900258999999998
#
# number of rings (size 3 to 8) (size 9 to 14) (size 15 to 20)
#    0.000    3.000    1.250    1.500    0.000    4.000 
#    0.000    7.500    0.000    0.375    0.000    1.750 
#    0.000    0.000    0.000    0.000    0.000    2.500 
#
# Total GULP energy -357339.214768 kJ/mol
# GULP energy per Si atom -5583.425231 kJ/mol
# Density = 2.185041 g / cm^3
# Si number density = 21.900259 Si / 1000 Ang^3
#
#
#
# Elastic Constant Matrix: (Units=GPa)
#
#
# Indices 1 2 3 4 5 6 
#
# 1 176.0447 2.7869 142.7873 0.0000 0.0000 0.0000
# 2 2.7869 84.8239 5.1435 0.0000 0.0000 0.0000
# 3 142.7873 5.1435 215.6670 0.0000 0.0000 0.0000
# 4 0.0000 0.0000 0.0000 -56.5835 0.0000 0.0000
# 5 0.0000 0.0000 0.0000 0.0000 -4.7954 0.0000
# 6 0.0000 0.0000 0.0000 0.0000 0.0000 -87.7854
#
#
#
# Elastic Compliance Matrix: (Units=1/GPa)
#
#
# Indices 1 2 3 4 5 6 
#
# 1 0.012269 0.000090 -0.008125 0.000000 0.000000 0.000000
# 2 0.000090 0.011807 -0.000341 0.000000 0.000000 0.000000
# 3 -0.008125 -0.000341 0.010024 0.000000 0.000000 0.000000
# 4 0.000000 0.000000 0.000000 -0.017673 0.000000 0.000000
# 5 0.000000 0.000000 0.000000 0.000000 -0.208534 0.000000
# 6 0.000000 0.000000 0.000000 0.000000 0.000000 -0.011391
#
#
# Mechanical properties :
#
#
# Convention : Reuss Voigt Hill
#
# Bulk Modulus (GPa) = 57.64563 86.44120 72.04341
# Shear Modulus (GPa) = -27.63014 -8.11167 -17.87090
#
# Velocity S-wave (km/s) = -3.55580 -1.92664 -2.85969
# Velocity P-wave (km/s) = 3.08556 5.88276 4.69721
#
# Compressibility (1/GPa) = 0.01734737
#
# Stress axis : x y z
#
# Youngs Moduli (GPa) = 81.50460 84.69652 99.75631
#
# Poissons Ratio (x) = -0.00759 0.81055
# Poissons Ratio (y) = -0.00730 0.03401
# Poissons Ratio (z) = 0.66225 0.02887
#
# Static dielectric constant tensor:
#      x y z
#    x 1.788590 0.000000 0.000000 
#    y 0.000000 1.759350 0.000000 
#    z 0.000000 0.000000 1.773160 
# 
# From -- ./inp_files/25575.got.cif
#   From: 2010.05.17/outbox.cif.g08.bks.cpg/sg47_13_cif.got.tgz:25575.got - 2010.06.03 20:15:42.
