data_PCOD9385339
_publ_section_title
;
Structure prediction by ZEFSAII (Michael W. Deem and Ramdas Pophale) SiO2 
 PCOD9385339
Probable space group: P M M M
;
_chemical_formula_sum "Si O2"
_cell_formula_units_Z 40
_cell_length_a 7.821725
_cell_length_b 8.137131
_cell_length_c 30.184794
_cell_angle_alpha 90.000000
_cell_angle_beta 90.000000
_cell_angle_gamma 90.000000
_cell_volume 1921.153502
_symmetry_space_group_name_H-M "P M M M"
_symmetry_group_IT_number 47
_symmetry_cell_setting 'orthorhombic'
loop_
_space_group_symop_operation_xyz
x,y,z
-x,-y,z
x,-y,-z
-x,y,-z
-x,-y,-z
x,y,-z
-x,y,z
x,-y,z
loop_
_atom_site_type_symbol
_atom_site_label
_atom_site_fract_x
_atom_site_fract_y
_atom_site_fract_z
Si Si1 0.201908 0.690168 0.694544
Si Si2 0.000000 0.201801 0.948900
Si Si3 0.305793 0.804089 0.887097
Si Si4 0.701033 0.821442 0.398039
Si Si5 0.290344 0.500000 0.551418
Si Si6 0.294262 0.310443 0.209213
O O1 0.266130 0.500000 0.693744
O O2 0.283510 0.787930 0.654316
O O3 0.233283 0.758536 0.743803
O O4 0.000000 0.687032 0.686769
O O5 0.168390 0.258188 0.922383
O O6 0.000000 0.000000 0.948055
O O7 0.000000 0.252073 0.000000
O O8 0.500000 0.737280 0.891875
O O9 0.244060 0.771993 0.836881
O O10 0.316340 0.000000 0.892840
O O11 0.500000 0.827592 0.409079
O O12 0.772223 0.663626 0.423689
O O13 0.776447 0.000000 0.408816
O O14 0.500000 0.500000 0.553989
O O15 0.243936 0.500000 0.500000
O O16 0.500000 0.306942 0.210535
O O17 0.235922 0.500000 0.207447
#
# Coordination Sequence:
#
# PCOD9385339 Si02
#       6
#     8   4   8   8   4   8
#     4  10  20  33  51  76 106 142 181 220 266 325
#     4   9  18  32  51  75 101 133 175 225 279 328
#     4   9  18  32  50  73 101 133 172 221 271 325
#     4  10  20  34  55  81 109 144 183 226 278 334
#     4   9  18  34  57  83 111 143 181 233 287 330
#     4   9  18  32  51  75 104 139 174 211 261 322
#
# _framework density 20.820824999999999
#
# number of rings (size 3 to 8) (size 9 to 14) (size 15 to 20)
#    0.000    2.600    1.000    0.600    1.400    2.800 
#    0.000    6.000    0.000    2.400    0.000    4.200 
#    0.000    0.000    0.000    0.000    0.000    0.000 
#
# Total GULP energy -223171.031515 kJ/mol
# GULP energy per Si atom -5579.275788 kJ/mol
# Density = 2.077344 g / cm^3
# Si number density = 20.820825 Si / 1000 Ang^3
#
#
#
# Elastic Constant Matrix: (Units=GPa)
#
#
# Indices 1 2 3 4 5 6 
#
# 1 45.6672 24.0036 32.9144 0.0000 0.0000 0.0000
# 2 24.0036 83.1696 56.9107 0.0000 0.0000 0.0000
# 3 32.9144 56.9107 147.2577 0.0000 0.0000 0.0000
# 4 0.0000 0.0000 0.0000 21.5832 0.0000 0.0000
# 5 0.0000 0.0000 0.0000 0.0000 75.4009 0.0000
# 6 0.0000 0.0000 0.0000 0.0000 0.0000 4.4446
#
#
#
# Elastic Compliance Matrix: (Units=1/GPa)
#
#
# Indices 1 2 3 4 5 6 
#
# 1 0.027602 -0.005091 -0.004202 0.000000 0.000000 0.000000
# 2 -0.005091 0.017285 -0.005542 0.000000 0.000000 0.000000
# 3 -0.004202 -0.005542 0.009872 0.000000 0.000000 0.000000
# 4 0.000000 0.000000 0.000000 0.046332 0.000000 0.000000
# 5 0.000000 0.000000 0.000000 0.000000 0.013262 0.000000
# 6 0.000000 0.000000 0.000000 0.000000 0.000000 0.224991
#
#
# Mechanical properties :
#
#
# Convention : Reuss Voigt Hill
#
# Bulk Modulus (GPa) = 39.85839 55.97244 47.91541
# Shear Modulus (GPa) = 13.24927 31.10346 22.17637
#
# Velocity S-wave (km/s) = 2.52533 3.86925 3.26714
# Velocity P-wave (km/s) = 5.26195 6.84855 6.10700
#
# Compressibility (1/GPa) = 0.02508882
#
# Stress axis : x y z
#
# Youngs Moduli (GPa) = 36.22926 57.85218 101.29654
#
# Poissons Ratio (x) = 0.29452 0.42565
# Poissons Ratio (y) = 0.18444 0.56143
# Poissons Ratio (z) = 0.15224 0.32064
#
# Static dielectric constant tensor:
#      x y z
#    x 1.766550 0.000000 0.000000 
#    y 0.000000 1.774250 0.000000 
#    z 0.000000 0.000000 1.714900 
# 
# From -- ./inp_files/33023.got.cif
#   From: 2010.05.17/outbox.cif.g08.bks.cpg/sg47_17_cif.got.tgz:33023.got - 2010.06.03 20:15:42.
