data_PCOD9385656
_publ_section_title
;
Structure prediction by ZEFSAII (Michael W. Deem and Ramdas Pophale) SiO2 
 PCOD9385656
Probable space group: P M M M
;
_chemical_formula_sum "Si O2"
_cell_formula_units_Z 64
_cell_length_a 8.019589
_cell_length_b 30.809157
_cell_length_c 15.250086
_cell_angle_alpha 90.000000
_cell_angle_beta 90.000000
_cell_angle_gamma 90.000000
_cell_volume 3767.942091
_symmetry_space_group_name_H-M "P M M M"
_symmetry_group_IT_number 47
_symmetry_cell_setting 'orthorhombic'
loop_
_space_group_symop_operation_xyz
x,y,z
-x,-y,z
x,-y,-z
-x,y,-z
-x,-y,-z
x,y,-z
-x,y,z
x,-y,z
loop_
_atom_site_type_symbol
_atom_site_label
_atom_site_fract_x
_atom_site_fract_y
_atom_site_fract_z
Si Si1 0.299211 0.546966 0.897481
Si Si2 0.701756 0.142078 0.598314
Si Si3 0.800639 0.048018 0.334601
Si Si4 0.198265 0.360710 0.898921
Si Si5 0.191601 0.138773 0.904879
Si Si6 0.305402 0.952225 0.865664
Si Si7 0.309780 0.196301 0.761044
Si Si8 0.301869 0.266235 0.898453
O O1 0.500000 0.547533 0.897097
O O2 0.245093 0.500000 0.860166
O O3 0.240630 0.592583 0.857686
O O4 0.244358 0.546773 0.000000
O O5 0.752896 0.154262 0.500000
O O6 0.500000 0.142891 0.603662
O O7 0.753433 0.092159 0.615953
O O8 0.765499 0.175933 0.672253
O O9 0.715126 0.049829 0.239506
O O10 0.000000 0.048882 0.321696
O O11 0.759442 0.000000 0.373606
O O12 0.274061 0.315626 0.866736
O O13 0.000000 0.355955 0.899236
O O14 0.259795 0.363379 0.000000
O O15 0.203790 0.087211 0.904207
O O16 0.306202 0.156005 0.828010
O O17 0.000000 0.151525 0.889217
O O18 0.244994 0.155688 0.000000
O O19 0.500000 0.947248 0.888271
O O20 0.249393 0.000000 0.893137
O O21 0.500000 0.209638 0.740820
O O22 0.233078 0.233792 0.823622
O O23 0.500000 0.257849 0.904133
O O24 0.236083 0.262216 0.000000
#
# Coordination Sequence:
#
# PCOD9385656 Si02
#       8
#     8   8   8   8   8   8   8   8
#     4   8  13  21  33  49  72 106 147 188 227 264
#     4  10  21  36  54  76  98 119 145 178 218 265
#     4  10  20  34  53  75  97 119 143 173 212 258
#     4   9  16  24  35  54  80 109 143 185 230 270
#     4  11  23  35  49  71  96 120 145 177 217 257
#     4  10  20  34  52  71  91 117 147 176 208 249
#     4  10  20  35  53  70  89 117 150 184 221 264
#     4   9  17  29  45  63  83 111 149 189 225 262
#
# _framework density 16.985399000000001
#
# number of rings (size 3 to 8) (size 9 to 14) (size 15 to 20)
#    0.000    2.375    1.250    2.250    0.000    6.000 
#    0.000    5.000    0.000    0.000    0.000    0.000 
#    0.000    0.000    0.000    0.000    0.000    0.625 
#
# Total GULP energy -356427.992926 kJ/mol
# GULP energy per Si atom -5569.187389 kJ/mol
# Density = 1.694674 g / cm^3
# Si number density = 16.985399 Si / 1000 Ang^3
#
#
#
# Elastic Constant Matrix: (Units=GPa)
#
#
# Indices 1 2 3 4 5 6 
#
# 1 20.9404 8.0738 9.0041 0.0000 0.0000 0.0000
# 2 8.0738 130.3229 41.4477 0.0000 0.0000 0.0000
# 3 9.0041 41.4477 80.9726 0.0000 0.0000 0.0000
# 4 0.0000 0.0000 0.0000 22.1474 0.0000 0.0000
# 5 0.0000 0.0000 0.0000 0.0000 2.8028 0.0000
# 6 0.0000 0.0000 0.0000 0.0000 0.0000 -1.2642
#
#
#
# Elastic Compliance Matrix: (Units=1/GPa)
#
#
# Indices 1 2 3 4 5 6 
#
# 1 0.050431 -0.001601 -0.004788 0.000000 0.000000 0.000000
# 2 -0.001601 0.009216 -0.004539 0.000000 0.000000 0.000000
# 3 -0.004788 -0.004539 0.015206 0.000000 0.000000 0.000000
# 4 0.000000 0.000000 0.000000 0.045152 0.000000 0.000000
# 5 0.000000 0.000000 0.000000 0.000000 0.356790 0.000000
# 6 0.000000 0.000000 0.000000 0.000000 0.000000 -0.791031
#
#
# Mechanical properties :
#
#
# Convention : Reuss Voigt Hill
#
# Bulk Modulus (GPa) = 18.86978 38.80969 28.83973
# Shear Modulus (GPa) = -18.20084 16.31789 -0.94147
#
# Velocity S-wave (km/s) = -3.27702 3.10288 -0.74531
# Velocity P-wave (km/s) = 1.78464 5.97793 4.03427
#
# Compressibility (1/GPa) = 0.05299478
#
# Stress axis : x y z
#
# Youngs Moduli (GPa) = 19.82916 108.50487 65.76393
#
# Poissons Ratio (x) = 0.17377 0.31489
# Poissons Ratio (y) = 0.03176 0.29853
# Poissons Ratio (z) = 0.09494 0.49255
#
# Static dielectric constant tensor:
#      x y z
#    x 1.603100 0.000000 0.000000 
#    y 0.000000 1.637120 0.000000 
#    z 0.000000 0.000000 1.584620 
# 
# From -- ./inp_files/22136.got.cif
#   From: 2010.05.17/outbox.cif.g08.bks.cpg/sg47_12_cif.got.tgz:22136.got - 2010.06.03 20:15:42.
