data_PCOD9385336
_publ_section_title
;
Structure prediction by ZEFSAII (Michael W. Deem and Ramdas Pophale) SiO2 
 PCOD9385336
Probable space group: P M M M
;
_chemical_formula_sum "Si O2"
_cell_formula_units_Z 49
_cell_length_a 31.490063
_cell_length_b 9.661868
_cell_length_c 7.948873
_cell_angle_alpha 90.000000
_cell_angle_beta 90.000000
_cell_angle_gamma 90.000000
_cell_volume 2418.467122
_symmetry_space_group_name_H-M "P M M M"
_symmetry_group_IT_number 47
_symmetry_cell_setting 'orthorhombic'
loop_
_space_group_symop_operation_xyz
x,y,z
-x,-y,z
x,-y,-z
-x,y,-z
-x,-y,-z
x,y,-z
-x,y,z
x,-y,z
loop_
_atom_site_type_symbol
_atom_site_label
_atom_site_fract_x
_atom_site_fract_y
_atom_site_fract_z
Si Si1 0.500000 0.660928 0.294709
Si Si2 0.168236 0.155594 0.301938
Si Si3 0.260342 0.159385 0.197245
Si Si4 0.661620 0.342423 0.300203
Si Si5 0.000000 0.000000 0.500000
Si Si6 0.582190 0.160773 0.293980
Si Si7 0.092706 0.348337 0.800149
Si Si8 0.000000 0.773580 0.801267
O O1 0.500000 0.500000 0.238931
O O2 0.500000 0.657116 0.500000
O O3 0.458560 0.748209 0.243449
O O4 0.176292 0.149902 0.500000
O O5 0.211867 0.208632 0.221727
O O6 0.125694 0.240224 0.273294
O O7 0.161535 0.000000 0.236004
O O8 0.294032 0.263736 0.275115
O O9 0.263276 0.000000 0.264313
O O10 0.269369 0.153296 0.000000
O O11 0.654366 0.353721 0.500000
O O12 0.661278 0.500000 0.232069
O O13 0.624117 0.242694 0.235180
O O14 0.000000 0.117090 0.348837
O O15 0.582503 0.157326 0.500000
O O16 0.580757 0.000000 0.239199
O O17 0.101260 0.500000 0.729675
O O18 0.043480 0.311040 0.779174
O O19 0.100405 0.349727 0.000000
O O20 0.000000 0.822718 0.000000
#
# Coordination Sequence:
#
# PCOD9385336 Si02
#       8
#     4   8   8   8   1   8   8   4
#     4   9  15  23  37  61  98 137 174 217 268 325
#     4  10  22  38  60  88 118 148 188 238 288 341
#     4  10  21  38  58  80 106 141 183 227 278 336
#     4  10  20  33  51  76 106 139 178 224 276 330
#     4  12  26  40  66  98 128 160 212 256 304 370
#     4   9  16  26  42  66  97 136 177 220 269 325
#     4  10  22  41  63  87 121 163 201 240 292 351
#     4  10  24  43  65  93 128 165 204 256 306 356
#
# _framework density 20.260767000000001
#
# number of rings (size 3 to 8) (size 9 to 14) (size 15 to 20)
#    0.000    2.204    0.000    2.571    2.286    7.837 
#    0.000    0.408    0.000    0.000    0.000    0.571 
#    0.000    4.571    0.000    0.000    0.000    0.000 
#
# Total GULP energy -273133.575152 kJ/mol
# GULP energy per Si atom -5574.154595 kJ/mol
# Density = 2.021465 g / cm^3
# Si number density = 20.260767 Si / 1000 Ang^3
#
#
#
# Elastic Constant Matrix: (Units=GPa)
#
#
# Indices 1 2 3 4 5 6 
#
# 1 141.5159 85.7221 1.6633 0.0000 0.0000 0.0000
# 2 85.7221 144.3506 16.2748 0.0000 0.0000 0.0000
# 3 1.6633 16.2748 31.7039 0.0000 0.0000 0.0000
# 4 0.0000 0.0000 0.0000 17.7637 0.0000 0.0000
# 5 0.0000 0.0000 0.0000 0.0000 65.9573 0.0000
# 6 0.0000 0.0000 0.0000 0.0000 0.0000 -138.5392
#
#
#
# Elastic Compliance Matrix: (Units=1/GPa)
#
#
# Indices 1 2 3 4 5 6 
#
# 1 0.011304 -0.007054 0.003028 0.000000 0.000000 0.000000
# 2 -0.007054 0.011755 -0.005664 0.000000 0.000000 0.000000
# 3 0.003028 -0.005664 0.034291 0.000000 0.000000 0.000000
# 4 0.000000 0.000000 0.000000 0.056295 0.000000 0.000000
# 5 0.000000 0.000000 0.000000 0.000000 0.015161 0.000000
# 6 0.000000 0.000000 0.000000 0.000000 0.000000 -0.007218
#
#
# Mechanical properties :
#
#
# Convention : Reuss Voigt Hill
#
# Bulk Modulus (GPa) = 26.33725 58.32119 42.32922
# Shear Modulus (GPa) = 32.54692 3.29704 17.92198
#
# Velocity S-wave (km/s) = 4.01234 1.27704 2.97739
# Velocity P-wave (km/s) = 5.87303 5.56976 5.72341
#
# Compressibility (1/GPa) = 0.03796904
#
# Stress axis : x y z
#
# Youngs Moduli (GPa) = 88.46663 85.06850 29.16241
#
# Poissons Ratio (x) = 0.60008 -0.08831
# Poissons Ratio (y) = 0.62405 0.16518
# Poissons Ratio (z) = -0.26788 0.48185
#
# Static dielectric constant tensor:
#      x y z
#    x 1.745220 0.000000 0.000000 
#    y 0.000000 1.731280 0.000000 
#    z 0.000000 0.000000 1.742040 
# 
# From -- ./inp_files/14026.got.cif
#   From: 2010.05.17/outbox.cif.g08.bks.cpg/sg47_8_cif.got.tgz:14026.got - 2010.06.03 20:15:42.
