data_PCOD9385590
_publ_section_title
;
Structure prediction by ZEFSAII (Michael W. Deem and Ramdas Pophale) SiO2 
 PCOD9385590
Probable space group: P M M M
;
_chemical_formula_sum "Si O2"
_cell_formula_units_Z 40
_cell_length_a 21.521858
_cell_length_b 11.825758
_cell_length_c 9.828331
_cell_angle_alpha 90.000000
_cell_angle_beta 90.000000
_cell_angle_gamma 90.000000
_cell_volume 2501.430975
_symmetry_space_group_name_H-M "P M M M"
_symmetry_group_IT_number 47
_symmetry_cell_setting 'orthorhombic'
loop_
_space_group_symop_operation_xyz
x,y,z
-x,-y,z
x,-y,-z
-x,y,-z
-x,-y,-z
x,y,-z
-x,y,z
x,-y,z
loop_
_atom_site_type_symbol
_atom_site_label
_atom_site_fract_x
_atom_site_fract_y
_atom_site_fract_z
Si Si1 0.425756 0.370043 0.500000
Si Si2 0.118383 0.862995 0.841269
Si Si3 0.574198 0.364116 0.000000
Si Si4 0.629737 0.766565 0.252375
Si Si5 0.574114 0.000000 0.842513
Si Si6 0.760344 0.864114 0.662107
Si Si7 0.000000 0.862118 0.659788
O O1 0.404423 0.500000 0.500000
O O2 0.500000 0.370768 0.500000
O O3 0.400486 0.301426 0.373936
O O4 0.180736 0.835824 0.756973
O O5 0.060115 0.826536 0.747903
O O6 0.115334 0.000000 0.847338
O O7 0.117409 0.824168 0.000000
O O8 0.610730 0.309899 0.874828
O O9 0.576307 0.500000 0.000000
O O10 0.500000 0.331895 0.000000
O O11 0.598434 0.888176 0.229484
O O12 0.701291 0.794057 0.284886
O O13 0.500000 0.000000 0.843120
O O14 0.595992 0.000000 0.000000
O O15 0.771015 0.844048 0.500000
O O16 0.748599 0.000000 0.676148
O O17 0.000000 0.826322 0.500000
O O18 0.000000 0.000000 0.656204
#
# Coordination Sequence:
#
# PCOD9385590 Si02
#       7
#     4   8   4   8   4   8   4
#     4  11  24  41  59  79 103 135 179 230 282 333
#     4   9  17  27  44  66  96 135 181 219 250 299
#     4  11  24  41  59  77  99 135 181 226 276 333
#     4  12  22  37  57  79 106 138 174 223 275 332
#     4  11  22  35  53  79 107 134 169 218 275 331
#     4  10  20  34  47  70 104 140 172 209 265 328
#     4   9  15  25  41  65  95 137 180 219 254 291
#
# _framework density 15.990847
#
# number of rings (size 3 to 8) (size 9 to 14) (size 15 to 20)
#    0.000    1.600    3.000    3.300    1.400    5.600 
#    0.000    1.000    0.000    0.000    0.000    0.000 
#    0.000    0.000    0.000    5.400    0.000    0.700 
#
# Total GULP energy -222980.088495 kJ/mol
# GULP energy per Si atom -5574.502212 kJ/mol
# Density = 1.595445 g / cm^3
# Si number density = 15.990847 Si / 1000 Ang^3
#
#
#
# Elastic Constant Matrix: (Units=GPa)
#
#
# Indices 1 2 3 4 5 6 
#
# 1 132.3711 42.3677 87.2812 0.0000 0.0000 0.0000
# 2 42.3677 80.5350 54.7924 0.0000 0.0000 0.0000
# 3 87.2812 54.7924 187.7998 0.0000 0.0000 0.0000
# 4 0.0000 0.0000 0.0000 34.9251 0.0000 0.0000
# 5 0.0000 0.0000 0.0000 0.0000 28.5665 0.0000
# 6 0.0000 0.0000 0.0000 0.0000 0.0000 7.6397
#
#
#
# Elastic Compliance Matrix: (Units=1/GPa)
#
#
# Indices 1 2 3 4 5 6 
#
# 1 0.011444 -0.002997 -0.004444 0.000000 0.000000 0.000000
# 2 -0.002997 0.016277 -0.003356 0.000000 0.000000 0.000000
# 3 -0.004444 -0.003356 0.008370 0.000000 0.000000 0.000000
# 4 0.000000 0.000000 0.000000 0.028633 0.000000 0.000000
# 5 0.000000 0.000000 0.000000 0.000000 0.035006 0.000000
# 6 0.000000 0.000000 0.000000 0.000000 0.000000 0.130896
#
#
# Mechanical properties :
#
#
# Convention : Reuss Voigt Hill
#
# Bulk Modulus (GPa) = 68.98482 85.50986 77.24734
# Shear Modulus (GPa) = 19.45134 28.64390 24.04762
#
# Velocity S-wave (km/s) = 3.49148 4.23693 3.88214
# Velocity P-wave (km/s) = 7.71283 8.80487 8.27688
#
# Compressibility (1/GPa) = 0.01449594
#
# Stress axis : x y z
#
# Youngs Moduli (GPa) = 87.38048 61.43687 119.48007
#
# Poissons Ratio (x) = 0.18411 0.53102
# Poissons Ratio (y) = 0.26186 0.40100
# Poissons Ratio (z) = 0.38836 0.20619
#
# Static dielectric constant tensor:
#      x y z
#    x 1.539500 0.000000 0.000000 
#    y 0.000000 1.494200 0.000000 
#    z 0.000000 0.000000 1.519680 
# 
# From -- ./inp_files/10759.got.cif
#   From: 2010.05.17/outbox.cif.g08.bks.cpg/sg47_6_cif.got.tgz:10759.got - 2010.06.03 20:15:42.
