data_PCOD9385591
_publ_section_title
;
Structure prediction by ZEFSAII (Michael W. Deem and Ramdas Pophale) SiO2 
 PCOD9385591
Probable space group: P M M M
;
_chemical_formula_sum "Si O2"
_cell_formula_units_Z 40
_cell_length_a 7.427051
_cell_length_b 30.594457
_cell_length_c 7.940495
_cell_angle_alpha 90.000000
_cell_angle_beta 90.000000
_cell_angle_gamma 90.000000
_cell_volume 1804.291621
_symmetry_space_group_name_H-M "P M M M"
_symmetry_group_IT_number 47
_symmetry_cell_setting 'orthorhombic'
loop_
_space_group_symop_operation_xyz
x,y,z
-x,-y,z
x,-y,-z
-x,y,-z
-x,-y,-z
x,y,-z
-x,y,z
x,-y,z
loop_
_atom_site_type_symbol
_atom_site_label
_atom_site_fract_x
_atom_site_fract_y
_atom_site_fract_z
Si Si1 0.214132 0.199028 0.500000
Si Si2 0.789172 0.143663 0.191681
Si Si3 0.283207 0.698486 0.500000
Si Si4 0.718672 0.547669 0.698363
Si Si5 0.283487 0.953119 0.198455
Si Si6 0.279964 0.358068 0.184310
O O1 0.287948 0.176573 0.669882
O O2 0.237999 0.250754 0.500000
O O3 0.000000 0.189968 0.500000
O O4 0.776394 0.094011 0.261479
O O5 0.000000 0.153659 0.174544
O O6 0.712891 0.145141 0.000000
O O7 0.500000 0.695196 0.500000
O O8 0.218663 0.672888 0.665291
O O9 0.763455 0.550806 0.500000
O O10 0.500000 0.547424 0.708732
O O11 0.779854 0.500000 0.760963
O O12 0.779156 0.591853 0.787010
O O13 0.500000 0.953109 0.207887
O O14 0.221472 0.000000 0.270407
O O15 0.232962 0.953308 0.000000
O O16 0.500000 0.358596 0.188913
O O17 0.225079 0.342678 0.000000
#
# Coordination Sequence:
#
# PCOD9385591 Si02
#       6
#     4   8   4   8   8   8
#     4  10  22  38  53  70  93 120 154 200 247 286
#     4   9  18  33  52  72  94 122 157 195 234 277
#     4  10  20  34  49  67  91 118 152 195 239 284
#     4   8  12  19  33  54  85 125 159 184 218 269
#     4   8  14  26  46  73 104 134 160 188 225 270
#     4   9  16  26  41  62  90 122 154 190 232 277
#
# _framework density 22.169366
#
# number of rings (size 3 to 8) (size 9 to 14) (size 15 to 20)
#    0.000    3.200    1.000    1.200    0.000    2.400 
#    0.000    4.500    0.000    3.000    0.000    0.000 
#    0.000    1.600    0.000    1.800    0.000    2.000 
#
# Total GULP energy -223081.936436 kJ/mol
# GULP energy per Si atom -5577.048411 kJ/mol
# Density = 2.211891 g / cm^3
# Si number density = 22.169366 Si / 1000 Ang^3
#
#
#
# Elastic Constant Matrix: (Units=GPa)
#
#
# Indices 1 2 3 4 5 6 
#
# 1 66.3486 -4.9099 7.5541 0.0000 0.0000 0.0000
# 2 -4.9099 190.1384 107.8747 0.0000 0.0000 0.0000
# 3 7.5541 107.8747 144.5176 0.0000 0.0000 0.0000
# 4 0.0000 0.0000 0.0000 -10.3941 0.0000 0.0000
# 5 0.0000 0.0000 0.0000 0.0000 -9.2186 0.0000
# 6 0.0000 0.0000 0.0000 0.0000 0.0000 19.9042
#
#
#
# Elastic Compliance Matrix: (Units=1/GPa)
#
#
# Indices 1 2 3 4 5 6 
#
# 1 0.015399 0.001482 -0.001911 0.000000 0.000000 0.000000
# 2 0.001482 0.009265 -0.006994 0.000000 0.000000 0.000000
# 3 -0.001911 -0.006994 0.012240 0.000000 0.000000 0.000000
# 4 0.000000 0.000000 0.000000 -0.096209 0.000000 0.000000
# 5 0.000000 0.000000 0.000000 0.000000 -0.108476 0.000000
# 6 0.000000 0.000000 0.000000 0.000000 0.000000 0.050241
#
#
# Mechanical properties :
#
#
# Convention : Reuss Voigt Hill
#
# Bulk Modulus (GPa) = 45.33334 69.11581 57.22457
# Shear Modulus (GPa) = -52.44305 19.42403 -16.50951
#
# Velocity S-wave (km/s) = -4.86898 2.96322 -2.73188
# Velocity P-wave (km/s) = 3.33411 6.55374 3.98969
#
# Compressibility (1/GPa) = 0.02205882
#
# Stress axis : x y z
#
# Youngs Moduli (GPa) = 64.93858 107.92862 81.70070
#
# Poissons Ratio (x) = -0.15994 0.15614
# Poissons Ratio (y) = -0.09623 0.57138
# Poissons Ratio (z) = 0.12410 0.75481
#
# Static dielectric constant tensor:
#      x y z
#    x 1.846620 0.000000 0.000000 
#    y 0.000000 1.790120 0.000000 
#    z 0.000000 0.000000 1.828340 
# 
# From -- ./inp_files/1804.got.cif
#   From: 2010.05.17/outbox.cif.g08.bks.cpg/sg47_1_cif.got.tgz:1804.got - 2010.06.03 20:15:42.
