data_PCOD9385564
_publ_section_title
;
Structure prediction by ZEFSAII (Michael W. Deem and Ramdas Pophale) SiO2 
 PCOD9385564
Probable space group: P M M M
;
_chemical_formula_sum "Si O2"
_cell_formula_units_Z 48
_cell_length_a 16.041598
_cell_length_b 8.448606
_cell_length_c 17.323500
_cell_angle_alpha 90.000000
_cell_angle_beta 90.000000
_cell_angle_gamma 90.000000
_cell_volume 2347.839076
_symmetry_space_group_name_H-M "P M M M"
_symmetry_group_IT_number 47
_symmetry_cell_setting 'orthorhombic'
loop_
_space_group_symop_operation_xyz
x,y,z
-x,-y,z
x,-y,-z
-x,y,-z
-x,-y,-z
x,y,-z
-x,y,z
x,-y,z
loop_
_atom_site_type_symbol
_atom_site_label
_atom_site_fract_x
_atom_site_fract_y
_atom_site_fract_z
Si Si1 0.000000 0.312667 0.087316
Si Si2 0.405214 0.193172 0.410452
Si Si3 0.907556 0.313385 0.592503
Si Si4 0.401398 0.500000 0.910823
Si Si5 0.167261 0.816528 0.841447
Si Si6 0.753764 0.812001 0.316181
Si Si7 0.661452 0.172691 0.910864
O O1 0.916810 0.264089 0.132119
O O2 0.000000 0.500000 0.081051
O O3 0.000000 0.243887 0.000000
O O4 0.389014 0.239250 0.500000
O O5 0.500000 0.241685 0.390258
O O6 0.331736 0.250573 0.354033
O O7 0.403974 0.000000 0.409357
O O8 0.906563 0.300657 0.500000
O O9 0.898663 0.500000 0.611675
O O10 0.830900 0.218795 0.626981
O O11 0.000000 0.261585 0.619674
O O12 0.500000 0.500000 0.914890
O O13 0.374052 0.666863 0.874931
O O14 0.367566 0.500000 0.000000
O O15 0.213612 0.748312 0.765880
O O16 0.238840 0.813568 0.906273
O O17 0.146817 0.000000 0.825452
O O18 0.741093 0.000000 0.305916
O O19 0.639556 0.000000 0.875654
O O20 0.633325 0.168126 0.000000
#
# Coordination Sequence:
#
# PCOD9385564 Si02
#       7
#     4   8   8   4   8   8   8
#     4  11  25  41  61  87 108 141 196 241 277 342
#     4   8  14  27  50  80 112 146 186 233 281 326
#     4   9  19  35  52  72 103 145 189 228 273 331
#     4   9  18  32  54  83 111 141 180 232 287 341
#     4  10  22  38  55  81 116 148 181 230 294 351
#     4  10  20  33  53  82 113 143 185 234 281 336
#     4   9  18  34  56  79 108 148 191 235 286 347
#
# _framework density 20.444330000000001
#
# number of rings (size 3 to 8) (size 9 to 14) (size 15 to 20)
#    0.000    2.667    0.000    2.250    2.333    3.667 
#    0.000    3.333    0.000    3.500    0.000    2.333 
#    0.000    0.000    0.000    0.000    0.000    0.000 
#
# Total GULP energy -267463.909149 kJ/mol
# GULP energy per Si atom -5572.164774 kJ/mol
# Density = 2.039780 g / cm^3
# Si number density = 20.444330 Si / 1000 Ang^3
#
#
#
# Elastic Constant Matrix: (Units=GPa)
#
#
# Indices 1 2 3 4 5 6 
#
# 1 132.9095 37.4696 59.0290 0.0000 0.0000 0.0000
# 2 37.4696 75.3486 12.4771 0.0000 0.0000 0.0000
# 3 59.0290 12.4771 74.8130 0.0000 0.0000 0.0000
# 4 0.0000 0.0000 0.0000 7.9204 0.0000 0.0000
# 5 0.0000 0.0000 0.0000 0.0000 11.2711 0.0000
# 6 0.0000 0.0000 0.0000 0.0000 0.0000 21.4761
#
#
#
# Elastic Compliance Matrix: (Units=1/GPa)
#
#
# Indices 1 2 3 4 5 6 
#
# 1 0.013172 -0.004966 -0.009565 0.000000 0.000000 0.000000
# 2 -0.004966 0.015521 0.001330 0.000000 0.000000 0.000000
# 3 -0.009565 0.001330 0.020692 0.000000 0.000000 0.000000
# 4 0.000000 0.000000 0.000000 0.126257 0.000000 0.000000
# 5 0.000000 0.000000 0.000000 0.000000 0.088723 0.000000
# 6 0.000000 0.000000 0.000000 0.000000 0.000000 0.046563
#
#
# Mechanical properties :
#
#
# Convention : Reuss Voigt Hill
#
# Bulk Modulus (GPa) = 43.51125 55.66915 49.59020
# Shear Modulus (GPa) = 14.49314 19.73986 17.11650
#
# Velocity S-wave (km/s) = 2.66542 3.11069 2.89662
# Velocity P-wave (km/s) = 5.54992 6.33960 5.95786
#
# Compressibility (1/GPa) = 0.02298256
#
# Stress axis : x y z
#
# Youngs Moduli (GPa) = 75.91874 64.42839 48.32882
#
# Poissons Ratio (x) = 0.31998 0.46225
# Poissons Ratio (y) = 0.37704 -0.06428
# Poissons Ratio (z) = 0.72614 -0.08569
#
# Static dielectric constant tensor:
#      x y z
#    x 1.708920 0.000000 0.000000 
#    y 0.000000 1.755910 0.000000 
#    z 0.000000 0.000000 1.767910 
# 
# From -- ./inp_files/28028.got.cif
#   From: 2010.05.17/outbox.cif.g08.bks.cpg/sg47_15_cif.got.tgz:28028.got - 2010.06.03 20:15:42.
