data_PCOD9385338
_publ_section_title
;
Structure prediction by ZEFSAII (Michael W. Deem and Ramdas Pophale) SiO2 
 PCOD9385338
Probable space group: P M M M
;
_chemical_formula_sum "Si O2"
_cell_formula_units_Z 64
_cell_length_a 20.050320
_cell_length_b 20.019354
_cell_length_c 9.035894
_cell_angle_alpha 90.000000
_cell_angle_beta 90.000000
_cell_angle_gamma 90.000000
_cell_volume 3626.957738
_symmetry_space_group_name_H-M "P M M M"
_symmetry_group_IT_number 47
_symmetry_cell_setting 'orthorhombic'
loop_
_space_group_symop_operation_xyz
x,y,z
-x,-y,z
x,-y,-z
-x,y,-z
-x,-y,-z
x,y,-z
-x,y,z
x,-y,z
loop_
_atom_site_type_symbol
_atom_site_label
_atom_site_fract_x
_atom_site_fract_y
_atom_site_fract_z
Si Si1 0.691505 0.315607 0.333941
Si Si2 0.074945 0.282063 0.176057
Si Si3 0.195528 0.798146 0.673333
Si Si4 0.101830 0.575687 0.675858
Si Si5 0.759505 0.574180 0.833291
Si Si6 0.282800 0.925006 0.322450
Si Si7 0.575519 0.741483 0.835289
Si Si8 0.425462 0.901898 0.171957
O O1 0.694562 0.342505 0.500000
O O2 0.747052 0.258128 0.319917
O O3 0.707395 0.371412 0.214631
O O4 0.620977 0.284677 0.294747
O O5 0.131909 0.233965 0.243832
O O6 0.076344 0.357093 0.245356
O O7 0.000000 0.255437 0.202334
O O8 0.085612 0.287798 0.000000
O O9 0.177690 0.807780 0.500000
O O10 0.231938 0.866337 0.728668
O O11 0.091185 0.581299 0.500000
O O12 0.078675 0.500000 0.720794
O O13 0.179773 0.577140 0.718303
O O14 0.730999 0.500000 0.829265
O O15 0.785526 0.585984 0.000000
O O16 0.288763 0.916743 0.500000
O O17 0.357739 0.921039 0.256249
O O18 0.257220 0.000000 0.291475
O O19 0.500000 0.717071 0.824551
O O20 0.574168 0.821529 0.827271
O O21 0.601844 0.724247 0.000000
O O22 0.500000 0.922757 0.226571
O O23 0.420415 0.922838 0.000000
#
# Coordination Sequence:
#
# PCOD9385338 Si02
#       8
#     8   8   8   8   8   8   8   8
#     4  11  20  31  53  81 106 137 178 225 272 317
#     4  11  24  39  57  82 110 143 181 221 268 319
#     4  10  21  37  56  81 108 138 178 221 267 319
#     4  10  20  34  53  79 112 148 183 217 257 309
#     4  10  20  33  51  76 106 141 179 219 265 315
#     4  10  21  37  56  79 109 143 180 223 269 318
#     4   9  18  32  50  74 105 142 182 222 267 317
#     4   9  18  32  50  75 109 147 184 219 257 309
#
# _framework density 17.645641999999999
#
# number of rings (size 3 to 8) (size 9 to 14) (size 15 to 20)
#    0.000    2.000    2.500    2.250    0.000    4.750 
#    0.000    3.750    0.000    0.750    0.000    5.250 
#    0.000    0.000    0.000    0.000    0.000    0.000 
#
# Total GULP energy -356614.121963 kJ/mol
# GULP energy per Si atom -5572.095656 kJ/mol
# Density = 1.760548 g / cm^3
# Si number density = 17.645642 Si / 1000 Ang^3
#
#
#
# Elastic Constant Matrix: (Units=GPa)
#
#
# Indices 1 2 3 4 5 6 
#
# 1 94.7059 53.6446 39.7927 0.0000 0.0000 0.0000
# 2 53.6446 90.0416 35.0424 0.0000 0.0000 0.0000
# 3 39.7927 35.0424 54.3126 0.0000 0.0000 0.0000
# 4 0.0000 0.0000 0.0000 14.1977 0.0000 0.0000
# 5 0.0000 0.0000 0.0000 0.0000 60.5581 0.0000
# 6 0.0000 0.0000 0.0000 0.0000 0.0000 13.2684
#
#
#
# Elastic Compliance Matrix: (Units=1/GPa)
#
#
# Indices 1 2 3 4 5 6 
#
# 1 0.018536 -0.007689 -0.008620 0.000000 0.000000 0.000000
# 2 -0.007689 0.018019 -0.005993 0.000000 0.000000 0.000000
# 3 -0.008620 -0.005993 0.028594 0.000000 0.000000 0.000000
# 4 0.000000 0.000000 0.000000 0.070434 0.000000 0.000000
# 5 0.000000 0.000000 0.000000 0.000000 0.016513 0.000000
# 6 0.000000 0.000000 0.000000 0.000000 0.000000 0.075367
#
#
# Mechanical properties :
#
#
# Convention : Reuss Voigt Hill
#
# Bulk Modulus (GPa) = 48.67026 55.11328 51.89177
# Shear Modulus (GPa) = 17.92674 24.97688 21.45181
#
# Velocity S-wave (km/s) = 3.19082 3.76636 3.49047
# Velocity P-wave (km/s) = 6.42005 7.08626 6.76137
#
# Compressibility (1/GPa) = 0.02054643
#
# Stress axis : x y z
#
# Youngs Moduli (GPa) = 53.94953 55.49754 34.97263
#
# Poissons Ratio (x) = 0.42669 0.30146
# Poissons Ratio (y) = 0.41479 0.20958
# Poissons Ratio (z) = 0.46504 0.33258
#
# Static dielectric constant tensor:
#      x y z
#    x 1.599120 0.000000 0.000000 
#    y 0.000000 1.619960 0.000000 
#    z 0.000000 0.000000 1.613770 
# 
# From -- ./inp_files/9991.got.cif
#   From: 2010.05.17/outbox.cif.g08.bks.cpg/sg47_5_cif.got.tgz:9991.got - 2010.06.03 20:15:42.
