data_PCOD9385857
_publ_section_title
;
Structure prediction by ZEFSAII (Michael W. Deem and Ramdas Pophale) SiO2 
 PCOD9385857
Probable space group: P M M M
;
_chemical_formula_sum "Si O2"
_cell_formula_units_Z 56
_cell_length_a 14.378370
_cell_length_b 23.658029
_cell_length_c 9.584937
_cell_angle_alpha 90.000000
_cell_angle_beta 90.000000
_cell_angle_gamma 90.000000
_cell_volume 3260.449498
_symmetry_space_group_name_H-M "P M M M"
_symmetry_group_IT_number 47
_symmetry_cell_setting 'orthorhombic'
loop_
_space_group_symop_operation_xyz
x,y,z
-x,-y,z
x,-y,-z
-x,y,-z
-x,-y,-z
x,y,-z
-x,y,z
x,-y,z
loop_
_atom_site_type_symbol
_atom_site_label
_atom_site_fract_x
_atom_site_fract_y
_atom_site_fract_z
Si Si1 0.785787 0.708300 0.832369
Si Si2 0.886935 0.500000 0.837445
Si Si3 0.802910 0.838574 0.154134
Si Si4 0.394133 0.722593 0.658919
Si Si5 0.605789 0.148267 0.744762
Si Si6 0.887756 0.611181 0.336627
Si Si7 0.387869 0.936953 0.500000
Si Si8 0.887898 0.937175 0.663143
O O1 0.816790 0.773178 0.803745
O O2 0.681553 0.702741 0.770379
O O3 0.848306 0.664641 0.746991
O O4 0.788419 0.699835 0.000000
O O5 0.858599 0.444620 0.749995
O O6 0.000000 0.500000 0.840864
O O7 0.856052 0.500000 0.000000
O O8 0.691270 0.847124 0.150882
O O9 0.845620 0.884867 0.255142
O O10 0.842295 0.846417 0.000000
O O11 0.369154 0.706554 0.500000
O O12 0.500000 0.703798 0.687762
O O13 0.395544 0.791039 0.667802
O O14 0.500000 0.138611 0.797060
O O15 0.633110 0.099419 0.636303
O O16 0.858816 0.609723 0.500000
O O17 0.000000 0.612928 0.335577
O O18 0.500000 0.940957 0.500000
O O19 0.348785 0.000000 0.500000
O O20 0.863003 0.933019 0.500000
O O21 0.000000 0.934995 0.672434
O O22 0.858719 0.000000 0.713615
#
# Coordination Sequence:
#
# PCOD9385857 Si02
#       8
#     8   4   8   8   8   8   4   8
#     4  10  21  34  48  72 107 141 172 209 256 310
#     4   9  17  31  53  79 108 143 178 211 251 301
#     4  10  22  35  50  75 102 131 165 204 254 309
#     4   9  16  29  50  71  94 128 170 214 257 300
#     4   9  17  30  47  68  97 129 160 196 241 296
#     4  10  20  34  53  78 108 142 180 218 254 296
#     4   9  16  26  42  66  91 117 155 198 240 289
#     4   9  20  39  59  75  90 115 158 210 259 307
#
# _framework density 17.175545
#
# number of rings (size 3 to 8) (size 9 to 14) (size 15 to 20)
#    0.000    2.571    0.714    1.500    1.000    5.143 
#    0.000    6.429    0.000    0.000    0.000    3.500 
#    0.000    4.000    0.000    0.000    0.000    0.000 
#
# Total GULP energy -312006.389764 kJ/mol
# GULP energy per Si atom -5571.542674 kJ/mol
# Density = 1.713645 g / cm^3
# Si number density = 17.175545 Si / 1000 Ang^3
#
#
#
# Elastic Constant Matrix: (Units=GPa)
#
#
# Indices 1 2 3 4 5 6 
#
# 1 36.8391 38.6100 37.1229 0.0000 0.0000 0.0000
# 2 38.6100 124.0870 78.0698 0.0000 0.0000 0.0000
# 3 37.1229 78.0698 118.1293 0.0000 0.0000 0.0000
# 4 0.0000 0.0000 0.0000 18.7173 0.0000 0.0000
# 5 0.0000 0.0000 0.0000 0.0000 8.2873 0.0000
# 6 0.0000 0.0000 0.0000 0.0000 0.0000 9.4849
#
#
#
# Elastic Compliance Matrix: (Units=1/GPa)
#
#
# Indices 1 2 3 4 5 6 
#
# 1 0.044564 -0.008653 -0.008286 0.000000 0.000000 0.000000
# 2 -0.008653 0.015475 -0.007508 0.000000 0.000000 0.000000
# 3 -0.008286 -0.007508 0.016031 0.000000 0.000000 0.000000
# 4 0.000000 0.000000 0.000000 0.053427 0.000000 0.000000
# 5 0.000000 0.000000 0.000000 0.000000 0.120667 0.000000
# 6 0.000000 0.000000 0.000000 0.000000 0.000000 0.105431
#
#
# Mechanical properties :
#
#
# Convention : Reuss Voigt Hill
#
# Bulk Modulus (GPa) = 36.79690 65.18455 50.99073
# Shear Modulus (GPa) = 12.09056 15.64807 13.86931
#
# Velocity S-wave (km/s) = 2.65607 3.02166 2.84474
# Velocity P-wave (km/s) = 5.55669 7.08578 6.36730
#
# Compressibility (1/GPa) = 0.02717620
#
# Stress axis : x y z
#
# Youngs Moduli (GPa) = 22.43980 64.62092 62.37947
#
# Poissons Ratio (x) = 0.55917 0.51686
# Poissons Ratio (y) = 0.19417 0.46833
# Poissons Ratio (z) = 0.18593 0.48516
#
# Static dielectric constant tensor:
#      x y z
#    x 1.599390 0.000000 0.000000 
#    y 0.000000 1.572570 0.000000 
#    z 0.000000 0.000000 1.579290 
# 
# From -- ./inp_files/7387.got.cif
#   From: 2010.05.17/outbox.cif.g08.bks.cpg/sg47_4_cif.got.tgz:7387.got - 2010.06.03 20:15:42.
