data_PCOD9385861
_publ_section_title
;
Structure prediction by ZEFSAII (Michael W. Deem and Ramdas Pophale) SiO2 
 PCOD9385861
Probable space group: P M M M
;
_chemical_formula_sum "Si O2"
_cell_formula_units_Z 40
_cell_length_a 8.741926
_cell_length_b 20.405940
_cell_length_c 12.761671
_cell_angle_alpha 90.000000
_cell_angle_beta 90.000000
_cell_angle_gamma 90.000000
_cell_volume 2276.518980
_symmetry_space_group_name_H-M "P M M M"
_symmetry_group_IT_number 47
_symmetry_cell_setting 'orthorhombic'
loop_
_space_group_symop_operation_xyz
x,y,z
-x,-y,z
x,-y,-z
-x,y,-z
-x,-y,-z
x,y,-z
-x,y,z
x,-y,z
loop_
_atom_site_type_symbol
_atom_site_label
_atom_site_fract_x
_atom_site_fract_y
_atom_site_fract_z
Si Si1 0.814840 0.109175 0.728352
Si Si2 0.683441 0.000000 0.877379
Si Si3 0.676152 0.500000 0.127128
Si Si4 0.824397 0.100605 0.500000
Si Si5 0.817730 0.361174 0.124207
Si Si6 0.682014 0.745298 0.721011
Si Si7 0.823786 0.740176 0.500000
O O1 0.751951 0.062972 0.818662
O O2 0.758781 0.083284 0.613633
O O3 0.757461 0.183526 0.740270
O O4 0.000000 0.108752 0.727030
O O5 0.500000 0.000000 0.867838
O O6 0.723137 0.000000 0.000000
O O7 0.500000 0.500000 0.161969
O O8 0.759934 0.433094 0.158272
O O9 0.676817 0.500000 0.000000
O O10 0.825511 0.180090 0.500000
O O11 0.000000 0.077632 0.500000
O O12 0.735704 0.305501 0.191201
O O13 0.000000 0.356589 0.137771
O O14 0.784136 0.353777 0.000000
O O15 0.500000 0.752149 0.719965
O O16 0.740306 0.721228 0.607093
O O17 0.000000 0.718373 0.500000
#
# Coordination Sequence:
#
# PCOD9385861 Si02
#       7
#     8   4   4   4   8   8   4
#     4  10  20  37  59  80 104 136 175 217 264 321
#     4  11  25  42  55  72 104 143 180 221 269 317
#     4   9  17  31  51  76 107 140 175 221 274 319
#     4   7  14  30  54  81 103 124 157 208 261 305
#     4  10  20  34  53  78 108 144 184 222 264 318
#     4  11  21  34  55  83 112 141 177 222 270 316
#     4   9  17  33  54  77 108 143 178 216 262 316
#
# _framework density 17.570685000000001
#
# number of rings (size 3 to 8) (size 9 to 14) (size 15 to 20)
#    0.000    2.200    0.000    5.100    0.000    4.400 
#    0.000    3.500    0.000    0.600    0.000    4.200 
#    0.000    0.000    0.000    0.000    0.000    0.000 
#
# Total GULP energy -223174.916038 kJ/mol
# GULP energy per Si atom -5579.372901 kJ/mol
# Density = 1.753069 g / cm^3
# Si number density = 17.570685 Si / 1000 Ang^3
#
#
#
# Elastic Constant Matrix: (Units=GPa)
#
#
# Indices 1 2 3 4 5 6 
#
# 1 100.8869 43.1873 64.3594 0.0000 0.0000 0.0000
# 2 43.1873 98.5623 66.4091 0.0000 0.0000 0.0000
# 3 64.3594 66.4091 126.6703 0.0000 0.0000 0.0000
# 4 0.0000 0.0000 0.0000 -253.2895 0.0000 0.0000
# 5 0.0000 0.0000 0.0000 0.0000 27.1916 0.0000
# 6 0.0000 0.0000 0.0000 0.0000 0.0000 29.1008
#
#
#
# Elastic Compliance Matrix: (Units=1/GPa)
#
#
# Indices 1 2 3 4 5 6 
#
# 1 0.014973 -0.002219 -0.006444 0.000000 0.000000 0.000000
# 2 -0.002219 0.016016 -0.007269 0.000000 0.000000 0.000000
# 3 -0.006444 -0.007269 0.014980 0.000000 0.000000 0.000000
# 4 0.000000 0.000000 0.000000 -0.003948 0.000000 0.000000
# 5 0.000000 0.000000 0.000000 0.000000 0.036776 0.000000
# 6 0.000000 0.000000 0.000000 0.000000 0.000000 0.034363
#
#
# Mechanical properties :
#
#
# Convention : Reuss Voigt Hill
#
# Bulk Modulus (GPa) = 70.90187 74.89232 72.89710
# Shear Modulus (GPa) = 33.39428 -29.25516 2.06956
#
# Velocity S-wave (km/s) = 4.36428 -4.08487 1.08646
# Velocity P-wave (km/s) = 8.11393 4.52414 6.56901
#
# Compressibility (1/GPa) = 0.01410400
#
# Stress axis : x y z
#
# Youngs Moduli (GPa) = 66.78715 62.43772 66.75614
#
# Poissons Ratio (x) = 0.13853 0.43020
# Poissons Ratio (y) = 0.14818 0.48528
# Poissons Ratio (z) = 0.43040 0.45388
#
# Static dielectric constant tensor:
#      x y z
#    x 1.588250 0.000000 0.000000 
#    y 0.000000 1.582010 0.000000 
#    z 0.000000 0.000000 1.604580 
# 
# From -- ./inp_files/15159.got.cif
#   From: 2010.05.17/outbox.cif.g08.bks.cpg/sg47_8_cif.got.tgz:15159.got - 2010.06.03 20:15:42.
