data_PCOD9385252
_publ_section_title
;
Structure prediction by ZEFSAII (Michael W. Deem and Ramdas Pophale) SiO2 
 PCOD9385252
Probable space group: P M M M
;
_chemical_formula_sum "Si O2"
_cell_formula_units_Z 64
_cell_length_a 7.772493
_cell_length_b 21.758894
_cell_length_c 20.052000
_cell_angle_alpha 90.000000
_cell_angle_beta 90.000000
_cell_angle_gamma 90.000000
_cell_volume 3391.211310
_symmetry_space_group_name_H-M "P M M M"
_symmetry_group_IT_number 47
_symmetry_cell_setting 'orthorhombic'
loop_
_space_group_symop_operation_xyz
x,y,z
-x,-y,z
x,-y,-z
-x,y,-z
-x,-y,-z
x,y,-z
-x,y,z
x,-y,z
loop_
_atom_site_type_symbol
_atom_site_label
_atom_site_fract_x
_atom_site_fract_y
_atom_site_fract_z
Si Si1 0.201098 0.311943 0.713164
Si Si2 0.289902 0.626004 0.073981
Si Si3 0.203504 0.066741 0.715092
Si Si4 0.707766 0.769101 0.074225
Si Si5 0.705126 0.432600 0.209773
Si Si6 0.708174 0.116180 0.574733
Si Si7 0.796164 0.189359 0.783712
Si Si8 0.707760 0.258900 0.574573
O O1 0.267484 0.376680 0.739654
O O2 0.277728 0.252178 0.751407
O O3 0.227896 0.299850 0.635076
O O4 0.000000 0.312789 0.728239
O O5 0.500000 0.624745 0.074198
O O6 0.240237 0.697541 0.082668
O O7 0.227082 0.587479 0.136898
O O8 0.235185 0.605623 0.000000
O O9 0.224101 0.077296 0.636080
O O10 0.277011 0.127089 0.751589
O O11 0.000000 0.065043 0.730183
O O12 0.277074 0.000000 0.733431
O O13 0.500000 0.770473 0.075527
O O14 0.772955 0.806858 0.137111
O O15 0.763389 0.788881 0.000000
O O16 0.500000 0.437412 0.202574
O O17 0.771462 0.500000 0.229636
O O18 0.762140 0.097538 0.500000
O O19 0.500000 0.114159 0.576301
O O20 0.760511 0.187629 0.584847
O O21 0.000000 0.189532 0.768403
O O22 0.763407 0.277218 0.500000
O O23 0.500000 0.259733 0.575672
#
# Coordination Sequence:
#
# PCOD9385252 Si02
#       8
#     8   8   8   8   8   8   8   8
#     4  11  21  33  52  77 104 135 171 212 254 298
#     4   8  14  26  45  71 101 130 164 204 243 288
#     4  10  21  36  51  70 101 138 175 214 253 298
#     4   9  17  30  51  77 101 128 164 208 257 302
#     4  10  20  33  51  75 103 138 176 210 250 302
#     4   9  18  32  50  74 104 136 169 206 250 301
#     4  10  20  33  50  75 101 131 171 211 254 299
#     4   9  18  33  54  79 104 131 166 209 255 301
#
# _framework density 18.872312000000001
#
# number of rings (size 3 to 8) (size 9 to 14) (size 15 to 20)
#    0.000    2.500    2.500    1.875    0.000    2.750 
#    0.000    3.750    0.000    1.125    0.000    6.125 
#    0.000    0.000    0.000    0.000    0.000    0.000 
#
# Total GULP energy -356951.012262 kJ/mol
# GULP energy per Si atom -5577.359567 kJ/mol
# Density = 1.882936 g / cm^3
# Si number density = 18.872312 Si / 1000 Ang^3
#
#
#
# Elastic Constant Matrix: (Units=GPa)
#
#
# Indices 1 2 3 4 5 6 
#
# 1 20.9464 8.2499 -8.2450 0.0000 0.0000 0.0000
# 2 8.2499 134.5532 73.2765 0.0000 0.0000 0.0000
# 3 -8.2450 73.2765 102.2624 0.0000 0.0000 0.0000
# 4 0.0000 0.0000 0.0000 15.9771 0.0000 0.0000
# 5 0.0000 0.0000 0.0000 0.0000 29.5487 0.0000
# 6 0.0000 0.0000 0.0000 0.0000 0.0000 9.5438
#
#
#
# Elastic Compliance Matrix: (Units=1/GPa)
#
#
# Indices 1 2 3 4 5 6 
#
# 1 0.056058 -0.009673 0.011451 0.000000 0.000000 0.000000
# 2 -0.009673 0.013857 -0.010710 0.000000 0.000000 0.000000
# 3 0.011451 -0.010710 0.018376 0.000000 0.000000 0.000000
# 4 0.000000 0.000000 0.000000 0.062590 0.000000 0.000000
# 5 0.000000 0.000000 0.000000 0.000000 0.033842 0.000000
# 6 0.000000 0.000000 0.000000 0.000000 0.000000 0.104780
#
#
# Mechanical properties :
#
#
# Convention : Reuss Voigt Hill
#
# Bulk Modulus (GPa) = 14.19882 44.92500 29.56191
# Shear Modulus (GPa) = 15.11289 23.31262 19.21275
#
# Velocity S-wave (km/s) = 2.83291 3.51847 3.19413
# Velocity P-wave (km/s) = 4.27088 6.35315 5.41309
#
# Compressibility (1/GPa) = 0.07042839
#
# Stress axis : x y z
#
# Youngs Moduli (GPa) = 17.83857 72.16345 54.41886
#
# Poissons Ratio (x) = 0.69806 -0.62316
# Poissons Ratio (y) = 0.17256 0.58280
# Poissons Ratio (z) = -0.20427 0.77284
#
# Static dielectric constant tensor:
#      x y z
#    x 1.695110 0.000000 0.000000 
#    y 0.000000 1.670750 0.000000 
#    z 0.000000 0.000000 1.651710 
# 
# From -- ./inp_files/9919.got.cif
#   From: 2010.05.17/outbox.cif.g08.bks.cpg/sg47_5_cif.got.tgz:9919.got - 2010.06.03 20:15:42.
