data_PCOD9385715
_publ_section_title
;
Structure prediction by ZEFSAII (Michael W. Deem and Ramdas Pophale) SiO2 
 PCOD9385715
Probable space group: P M M M
;
_chemical_formula_sum "Si O2"
_cell_formula_units_Z 52
_cell_length_a 11.973545
_cell_length_b 8.904868
_cell_length_c 28.883824
_cell_angle_alpha 90.000000
_cell_angle_beta 90.000000
_cell_angle_gamma 90.000000
_cell_volume 3079.675279
_symmetry_space_group_name_H-M "P M M M"
_symmetry_group_IT_number 47
_symmetry_cell_setting 'orthorhombic'
loop_
_space_group_symop_operation_xyz
x,y,z
-x,-y,z
x,-y,-z
-x,y,-z
-x,-y,-z
x,y,-z
-x,y,z
x,-y,z
loop_
_atom_site_type_symbol
_atom_site_label
_atom_site_fract_x
_atom_site_fract_y
_atom_site_fract_z
Si Si1 0.000000 0.321586 0.405517
Si Si2 0.000000 0.820246 0.696969
Si Si3 0.231446 0.678753 0.275753
Si Si4 0.366946 0.178255 0.192074
Si Si5 0.369052 0.179284 0.640618
Si Si6 0.363795 0.173790 0.000000
Si Si7 0.364306 0.672441 0.904679
Si Si8 0.219881 0.821267 0.552835
O O1 0.000000 0.240392 0.355743
O O2 0.109763 0.268933 0.432836
O O3 0.000000 0.500000 0.398827
O O4 0.111152 0.757228 0.720873
O O5 0.000000 0.000000 0.696573
O O6 0.219044 0.500000 0.275743
O O7 0.298518 0.734611 0.230928
O O8 0.301197 0.731622 0.320646
O O9 0.500000 0.207328 0.197873
O O10 0.333899 0.233746 0.140834
O O11 0.349875 0.000000 0.196637
O O12 0.500000 0.214897 0.642059
O O13 0.315583 0.209818 0.590458
O O14 0.356505 0.000000 0.649712
O O15 0.326554 0.255095 0.047014
O O16 0.500000 0.177699 0.000000
O O17 0.330731 0.000000 0.000000
O O18 0.500000 0.672402 0.906095
O O19 0.327797 0.500000 0.900617
O O20 0.252458 0.788379 0.500000
O O21 0.194481 0.000000 0.555827
#
# Coordination Sequence:
#
# PCOD9385715 Si02
#       8
#     4   4   8   8   8   4   8   8
#     4  12  23  37  58  85 110 136 169 213 265 316
#     4  12  24  41  63  82 104 134 169 214 263 316
#     4  12  24  38  57  82 108 136 172 216 266 317
#     4  10  20  34  52  75 106 145 185 221 261 314
#     4  10  21  37  57  80 108 144 181 214 253 307
#     4   9  15  23  37  59  91 134 181 224 267 319
#     4   9  16  26  41  64  96 135 179 226 272 314
#     4  10  21  37  58  82 109 143 179 215 257 308
#
# _framework density 16.884896999999999
#
# number of rings (size 3 to 8) (size 9 to 14) (size 15 to 20)
#    0.000    1.615    1.538    4.615    0.000    7.385 
#    0.000    1.538    0.000    0.000    0.000    2.154 
#    0.000    0.615    0.000    6.154    0.000    5.538 
#
# Total GULP energy -290427.272046 kJ/mol
# GULP energy per Si atom -5585.139847 kJ/mol
# Density = 1.684647 g / cm^3
# Si number density = 16.884897 Si / 1000 Ang^3
#
#
#
# Elastic Constant Matrix: (Units=GPa)
#
#
# Indices 1 2 3 4 5 6 
#
# 1 85.7008 59.2126 49.9888 0.0000 0.0000 0.0000
# 2 59.2126 112.9923 68.2010 0.0000 0.0000 0.0000
# 3 49.9888 68.2010 134.8319 0.0000 0.0000 0.0000
# 4 0.0000 0.0000 0.0000 -657.2995 0.0000 0.0000
# 5 0.0000 0.0000 0.0000 0.0000 0.1612 0.0000
# 6 0.0000 0.0000 0.0000 0.0000 0.0000 12.2034
#
#
#
# Elastic Compliance Matrix: (Units=1/GPa)
#
#
# Indices 1 2 3 4 5 6 
#
# 1 0.019046 -0.008232 -0.002897 0.000000 0.000000 0.000000
# 2 -0.008232 0.016298 -0.005192 0.000000 0.000000 0.000000
# 3 -0.002897 -0.005192 0.011117 0.000000 0.000000 0.000000
# 4 0.000000 0.000000 0.000000 -0.001521 0.000000 0.000000
# 5 0.000000 0.000000 0.000000 0.000000 6.203834 0.000000
# 6 0.000000 0.000000 0.000000 0.000000 0.000000 0.081944
#
#
# Mechanical properties :
#
#
# Convention : Reuss Voigt Hill
#
# Bulk Modulus (GPa) = 72.36691 76.48110 74.42400
# Shear Modulus (GPa) = 0.78518 -118.57880 -58.89681
#
# Velocity S-wave (km/s) = 0.68266 -8.38929 -5.91245
# Velocity P-wave (km/s) = 6.60101 6.96034 1.56093
#
# Compressibility (1/GPa) = 0.01381847
#
# Stress axis : x y z
#
# Youngs Moduli (GPa) = 52.50346 61.35770 89.95293
#
# Poissons Ratio (x) = 0.50511 0.26063
# Poissons Ratio (y) = 0.43222 0.46701
# Poissons Ratio (z) = 0.15212 0.31855
#
# Static dielectric constant tensor:
#      x y z
#    x 1.542870 0.000000 0.000000 
#    y 0.000000 1.566300 0.000000 
#    z 0.000000 0.000000 1.562230 
# 
# From -- ./inp_files/15499.got.cif
#   From: 2010.05.17/outbox.cif.g08.bks.cpg/sg47_8_cif.got.tgz:15499.got - 2010.06.03 20:15:42.
