data_PCOD9385242
_publ_section_title
;
Structure prediction by ZEFSAII (Michael W. Deem and Ramdas Pophale) SiO2 
 PCOD9385242
Probable space group: P M M M
;
_chemical_formula_sum "Si O2"
_cell_formula_units_Z 64
_cell_length_a 21.263019
_cell_length_b 8.286889
_cell_length_c 20.391183
_cell_angle_alpha 90.000000
_cell_angle_beta 90.000000
_cell_angle_gamma 90.000000
_cell_volume 3593.013683
_symmetry_space_group_name_H-M "P M M M"
_symmetry_group_IT_number 47
_symmetry_cell_setting 'orthorhombic'
loop_
_space_group_symop_operation_xyz
x,y,z
-x,-y,z
x,-y,-z
-x,y,-z
-x,-y,-z
x,y,-z
-x,y,z
x,-y,z
loop_
_atom_site_type_symbol
_atom_site_label
_atom_site_fract_x
_atom_site_fract_y
_atom_site_fract_z
Si Si1 0.611780 0.192054 0.926579
Si Si2 0.930456 0.194396 0.290334
Si Si3 0.430881 0.308677 0.788563
Si Si4 0.691244 0.192281 0.287283
Si Si5 0.876596 0.196411 0.427664
Si Si6 0.244553 0.304846 0.073266
Si Si7 0.728922 0.803857 0.572059
Si Si8 0.187270 0.691684 0.207427
O O1 0.577795 0.273725 0.865740
O O2 0.686037 0.230189 0.919508
O O3 0.602247 0.000000 0.922562
O O4 0.592925 0.246011 0.000000
O O5 0.913571 0.253562 0.363851
O O6 0.874424 0.239393 0.241717
O O7 0.000000 0.251592 0.270905
O O8 0.931888 0.000000 0.293468
O O9 0.500000 0.249313 0.768037
O O10 0.427815 0.500000 0.778443
O O11 0.373145 0.231722 0.749580
O O12 0.692847 0.250076 0.362890
O O13 0.750626 0.266096 0.249232
O O14 0.700481 0.000000 0.287166
O O15 0.898147 0.250659 0.500000
O O16 0.802778 0.238188 0.420504
O O17 0.879723 0.000000 0.427901
O O18 0.251594 0.500000 0.077314
O O19 0.201061 0.250940 0.133243
O O20 0.221412 0.265482 0.000000
O O21 0.707680 0.746691 0.500000
O O22 0.726151 0.000000 0.570803
O O23 0.180541 0.500000 0.205712
#
# Coordination Sequence:
#
# PCOD9385242 Si02
#       8
#     8   8   8   8   8   8   8   8
#     4  10  20  33  52  79 108 138 174 216 259 305
#     4  10  20  33  50  74 104 138 177 219 262 307
#     4  11  24  39  53  73 106 146 182 215 258 314
#     4  11  20  33  57  82 105 134 173 222 264 304
#     4   8  13  24  44  71 102 133 169 212 255 301
#     4   9  18  33  53  76 102 133 170 213 261 311
#     4   8  14  26  48  78 106 131 164 211 264 310
#     4  11  21  33  53  78 105 137 172 212 260 317
#
# _framework density 17.812346000000002
#
# number of rings (size 3 to 8) (size 9 to 14) (size 15 to 20)
#    0.000    2.250    2.500    2.250    0.000    3.000 
#    0.000    2.500    0.000    3.375    0.000    6.125 
#    0.000    0.000    0.000    0.000    0.000    0.000 
#
# Total GULP energy -356947.413767 kJ/mol
# GULP energy per Si atom -5577.303340 kJ/mol
# Density = 1.777180 g / cm^3
# Si number density = 17.812346 Si / 1000 Ang^3
#
#
#
# Elastic Constant Matrix: (Units=GPa)
#
#
# Indices 1 2 3 4 5 6 
#
# 1 84.4224 -3.6149 48.7512 0.0000 0.0000 0.0000
# 2 -3.6149 4.7771 2.4571 0.0000 0.0000 0.0000
# 3 48.7512 2.4571 117.1490 0.0000 0.0000 0.0000
# 4 0.0000 0.0000 0.0000 -20.7245 0.0000 0.0000
# 5 0.0000 0.0000 0.0000 0.0000 17.6745 0.0000
# 6 0.0000 0.0000 0.0000 0.0000 0.0000 20.5812
#
#
#
# Elastic Compliance Matrix: (Units=1/GPa)
#
#
# Indices 1 2 3 4 5 6 
#
# 1 0.016783 0.016470 -0.007330 0.000000 0.000000 0.000000
# 2 0.016470 0.227779 -0.011631 0.000000 0.000000 0.000000
# 3 -0.007330 -0.011631 0.011830 0.000000 0.000000 0.000000
# 4 0.000000 0.000000 0.000000 -0.048252 0.000000 0.000000
# 5 0.000000 0.000000 0.000000 0.000000 0.056579 0.000000
# 6 0.000000 0.000000 0.000000 0.000000 0.000000 0.048588
#
#
# Mechanical properties :
#
#
# Convention : Reuss Voigt Hill
#
# Bulk Modulus (GPa) = 3.97757 33.50393 18.74075
# Shear Modulus (GPa) = 12.43496 14.08990 13.26243
#
# Velocity S-wave (km/s) = 2.64504 2.81556 2.73163
# Velocity P-wave (km/s) = 3.40091 5.42402 4.52693
#
# Compressibility (1/GPa) = 0.25140962
#
# Stress axis : x y z
#
# Youngs Moduli (GPa) = 59.58387 4.39023 84.52858
#
# Poissons Ratio (x) = -0.07231 0.61957
# Poissons Ratio (y) = -0.98134 0.98319
# Poissons Ratio (z) = 0.43673 0.05106
#
# Static dielectric constant tensor:
#      x y z
#    x 1.591430 0.000000 0.000000 
#    y 0.000000 1.621300 0.000000 
#    z 0.000000 0.000000 1.641190 
# 
# From -- ./inp_files/28783.got.cif
#   From: 2010.05.17/outbox.cif.g08.bks.cpg/sg47_15_cif.got.tgz:28783.got - 2010.06.03 20:15:42.
