data_PCOD9385864
_publ_section_title
;
Structure prediction by ZEFSAII (Michael W. Deem and Ramdas Pophale) SiO2 
 PCOD9385864
Probable space group: P M M M
;
_chemical_formula_sum "Si O2"
_cell_formula_units_Z 44
_cell_length_a 14.850091
_cell_length_b 12.423418
_cell_length_c 13.901058
_cell_angle_alpha 90.000000
_cell_angle_beta 90.000000
_cell_angle_gamma 90.000000
_cell_volume 2564.590730
_symmetry_space_group_name_H-M "P M M M"
_symmetry_group_IT_number 47
_symmetry_cell_setting 'orthorhombic'
loop_
_space_group_symop_operation_xyz
x,y,z
-x,-y,z
x,-y,-z
-x,y,-z
-x,-y,-z
x,y,-z
-x,y,z
x,-y,z
loop_
_atom_site_type_symbol
_atom_site_label
_atom_site_fract_x
_atom_site_fract_y
_atom_site_fract_z
Si Si1 0.000000 0.129086 0.392619
Si Si2 0.739497 0.673140 0.614175
Si Si3 0.279991 0.795128 0.886469
Si Si4 0.184311 0.129486 0.712058
Si Si5 0.893832 0.500000 0.383975
Si Si6 0.400675 0.000000 0.115872
Si Si7 0.396127 0.624211 0.221740
O O1 0.912222 0.154279 0.332777
O O2 0.000000 0.177967 0.500000
O O3 0.000000 0.000000 0.403603
O O4 0.727862 0.662280 0.500000
O O5 0.750977 0.797684 0.645722
O O6 0.829553 0.603034 0.641537
O O7 0.654668 0.632318 0.675744
O O8 0.195373 0.822037 0.818899
O O9 0.346139 0.893817 0.860183
O O10 0.333696 0.690764 0.851452
O O11 0.261915 0.794571 0.000000
O O12 0.198830 0.000000 0.710254
O O13 0.899538 0.500000 0.500000
O O14 0.000000 0.500000 0.350109
O O15 0.500000 0.000000 0.157888
O O16 0.407417 0.000000 0.000000
O O17 0.500000 0.663247 0.224623
O O18 0.397866 0.500000 0.192862
#
# Coordination Sequence:
#
# PCOD9385864 Si02
#       7
#     4   8   8   8   4   4   8
#     4   9  18  32  51  78 110 141 177 216 260 312
#     4  10  20  34  53  78 109 143 182 224 270 326
#     4  10  20  35  54  77 105 137 175 219 270 323
#     4  10  20  34  53  79 109 142 179 222 268 322
#     4   9  18  32  51  77 106 139 181 227 273 314
#     4   9  16  28  50  75  95 122 164 211 261 314
#     4  10  21  36  54  78 107 139 179 226 274 327
#
# _framework density 17.156732000000002
#
# number of rings (size 3 to 8) (size 9 to 14) (size 15 to 20)
#    0.000    2.273    1.818    1.091    1.273    2.909 
#    0.000    2.273    0.000    1.636    0.000    2.545 
#    0.000    5.818    0.000    0.000    0.000    0.000 
#
# Total GULP energy -244942.593697 kJ/mol
# GULP energy per Si atom -5566.877129 kJ/mol
# Density = 1.711768 g / cm^3
# Si number density = 17.156732 Si / 1000 Ang^3
#
#
#
# Elastic Constant Matrix: (Units=GPa)
#
#
# Indices 1 2 3 4 5 6 
#
# 1 84.4844 25.6200 51.0650 0.0000 0.0000 0.0000
# 2 25.6200 87.3883 32.9854 0.0000 0.0000 0.0000
# 3 51.0650 32.9854 109.7570 0.0000 0.0000 0.0000
# 4 0.0000 0.0000 0.0000 9.4387 0.0000 0.0000
# 5 0.0000 0.0000 0.0000 0.0000 14.0122 0.0000
# 6 0.0000 0.0000 0.0000 0.0000 0.0000 45.8782
#
#
#
# Elastic Compliance Matrix: (Units=1/GPa)
#
#
# Indices 1 2 3 4 5 6 
#
# 1 0.016845 -0.002234 -0.007166 0.000000 0.000000 0.000000
# 2 -0.002234 0.013204 -0.002929 0.000000 0.000000 0.000000
# 3 -0.007166 -0.002929 0.013325 0.000000 0.000000 0.000000
# 4 0.000000 0.000000 0.000000 0.105947 0.000000 0.000000
# 5 0.000000 0.000000 0.000000 0.000000 0.071366 0.000000
# 6 0.000000 0.000000 0.000000 0.000000 0.000000 0.021797
#
#
# Mechanical properties :
#
#
# Convention : Reuss Voigt Hill
#
# Bulk Modulus (GPa) = 53.42761 55.66340 54.54550
# Shear Modulus (GPa) = 18.28951 25.32977 21.80964
#
# Velocity S-wave (km/s) = 3.26855 3.84653 3.56926
# Velocity P-wave (km/s) = 6.74189 7.22788 6.98911
#
# Compressibility (1/GPa) = 0.01871691
#
# Stress axis : x y z
#
# Youngs Moduli (GPa) = 59.36390 75.73716 75.04531
#
# Poissons Ratio (x) = 0.16917 0.53778
# Poissons Ratio (y) = 0.13260 0.21980
# Poissons Ratio (z) = 0.42540 0.22182
#
# Static dielectric constant tensor:
#      x y z
#    x 1.643340 0.000000 0.000000 
#    y 0.000000 1.620490 0.000000 
#    z 0.000000 0.000000 1.571260 
# 
# From -- ./inp_files/23505.got.cif
#   From: 2010.05.17/outbox.cif.g08.bks.cpg/sg47_12_cif.got.tgz:23505.got - 2010.06.03 20:15:42.
