data_PCOD9385808
_publ_section_title
;
Structure prediction by ZEFSAII (Michael W. Deem and Ramdas Pophale) SiO2 
 PCOD9385808
Probable space group: P M M M
;
_chemical_formula_sum "Si O2"
_cell_formula_units_Z 40
_cell_length_a 7.613701
_cell_length_b 9.316974
_cell_length_c 26.841916
_cell_angle_alpha 90.000000
_cell_angle_beta 90.000000
_cell_angle_gamma 90.000000
_cell_volume 1904.075715
_symmetry_space_group_name_H-M "P M M M"
_symmetry_group_IT_number 47
_symmetry_cell_setting 'orthorhombic'
loop_
_space_group_symop_operation_xyz
x,y,z
-x,-y,z
x,-y,-z
-x,y,-z
-x,-y,-z
x,y,-z
-x,y,z
x,-y,z
loop_
_atom_site_type_symbol
_atom_site_label
_atom_site_fract_x
_atom_site_fract_y
_atom_site_fract_z
Si Si1 0.289174 0.336730 0.597608
Si Si2 0.284813 0.165638 0.500000
Si Si3 0.291449 0.836427 0.000000
Si Si4 0.790883 0.836052 0.108311
Si Si5 0.215374 0.665064 0.795157
Si Si6 0.210966 0.163076 0.302296
O O1 0.500000 0.344671 0.592990
O O2 0.221631 0.500000 0.599032
O O3 0.225817 0.248921 0.549487
O O4 0.250649 0.252230 0.648185
O O5 0.500000 0.165385 0.500000
O O6 0.229001 0.000000 0.500000
O O7 0.239175 0.772583 0.053179
O O8 0.500000 0.844670 0.000000
O O9 0.216949 0.000000 0.000000
O O10 0.724742 0.741357 0.153999
O O11 0.000000 0.846470 0.114743
O O12 0.719866 0.000000 0.109535
O O13 0.271050 0.500000 0.792337
O O14 0.273969 0.754488 0.746969
O O15 0.000000 0.665186 0.795160
O O16 0.000000 0.155265 0.298120
O O17 0.278236 0.000000 0.305383
#
# Coordination Sequence:
#
# PCOD9385808 Si02
#       6
#     8   4   4   8   8   8
#     4  10  20  34  53  77 104 134 169 209 253 301
#     4   9  17  31  52  75 100 133 172 212 252 295
#     4   9  17  29  46  69  96 124 154 191 238 288
#     4   9  16  28  48  71  92 118 157 200 236 277
#     4   9  17  30  49  72  97 126 161 201 244 290
#     4  10  20  34  53  77 104 134 168 207 252 301
#
# _framework density 21.007567999999999
#
# number of rings (size 3 to 8) (size 9 to 14) (size 15 to 20)
#    0.000    2.600    0.000    2.400    0.000    7.200 
#    0.000    2.000    0.000   10.200    0.000    0.000 
#    0.000    0.000    0.000    0.000    0.000    0.000 
#
# Total GULP energy -223326.637670 kJ/mol
# GULP energy per Si atom -5583.165942 kJ/mol
# Density = 2.095975 g / cm^3
# Si number density = 21.007568 Si / 1000 Ang^3
#
#
#
# Elastic Constant Matrix: (Units=GPa)
#
#
# Indices 1 2 3 4 5 6 
#
# 1 42.9042 7.4113 0.0442 0.0000 0.0000 0.0000
# 2 7.4113 195.7321 137.7699 0.0000 0.0000 0.0000
# 3 0.0442 137.7699 251.2967 0.0000 0.0000 0.0000
# 4 0.0000 0.0000 0.0000 38.1187 0.0000 0.0000
# 5 0.0000 0.0000 0.0000 0.0000 27.1009 0.0000
# 6 0.0000 0.0000 0.0000 0.0000 0.0000 9.2002
#
#
#
# Elastic Compliance Matrix: (Units=1/GPa)
#
#
# Indices 1 2 3 4 5 6 
#
# 1 0.023557 -0.001448 0.000790 0.000000 0.000000 0.000000
# 2 -0.001448 0.008408 -0.004609 0.000000 0.000000 0.000000
# 3 0.000790 -0.004609 0.006506 0.000000 0.000000 0.000000
# 4 0.000000 0.000000 0.000000 0.026234 0.000000 0.000000
# 5 0.000000 0.000000 0.000000 0.000000 0.036899 0.000000
# 6 0.000000 0.000000 0.000000 0.000000 0.000000 0.108694
#
#
# Mechanical properties :
#
#
# Convention : Reuss Voigt Hill
#
# Bulk Modulus (GPa) = 35.79567 86.70930 61.25249
# Shear Modulus (GPa) = 21.72537 37.86446 29.79491
#
# Velocity S-wave (km/s) = 3.21934 4.25010 3.77011
# Velocity P-wave (km/s) = 5.55835 8.09007 6.94063
#
# Compressibility (1/GPa) = 0.02793634
#
# Stress axis : x y z
#
# Youngs Moduli (GPa) = 42.45019 118.92985 153.69707
#
# Poissons Ratio (x) = 0.17218 -0.12135
# Poissons Ratio (y) = 0.06146 0.70846
# Poissons Ratio (z) = -0.03352 0.54821
#
# Static dielectric constant tensor:
#      x y z
#    x 1.802830 0.000000 0.000000 
#    y 0.000000 1.731000 0.000000 
#    z 0.000000 0.000000 1.727820 
# 
# From -- ./inp_files/1762.got.cif
#   From: 2010.05.17/outbox.cif.g08.bks.cpg/sg47_1_cif.got.tgz:1762.got - 2010.06.03 20:15:42.
