data_PCOD9385445
_publ_section_title
;
Structure prediction by ZEFSAII (Michael W. Deem and Ramdas Pophale) SiO2 
 PCOD9385445
Probable space group: P M M M
;
_chemical_formula_sum "Si O2"
_cell_formula_units_Z 44
_cell_length_a 32.813928
_cell_length_b 8.218526
_cell_length_c 7.713320
_cell_angle_alpha 90.000000
_cell_angle_beta 90.000000
_cell_angle_gamma 90.000000
_cell_volume 2080.144493
_symmetry_space_group_name_H-M "P M M M"
_symmetry_group_IT_number 47
_symmetry_cell_setting 'orthorhombic'
loop_
_space_group_symop_operation_xyz
x,y,z
-x,-y,z
x,-y,-z
-x,y,-z
-x,-y,-z
x,y,-z
-x,y,z
x,-y,z
loop_
_atom_site_type_symbol
_atom_site_label
_atom_site_fract_x
_atom_site_fract_y
_atom_site_fract_z
Si Si1 0.000000 0.807878 0.300505
Si Si2 0.740322 0.813120 0.298442
Si Si3 0.829144 0.184200 0.797288
Si Si4 0.403147 0.500000 0.288079
Si Si5 0.915682 0.308353 0.304400
Si Si6 0.308627 0.500000 0.713149
Si Si7 0.547386 0.182330 0.711400
O O1 0.956985 0.757433 0.218719
O O2 0.000000 0.738580 0.500000
O O3 0.000000 0.000000 0.311540
O O4 0.728896 0.827302 0.500000
O O5 0.787628 0.757584 0.290119
O O6 0.713251 0.666264 0.224921
O O7 0.737756 0.000000 0.226171
O O8 0.871684 0.274067 0.774130
O O9 0.836087 0.000000 0.734762
O O10 0.819652 0.181783 0.000000
O O11 0.404680 0.500000 0.500000
O O12 0.355947 0.500000 0.238516
O O13 0.425885 0.335188 0.229951
O O14 0.914080 0.238344 0.500000
O O15 0.920869 0.500000 0.313139
O O16 0.306063 0.500000 0.500000
O O17 0.548442 0.182632 0.500000
O O18 0.500000 0.203739 0.761081
O O19 0.560539 0.000000 0.766347
#
# Coordination Sequence:
#
# PCOD9385445 Si02
#       7
#     4   8   8   4   8   4   8
#     4   9  17  31  52  75 100 131 164 194 226 273
#     4   9  18  33  51  69  93 124 157 199 248 296
#     4  10  21  36  53  74  98 124 159 201 243 289
#     4   9  15  22  33  51  75 105 143 195 242 277
#     4  10  20  33  52  78 105 131 159 194 235 281
#     4   9  18  29  43  64  87 114 157 202 246 297
#     4   8  13  20  30  46  71 106 147 188 231 279
#
# _framework density 21.152377999999999
#
# number of rings (size 3 to 8) (size 9 to 14) (size 15 to 20)
#    0.000    2.818    0.000    2.182    1.273    5.091 
#    0.000    4.091    0.000    2.727    0.000    0.000 
#    0.000    0.000    0.000    0.000    0.000    7.273 
#
# Total GULP energy -245235.678235 kJ/mol
# GULP energy per Si atom -5573.538142 kJ/mol
# Density = 2.110423 g / cm^3
# Si number density = 21.152378 Si / 1000 Ang^3
#
#
#
# Elastic Constant Matrix: (Units=GPa)
#
#
# Indices 1 2 3 4 5 6 
#
# 1 153.6694 118.3605 2.7386 0.0000 0.0000 0.0000
# 2 118.3605 153.6001 5.4403 0.0000 0.0000 0.0000
# 3 2.7386 5.4403 32.3410 0.0000 0.0000 0.0000
# 4 0.0000 0.0000 0.0000 0.7401 0.0000 0.0000
# 5 0.0000 0.0000 0.0000 0.0000 -4.4553 0.0000
# 6 0.0000 0.0000 0.0000 0.0000 0.0000 32.4393
#
#
#
# Elastic Compliance Matrix: (Units=1/GPa)
#
#
# Indices 1 2 3 4 5 6 
#
# 1 0.016026 -0.012375 0.000725 0.000000 0.000000 0.000000
# 2 -0.012375 0.016105 -0.001661 0.000000 0.000000 0.000000
# 3 0.000725 -0.001661 0.031139 0.000000 0.000000 0.000000
# 4 0.000000 0.000000 0.000000 1.351226 0.000000 0.000000
# 5 0.000000 0.000000 0.000000 0.000000 -0.224453 0.000000
# 6 0.000000 0.000000 0.000000 0.000000 0.000000 0.030827
#
#
# Mechanical properties :
#
#
# Convention : Reuss Voigt Hill
#
# Bulk Modulus (GPa) = 27.28771 65.85436 46.57104
# Shear Modulus (GPa) = 3.96917 19.94956 11.95937
#
# Velocity S-wave (km/s) = 1.37133 3.07438 2.38038
# Velocity P-wave (km/s) = 3.92886 6.61841 5.44239
#
# Compressibility (1/GPa) = 0.03664653
#
# Stress axis : x y z
#
# Youngs Moduli (GPa) = 62.39796 62.09194 32.11451
#
# Poissons Ratio (x) = 0.76839 -0.02327
# Poissons Ratio (y) = 0.77218 0.05335
# Poissons Ratio (z) = -0.04521 0.10315
#
# Static dielectric constant tensor:
#      x y z
#    x 1.753160 0.000000 0.000000 
#    y 0.000000 1.759940 0.000000 
#    z 0.000000 0.000000 1.799620 
# 
# From -- ./inp_files/13767.got.cif
#   From: 2010.05.17/outbox.cif.g08.bks.cpg/sg47_7_cif.got.tgz:13767.got - 2010.06.03 20:15:42.
