data_PCOD9385670
_publ_section_title
;
Structure prediction by ZEFSAII (Michael W. Deem and Ramdas Pophale) SiO2 
 PCOD9385670
Probable space group: P M M M
;
_chemical_formula_sum "Si O2"
_cell_formula_units_Z 44
_cell_length_a 31.617645
_cell_length_b 9.668042
_cell_length_c 7.757569
_cell_angle_alpha 90.000000
_cell_angle_beta 90.000000
_cell_angle_gamma 90.000000
_cell_volume 2371.339276
_symmetry_space_group_name_H-M "P M M M"
_symmetry_group_IT_number 47
_symmetry_cell_setting 'orthorhombic'
loop_
_space_group_symop_operation_xyz
x,y,z
-x,-y,z
x,-y,-z
-x,y,-z
-x,-y,-z
x,y,-z
-x,y,z
x,-y,z
loop_
_atom_site_type_symbol
_atom_site_label
_atom_site_fract_x
_atom_site_fract_y
_atom_site_fract_z
Si Si1 0.454532 0.833222 0.293380
Si Si2 0.951778 0.168331 0.000000
Si Si3 0.810791 0.659600 0.204755
Si Si4 0.362400 0.160733 0.711220
Si Si5 0.283401 0.658554 0.291836
Si Si6 0.109726 0.163042 0.305958
O O1 0.455122 0.808976 0.500000
O O2 0.500000 0.782500 0.224171
O O3 0.408607 0.785266 0.229724
O O4 0.454069 0.000000 0.270816
O O5 0.924778 0.209949 0.833055
O O6 0.000000 0.218323 0.000000
O O7 0.953424 0.000000 0.000000
O O8 0.813156 0.500000 0.266634
O O9 0.763122 0.709809 0.240424
O O10 0.847070 0.752473 0.286261
O O11 0.817546 0.660029 0.000000
O O12 0.363002 0.163337 0.500000
O O13 0.322523 0.249622 0.769622
O O14 0.357963 0.000000 0.761058
O O15 0.284812 0.657256 0.500000
O O16 0.287340 0.500000 0.230763
O O17 0.093412 0.177678 0.500000
O O18 0.118394 0.000000 0.275081
#
# Coordination Sequence:
#
# PCOD9385670 Si02
#       6
#     8   4   8   8   8   8
#     4   7   9  14  26  45  69  98 133 173 217 267
#     4   9  18  34  55  81 115 147 175 213 256 299
#     4  10  20  34  52  72  96 130 170 210 254 303
#     4   8  13  21  34  53  77 106 142 182 223 274
#     4   9  17  28  41  59  85 116 148 184 232 290
#     4  10  20  34  55  82 109 139 175 214 257 302
#
# _framework density 18.554915999999999
#
# number of rings (size 3 to 8) (size 9 to 14) (size 15 to 20)
#    0.000    3.182    0.909    2.182    0.000    2.182 
#    0.000    3.636    0.000    1.636    0.000    5.091 
#    0.000    0.727    0.000    9.091    0.000    8.364 
#
# Total GULP energy -245081.465264 kJ/mol
# GULP energy per Si atom -5570.033301 kJ/mol
# Density = 1.851268 g / cm^3
# Si number density = 18.554916 Si / 1000 Ang^3
#
#
#
# Elastic Constant Matrix: (Units=GPa)
#
#
# Indices 1 2 3 4 5 6 
#
# 1 197.1144 57.1361 44.4832 0.0000 0.0000 0.0000
# 2 57.1361 31.5368 19.6213 0.0000 0.0000 0.0000
# 3 44.4832 19.6213 52.9078 0.0000 0.0000 0.0000
# 4 0.0000 0.0000 0.0000 5.2509 0.0000 0.0000
# 5 0.0000 0.0000 0.0000 0.0000 24.1782 0.0000
# 6 0.0000 0.0000 0.0000 0.0000 0.0000 -17.3810
#
#
#
# Elastic Compliance Matrix: (Units=1/GPa)
#
#
# Indices 1 2 3 4 5 6 
#
# 1 0.010913 -0.018280 -0.002396 0.000000 0.000000 0.000000
# 2 -0.018280 0.071842 -0.011274 0.000000 0.000000 0.000000
# 3 -0.002396 -0.011274 0.025096 0.000000 0.000000 0.000000
# 4 0.000000 0.000000 0.000000 0.190445 0.000000 0.000000
# 5 0.000000 0.000000 0.000000 0.000000 0.041360 0.000000
# 6 0.000000 0.000000 0.000000 0.000000 0.000000 -0.057534
#
#
# Mechanical properties :
#
#
# Convention : Reuss Voigt Hill
#
# Bulk Modulus (GPa) = 22.75251 58.22672 40.48961
# Shear Modulus (GPa) = 13.86309 13.09750 13.48029
#
# Velocity S-wave (km/s) = 2.73635 2.65972 2.69831
# Velocity P-wave (km/s) = 4.71936 6.39383 5.61931
#
# Compressibility (1/GPa) = 0.04395120
#
# Stress axis : x y z
#
# Youngs Moduli (GPa) = 91.63788 13.91951 39.84711
#
# Poissons Ratio (x) = 0.25445 0.09546
# Poissons Ratio (y) = 1.67514 0.44923
# Poissons Ratio (z) = 0.21953 0.15693
#
# Static dielectric constant tensor:
#      x y z
#    x 1.650290 0.000000 0.000000 
#    y 0.000000 1.618810 0.000000 
#    z 0.000000 0.000000 1.691410 
# 
# From -- ./inp_files/13659.got.cif
#   From: 2010.05.17/outbox.cif.g08.bks.cpg/sg47_7_cif.got.tgz:13659.got - 2010.06.03 20:15:42.
