data_PCOD9385676
_publ_section_title
;
Structure prediction by ZEFSAII (Michael W. Deem and Ramdas Pophale) SiO2 
 PCOD9385676
Probable space group: P M M M
;
_chemical_formula_sum "Si O2"
_cell_formula_units_Z 36
_cell_length_a 7.762839
_cell_length_b 8.256726
_cell_length_c 25.828872
_cell_angle_alpha 90.000000
_cell_angle_beta 90.000000
_cell_angle_gamma 90.000000
_cell_volume 1655.517942
_symmetry_space_group_name_H-M "P M M M"
_symmetry_group_IT_number 47
_symmetry_cell_setting 'orthorhombic'
loop_
_space_group_symop_operation_xyz
x,y,z
-x,-y,z
x,-y,-z
-x,y,-z
-x,-y,-z
x,y,-z
-x,y,z
x,-y,z
loop_
_atom_site_type_symbol
_atom_site_label
_atom_site_fract_x
_atom_site_fract_y
_atom_site_fract_z
Si Si1 0.798852 0.323522 0.884351
Si Si2 0.796240 0.694366 0.555787
Si Si3 0.701816 0.186834 0.778534
Si Si4 0.199815 0.194394 0.335019
Si Si5 0.789261 0.000000 0.939686
O O1 0.722223 0.500000 0.896552
O O2 0.788644 0.291254 0.822944
O O3 0.725587 0.163796 0.912001
O O4 0.000000 0.329841 0.899147
O O5 0.725289 0.751422 0.500000
O O6 0.788748 0.500000 0.555626
O O7 0.721120 0.750933 0.610404
O O8 0.000000 0.741143 0.556107
O O9 0.500000 0.183574 0.790229
O O10 0.723516 0.247507 0.719775
O O11 0.767704 0.000000 0.780962
O O12 0.000000 0.246884 0.334470
O O13 0.206618 0.000000 0.335186
O O14 0.000000 0.000000 0.935302
O O15 0.745869 0.000000 0.000000
#
# Coordination Sequence:
#
# PCOD9385676 Si02
#       5
#     8   8   8   8   4
#     4  10  20  34  56  84 111 143 181 218 260 312
#     4   8  14  25  41  62  89 120 155 199 252 309
#     4  10  20  34  52  73 102 140 177 217 267 317
#     4   9  17  28  45  70  97 125 161 209 260 312
#     4   9  18  34  57  85 117 147 174 215 264 305
#
# _framework density 21.745460000000001
#
# number of rings (size 3 to 8) (size 9 to 14) (size 15 to 20)
#    0.000    2.778    1.111    1.333    0.000    3.111 
#    0.000    6.667    0.000    2.000    0.000    6.222 
#    0.000    0.000    0.000    0.000    0.000    0.000 
#
# Total GULP energy -200712.724795 kJ/mol
# GULP energy per Si atom -5575.353467 kJ/mol
# Density = 2.169597 g / cm^3
# Si number density = 21.745460 Si / 1000 Ang^3
#
#
#
# Elastic Constant Matrix: (Units=GPa)
#
#
# Indices 1 2 3 4 5 6 
#
# 1 31.1785 10.7317 0.0735 0.0000 0.0000 0.0000
# 2 10.7317 107.6403 70.9738 0.0000 0.0000 0.0000
# 3 0.0735 70.9738 145.2999 0.0000 0.0000 0.0000
# 4 0.0000 0.0000 0.0000 -71.7009 0.0000 0.0000
# 5 0.0000 0.0000 0.0000 0.0000 -38.7234 0.0000
# 6 0.0000 0.0000 0.0000 0.0000 0.0000 -0.0868
#
#
#
# Elastic Compliance Matrix: (Units=1/GPa)
#
#
# Indices 1 2 3 4 5 6 
#
# 1 0.033772 -0.004950 0.002401 0.000000 0.000000 0.000000
# 2 -0.004950 0.014429 -0.007046 0.000000 0.000000 0.000000
# 3 0.002401 -0.007046 0.010323 0.000000 0.000000 0.000000
# 4 0.000000 0.000000 0.000000 -0.013947 0.000000 0.000000
# 5 0.000000 0.000000 0.000000 0.000000 -0.025824 0.000000
# 6 0.000000 0.000000 0.000000 0.000000 0.000000-11.519088
#
#
# Mechanical properties :
#
#
# Convention : Reuss Voigt Hill
#
# Bulk Modulus (GPa) = 25.42345 49.74184 37.58265
# Shear Modulus (GPa) = -0.43599 -8.61290 -4.52445
#
# Velocity S-wave (km/s) = -0.44826 -1.99233 -1.44401
# Velocity P-wave (km/s) = 3.38362 4.19902 3.81317
#
# Compressibility (1/GPa) = 0.03933376
#
# Stress axis : x y z
#
# Youngs Moduli (GPa) = 29.61074 69.30299 96.87402
#
# Poissons Ratio (x) = 0.34305 -0.23258
# Poissons Ratio (y) = 0.14657 0.68255
# Poissons Ratio (z) = -0.07109 0.48829
#
# Static dielectric constant tensor:
#      x y z
#    x 1.790750 0.000000 0.000000 
#    y 0.000000 1.799270 0.000000 
#    z 0.000000 0.000000 1.807780 
# 
# From -- ./inp_files/1419.got.cif
#   From: 2010.05.17/outbox.cif.g08.bks.cpg/sg47_1_cif.got.tgz:1419.got - 2010.06.03 20:15:42.
