data_PCOD9385039
_publ_section_title
;
Structure prediction by ZEFSAII (Michael W. Deem and Ramdas Pophale) SiO2 
 PCOD9385039
Probable space group: P M M M
;
_chemical_formula_sum "Si O2"
_cell_formula_units_Z 48
_cell_length_a 9.274923
_cell_length_b 7.330354
_cell_length_c 31.942628
_cell_angle_alpha 90.000000
_cell_angle_beta 90.000000
_cell_angle_gamma 90.000000
_cell_volume 2171.730371
_symmetry_space_group_name_H-M "P M M M"
_symmetry_group_IT_number 47
_symmetry_cell_setting 'orthorhombic'
loop_
_space_group_symop_operation_xyz
x,y,z
-x,-y,z
x,-y,-z
-x,y,-z
-x,-y,-z
x,y,-z
-x,y,z
x,-y,z
loop_
_atom_site_type_symbol
_atom_site_label
_atom_site_fract_x
_atom_site_fract_y
_atom_site_fract_z
Si Si1 0.836444 0.282255 0.917864
Si Si2 0.666313 0.777521 0.332979
Si Si3 0.833685 0.222824 0.750615
Si Si4 0.833618 0.222557 0.416473
Si Si5 0.333617 0.222548 0.500000
Si Si6 0.336430 0.217711 0.167356
Si Si7 0.666310 0.723113 0.000000
O O1 0.846100 0.500000 0.922763
O O2 0.749794 0.249658 0.875305
O O3 0.000000 0.211585 0.915660
O O4 0.749387 0.215641 0.958346
O O5 0.500000 0.719562 0.333053
O O6 0.749459 0.720567 0.291109
O O7 0.750233 0.719837 0.374677
O O8 0.665982 0.000000 0.333051
O O9 0.751214 0.284922 0.792307
O O10 0.000000 0.280386 0.750298
O O11 0.834083 0.000000 0.750813
O O12 0.749931 0.280062 0.458225
O O13 0.000000 0.280236 0.416524
O O14 0.833793 0.000000 0.416467
O O15 0.500000 0.280252 0.500000
O O16 0.333813 0.000000 0.500000
O O17 0.500000 0.288382 0.165217
O O18 0.346144 0.000000 0.172419
O O19 0.665956 0.500000 0.000000
O O20 0.500000 0.780324 0.000000
#
# Coordination Sequence:
#
# PCOD9385039 Si02
#       7
#     8   8   8   8   4   8   4
#     4  10  20  34  53  76 100 126 157 192 229 271
#     4   9  15  22  32  46  64  87 118 157 200 247
#     4   9  16  26  40  57  78 105 136 171 213 260
#     4   9  15  21  28  38  53  75 106 146 193 244
#     4   9  15  21  27  35  49  71 101 141 192 245
#     4  10  20  33  49  70  96 125 156 191 232 276
#     4   9  17  31  52  75  98 125 156 190 228 269
#
# _framework density 22.102191000000001
#
# number of rings (size 3 to 8) (size 9 to 14) (size 15 to 20)
#    0.000    2.667    0.000    3.000    0.000   10.000 
#    0.000    0.417    0.000    2.500    0.000    0.000 
#    0.000    0.000    0.000    0.000    0.000    0.000 
#
# Total GULP energy -268387.212198 kJ/mol
# GULP energy per Si atom -5591.400254 kJ/mol
# Density = 2.205189 g / cm^3
# Si number density = 22.102191 Si / 1000 Ang^3
#
#
#
# Elastic Constant Matrix: (Units=GPa)
#
#
# Indices 1 2 3 4 5 6 
#
# 1 294.5733 8.6302 184.4194 0.0000 0.0000 0.0000
# 2 8.6302 87.0330 3.0441 0.0000 0.0000 0.0000
# 3 184.4194 3.0441 281.6343 0.0000 0.0000 0.0000
# 4 0.0000 0.0000 0.0000 15.3850 0.0000 0.0000
# 5 0.0000 0.0000 0.0000 0.0000 49.8931 0.0000
# 6 0.0000 0.0000 0.0000 0.0000 0.0000 -5.0996
#
#
#
# Elastic Compliance Matrix: (Units=1/GPa)
#
#
# Indices 1 2 3 4 5 6 
#
# 1 0.005770 -0.000440 -0.003774 0.000000 0.000000 0.000000
# 2 -0.000440 0.011528 0.000164 0.000000 0.000000 0.000000
# 3 -0.003774 0.000164 0.006020 0.000000 0.000000 0.000000
# 4 0.000000 0.000000 0.000000 0.064998 0.000000 0.000000
# 5 0.000000 0.000000 0.000000 0.000000 0.020043 0.000000
# 6 0.000000 0.000000 0.000000 0.000000 0.000000 -0.196094
#
#
# Mechanical properties :
#
#
# Convention : Reuss Voigt Hill
#
# Bulk Modulus (GPa) = 65.71344 117.26977 91.49160
# Shear Modulus (GPa) = -67.05871 43.17883 -11.93994
#
# Velocity S-wave (km/s) = -5.51418 4.42475 -2.32677
# Velocity P-wave (km/s) = 3.27801 8.90380 5.85373
#
# Compressibility (1/GPa) = 0.01521759
#
# Stress axis : x y z
#
# Youngs Moduli (GPa) = 173.30574 86.74665 166.11327
#
# Poissons Ratio (x) = 0.03818 0.62685
# Poissons Ratio (y) = 0.07629 -0.02718
# Poissons Ratio (z) = 0.65399 -0.01420
#
# Static dielectric constant tensor:
#      x y z
#    x 1.700920 0.000000 0.000000 
#    y 0.000000 1.929570 0.000000 
#    z 0.000000 0.000000 1.736050 
# 
# From -- ./inp_files/13885.got.cif
#   From: 2010.05.17/outbox.cif.g08.bks.cpg/sg47_7_cif.got.tgz:13885.got - 2010.06.03 20:15:42.
