data_PCOD9385293
_publ_section_title
;
Structure prediction by ZEFSAII (Michael W. Deem and Ramdas Pophale) SiO2 
 PCOD9385293
Probable space group: P M M M
;
_chemical_formula_sum "Si O2"
_cell_formula_units_Z 48
_cell_length_a 14.998618
_cell_length_b 21.114901
_cell_length_c 7.828937
_cell_angle_alpha 90.000000
_cell_angle_beta 90.000000
_cell_angle_gamma 90.000000
_cell_volume 2479.379991
_symmetry_space_group_name_H-M "P M M M"
_symmetry_group_IT_number 47
_symmetry_cell_setting 'orthorhombic'
loop_
_space_group_symop_operation_xyz
x,y,z
-x,-y,z
x,-y,-z
-x,y,-z
-x,-y,-z
x,y,-z
-x,y,z
x,-y,z
loop_
_atom_site_type_symbol
_atom_site_label
_atom_site_fract_x
_atom_site_fract_y
_atom_site_fract_z
Si Si1 0.899450 0.927854 0.205971
Si Si2 0.778936 0.188992 0.702050
Si Si3 0.210787 0.569673 0.709170
Si Si4 0.897579 0.306863 0.290839
Si Si5 0.401280 0.754078 0.200330
Si Si6 0.598576 0.611033 0.300983
O O1 0.827176 0.876853 0.260479
O O2 0.000000 0.910252 0.264269
O O3 0.881578 0.000000 0.263268
O O4 0.900948 0.928561 0.000000
O O5 0.773568 0.196851 0.500000
O O6 0.840346 0.246646 0.769029
O O7 0.679131 0.198186 0.768809
O O8 0.212794 0.571965 0.500000
O O9 0.178278 0.500000 0.758414
O O10 0.149943 0.628227 0.764091
O O11 0.312526 0.579484 0.770904
O O12 0.897516 0.306193 0.500000
O O13 0.000000 0.303039 0.235760
O O14 0.500000 0.777599 0.250017
O O15 0.386261 0.686885 0.292612
O O16 0.402778 0.738936 0.000000
O O17 0.594334 0.592417 0.500000
O O18 0.500000 0.598213 0.225845
#
# Coordination Sequence:
#
# PCOD9385293 Si02
#       6
#     8   8   8   8   8   8
#     4   9  19  36  56  80 113 149 180 210 248 298
#     4  11  20  32  53  79 107 137 171 215 262 306
#     4   9  16  26  41  64  95 130 167 207 256 311
#     4   9  17  28  42  66  99 130 164 209 256 298
#     4  10  20  33  51  75 101 131 169 211 258 315
#     4   9  16  28  46  68  95 124 159 209 266 316
#
# _framework density 19.359677999999999
#
# number of rings (size 3 to 8) (size 9 to 14) (size 15 to 20)
#    0.000    2.500    1.667    2.000    0.000    3.000 
#    0.000    4.167    0.000    1.000    0.000    5.833 
#    0.000    1.333    0.000    0.000    0.000    0.000 
#
# Total GULP energy -267799.116738 kJ/mol
# GULP energy per Si atom -5579.148265 kJ/mol
# Density = 1.931561 g / cm^3
# Si number density = 19.359678 Si / 1000 Ang^3
#
#
#
# Elastic Constant Matrix: (Units=GPa)
#
#
# Indices 1 2 3 4 5 6 
#
# 1 135.2913 66.2274 6.1309 0.0000 0.0000 0.0000
# 2 66.2274 93.0499 0.8429 0.0000 0.0000 0.0000
# 3 6.1309 0.8429 27.1708 0.0000 0.0000 0.0000
# 4 0.0000 0.0000 0.0000 73.1033 0.0000 0.0000
# 5 0.0000 0.0000 0.0000 0.0000 11.9906 0.0000
# 6 0.0000 0.0000 0.0000 0.0000 0.0000 20.3446
#
#
#
# Elastic Compliance Matrix: (Units=1/GPa)
#
#
# Indices 1 2 3 4 5 6 
#
# 1 0.011491 -0.008157 -0.002340 0.000000 0.000000 0.000000
# 2 -0.008157 0.016541 0.001327 0.000000 0.000000 0.000000
# 3 -0.002340 0.001327 0.037291 0.000000 0.000000 0.000000
# 4 0.000000 0.000000 0.000000 0.013679 0.000000 0.000000
# 5 0.000000 0.000000 0.000000 0.000000 0.083399 0.000000
# 6 0.000000 0.000000 0.000000 0.000000 0.000000 0.049153
#
#
# Mechanical properties :
#
#
# Convention : Reuss Voigt Hill
#
# Bulk Modulus (GPa) = 21.28408 44.65716 32.97062
# Shear Modulus (GPa) = 20.36221 33.24175 26.80198
#
# Velocity S-wave (km/s) = 3.24664 4.14824 3.72482
# Velocity P-wave (km/s) = 5.00721 6.78683 5.96377
#
# Compressibility (1/GPa) = 0.04698348
#
# Stress axis : x y z
#
# Youngs Moduli (GPa) = 87.02839 60.45728 26.81613
#
# Poissons Ratio (x) = 0.49315 0.06274
# Poissons Ratio (y) = 0.70990 -0.03560
# Poissons Ratio (z) = 0.20362 -0.08025
#
# Static dielectric constant tensor:
#      x y z
#    x 1.691350 0.000000 0.000000 
#    y 0.000000 1.650480 0.000000 
#    z 0.000000 0.000000 1.723030 
# 
# From -- ./inp_files/6356.got.cif
#   From: 2010.05.17/outbox.cif.g08.bks.cpg/sg47_4_cif.got.tgz:6356.got - 2010.06.03 20:15:42.
