data_PCOD9385475
_publ_section_title
;
Structure prediction by ZEFSAII (Michael W. Deem and Ramdas Pophale) SiO2 
 PCOD9385475
Probable space group: P M M M
;
_chemical_formula_sum "Si O2"
_cell_formula_units_Z 56
_cell_length_a 22.591139
_cell_length_b 8.842543
_cell_length_c 15.213395
_cell_angle_alpha 90.000000
_cell_angle_beta 90.000000
_cell_angle_gamma 90.000000
_cell_volume 3039.075221
_symmetry_space_group_name_H-M "P M M M"
_symmetry_group_IT_number 47
_symmetry_cell_setting 'orthorhombic'
loop_
_space_group_symop_operation_xyz
x,y,z
-x,-y,z
x,-y,-z
-x,y,-z
-x,-y,-z
x,y,-z
-x,y,z
x,-y,z
loop_
_atom_site_type_symbol
_atom_site_label
_atom_site_fract_x
_atom_site_fract_y
_atom_site_fract_z
Si Si1 0.566781 0.181785 0.603146
Si Si2 0.000000 0.172907 0.607094
Si Si3 0.211099 0.317060 0.244983
Si Si4 0.123402 0.681875 0.601285
Si Si5 0.567009 0.315903 0.100150
Si Si6 0.000000 0.326530 0.892972
Si Si7 0.124389 0.180596 0.103429
Si Si8 0.347481 0.317139 0.254903
O O1 0.573571 0.217768 0.500000
O O2 0.500000 0.229598 0.630138
O O3 0.616957 0.257074 0.661405
O O4 0.569685 0.000000 0.611809
O O5 0.060475 0.254386 0.633250
O O6 0.000000 0.175442 0.500000
O O7 0.000000 0.000000 0.636671
O O8 0.209673 0.500000 0.238865
O O9 0.175291 0.272320 0.332787
O O10 0.175980 0.249987 0.162490
O O11 0.279314 0.268653 0.250212
O O12 0.133337 0.730948 0.500000
O O13 0.119931 0.500000 0.601106
O O14 0.500000 0.268707 0.123795
O O15 0.567241 0.500000 0.100449
O O16 0.615477 0.265243 0.169680
O O17 0.579057 0.268151 0.000000
O O18 0.060631 0.245002 0.866623
O O19 0.000000 0.500000 0.863000
O O20 0.000000 0.325447 0.000000
O O21 0.123798 0.000000 0.110978
O O22 0.131998 0.219577 0.000000
O O23 0.348097 0.500000 0.256860
#
# Coordination Sequence:
#
# PCOD9385475 Si02
#       8
#     8   4   8   8   8   4   8   8
#     4   9  19  36  56  78 106 141 178 215 262 320
#     4   9  17  30  51  78 100 120 158 212 261 301
#     4  10  22  36  51  76 107 141 179 215 258 314
#     4   9  18  34  53  71  97 133 168 204 252 310
#     4   8  14  26  46  73 103 132 163 204 256 308
#     4   9  17  32  57  84 106 132 170 220 277 327
#     4  10  21  37  56  78 106 140 179 223 267 314
#     4  10  20  33  52  79 107 136 175 221 263 305
#
# _framework density 18.426659000000001
#
# number of rings (size 3 to 8) (size 9 to 14) (size 15 to 20)
#    0.000    2.714    0.000    2.143    0.000    6.571 
#    0.000    4.286    0.000    2.143    0.000    2.000 
#    0.000    0.000    0.000    0.000    0.000    0.000 
#
# Total GULP energy -312443.338825 kJ/mol
# GULP energy per Si atom -5579.345336 kJ/mol
# Density = 1.838472 g / cm^3
# Si number density = 18.426659 Si / 1000 Ang^3
#
#
#
# Elastic Constant Matrix: (Units=GPa)
#
#
# Indices 1 2 3 4 5 6 
#
# 1 208.9896 41.4527 102.5093 0.0000 0.0000 0.0000
# 2 41.4527 15.3196 30.6461 0.0000 0.0000 0.0000
# 3 102.5093 30.6461 101.4145 0.0000 0.0000 0.0000
# 4 0.0000 0.0000 0.0000 20.2205 0.0000 0.0000
# 5 0.0000 0.0000 0.0000 0.0000 -2.4816 0.0000
# 6 0.0000 0.0000 0.0000 0.0000 0.0000 18.1480
#
#
#
# Elastic Compliance Matrix: (Units=1/GPa)
#
#
# Indices 1 2 3 4 5 6 
#
# 1 0.011460 -0.019815 -0.005596 0.000000 0.000000 0.000000
# 2 -0.019815 0.199312 -0.040201 0.000000 0.000000 0.000000
# 3 -0.005596 -0.040201 0.027665 0.000000 0.000000 0.000000
# 4 0.000000 0.000000 0.000000 0.049455 0.000000 0.000000
# 5 0.000000 0.000000 0.000000 0.000000 -0.402964 0.000000
# 6 0.000000 0.000000 0.000000 0.000000 0.000000 0.055103
#
#
# Mechanical properties :
#
#
# Convention : Reuss Voigt Hill
#
# Bulk Modulus (GPa) = 9.32712 74.99331 42.16022
# Shear Modulus (GPa) = 46.73229 17.25173 31.99201
#
# Velocity S-wave (km/s) = 5.04146 3.06312 4.17127
# Velocity P-wave (km/s) = 6.24189 7.30047 6.79183
#
# Compressibility (1/GPa) = 0.10721418
#
# Stress axis : x y z
#
# Youngs Moduli (GPa) = 87.26083 5.01725 36.14661
#
# Poissons Ratio (x) = 0.09941 0.20227
# Poissons Ratio (y) = 1.72904 1.45314
# Poissons Ratio (z) = 0.48830 0.20170
#
# Static dielectric constant tensor:
#      x y z
#    x 1.609100 0.000000 0.000000 
#    y 0.000000 1.616900 0.000000 
#    z 0.000000 0.000000 1.646040 
# 
# From -- ./inp_files/25224.got.cif
#   From: 2010.05.17/outbox.cif.g08.bks.cpg/sg47_13_cif.got.tgz:25224.got - 2010.06.03 20:15:42.
