data_PCOD9385068
_publ_section_title
;
Structure prediction by ZEFSAII (Michael W. Deem and Ramdas Pophale) SiO2 
 PCOD9385068
Probable space group: P M M M
;
_chemical_formula_sum "Si O2"
_cell_formula_units_Z 56
_cell_length_a 14.183287
_cell_length_b 9.587975
_cell_length_c 22.164196
_cell_angle_alpha 90.000000
_cell_angle_beta 90.000000
_cell_angle_gamma 90.000000
_cell_volume 3014.086876
_symmetry_space_group_name_H-M "P M M M"
_symmetry_group_IT_number 47
_symmetry_cell_setting 'orthorhombic'
loop_
_space_group_symop_operation_xyz
x,y,z
-x,-y,z
x,-y,-z
-x,y,-z
-x,-y,-z
x,y,-z
-x,y,z
x,-y,z
loop_
_atom_site_type_symbol
_atom_site_label
_atom_site_fract_x
_atom_site_fract_y
_atom_site_fract_z
Si Si1 0.614124 0.661446 0.500000
Si Si2 0.786489 0.334274 0.711781
Si Si3 0.606134 0.659482 0.073254
Si Si4 0.892111 0.662791 0.833693
Si Si5 0.212147 0.164658 0.071760
Si Si6 0.114299 0.340320 0.500000
Si Si7 0.392204 0.669328 0.366348
Si Si8 0.113173 0.841322 0.386299
O O1 0.645325 0.500000 0.500000
O O2 0.500000 0.660347 0.500000
O O3 0.638525 0.720607 0.566424
O O4 0.801804 0.500000 0.699453
O O5 0.815645 0.312371 0.780958
O O6 0.682458 0.298257 0.686289
O O7 0.855399 0.238079 0.673177
O O8 0.500000 0.696485 0.093429
O O9 0.626376 0.500000 0.092672
O O10 0.688793 0.763877 0.090465
O O11 0.604089 0.658393 0.000000
O O12 0.884774 0.500000 0.851274
O O13 0.867936 0.760273 0.889706
O O14 0.000000 0.685273 0.812094
O O15 0.214260 0.000000 0.082570
O O16 0.199768 0.187637 0.000000
O O17 0.145745 0.500000 0.500000
O O18 0.144775 0.254702 0.558227
O O19 0.000000 0.343219 0.500000
O O20 0.500000 0.715135 0.354505
O O21 0.394575 0.500000 0.370513
O O22 0.000000 0.847348 0.388944
O O23 0.148615 0.000000 0.389854
#
# Coordination Sequence:
#
# PCOD9385068 Si02
#       8
#     4   8   8   8   8   4   8   8
#     4   7  10  19  38  67 103 137 166 201 249 302
#     4  10  20  34  54  78 103 135 178 223 263 312
#     4   8  14  27  50  80 113 147 178 206 242 297
#     4  10  22  39  56  75 103 139 179 226 279 336
#     4  10  21  36  56  83 111 138 173 222 278 336
#     4   9  17  30  49  72  99 133 174 220 265 309
#     4   8  14  26  46  74 108 142 176 218 265 310
#     4  10  20  33  49  71 102 138 174 215 265 317
#
# _framework density 18.579425000000001
#
# number of rings (size 3 to 8) (size 9 to 14) (size 15 to 20)
#    0.000    2.857    0.000    2.786    0.000    5.143 
#    0.000    5.000    0.000    3.000    0.000    0.000 
#    0.000    2.857    0.000    0.000    0.000    0.000 
#
# Total GULP energy -311978.235304 kJ/mol
# GULP energy per Si atom -5571.039916 kJ/mol
# Density = 1.853714 g / cm^3
# Si number density = 18.579425 Si / 1000 Ang^3
#
#
#
# Elastic Constant Matrix: (Units=GPa)
#
#
# Indices 1 2 3 4 5 6 
#
# 1 97.9691 29.3527 40.7098 0.0000 0.0000 0.0000
# 2 29.3527 75.8925 57.2337 0.0000 0.0000 0.0000
# 3 40.7098 57.2337 70.4518 0.0000 0.0000 0.0000
# 4 0.0000 0.0000 0.0000 -8.4188 0.0000 0.0000
# 5 0.0000 0.0000 0.0000 0.0000 30.9135 0.0000
# 6 0.0000 0.0000 0.0000 0.0000 0.0000 15.2710
#
#
#
# Elastic Compliance Matrix: (Units=1/GPa)
#
#
# Indices 1 2 3 4 5 6 
#
# 1 0.013518 0.001710 -0.009201 0.000000 0.000000 0.000000
# 2 0.001710 0.034234 -0.028799 0.000000 0.000000 0.000000
# 3 -0.009201 -0.028799 0.042906 0.000000 0.000000 0.000000
# 4 0.000000 0.000000 0.000000 -0.118782 0.000000 0.000000
# 5 0.000000 0.000000 0.000000 0.000000 0.032348 0.000000
# 6 0.000000 0.000000 0.000000 0.000000 0.000000 0.065484
#
#
# Mechanical properties :
#
#
# Convention : Reuss Voigt Hill
#
# Bulk Modulus (GPa) = 55.31197 55.43398 55.37298
# Shear Modulus (GPa) = 33.71243 15.35428 24.53335
#
# Velocity S-wave (km/s) = 4.26432 2.87786 3.63775
# Velocity P-wave (km/s) = 7.35398 6.39873 6.89293
#
# Compressibility (1/GPa) = 0.01807927
#
# Stress axis : x y z
#
# Youngs Moduli (GPa) = 73.97478 29.21109 23.30655
#
# Poissons Ratio (x) = -0.04996 0.21444
# Poissons Ratio (y) = -0.12652 0.67121
# Poissons Ratio (z) = 0.68062 0.84125
#
# Static dielectric constant tensor:
#      x y z
#    x 1.685150 0.000000 0.000000 
#    y 0.000000 1.609640 0.000000 
#    z 0.000000 0.000000 1.659160 
# 
# From -- ./inp_files/31006.got.cif
#   From: 2010.05.17/outbox.cif.g08.bks.cpg/sg47_16_cif.got.tgz:31006.got - 2010.06.03 20:15:42.
