data_PCOD9385631
_publ_section_title
;
Structure prediction by ZEFSAII (Michael W. Deem and Ramdas Pophale) SiO2 
 PCOD9385631
Probable space group: P M M M
;
_chemical_formula_sum "Si O2"
_cell_formula_units_Z 40
_cell_length_a 8.765901
_cell_length_b 31.317580
_cell_length_c 7.441333
_cell_angle_alpha 90.000000
_cell_angle_beta 90.000000
_cell_angle_gamma 90.000000
_cell_volume 2042.845380
_symmetry_space_group_name_H-M "P M M M"
_symmetry_group_IT_number 47
_symmetry_cell_setting 'orthorhombic'
loop_
_space_group_symop_operation_xyz
x,y,z
-x,-y,z
x,-y,-z
-x,y,-z
-x,-y,-z
x,y,-z
-x,y,z
x,-y,z
loop_
_atom_site_type_symbol
_atom_site_label
_atom_site_fract_x
_atom_site_fract_y
_atom_site_fract_z
Si Si1 0.684531 0.206948 0.500000
Si Si2 0.686398 0.138806 0.207060
Si Si3 0.819306 0.698696 0.500000
Si Si4 0.822061 0.453125 0.781669
Si Si5 0.320539 0.954088 0.218634
Si Si6 0.319019 0.363944 0.211968
O O1 0.500000 0.210089 0.500000
O O2 0.731704 0.178349 0.329201
O O3 0.751674 0.253912 0.500000
O O4 0.500000 0.136901 0.210839
O O5 0.740920 0.092133 0.275046
O O6 0.731983 0.144281 0.000000
O O7 0.761976 0.672020 0.328213
O O8 0.000000 0.700611 0.500000
O O9 0.767028 0.500000 0.721390
O O10 0.732273 0.411140 0.725288
O O11 0.000000 0.449036 0.731053
O O12 0.816311 0.453671 0.000000
O O13 0.500000 0.954870 0.268392
O O14 0.254021 0.000000 0.276135
O O15 0.315735 0.953276 0.000000
O O16 0.500000 0.359863 0.232353
O O17 0.281405 0.360102 0.000000
#
# Coordination Sequence:
#
# PCOD9385631 Si02
#       6
#     4   8   4   8   8   8
#     4  10  20  34  51  71  95 124 166 218 267 317
#     4   8  14  25  42  65  94 128 162 199 249 306
#     4  12  26  42  59  78 105 141 182 231 281 332
#     4   8  14  27  50  81 117 154 186 215 254 310
#     4   7   9  15  30  54  87 126 160 188 229 292
#     4  10  21  38  61  87 114 144 180 225 275 325
#
# _framework density 19.580532000000002
#
# number of rings (size 3 to 8) (size 9 to 14) (size 15 to 20)
#    0.000    3.200    0.000    3.900    0.000    2.400 
#    0.000    5.000    0.000    6.000    0.000    0.000 
#    0.000    1.600    0.000    5.000    0.000    4.000 
#
# Total GULP energy -222956.186353 kJ/mol
# GULP energy per Si atom -5573.904659 kJ/mol
# Density = 1.953597 g / cm^3
# Si number density = 19.580532 Si / 1000 Ang^3
#
#
#
# Elastic Constant Matrix: (Units=GPa)
#
#
# Indices 1 2 3 4 5 6 
#
# 1 32.1890 59.1330 32.4779 0.0000 0.0000 0.0000
# 2 59.1330 241.1410 76.7851 0.0000 0.0000 0.0000
# 3 32.4779 76.7851 87.6566 0.0000 0.0000 0.0000
# 4 0.0000 0.0000 0.0000 35.1308 0.0000 0.0000
# 5 0.0000 0.0000 0.0000 0.0000 9.6632 0.0000
# 6 0.0000 0.0000 0.0000 0.0000 0.0000 -45.5288
#
#
#
# Elastic Compliance Matrix: (Units=1/GPa)
#
#
# Indices 1 2 3 4 5 6 
#
# 1 0.067837 -0.011971 -0.014648 0.000000 0.000000 0.000000
# 2 -0.011971 0.007864 -0.002453 0.000000 0.000000 0.000000
# 3 -0.014648 -0.002453 0.018984 0.000000 0.000000 0.000000
# 4 0.000000 0.000000 0.000000 0.028465 0.000000 0.000000
# 5 0.000000 0.000000 0.000000 0.000000 0.103486 0.000000
# 6 0.000000 0.000000 0.000000 0.000000 0.000000 -0.021964
#
#
# Mechanical properties :
#
#
# Convention : Reuss Voigt Hill
#
# Bulk Modulus (GPa) = 27.36663 77.53094 52.44878
# Shear Modulus (GPa) = 18.18205 12.69241 15.43723
#
# Velocity S-wave (km/s) = 3.05056 2.54877 2.81089
# Velocity P-wave (km/s) = 5.13952 6.95295 6.11385
#
# Compressibility (1/GPa) = 0.03654085
#
# Stress axis : x y z
#
# Youngs Moduli (GPa) = 14.74113 127.16955 52.67512
#
# Poissons Ratio (x) = 1.52232 0.77161
# Poissons Ratio (y) = 0.17646 0.12921
# Poissons Ratio (z) = 0.21594 0.31194
#
# Static dielectric constant tensor:
#      x y z
#    x 1.655790 0.000000 0.000000 
#    y 0.000000 1.696210 0.000000 
#    z 0.000000 0.000000 1.732080 
# 
# From -- ./inp_files/1802.got.cif
#   From: 2010.05.17/outbox.cif.g08.bks.cpg/sg47_1_cif.got.tgz:1802.got - 2010.06.03 20:15:42.
