data_PCOD9385351
_publ_section_title
;
Structure prediction by ZEFSAII (Michael W. Deem and Ramdas Pophale) SiO2 
 PCOD9385351
Probable space group: P M M M
;
_chemical_formula_sum "Si O2"
_cell_formula_units_Z 48
_cell_length_a 9.431304
_cell_length_b 7.548257
_cell_length_c 35.475135
_cell_angle_alpha 90.000000
_cell_angle_beta 90.000000
_cell_angle_gamma 90.000000
_cell_volume 2525.471541
_symmetry_space_group_name_H-M "P M M M"
_symmetry_group_IT_number 47
_symmetry_cell_setting 'orthorhombic'
loop_
_space_group_symop_operation_xyz
x,y,z
-x,-y,z
x,-y,-z
-x,y,-z
-x,-y,-z
x,y,-z
-x,y,z
x,-y,z
loop_
_atom_site_type_symbol
_atom_site_label
_atom_site_fract_x
_atom_site_fract_y
_atom_site_fract_z
Si Si1 0.666718 0.709784 0.455656
Si Si2 0.169170 0.708994 0.262094
Si Si3 0.337499 0.716366 0.186887
Si Si4 0.840699 0.710476 0.884435
Si Si5 0.829124 0.000000 0.591284
Si Si6 0.171570 0.000000 0.678117
Si Si7 0.661624 0.786551 0.957756
O O1 0.693000 0.746232 0.500000
O O2 0.500000 0.747991 0.448624
O O3 0.688761 0.500000 0.449557
O O4 0.765131 0.829955 0.429919
O O5 0.193843 0.500000 0.268750
O O6 0.252911 0.764624 0.224630
O O7 0.213073 0.828136 0.297546
O O8 0.000000 0.732480 0.255833
O O9 0.500000 0.775823 0.187522
O O10 0.339269 0.500000 0.185973
O O11 0.256118 0.780011 0.149587
O O12 0.851169 0.500000 0.878128
O O13 0.765875 0.734557 0.924548
O O14 0.000000 0.783534 0.884036
O O15 0.781640 0.000000 0.634974
O O16 0.000000 0.000000 0.589554
O O17 0.000000 0.000000 0.676869
O O18 0.500000 0.725922 0.950130
O O19 0.658634 0.000000 0.958568
O O20 0.701718 0.726323 0.000000
#
# Coordination Sequence:
#
# PCOD9385351 Si02
#       7
#     8   8   8   8   4   4   8
#     4   9  19  37  59  81 109 151 200 243 287 344
#     4   9  17  33  56  75  97 135 178 218 262 316
#     4   9  17  31  52  76 101 128 160 204 258 308
#     4  10  20  33  51  77 105 131 164 204 246 300
#     4  11  22  34  53  84 120 152 186 237 295 344
#     4   9  20  36  52  77 110 144 183 221 266 334
#     4   9  19  36  54  71  96 131 168 205 247 297
#
# _framework density 19.006350999999999
#
# number of rings (size 3 to 8) (size 9 to 14) (size 15 to 20)
#    0.000    2.667    0.000    2.500    0.000    6.333 
#    1.500    7.083    0.000    2.000    0.000    0.000 
#    0.000    0.000    0.000    0.000    0.000    0.000 
#
# Total GULP energy -267889.028693 kJ/mol
# GULP energy per Si atom -5581.021431 kJ/mol
# Density = 1.896309 g / cm^3
# Si number density = 19.006351 Si / 1000 Ang^3
#
#
#
# Elastic Constant Matrix: (Units=GPa)
#
#
# Indices 1 2 3 4 5 6 
#
# 1 114.4198 46.3409 103.9468 0.0000 0.0000 0.0000
# 2 46.3409 65.1303 56.7211 0.0000 0.0000 0.0000
# 3 103.9468 56.7211 175.4687 0.0000 0.0000 0.0000
# 4 0.0000 0.0000 0.0000 313.7260 0.0000 0.0000
# 5 0.0000 0.0000 0.0000 0.0000 50.9761 0.0000
# 6 0.0000 0.0000 0.0000 0.0000 0.0000 13.1693
#
#
#
# Elastic Compliance Matrix: (Units=1/GPa)
#
#
# Indices 1 2 3 4 5 6 
#
# 1 0.020254 -0.005514 -0.010216 0.000000 0.000000 0.000000
# 2 -0.005514 0.022871 -0.004127 0.000000 0.000000 0.000000
# 3 -0.010216 -0.004127 0.013085 0.000000 0.000000 0.000000
# 4 0.000000 0.000000 0.000000 0.003187 0.000000 0.000000
# 5 0.000000 0.000000 0.000000 0.000000 0.019617 0.000000
# 6 0.000000 0.000000 0.000000 0.000000 0.000000 0.075934
#
#
# Mechanical properties :
#
#
# Convention : Reuss Voigt Hill
#
# Bulk Modulus (GPa) = 60.61866 85.44849 73.03357
# Shear Modulus (GPa) = 24.98005 85.44161 55.21083
#
# Velocity S-wave (km/s) = 3.62926 6.71207 5.39552
# Velocity P-wave (km/s) = 7.03741 10.25303 8.79346
#
# Compressibility (1/GPa) = 0.01649657
#
# Stress axis : x y z
#
# Youngs Moduli (GPa) = 49.37396 43.72357 76.42469
#
# Poissons Ratio (x) = 0.24109 0.78074
# Poissons Ratio (y) = 0.27224 0.31539
# Poissons Ratio (z) = 0.50439 0.18044
#
# Static dielectric constant tensor:
#      x y z
#    x 1.643930 0.000000 0.000000 
#    y 0.000000 1.691950 0.000000 
#    z 0.000000 0.000000 1.628630 
# 
# From -- ./inp_files/34090.got.cif
#   From: 2010.05.17/outbox.cif.g08.bks.cpg/sg47_18_cif.got.tgz:34090.got - 2010.06.03 20:15:42.
