data_PCOD9385377
_publ_section_title
;
Structure prediction by ZEFSAII (Michael W. Deem and Ramdas Pophale) SiO2 
 PCOD9385377
Probable space group: P M M M
;
_chemical_formula_sum "Si O2"
_cell_formula_units_Z 64
_cell_length_a 20.093143
_cell_length_b 7.995932
_cell_length_c 21.432502
_cell_angle_alpha 90.000000
_cell_angle_beta 90.000000
_cell_angle_gamma 90.000000
_cell_volume 3443.418751
_symmetry_space_group_name_H-M "P M M M"
_symmetry_group_IT_number 47
_symmetry_cell_setting 'orthorhombic'
loop_
_space_group_symop_operation_xyz
x,y,z
-x,-y,z
x,-y,-z
-x,y,-z
-x,-y,-z
x,y,-z
-x,y,z
x,-y,z
loop_
_atom_site_type_symbol
_atom_site_label
_atom_site_fract_x
_atom_site_fract_y
_atom_site_fract_z
Si Si1 0.425564 0.702034 0.232331
Si Si2 0.284981 0.197230 0.807467
Si Si3 0.925493 0.306011 0.894252
Si Si4 0.203352 0.303657 0.687675
Si Si5 0.216351 0.197080 0.067397
Si Si6 0.074058 0.194782 0.754823
Si Si7 0.573352 0.703604 0.378635
Si Si8 0.713720 0.295062 0.569513
O O1 0.500000 0.752021 0.212159
O O2 0.421633 0.500000 0.229362
O O3 0.363927 0.776161 0.195085
O O4 0.418740 0.748281 0.305593
O O5 0.252659 0.279218 0.746331
O O6 0.252312 0.266266 0.870970
O O7 0.269351 0.000000 0.803218
O O8 0.923321 0.500000 0.912840
O O9 0.862850 0.215930 0.924165
O O10 0.916397 0.293941 0.819285
O O11 0.000000 0.240585 0.908131
O O12 0.192452 0.500000 0.678957
O O13 0.133122 0.226177 0.707018
O O14 0.238546 0.236917 0.625294
O O15 0.232253 0.000000 0.066248
O O16 0.235564 0.269785 0.000000
O O17 0.000000 0.233685 0.730420
O O18 0.075684 0.000000 0.772963
O O19 0.500000 0.760333 0.399842
O O20 0.572732 0.500000 0.381134
O O21 0.638036 0.759594 0.415985
O O22 0.733749 0.244357 0.500000
O O23 0.713432 0.500000 0.571460
#
# Coordination Sequence:
#
# PCOD9385377 Si02
#       8
#     8   8   8   8   8   8   8   8
#     4   9  17  31  52  77 104 133 168 213 264 311
#     4  11  21  33  53  78 103 134 174 217 258 307
#     4  10  20  33  51  77 107 138 172 209 252 305
#     4  11  20  32  53  78 105 136 172 216 260 303
#     4  10  22  38  53  72 102 141 179 215 259 308
#     4  10  20  34  53  77 104 133 169 214 261 309
#     4   8  13  23  41  67  99 133 168 204 244 293
#     4   9  17  28  44  71 105 138 172 211 256 303
#
# _framework density 18.586179000000001
#
# number of rings (size 3 to 8) (size 9 to 14) (size 15 to 20)
#    0.000    2.250    2.500    2.250    0.000    3.000 
#    0.000    2.500    0.000    2.250    0.000    5.250 
#    0.000    2.000    0.000    0.000    0.000    0.000 
#
# Total GULP energy -357046.403741 kJ/mol
# GULP energy per Si atom -5578.850058 kJ/mol
# Density = 1.854388 g / cm^3
# Si number density = 18.586179 Si / 1000 Ang^3
#
#
#
# Elastic Constant Matrix: (Units=GPa)
#
#
# Indices 1 2 3 4 5 6 
#
# 1 100.3187 -4.8281 50.7196 0.0000 0.0000 0.0000
# 2 -4.8281 16.8640 -2.3547 0.0000 0.0000 0.0000
# 3 50.7196 -2.3547 107.4002 0.0000 0.0000 0.0000
# 4 0.0000 0.0000 0.0000 11.8220 0.0000 0.0000
# 5 0.0000 0.0000 0.0000 0.0000 14.6156 0.0000
# 6 0.0000 0.0000 0.0000 0.0000 0.0000 -70.0120
#
#
#
# Elastic Compliance Matrix: (Units=1/GPa)
#
#
# Indices 1 2 3 4 5 6 
#
# 1 0.013237 0.002926 -0.006187 0.000000 0.000000 0.000000
# 2 0.002926 0.060127 -0.000064 0.000000 0.000000 0.000000
# 3 -0.006187 -0.000064 0.012231 0.000000 0.000000 0.000000
# 4 0.000000 0.000000 0.000000 0.084588 0.000000 0.000000
# 5 0.000000 0.000000 0.000000 0.000000 0.068420 0.000000
# 6 0.000000 0.000000 0.000000 0.000000 0.000000 -0.014283
#
#
# Mechanical properties :
#
#
# Convention : Reuss Voigt Hill
#
# Bulk Modulus (GPa) = 12.66691 34.62848 23.64770
# Shear Modulus (GPa) = 19.43372 3.35486 11.39429
#
# Velocity S-wave (km/s) = 3.23708 1.34497 2.47867
# Velocity P-wave (km/s) = 4.56088 4.59170 4.57631
#
# Compressibility (1/GPa) = 0.07894586
#
# Stress axis : x y z
#
# Youngs Moduli (GPa) = 75.54504 16.63155 81.75668
#
# Poissons Ratio (x) = -0.04866 0.50583
# Poissons Ratio (y) = -0.22104 0.00519
# Poissons Ratio (z) = 0.46740 0.00106
#
# Static dielectric constant tensor:
#      x y z
#    x 1.649130 0.000000 0.000000 
#    y 0.000000 1.670780 0.000000 
#    z 0.000000 0.000000 1.645660 
# 
# From -- ./inp_files/31515.got.cif
#   From: 2010.05.17/outbox.cif.g08.bks.cpg/sg47_16_cif.got.tgz:31515.got - 2010.06.03 20:15:42.
