data_PCOD9385782
_publ_section_title
;
Structure prediction by ZEFSAII (Michael W. Deem and Ramdas Pophale) SiO2 
 PCOD9385782
Probable space group: P M M M
;
_chemical_formula_sum "Si O2"
_cell_formula_units_Z 52
_cell_length_a 15.700390
_cell_length_b 20.769970
_cell_length_c 7.943858
_cell_angle_alpha 90.000000
_cell_angle_beta 90.000000
_cell_angle_gamma 90.000000
_cell_volume 2590.465317
_symmetry_space_group_name_H-M "P M M M"
_symmetry_group_IT_number 47
_symmetry_cell_setting 'orthorhombic'
loop_
_space_group_symop_operation_xyz
x,y,z
-x,-y,z
x,-y,-z
-x,y,-z
-x,-y,-z
x,y,-z
-x,y,z
x,-y,z
loop_
_atom_site_type_symbol
_atom_site_label
_atom_site_fract_x
_atom_site_fract_y
_atom_site_fract_z
Si Si1 0.095949 0.073380 0.296970
Si Si2 0.164813 0.573350 0.705590
Si Si3 0.403058 0.220671 0.197087
Si Si4 0.500000 0.424554 0.808749
Si Si5 0.662984 0.357389 0.693940
Si Si6 0.775112 0.184702 0.800336
Si Si7 0.907755 0.706463 0.702772
O O1 0.093873 0.073103 0.500000
O O2 0.166685 0.124118 0.245071
O O3 0.000000 0.091131 0.239525
O O4 0.113128 0.000000 0.240939
O O5 0.163393 0.570535 0.500000
O O6 0.149725 0.500000 0.764335
O O7 0.256647 0.601944 0.757569
O O8 0.103345 0.632014 0.756309
O O9 0.500000 0.216481 0.268612
O O10 0.367165 0.293321 0.211974
O O11 0.321559 0.182167 0.271020
O O12 0.410865 0.204255 0.000000
O O13 0.500000 0.500000 0.824397
O O14 0.582324 0.402875 0.709052
O O15 0.500000 0.396593 0.000000
O O16 0.680835 0.339393 0.500000
O O17 0.828706 0.248504 0.751075
O O18 0.766518 0.187097 0.000000
O O19 0.908864 0.706887 0.500000
O O20 0.000000 0.731309 0.762493
#
# Coordination Sequence:
#
# PCOD9385782 Si02
#       7
#     8   8   8   4   8   8   8
#     4   9  19  37  61  89 121 155 186 216 258 315
#     4   9  18  32  49  71  99 130 171 228 283 325
#     4  10  21  37  55  75 105 143 182 222 272 332
#     4  11  23  35  47  67  99 135 168 211 278 355
#     4  11  20  32  52  74  97 127 172 231 282 327
#     4  11  22  35  56  84 114 146 181 225 271 321
#     4  10  20  34  53  76 104 141 184 227 273 330
#
# _framework density 20.073613999999999
#
# number of rings (size 3 to 8) (size 9 to 14) (size 15 to 20)
#    0.000    1.923    2.308    2.538    0.000    4.923 
#    0.000    2.308    0.000    1.846    0.000    4.308 
#    0.000    0.000    0.000    0.000    0.000    0.000 
#
# Total GULP energy -289925.057639 kJ/mol
# GULP energy per Si atom -5575.481878 kJ/mol
# Density = 2.002793 g / cm^3
# Si number density = 20.073614 Si / 1000 Ang^3
#
#
#
# Elastic Constant Matrix: (Units=GPa)
#
#
# Indices 1 2 3 4 5 6 
#
# 1 161.5127 69.9120 13.3041 0.0000 0.0000 0.0000
# 2 69.9120 106.3040 5.5969 0.0000 0.0000 0.0000
# 3 13.3041 5.5969 24.7506 0.0000 0.0000 0.0000
# 4 0.0000 0.0000 0.0000 149.9568 0.0000 0.0000
# 5 0.0000 0.0000 0.0000 0.0000 16.6979 0.0000
# 6 0.0000 0.0000 0.0000 0.0000 0.0000 30.9118
#
#
#
# Elastic Compliance Matrix: (Units=1/GPa)
#
#
# Indices 1 2 3 4 5 6 
#
# 1 0.008949 -0.005700 -0.003521 0.000000 0.000000 0.000000
# 2 -0.005700 0.013151 0.000090 0.000000 0.000000 0.000000
# 3 -0.003521 0.000090 0.042275 0.000000 0.000000 0.000000
# 4 0.000000 0.000000 0.000000 0.006669 0.000000 0.000000
# 5 0.000000 0.000000 0.000000 0.000000 0.059888 0.000000
# 6 0.000000 0.000000 0.000000 0.000000 0.000000 0.032350
#
#
# Mechanical properties :
#
#
# Convention : Reuss Voigt Hill
#
# Bulk Modulus (GPa) = 21.68596 52.24372 36.96484
# Shear Modulus (GPa) = 25.39175 53.09695 39.24435
#
# Velocity S-wave (km/s) = 3.56045 5.14864 4.42636
# Velocity P-wave (km/s) = 5.26584 7.83756 6.67669
#
# Compressibility (1/GPa) = 0.04611278
#
# Stress axis : x y z
#
# Youngs Moduli (GPa) = 111.74757 76.04094 23.65440
#
# Poissons Ratio (x) = 0.43342 0.08329
# Poissons Ratio (y) = 0.63694 -0.00213
# Poissons Ratio (z) = 0.39349 -0.00685
#
# Static dielectric constant tensor:
#      x y z
#    x 1.758930 0.000000 0.000000 
#    y 0.000000 1.702370 0.000000 
#    z 0.000000 0.000000 1.755410 
# 
# From -- ./inp_files/7044.got.cif
#   From: 2010.05.17/outbox.cif.g08.bks.cpg/sg47_4_cif.got.tgz:7044.got - 2010.06.03 20:15:42.
