data_PCOD9385393
_publ_section_title
;
Structure prediction by ZEFSAII (Michael W. Deem and Ramdas Pophale) SiO2 
 PCOD9385393
Probable space group: P M M M
;
_chemical_formula_sum "Si O2"
_cell_formula_units_Z 52
_cell_length_a 21.275410
_cell_length_b 14.872418
_cell_length_c 8.234795
_cell_angle_alpha 90.000000
_cell_angle_beta 90.000000
_cell_angle_gamma 90.000000
_cell_volume 2605.627405
_symmetry_space_group_name_H-M "P M M M"
_symmetry_group_IT_number 47
_symmetry_cell_setting 'orthorhombic'
loop_
_space_group_symop_operation_xyz
x,y,z
-x,-y,z
x,-y,-z
-x,y,-z
-x,-y,-z
x,y,-z
-x,y,z
x,-y,z
loop_
_atom_site_type_symbol
_atom_site_label
_atom_site_fract_x
_atom_site_fract_y
_atom_site_fract_z
Si Si1 0.806125 0.781785 0.188072
Si Si2 0.568145 0.790050 0.696055
Si Si3 0.928535 0.302295 0.195443
Si Si4 0.076231 0.500000 0.684925
Si Si5 0.391875 0.401426 0.805848
Si Si6 0.690724 0.102092 0.694782
Si Si7 0.750703 0.399296 0.690967
O O1 0.876730 0.768760 0.256273
O O2 0.755745 0.847247 0.268576
O O3 0.778409 0.681338 0.205699
O O4 0.810300 0.807336 0.000000
O O5 0.570248 0.792088 0.500000
O O6 0.500000 0.827819 0.746980
O O7 0.572040 0.686687 0.750433
O O8 0.629973 0.842540 0.756942
O O9 0.907588 0.404266 0.237003
O O10 0.000000 0.289205 0.255986
O O11 0.929817 0.295970 0.000000
O O12 0.098568 0.500000 0.500000
O O13 0.000000 0.500000 0.686266
O O14 0.419974 0.500000 0.768960
O O15 0.324055 0.397983 0.719886
O O16 0.382657 0.397037 0.000000
O O17 0.684578 0.098780 0.500000
O O18 0.691028 0.000000 0.756960
O O19 0.763338 0.383482 0.500000
O O20 0.772855 0.500000 0.734261
#
# Coordination Sequence:
#
# PCOD9385393 Si02
#       7
#     8   8   8   4   8   8   8
#     4  11  22  35  57  85 111 145 187 231 279 330
#     4  10  21  37  58  84 113 147 186 226 272 330
#     4   9  19  35  52  74 110 153 192 228 270 323
#     4   9  17  29  47  75 111 151 194 233 270 315
#     4  10  20  34  53  79 113 152 191 229 270 319
#     4  10  22  41  63  85 110 141 179 228 287 346
#     4  10  20  33  51  77 111 150 188 229 275 324
#
# _framework density 19.956804999999999
#
# number of rings (size 3 to 8) (size 9 to 14) (size 15 to 20)
#    0.000    2.077    1.538    1.615    1.077    5.231 
#    0.000    3.077    0.000    0.462    0.000    5.385 
#    0.000    0.000    0.000    0.000    0.000    0.000 
#
# Total GULP energy -290167.330476 kJ/mol
# GULP energy per Si atom -5580.140971 kJ/mol
# Density = 1.991138 g / cm^3
# Si number density = 19.956805 Si / 1000 Ang^3
#
#
#
# Elastic Constant Matrix: (Units=GPa)
#
#
# Indices 1 2 3 4 5 6 
#
# 1 137.9816 69.8220 10.8266 0.0000 0.0000 0.0000
# 2 69.8220 109.8898 9.4300 0.0000 0.0000 0.0000
# 3 10.8266 9.4300 15.3307 0.0000 0.0000 0.0000
# 4 0.0000 0.0000 0.0000 -11.7933 0.0000 0.0000
# 5 0.0000 0.0000 0.0000 0.0000 13.0833 0.0000
# 6 0.0000 0.0000 0.0000 0.0000 0.0000 5.1233
#
#
#
# Elastic Compliance Matrix: (Units=1/GPa)
#
#
# Indices 1 2 3 4 5 6 
#
# 1 0.010869 -0.006595 -0.003619 0.000000 0.000000 0.000000
# 2 -0.006595 0.013609 -0.003714 0.000000 0.000000 0.000000
# 3 -0.003619 -0.003714 0.070069 0.000000 0.000000 0.000000
# 4 0.000000 0.000000 0.000000 -0.084794 0.000000 0.000000
# 5 0.000000 0.000000 0.000000 0.000000 0.076433 0.000000
# 6 0.000000 0.000000 0.000000 0.000000 0.000000 0.195186
#
#
# Mechanical properties :
#
#
# Convention : Reuss Voigt Hill
#
# Bulk Modulus (GPa) = 14.99445 49.26215 32.12830
# Shear Modulus (GPa) = 15.08490 12.82423 13.95456
#
# Velocity S-wave (km/s) = 2.75231 2.53770 2.64718
# Velocity P-wave (km/s) = 4.19881 5.77274 5.04750
#
# Compressibility (1/GPa) = 0.06669135
#
# Stress axis : x y z
#
# Youngs Moduli (GPa) = 92.00814 73.47989 14.27174
#
# Poissons Ratio (x) = 0.48461 0.05165
# Poissons Ratio (y) = 0.60681 0.05300
# Poissons Ratio (z) = 0.33295 0.27287
#
# Static dielectric constant tensor:
#      x y z
#    x 1.779660 0.000000 0.000000 
#    y 0.000000 1.681640 0.000000 
#    z 0.000000 0.000000 1.692340 
# 
# From -- ./inp_files/10977.got.cif
#   From: 2010.05.17/outbox.cif.g08.bks.cpg/sg47_6_cif.got.tgz:10977.got - 2010.06.03 20:15:42.
