data_PCOD9385097
_publ_section_title
;
Structure prediction by ZEFSAII (Michael W. Deem and Ramdas Pophale) SiO2 
 PCOD9385097
Probable space group: P M M M
;
_chemical_formula_sum "Si O2"
_cell_formula_units_Z 45
_cell_length_a 12.783731
_cell_length_b 7.899421
_cell_length_c 24.448859
_cell_angle_alpha 90.000000
_cell_angle_beta 90.000000
_cell_angle_gamma 90.000000
_cell_volume 2468.945365
_symmetry_space_group_name_H-M "P M M M"
_symmetry_group_IT_number 47
_symmetry_cell_setting 'orthorhombic'
loop_
_space_group_symop_operation_xyz
x,y,z
-x,-y,z
x,-y,-z
-x,y,-z
-x,-y,-z
x,y,-z
-x,y,z
x,-y,z
loop_
_atom_site_type_symbol
_atom_site_label
_atom_site_fract_x
_atom_site_fract_y
_atom_site_fract_z
Si Si1 0.000000 0.687993 0.278273
Si Si2 0.381226 0.293584 0.651869
Si Si3 0.000000 0.796108 0.093385
Si Si4 0.776987 0.299278 0.439051
Si Si5 0.000000 0.500000 0.000000
Si Si6 0.382270 0.704458 0.222891
Si Si7 0.839425 0.197567 0.810598
Si Si8 0.000000 0.192201 0.397461
O O1 0.100258 0.710347 0.238932
O O2 0.000000 0.803567 0.331446
O O3 0.000000 0.500000 0.301570
O O4 0.500000 0.248450 0.636894
O O5 0.375859 0.500000 0.653276
O O6 0.298803 0.228690 0.607931
O O7 0.362860 0.238444 0.714387
O O8 0.899924 0.767026 0.133075
O O9 0.000000 0.653218 0.047239
O O10 0.000000 0.000000 0.077694
O O11 0.761067 0.228696 0.500000
O O12 0.755357 0.500000 0.441843
O O13 0.895604 0.276729 0.420105
O O14 0.500000 0.760073 0.206965
O O15 0.382956 0.500000 0.222490
O O16 0.283143 0.762766 0.188228
O O17 0.854972 0.000000 0.799447
O O18 0.000000 0.000000 0.416748
#
# Coordination Sequence:
#
# PCOD9385097 Si02
#       8
#     4   8   4   8   1   8   8   4
#     4  11  21  33  54  76 101 134 167 212 270 332
#     4   8  15  29  48  72  99 126 161 209 262 312
#     4   9  22  38  55  89 123 151 198 245 273 323
#     4  10  20  33  50  70  91 121 165 214 260 315
#     4  12  22  36  68  86 114 172 198 228 294 320
#     4   9  17  29  49  76 107 145 187 225 261 319
#     4  10  20  34  52  80 118 147 177 224 270 321
#     4  12  24  36  49  67  93 126 166 208 263 328
#
# _framework density 18.226405
#
# number of rings (size 3 to 8) (size 9 to 14) (size 15 to 20)
#    0.000    2.311    0.000    5.200    3.733    3.556 
#    0.000    1.778    0.000    1.600    0.000    2.489 
#    0.000    2.844    0.000    0.000    0.000    0.000 
#
# Total GULP energy -250748.575676 kJ/mol
# GULP energy per Si atom -5572.190571 kJ/mol
# Density = 1.818492 g / cm^3
# Si number density = 18.226405 Si / 1000 Ang^3
#
#
#
# Elastic Constant Matrix: (Units=GPa)
#
#
# Indices 1 2 3 4 5 6 
#
# 1 138.5832 13.9055 57.6709 0.0000 0.0000 0.0000
# 2 13.9055 41.9820 26.7707 0.0000 0.0000 0.0000
# 3 57.6709 26.7707 81.1167 0.0000 0.0000 0.0000
# 4 0.0000 0.0000 0.0000 5.4494 0.0000 0.0000
# 5 0.0000 0.0000 0.0000 0.0000 -1.7123 0.0000
# 6 0.0000 0.0000 0.0000 0.0000 0.0000 -56.8355
#
#
#
# Elastic Compliance Matrix: (Units=1/GPa)
#
#
# Indices 1 2 3 4 5 6 
#
# 1 0.010332 0.001598 -0.007873 0.000000 0.000000 0.000000
# 2 0.001598 0.030416 -0.011174 0.000000 0.000000 0.000000
# 3 -0.007873 -0.011174 0.021613 0.000000 0.000000 0.000000
# 4 0.000000 0.000000 0.000000 0.183505 0.000000 0.000000
# 5 0.000000 0.000000 0.000000 0.000000 -0.584019 0.000000
# 6 0.000000 0.000000 0.000000 0.000000 0.000000 -0.017595
#
#
# Mechanical properties :
#
#
# Convention : Reuss Voigt Hill
#
# Bulk Modulus (GPa) = 36.41306 50.93069 43.67187
# Shear Modulus (GPa) = -16.04132 0.26931 -7.88600
#
# Velocity S-wave (km/s) = -2.96989 0.38481 -2.08233
# Velocity P-wave (km/s) = 2.87424 5.31050 4.26982
#
# Compressibility (1/GPa) = 0.02746267
#
# Stress axis : x y z
#
# Youngs Moduli (GPa) = 96.78817 32.87747 46.26806
#
# Poissons Ratio (x) = -0.05255 0.36427
# Poissons Ratio (y) = -0.15469 0.51702
# Poissons Ratio (z) = 0.76201 0.36739
#
# Static dielectric constant tensor:
#      x y z
#    x 1.643240 0.000000 0.000000 
#    y 0.000000 1.674570 0.000000 
#    z 0.000000 0.000000 1.604190 
# 
# From -- ./inp_files/32396.got.cif
#   From: 2010.05.17/outbox.cif.g08.bks.cpg/sg47_17_cif.got.tgz:32396.got - 2010.06.03 20:15:42.
