data_PCOD9385381
_publ_section_title
;
Structure prediction by ZEFSAII (Michael W. Deem and Ramdas Pophale) SiO2 
 PCOD9385381
Probable space group: P M M M
;
_chemical_formula_sum "Si O2"
_cell_formula_units_Z 48
_cell_length_a 9.467152
_cell_length_b 7.895943
_cell_length_c 31.590421
_cell_angle_alpha 90.000000
_cell_angle_beta 90.000000
_cell_angle_gamma 90.000000
_cell_volume 2361.450075
_symmetry_space_group_name_H-M "P M M M"
_symmetry_group_IT_number 47
_symmetry_cell_setting 'orthorhombic'
loop_
_space_group_symop_operation_xyz
x,y,z
-x,-y,z
x,-y,-z
-x,y,-z
-x,-y,-z
x,y,-z
-x,y,z
x,-y,z
loop_
_atom_site_type_symbol
_atom_site_label
_atom_site_fract_x
_atom_site_fract_y
_atom_site_fract_z
Si Si1 0.337667 0.207714 0.500000
Si Si2 0.337977 0.704706 0.757355
Si Si3 0.837022 0.292123 0.000000
Si Si4 0.661021 0.704383 0.661605
Si Si5 0.659946 0.298086 0.080968
Si Si6 0.840421 0.797116 0.419195
Si Si7 0.159911 0.799354 0.838160
O O1 0.500000 0.262838 0.500000
O O2 0.255325 0.265267 0.458050
O O3 0.338418 0.000000 0.500000
O O4 0.500000 0.758593 0.766522
O O5 0.337453 0.500000 0.757755
O O6 0.302629 0.760105 0.709430
O O7 0.231032 0.764557 0.792950
O O8 0.753424 0.234138 0.958248
O O9 0.838442 0.500000 0.000000
O O10 0.000000 0.237622 0.000000
O O11 0.500000 0.761139 0.652413
O O12 0.659965 0.500000 0.661954
O O13 0.766512 0.761303 0.625380
O O14 0.500000 0.229312 0.081626
O O15 0.649028 0.500000 0.074961
O O16 0.740761 0.269872 0.124807
O O17 0.000000 0.729759 0.420900
O O18 0.848161 0.000000 0.423958
O O19 0.000000 0.730216 0.840481
O O20 0.152953 0.000000 0.844112
#
# Coordination Sequence:
#
# PCOD9385381 Si02
#       7
#     4   8   4   8   8   8   8
#     4   9  17  31  52  75 100 135 178 218 256 303
#     4   9  19  37  59  80 102 133 175 219 262 311
#     4   9  17  31  54  83 112 141 174 214 260 309
#     4   9  19  36  56  78 105 136 172 215 261 310
#     4  10  20  35  57  83 109 139 178 221 262 308
#     4  10  20  33  51  77 108 139 172 213 260 309
#     4  11  24  38  52  76 110 143 176 217 264 313
#
# _framework density 20.326492999999999
#
# number of rings (size 3 to 8) (size 9 to 14) (size 15 to 20)
#    0.000    2.333    0.000    3.500    0.000    9.333 
#    0.000    5.833    0.000    5.000    0.000    0.000 
#    0.000    0.000    0.000    0.000    0.000    0.000 
#
# Total GULP energy -268062.966932 kJ/mol
# GULP energy per Si atom -5584.645144 kJ/mol
# Density = 2.028023 g / cm^3
# Si number density = 20.326493 Si / 1000 Ang^3
#
#
#
# Elastic Constant Matrix: (Units=GPa)
#
#
# Indices 1 2 3 4 5 6 
#
# 1 210.4464 7.8169 125.8811 0.0000 0.0000 0.0000
# 2 7.8169 16.8786 -2.4545 0.0000 0.0000 0.0000
# 3 125.8811 -2.4545 153.7191 0.0000 0.0000 0.0000
# 4 0.0000 0.0000 0.0000 24.5208 0.0000 0.0000
# 5 0.0000 0.0000 0.0000 0.0000 260.3771 0.0000
# 6 0.0000 0.0000 0.0000 0.0000 0.0000 18.2384
#
#
#
# Elastic Compliance Matrix: (Units=1/GPa)
#
#
# Indices 1 2 3 4 5 6 
#
# 1 0.009840 -0.005742 -0.008150 0.000000 0.000000 0.000000
# 2 -0.005742 0.062735 0.005704 0.000000 0.000000 0.000000
# 3 -0.008150 0.005704 0.013270 0.000000 0.000000 0.000000
# 4 0.000000 0.000000 0.000000 0.040782 0.000000 0.000000
# 5 0.000000 0.000000 0.000000 0.000000 0.003841 0.000000
# 6 0.000000 0.000000 0.000000 0.000000 0.000000 0.054829
#
#
# Mechanical properties :
#
#
# Convention : Reuss Voigt Hill
#
# Bulk Modulus (GPa) = 14.39473 71.50347 42.94910
# Shear Modulus (GPa) = 22.23908 77.28063 49.75985
#
# Velocity S-wave (km/s) = 3.31130 6.17270 4.95312
# Velocity P-wave (km/s) = 4.66012 9.27668 7.34076
#
# Compressibility (1/GPa) = 0.06946988
#
# Stress axis : x y z
#
# Youngs Moduli (GPa) = 101.62718 15.93998 75.35686
#
# Poissons Ratio (x) = 0.09153 0.61413
# Poissons Ratio (y) = 0.58357 -0.42984
# Poissons Ratio (z) = 0.82822 -0.09092
#
# Static dielectric constant tensor:
#      x y z
#    x 1.712760 0.000000 0.000000 
#    y 0.000000 1.749170 0.000000 
#    z 0.000000 0.000000 1.685020 
# 
# From -- ./inp_files/34124.got.cif
#   From: 2010.05.17/outbox.cif.g08.bks.cpg/sg47_18_cif.got.tgz:34124.got - 2010.06.03 20:15:42.
