data_PCOD9385812
_publ_section_title
;
Structure prediction by ZEFSAII (Michael W. Deem and Ramdas Pophale) SiO2 
 PCOD9385812
Probable space group: P M M M
;
_chemical_formula_sum "Si O2"
_cell_formula_units_Z 40
_cell_length_a 9.159155
_cell_length_b 9.181497
_cell_length_c 26.735510
_cell_angle_alpha 90.000000
_cell_angle_beta 90.000000
_cell_angle_gamma 90.000000
_cell_volume 2248.316141
_symmetry_space_group_name_H-M "P M M M"
_symmetry_group_IT_number 47
_symmetry_cell_setting 'orthorhombic'
loop_
_space_group_symop_operation_xyz
x,y,z
-x,-y,z
x,-y,-z
-x,y,-z
-x,-y,-z
x,y,-z
-x,y,z
x,-y,z
loop_
_atom_site_type_symbol
_atom_site_label
_atom_site_fract_x
_atom_site_fract_y
_atom_site_fract_z
Si Si1 0.327240 0.325415 0.602113
Si Si2 0.168067 0.322786 0.500000
Si Si3 0.331679 0.822574 0.000000
Si Si4 0.825396 0.827035 0.101592
Si Si5 0.177794 0.667537 0.797277
Si Si6 0.174822 0.172498 0.304551
O O1 0.500000 0.298591 0.599458
O O2 0.305296 0.500000 0.607420
O O3 0.250474 0.277910 0.550482
O O4 0.256045 0.245596 0.649096
O O5 0.168739 0.500000 0.500000
O O6 0.000000 0.274588 0.500000
O O7 0.251820 0.776102 0.949180
O O8 0.500000 0.778338 0.000000
O O9 0.325872 0.000000 0.000000
O O10 0.775315 0.743367 0.151216
O O11 0.000000 0.808353 0.096171
O O12 0.798449 0.000000 0.108050
O O13 0.224663 0.500000 0.794716
O O14 0.222170 0.754661 0.747733
O O15 0.000000 0.669958 0.797870
O O16 0.000000 0.196108 0.309958
O O17 0.200531 0.000000 0.303032
#
# Coordination Sequence:
#
# PCOD9385812 Si02
#       6
#     8   4   4   8   8   8
#     4  10  20  34  53  78 108 140 173 210 253 302
#     4   9  17  31  54  81 106 135 172 212 254 301
#     4   9  17  29  46  69  96 126 160 197 240 292
#     4   9  16  28  48  72  96 124 161 203 244 289
#     4   9  17  30  50  75 100 127 163 208 254 298
#     4  10  20  34  53  77 104 135 172 213 256 303
#
# _framework density 17.791093
#
# number of rings (size 3 to 8) (size 9 to 14) (size 15 to 20)
#    0.000    2.600    0.000    2.400    0.000    7.200 
#    0.000    2.000    0.000   10.200    0.000    0.000 
#    0.000    0.000    0.000    0.000    0.000    0.000 
#
# Total GULP energy -223137.332158 kJ/mol
# GULP energy per Si atom -5578.433304 kJ/mol
# Density = 1.775060 g / cm^3
# Si number density = 17.791093 Si / 1000 Ang^3
#
#
#
# Elastic Constant Matrix: (Units=GPa)
#
#
# Indices 1 2 3 4 5 6 
#
# 1 63.4673 57.1435 86.4085 0.0000 0.0000 0.0000
# 2 57.1435 66.2241 87.4118 0.0000 0.0000 0.0000
# 3 86.4085 87.4118 235.4247 0.0000 0.0000 0.0000
# 4 0.0000 0.0000 0.0000 33.1162 0.0000 0.0000
# 5 0.0000 0.0000 0.0000 0.0000 -8.8731 0.0000
# 6 0.0000 0.0000 0.0000 0.0000 0.0000 15.5733
#
#
#
# Elastic Compliance Matrix: (Units=1/GPa)
#
#
# Indices 1 2 3 4 5 6 
#
# 1 0.076019 -0.056416 -0.006955 0.000000 0.000000 0.000000
# 2 -0.056416 0.071481 -0.005834 0.000000 0.000000 0.000000
# 3 -0.006955 -0.005834 0.008966 0.000000 0.000000 0.000000
# 4 0.000000 0.000000 0.000000 0.030197 0.000000 0.000000
# 5 0.000000 0.000000 0.000000 0.000000 -0.112700 0.000000
# 6 0.000000 0.000000 0.000000 0.000000 0.000000 0.064212
#
#
# Mechanical properties :
#
#
# Convention : Reuss Voigt Hill
#
# Bulk Modulus (GPa) = 55.37851 91.89373 73.63612
# Shear Modulus (GPa) = 17.69261 16.90676 17.29969
#
# Velocity S-wave (km/s) = 3.15693 3.08603 3.12168
# Velocity P-wave (km/s) = 6.66956 8.02881 7.38054
#
# Compressibility (1/GPa) = 0.01805755
#
# Stress axis : x y z
#
# Youngs Moduli (GPa) = 13.15453 13.98976 111.52793
#
# Poissons Ratio (x) = 0.78924 0.77565
# Poissons Ratio (y) = 0.74212 0.65065
# Poissons Ratio (z) = 0.09149 0.08162
#
# Static dielectric constant tensor:
#      x y z
#    x 1.591290 0.000000 0.000000 
#    y 0.000000 1.597500 0.000000 
#    z 0.000000 0.000000 1.583340 
# 
# From -- ./inp_files/1815.got.cif
#   From: 2010.05.17/outbox.cif.g08.bks.cpg/sg47_1_cif.got.tgz:1815.got - 2010.06.03 20:15:42.
