data_PCOD9385021
_publ_section_title
;
Structure prediction by ZEFSAII (Michael W. Deem and Ramdas Pophale) SiO2 
 PCOD9385021
Probable space group: P M M M
;
_chemical_formula_sum "Si O2"
_cell_formula_units_Z 64
_cell_length_a 8.746585
_cell_length_b 29.974992
_cell_length_c 14.563267
_cell_angle_alpha 90.000000
_cell_angle_beta 90.000000
_cell_angle_gamma 90.000000
_cell_volume 3818.180090
_symmetry_space_group_name_H-M "P M M M"
_symmetry_group_IT_number 47
_symmetry_cell_setting 'orthorhombic'
loop_
_space_group_symop_operation_xyz
x,y,z
-x,-y,z
x,-y,-z
-x,y,-z
-x,-y,-z
x,y,-z
-x,y,z
x,-y,z
loop_
_atom_site_type_symbol
_atom_site_label
_atom_site_fract_x
_atom_site_fract_y
_atom_site_fract_z
Si Si1 0.183265 0.732306 0.280860
Si Si2 0.182152 0.088011 0.606497
Si Si3 0.180906 0.548006 0.388768
Si Si4 0.186813 0.354504 0.393341
Si Si5 0.682251 0.228139 0.106439
Si Si6 0.822206 0.867369 0.109802
Si Si7 0.321162 0.184615 0.390530
Si Si8 0.682280 0.950390 0.783083
O O1 0.233644 0.686438 0.329517
O O2 0.239755 0.738215 0.176984
O O3 0.251821 0.773830 0.337036
O O4 0.000000 0.734509 0.284306
O O5 0.222648 0.079619 0.500000
O O6 0.232525 0.138706 0.628820
O O7 0.266451 0.056501 0.678079
O O8 0.000000 0.083708 0.616328
O O9 0.189619 0.548545 0.500000
O O10 0.246521 0.500000 0.357846
O O11 0.241905 0.596535 0.360504
O O12 0.000000 0.547396 0.365973
O O13 0.232419 0.347428 0.500000
O O14 0.000000 0.355853 0.393435
O O15 0.500000 0.231639 0.112776
O O16 0.732198 0.177862 0.133211
O O17 0.728151 0.234757 0.000000
O O18 0.758376 0.910723 0.159838
O O19 0.000000 0.860924 0.133539
O O20 0.809634 0.873416 0.000000
O O21 0.309238 0.192638 0.500000
O O22 0.500000 0.178890 0.367319
O O23 0.500000 0.946608 0.790092
O O24 0.728179 0.000000 0.814477
#
# Coordination Sequence:
#
# PCOD9385021 Si02
#       8
#     8   8   8   8   8   8   8   8
#     4  11  20  29  45  68  97 128 155 190 235 281
#     4  10  21  37  56  75  95 122 158 198 235 270
#     4   7   9  15  29  49  77 117 161 198 229 265
#     4   8  14  23  35  57  91 128 162 193 229 274
#     4  10  21  37  55  72  92 120 154 191 230 276
#     4  10  21  38  60  82 101 121 148 185 228 274
#     4  10  20  33  49  69  95 127 161 193 224 266
#     4  11  24  39  55  76 102 130 156 184 222 270
#
# _framework density 16.761911999999999
#
# number of rings (size 3 to 8) (size 9 to 14) (size 15 to 20)
#    0.000    2.375    0.000    4.500    0.000    5.000 
#    0.000    2.500    0.000    0.000    0.000    0.000 
#    0.000    2.500    0.000   20.375    0.000   12.750 
#
# Total GULP energy -357028.174407 kJ/mol
# GULP energy per Si atom -5578.565225 kJ/mol
# Density = 1.672376 g / cm^3
# Si number density = 16.761912 Si / 1000 Ang^3
#
#
#
# Elastic Constant Matrix: (Units=GPa)
#
#
# Indices 1 2 3 4 5 6 
#
# 1 23.2340 5.1727 11.5885 0.0000 0.0000 0.0000
# 2 5.1727 85.5539 41.7110 0.0000 0.0000 0.0000
# 3 11.5885 41.7110 46.2681 0.0000 0.0000 0.0000
# 4 0.0000 0.0000 0.0000 15.0363 0.0000 0.0000
# 5 0.0000 0.0000 0.0000 0.0000 23.0598 0.0000
# 6 0.0000 0.0000 0.0000 0.0000 0.0000 -825.6100
#
#
#
# Elastic Compliance Matrix: (Units=1/GPa)
#
#
# Indices 1 2 3 4 5 6 
#
# 1 0.050629 0.005569 -0.017701 0.000000 0.000000 0.000000
# 2 0.005569 0.021467 -0.020748 0.000000 0.000000 0.000000
# 3 -0.017701 -0.020748 0.044751 0.000000 0.000000 0.000000
# 4 0.000000 0.000000 0.000000 0.066506 0.000000 0.000000
# 5 0.000000 0.000000 0.000000 0.000000 0.043366 0.000000
# 6 0.000000 0.000000 0.000000 0.000000 0.000000 -0.001211
#
#
# Mechanical properties :
#
#
# Convention : Reuss Voigt Hill
#
# Bulk Modulus (GPa) = 19.57426 30.22226 24.89826
# Shear Modulus (GPa) = 16.21815 -151.06386 -67.42286
#
# Velocity S-wave (km/s) = 3.11394 -9.50363 -6.34911
# Velocity P-wave (km/s) = 4.96306 10.11710 6.23393
#
# Compressibility (1/GPa) = 0.05108749
#
# Stress axis : x y z
#
# Youngs Moduli (GPa) = 19.75133 46.58290 22.34596
#
# Poissons Ratio (x) = -0.25942 0.39556
# Poissons Ratio (y) = -0.11000 0.46362
# Poissons Ratio (z) = 0.34963 0.96648
#
# Static dielectric constant tensor:
#      x y z
#    x 1.564730 0.000000 0.000000 
#    y 0.000000 1.579570 0.000000 
#    z 0.000000 0.000000 1.571000 
# 
# From -- ./inp_files/22128.got.cif
#   From: 2010.05.17/outbox.cif.g08.bks.cpg/sg47_12_cif.got.tgz:22128.got - 2010.06.03 20:15:42.
