data_PCOD9385309
_publ_section_title
;
Structure prediction by ZEFSAII (Michael W. Deem and Ramdas Pophale) SiO2 
 PCOD9385309
Probable space group: P M M M
;
_chemical_formula_sum "Si O2"
_cell_formula_units_Z 44
_cell_length_a 8.805724
_cell_length_b 15.721150
_cell_length_c 17.827344
_cell_angle_alpha 90.000000
_cell_angle_beta 90.000000
_cell_angle_gamma 90.000000
_cell_volume 2467.948117
_symmetry_space_group_name_H-M "P M M M"
_symmetry_group_IT_number 47
_symmetry_cell_setting 'orthorhombic'
loop_
_space_group_symop_operation_xyz
x,y,z
-x,-y,z
x,-y,-z
-x,y,-z
-x,-y,-z
x,y,-z
-x,y,z
x,-y,z
loop_
_atom_site_type_symbol
_atom_site_label
_atom_site_fract_x
_atom_site_fract_y
_atom_site_fract_z
Si Si1 0.822318 0.092398 0.205079
Si Si2 0.182307 0.400465 0.500000
Si Si3 0.177868 0.905934 0.386893
Si Si4 0.317897 0.726897 0.380601
Si Si5 0.685208 0.402324 0.084515
Si Si6 0.682274 0.268335 0.206510
O O1 0.813581 0.092136 0.296014
O O2 0.734521 0.175510 0.179869
O O3 0.000000 0.099201 0.185842
O O4 0.765039 0.000000 0.179212
O O5 0.227785 0.500000 0.500000
O O6 0.245904 0.348235 0.570944
O O7 0.000000 0.396652 0.500000
O O8 0.264500 0.820210 0.408974
O O9 0.000000 0.898353 0.407174
O O10 0.231751 0.000000 0.412185
O O11 0.500000 0.722669 0.385072
O O12 0.269680 0.719066 0.293139
O O13 0.500000 0.401089 0.085583
O O14 0.731176 0.500000 0.097200
O O15 0.739332 0.339931 0.149559
O O16 0.731331 0.377254 0.000000
O O17 0.500000 0.270714 0.207102
#
# Coordination Sequence:
#
# PCOD9385309 Si02
#       6
#     8   4   8   8   8   8
#     4   8  14  25  42  65  94 129 164 194 229 276
#     4  11  25  43  58  69  88 125 169 206 240 285
#     4   8  14  27  48  72  99 131 163 194 231 280
#     4  10  20  33  51  76 103 127 155 199 250 292
#     4   8  14  26  45  69  97 127 157 191 234 285
#     4   9  17  28  47  76 101 123 156 197 238 279
#
# _framework density 17.828575000000001
#
# number of rings (size 3 to 8) (size 9 to 14) (size 15 to 20)
#    0.000    3.182    0.000    2.455    0.000    2.909 
#    0.000    5.909    0.000    4.364    0.000    5.091 
#    0.000    0.000    0.000    0.000    0.000    0.000 
#
# Total GULP energy -245061.690487 kJ/mol
# GULP energy per Si atom -5569.583875 kJ/mol
# Density = 1.778800 g / cm^3
# Si number density = 17.828575 Si / 1000 Ang^3
#
#
#
# Elastic Constant Matrix: (Units=GPa)
#
#
# Indices 1 2 3 4 5 6 
#
# 1 20.2061 39.3087 19.7375 0.0000 0.0000 0.0000
# 2 39.3087 179.6064 83.2833 0.0000 0.0000 0.0000
# 3 19.7375 83.2833 87.8519 0.0000 0.0000 0.0000
# 4 0.0000 0.0000 0.0000 -259.6051 0.0000 0.0000
# 5 0.0000 0.0000 0.0000 0.0000 7.9667 0.0000
# 6 0.0000 0.0000 0.0000 0.0000 0.0000 27.7439
#
#
#
# Elastic Compliance Matrix: (Units=1/GPa)
#
#
# Indices 1 2 3 4 5 6 
#
# 1 0.086530 -0.017707 -0.002654 0.000000 0.000000 0.000000
# 2 -0.017707 0.013559 -0.008875 0.000000 0.000000 0.000000
# 3 -0.002654 -0.008875 0.020393 0.000000 0.000000 0.000000
# 4 0.000000 0.000000 0.000000 -0.003852 0.000000 0.000000
# 5 0.000000 0.000000 0.000000 0.000000 0.125522 0.000000
# 6 0.000000 0.000000 0.000000 0.000000 0.000000 0.036044
#
#
# Mechanical properties :
#
#
# Convention : Reuss Voigt Hill
#
# Bulk Modulus (GPa) = 16.12684 63.59147 39.85916
# Shear Modulus (GPa) = 13.99234 -35.08990 -10.54878
#
# Velocity S-wave (km/s) = 2.80452 -4.44123 -2.43508
# Velocity P-wave (km/s) = 4.42179 3.07349 3.80779
#
# Compressibility (1/GPa) = 0.06200842
#
# Stress axis : x y z
#
# Youngs Moduli (GPa) = 11.55664 73.75388 49.03694
#
# Poissons Ratio (x) = 1.30599 0.13015
# Poissons Ratio (y) = 0.20464 0.43522
# Poissons Ratio (z) = 0.03067 0.65458
#
# Static dielectric constant tensor:
#      x y z
#    x 1.597430 0.000000 0.000000 
#    y 0.000000 1.617020 0.000000 
#    z 0.000000 0.000000 1.627650 
# 
# From -- ./inp_files/26375.got.cif
#   From: 2010.05.17/outbox.cif.g08.bks.cpg/sg47_14_cif.got.tgz:26375.got - 2010.06.03 20:15:42.
