data_PCOD9385198
_publ_section_title
;
Structure prediction by ZEFSAII (Michael W. Deem and Ramdas Pophale) SiO2 
 PCOD9385198
Probable space group: P M M M
;
_chemical_formula_sum "Si O2"
_cell_formula_units_Z 44
_cell_length_a 9.600143
_cell_length_b 29.859341
_cell_length_c 7.359803
_cell_angle_alpha 90.000000
_cell_angle_beta 90.000000
_cell_angle_gamma 90.000000
_cell_volume 2109.716553
_symmetry_space_group_name_H-M "P M M M"
_symmetry_group_IT_number 47
_symmetry_cell_setting 'orthorhombic'
loop_
_space_group_symop_operation_xyz
x,y,z
-x,-y,z
x,-y,-z
-x,y,-z
-x,-y,-z
x,y,-z
-x,y,z
x,-y,z
loop_
_atom_site_type_symbol
_atom_site_label
_atom_site_fract_x
_atom_site_fract_y
_atom_site_fract_z
Si Si1 0.842734 0.083594 0.214295
Si Si2 0.340838 0.169859 0.718456
Si Si3 0.838018 0.354395 0.278120
Si Si4 0.166508 0.548180 0.719169
Si Si5 0.661018 0.269927 0.721131
Si Si6 0.660454 0.000000 0.777430
O O1 0.765118 0.130843 0.233361
O O2 0.744199 0.043927 0.284653
O O3 0.000000 0.083860 0.288874
O O4 0.854996 0.074873 0.000000
O O5 0.346568 0.171241 0.500000
O O6 0.500000 0.160882 0.781603
O O7 0.297804 0.219761 0.779704
O O8 0.834540 0.354638 0.500000
O O9 0.781543 0.403218 0.218327
O O10 0.753472 0.311260 0.215673
O O11 0.000000 0.350839 0.226374
O O12 0.181649 0.547738 0.500000
O O13 0.221536 0.500000 0.785794
O O14 0.000000 0.548478 0.755161
O O15 0.666937 0.270120 0.500000
O O16 0.500000 0.276293 0.771697
O O17 0.500000 0.000000 0.718647
O O18 0.657452 0.000000 0.000000
#
# Coordination Sequence:
#
# PCOD9385198 Si02
#       6
#     8   8   8   8   8   4
#     4  10  20  33  50  73  98 120 144 178 219 259
#     4   9  18  32  48  66  89 118 152 186 219 258
#     4   8  12  17  27  43  60  82 118 160 198 240
#     4   7   9  13  21  34  53  77 108 150 196 236
#     4   8  14  24  36  50  71  99 129 164 206 247
#     4   9  17  31  52  73  92 119 152 180 208 249
#
# _framework density 20.855882000000001
#
# number of rings (size 3 to 8) (size 9 to 14) (size 15 to 20)
#    0.000    3.545    0.000    3.545    0.000    3.273 
#    0.000    2.273    0.000    3.273    0.000    3.818 
#    0.000    0.000    0.000    0.000    0.000    0.909 
#
# Total GULP energy -245232.181125 kJ/mol
# GULP energy per Si atom -5573.458662 kJ/mol
# Density = 2.080841 g / cm^3
# Si number density = 20.855882 Si / 1000 Ang^3
#
#
#
# Elastic Constant Matrix: (Units=GPa)
#
#
# Indices 1 2 3 4 5 6 
#
# 1 119.3467 129.0835 5.2215 0.0000 0.0000 0.0000
# 2 129.0835 248.5971 1.9305 0.0000 0.0000 0.0000
# 3 5.2215 1.9305 73.3146 0.0000 0.0000 0.0000
# 4 0.0000 0.0000 0.0000 13.2773 0.0000 0.0000
# 5 0.0000 0.0000 0.0000 0.0000 -3.5346 0.0000
# 6 0.0000 0.0000 0.0000 0.0000 0.0000 49.4174
#
#
#
# Elastic Compliance Matrix: (Units=1/GPa)
#
#
# Indices 1 2 3 4 5 6 
#
# 1 0.019202 -0.009962 -0.001105 0.000000 0.000000 0.000000
# 2 -0.009962 0.009192 0.000467 0.000000 0.000000 0.000000
# 3 -0.001105 0.000467 0.013706 0.000000 0.000000 0.000000
# 4 0.000000 0.000000 0.000000 0.075316 0.000000 0.000000
# 5 0.000000 0.000000 0.000000 0.000000 -0.282920 0.000000
# 6 0.000000 0.000000 0.000000 0.000000 0.000000 0.020236
#
#
# Mechanical properties :
#
#
# Convention : Reuss Voigt Hill
#
# Bulk Modulus (GPa) = 47.84605 79.30328 63.57467
# Shear Modulus (GPa) = -42.69815 32.16689 -5.26563
#
# Velocity S-wave (km/s) = -4.52961 3.93153 -1.59068
# Velocity P-wave (km/s) = 2.08937 7.66265 5.21300
#
# Compressibility (1/GPa) = 0.02090037
#
# Stress axis : x y z
#
# Youngs Moduli (GPa) = 52.07752 108.79337 72.95940
#
# Poissons Ratio (x) = 1.08381 0.08064
# Poissons Ratio (y) = 0.51880 -0.03411
# Poissons Ratio (z) = 0.05756 -0.05086
#
# Static dielectric constant tensor:
#      x y z
#    x 1.702560 0.000000 0.000000 
#    y 0.000000 1.765760 0.000000 
#    z 0.000000 0.000000 1.845230 
# 
# From -- ./inp_files/15401.got.cif
#   From: 2010.05.17/outbox.cif.g08.bks.cpg/sg47_8_cif.got.tgz:15401.got - 2010.06.03 20:15:42.
