data_PCOD9385244
_publ_section_title
;
Structure prediction by ZEFSAII (Michael W. Deem and Ramdas Pophale) SiO2 
 PCOD9385244
Probable space group: P M M M
;
_chemical_formula_sum "Si O2"
_cell_formula_units_Z 48
_cell_length_a 8.944521
_cell_length_b 18.246399
_cell_length_c 15.783817
_cell_angle_alpha 90.000000
_cell_angle_beta 90.000000
_cell_angle_gamma 90.000000
_cell_volume 2576.002573
_symmetry_space_group_name_H-M "P M M M"
_symmetry_group_IT_number 47
_symmetry_cell_setting 'orthorhombic'
loop_
_space_group_symop_operation_xyz
x,y,z
-x,-y,z
x,-y,-z
-x,y,-z
-x,-y,-z
x,y,-z
-x,y,z
x,-y,z
loop_
_atom_site_type_symbol
_atom_site_label
_atom_site_fract_x
_atom_site_fract_y
_atom_site_fract_z
Si Si1 0.328668 0.718872 0.317686
Si Si2 0.178556 0.584558 0.000000
Si Si3 0.827397 0.581044 0.601682
Si Si4 0.327525 0.303864 0.120567
Si Si5 0.179457 0.873718 0.714178
Si Si6 0.819718 0.146633 0.093208
Si Si7 0.679737 0.000000 0.400109
O O1 0.500000 0.736430 0.341605
O O2 0.264605 0.651649 0.370793
O O3 0.326367 0.691610 0.221136
O O4 0.231191 0.792875 0.315271
O O5 0.245598 0.627829 0.079337
O O6 0.221911 0.500000 0.000000
O O7 0.000000 0.590055 0.000000
O O8 0.828500 0.579314 0.500000
O O9 0.773043 0.500000 0.630592
O O10 0.000000 0.588890 0.630426
O O11 0.500000 0.299844 0.093687
O O12 0.243731 0.229085 0.095480
O O13 0.225068 0.885607 0.814095
O O14 0.000000 0.879996 0.710287
O O15 0.255216 0.930861 0.650993
O O16 0.000000 0.148213 0.094347
O O17 0.775847 0.114440 0.000000
O O18 0.500000 0.000000 0.395779
O O19 0.722035 0.000000 0.500000
#
# Coordination Sequence:
#
# PCOD9385244 Si02
#       7
#     8   4   8   8   8   8   4
#     4  10  21  36  56  84 116 148 186 234 286 343
#     4  11  23  35  47  67  99 142 191 238 283 335
#     4   9  19  36  56  78 106 142 186 237 291 345
#     4  10  20  33  50  74 104 140 182 227 277 330
#     4  10  21  38  62  91 119 152 196 239 284 347
#     4   9  17  32  57  86 115 147 183 226 276 331
#     4  11  25  45  66  87 118 158 195 241 300 351
#
# _framework density 18.633523
#
# number of rings (size 3 to 8) (size 9 to 14) (size 15 to 20)
#    0.000    2.167    0.833    2.500    0.000    6.000 
#    0.000    4.583    0.000    2.500    0.000    0.000 
#    0.000    0.000    0.000    0.000    0.000    0.000 
#
# Total GULP energy -267573.348158 kJ/mol
# GULP energy per Si atom -5574.444753 kJ/mol
# Density = 1.859111 g / cm^3
# Si number density = 18.633523 Si / 1000 Ang^3
#
#
#
# Elastic Constant Matrix: (Units=GPa)
#
#
# Indices 1 2 3 4 5 6 
#
# 1 48.4945 36.7704 41.8545 0.0000 0.0000 0.0000
# 2 36.7704 99.0752 67.9281 0.0000 0.0000 0.0000
# 3 41.8545 67.9281 113.1974 0.0000 0.0000 0.0000
# 4 0.0000 0.0000 0.0000 21.6927 0.0000 0.0000
# 5 0.0000 0.0000 0.0000 0.0000 258.6483 0.0000
# 6 0.0000 0.0000 0.0000 0.0000 0.0000 47.4433
#
#
#
# Elastic Compliance Matrix: (Units=1/GPa)
#
#
# Indices 1 2 3 4 5 6 
#
# 1 0.032584 -0.006512 -0.008140 0.000000 0.000000 0.000000
# 2 -0.006512 0.018450 -0.008664 0.000000 0.000000 0.000000
# 3 -0.008140 -0.008664 0.017043 0.000000 0.000000 0.000000
# 4 0.000000 0.000000 0.000000 0.046098 0.000000 0.000000
# 5 0.000000 0.000000 0.000000 0.000000 0.003866 0.000000
# 6 0.000000 0.000000 0.000000 0.000000 0.000000 0.021078
#
#
# Mechanical properties :
#
#
# Convention : Reuss Voigt Hill
#
# Bulk Modulus (GPa) = 46.63047 61.54146 54.08597
# Shear Modulus (GPa) = 25.92004 73.17115 49.54559
#
# Velocity S-wave (km/s) = 3.73372 6.27326 5.16209
# Velocity P-wave (km/s) = 6.60809 9.25044 8.03858
#
# Compressibility (1/GPa) = 0.02144520
#
# Stress axis : x y z
#
# Youngs Moduli (GPa) = 30.68981 54.19914 58.67498
#
# Poissons Ratio (x) = 0.35295 0.47762
# Poissons Ratio (y) = 0.19986 0.50836
# Poissons Ratio (z) = 0.24982 0.46958
#
# Static dielectric constant tensor:
#      x y z
#    x 1.635240 0.000000 0.000000 
#    y 0.000000 1.619710 0.000000 
#    z 0.000000 0.000000 1.675020 
# 
# From -- ./inp_files/21110.got.cif
#   From: 2010.05.17/outbox.cif.g08.bks.cpg/sg47_11_cif.got.tgz:21110.got - 2010.06.03 20:15:42.
