data_PCOD9385292
_publ_section_title
;
Structure prediction by ZEFSAII (Michael W. Deem and Ramdas Pophale) SiO2 
 PCOD9385292
Probable space group: P M M M
;
_chemical_formula_sum "Si O2"
_cell_formula_units_Z 56
_cell_length_a 8.971636
_cell_length_b 14.574185
_cell_length_c 26.812203
_cell_angle_alpha 90.000000
_cell_angle_beta 90.000000
_cell_angle_gamma 90.000000
_cell_volume 3505.810374
_symmetry_space_group_name_H-M "P M M M"
_symmetry_group_IT_number 47
_symmetry_cell_setting 'orthorhombic'
loop_
_space_group_symop_operation_xyz
x,y,z
-x,-y,z
x,-y,-z
-x,y,-z
-x,-y,-z
x,y,-z
-x,y,z
x,-y,z
loop_
_atom_site_type_symbol
_atom_site_label
_atom_site_fract_x
_atom_site_fract_y
_atom_site_fract_z
Si Si1 0.177442 0.895149 0.291878
Si Si2 0.320798 0.703097 0.444081
Si Si3 0.677902 0.897501 0.400703
Si Si4 0.679010 0.284216 0.255904
Si Si5 0.679171 0.393425 0.156973
Si Si6 0.175950 0.389063 0.054590
Si Si7 0.177122 0.391217 0.651325
O O1 0.236724 0.885394 0.348549
O O2 0.258296 0.818392 0.259510
O O3 0.000000 0.881266 0.291199
O O4 0.209551 0.000000 0.276462
O O5 0.276965 0.675573 0.500000
O O6 0.500000 0.691779 0.439421
O O7 0.288191 0.811269 0.435568
O O8 0.241238 0.647261 0.400514
O O9 0.500000 0.894377 0.390528
O O10 0.711561 0.000000 0.420427
O O11 0.500000 0.283709 0.259042
O O12 0.724703 0.334625 0.204871
O O13 0.743867 0.339191 0.303136
O O14 0.500000 0.392814 0.154439
O O15 0.726634 0.500000 0.163603
O O16 0.742464 0.357526 0.104493
O O17 0.191955 0.500000 0.054126
O O18 0.000000 0.369444 0.058106
O O19 0.229856 0.356271 0.000000
O O20 0.204132 0.500000 0.654996
O O21 0.000000 0.374674 0.653692
#
# Coordination Sequence:
#
# PCOD9385292 Si02
#       7
#     8   8   8   8   8   8   8
#     4  10  20  33  51  75 101 127 156 192 236 289
#     4  10  21  36  54  76  99 125 158 196 239 288
#     4   9  17  31  52  76 100 125 152 184 229 287
#     4  11  21  34  53  75 100 129 162 201 245 292
#     4   9  18  30  44  67  98 131 167 205 243 281
#     4   8  14  25  41  62  91 129 170 207 241 278
#     4  11  24  39  54  72  94 125 164 202 245 293
#
# _framework density 15.973482000000001
#
# number of rings (size 3 to 8) (size 9 to 14) (size 15 to 20)
#    0.000    2.286    1.429    2.143    0.000    4.857 
#    0.000    5.714    0.000    0.000    0.000    3.000 
#    0.000    0.571    0.000    6.286    0.000    4.857 
#
# Total GULP energy -312287.121142 kJ/mol
# GULP energy per Si atom -5576.555735 kJ/mol
# Density = 1.593713 g / cm^3
# Si number density = 15.973482 Si / 1000 Ang^3
#
#
#
# Elastic Constant Matrix: (Units=GPa)
#
#
# Indices 1 2 3 4 5 6 
#
# 1 36.4323 38.9748 44.7036 0.0000 0.0000 0.0000
# 2 38.9748 74.3311 57.0492 0.0000 0.0000 0.0000
# 3 44.7036 57.0492 138.2632 0.0000 0.0000 0.0000
# 4 0.0000 0.0000 0.0000 10.1540 0.0000 0.0000
# 5 0.0000 0.0000 0.0000 0.0000 102.3862 0.0000
# 6 0.0000 0.0000 0.0000 0.0000 0.0000 23.0565
#
#
#
# Elastic Compliance Matrix: (Units=1/GPa)
#
#
# Indices 1 2 3 4 5 6 
#
# 1 0.073095 -0.029544 -0.011443 0.000000 0.000000 0.000000
# 2 -0.029544 0.031630 -0.003498 0.000000 0.000000 0.000000
# 3 -0.011443 -0.003498 0.012376 0.000000 0.000000 0.000000
# 4 0.000000 0.000000 0.000000 0.098483 0.000000 0.000000
# 5 0.000000 0.000000 0.000000 0.000000 0.009767 0.000000
# 6 0.000000 0.000000 0.000000 0.000000 0.000000 0.043372
#
#
# Mechanical properties :
#
#
# Convention : Reuss Voigt Hill
#
# Bulk Modulus (GPa) = 35.55022 58.94241 47.24631
# Shear Modulus (GPa) = 13.62140 34.33928 23.98034
#
# Velocity S-wave (km/s) = 2.92336 4.64159 3.87881
# Velocity P-wave (km/s) = 5.80507 8.10593 7.04999
#
# Compressibility (1/GPa) = 0.02812922
#
# Stress axis : x y z
#
# Youngs Moduli (GPa) = 13.68086 31.61603 80.80240
#
# Poissons Ratio (x) = 0.93407 0.92462
# Poissons Ratio (y) = 0.40419 0.28269
# Poissons Ratio (z) = 0.15655 0.11061
#
# Static dielectric constant tensor:
#      x y z
#    x 1.534830 0.000000 0.000000 
#    y 0.000000 1.540160 0.000000 
#    z 0.000000 0.000000 1.525290 
# 
# From -- ./inp_files/34378.got.cif
#   From: 2010.05.17/outbox.cif.g08.bks.cpg/sg47_18_cif.got.tgz:34378.got - 2010.06.03 20:15:42.
