data_PCOD9385037
_publ_section_title
;
Structure prediction by ZEFSAII (Michael W. Deem and Ramdas Pophale) SiO2 
 PCOD9385037
Probable space group: P M M M
;
_chemical_formula_sum "Si O2"
_cell_formula_units_Z 40
_cell_length_a 8.314962
_cell_length_b 7.513759
_cell_length_c 28.949016
_cell_angle_alpha 90.000000
_cell_angle_beta 90.000000
_cell_angle_gamma 90.000000
_cell_volume 1808.636688
_symmetry_space_group_name_H-M "P M M M"
_symmetry_group_IT_number 47
_symmetry_cell_setting 'orthorhombic'
loop_
_space_group_symop_operation_xyz
x,y,z
-x,-y,z
x,-y,-z
-x,y,-z
-x,-y,-z
x,y,-z
-x,y,z
x,-y,z
loop_
_atom_site_type_symbol
_atom_site_label
_atom_site_fract_x
_atom_site_fract_y
_atom_site_fract_z
Si Si1 0.189974 0.800108 0.594966
Si Si2 0.179680 0.717656 0.108294
Si Si3 0.690014 0.283774 0.205818
Si Si4 0.318616 0.711203 0.693893
Si Si5 0.309699 0.794646 0.500000
Si Si6 0.500000 0.717231 0.946644
O O1 0.226736 0.734601 0.646202
O O2 0.257272 0.710641 0.548630
O O3 0.000000 0.803779 0.589301
O O4 0.258818 0.000000 0.594784
O O5 0.180235 0.500000 0.107362
O O6 0.213228 0.776134 0.161059
O O7 0.334909 0.774370 0.078532
O O8 0.000000 0.773152 0.093336
O O9 0.500000 0.238426 0.201505
O O10 0.698255 0.500000 0.204515
O O11 0.746697 0.222304 0.256689
O O12 0.500000 0.781954 0.688110
O O13 0.330915 0.500000 0.700031
O O14 0.500000 0.803226 0.500000
O O15 0.242526 0.000000 0.500000
O O16 0.500000 0.500000 0.944922
O O17 0.500000 0.770807 0.000000
#
# Coordination Sequence:
#
# PCOD9385037 Si02
#       6
#     8   8   8   8   4   4
#     4  10  20  33  49  70  96 123 151 186 229 276
#     4   9  15  22  34  50  68  97 138 178 220 271
#     4   8  13  24  40  56  78 106 136 176 223 267
#     4   9  18  31  48  70  94 120 152 192 234 274
#     4   9  17  31  52  71  86 113 154 192 224 269
#     4   9  16  24  32  44  68 100 135 182 229 262
#
# _framework density 22.116105999999998
#
# number of rings (size 3 to 8) (size 9 to 14) (size 15 to 20)
#    0.000    3.000    1.000    2.100    0.000    4.000 
#    0.000    4.500    0.000    3.000    0.000    0.000 
#    0.000    0.000    0.000    0.000    0.000    2.000 
#
# Total GULP energy -222921.341007 kJ/mol
# GULP energy per Si atom -5573.033525 kJ/mol
# Density = 2.206577 g / cm^3
# Si number density = 22.116106 Si / 1000 Ang^3
#
#
#
# Elastic Constant Matrix: (Units=GPa)
#
#
# Indices 1 2 3 4 5 6 
#
# 1 125.1691 2.0696 97.8451 0.0000 0.0000 0.0000
# 2 2.0696 50.9840 7.9687 0.0000 0.0000 0.0000
# 3 97.8451 7.9687 201.9292 0.0000 0.0000 0.0000
# 4 0.0000 0.0000 0.0000 2.0004 0.0000 0.0000
# 5 0.0000 0.0000 0.0000 0.0000 -1.1278 0.0000
# 6 0.0000 0.0000 0.0000 0.0000 0.0000 -5.2890
#
#
#
# Elastic Compliance Matrix: (Units=1/GPa)
#
#
# Indices 1 2 3 4 5 6 
#
# 1 0.012871 0.000455 -0.006255 0.000000 0.000000 0.000000
# 2 0.000455 0.019752 -0.001000 0.000000 0.000000 0.000000
# 3 -0.006255 -0.001000 0.008022 0.000000 0.000000 0.000000
# 4 0.000000 0.000000 0.000000 0.499893 0.000000 0.000000
# 5 0.000000 0.000000 0.000000 0.000000 -0.886661 0.000000
# 6 0.000000 0.000000 0.000000 0.000000 0.000000 -0.189072
#
#
# Mechanical properties :
#
#
# Convention : Reuss Voigt Hill
#
# Bulk Modulus (GPa) = 36.97384 65.98324 51.47854
# Shear Modulus (GPa) = -9.75455 17.12999 3.68772
#
# Velocity S-wave (km/s) = -2.10242 2.78609 1.29269
# Velocity P-wave (km/s) = 3.29557 6.34424 5.05520
#
# Compressibility (1/GPa) = 0.02704615
#
# Stress axis : x y z
#
# Youngs Moduli (GPa) = 77.69476 50.62829 124.65178
#
# Poissons Ratio (x) = -0.02304 0.77964
# Poissons Ratio (y) = -0.03536 0.12465
# Poissons Ratio (z) = 0.48595 0.05063
#
# Static dielectric constant tensor:
#      x y z
#    x 1.770920 0.000000 0.000000 
#    y 0.000000 1.930470 0.000000 
#    z 0.000000 0.000000 1.851360 
# 
# From -- ./inp_files/33010.got.cif
#   From: 2010.05.17/outbox.cif.g08.bks.cpg/sg47_17_cif.got.tgz:33010.got - 2010.06.03 20:15:42.
