data_PCOD9385459
_publ_section_title
;
Structure prediction by ZEFSAII (Michael W. Deem and Ramdas Pophale) SiO2 
 PCOD9385459
Probable space group: P M M M
;
_chemical_formula_sum "Si O2"
_cell_formula_units_Z 52
_cell_length_a 24.276720
_cell_length_b 8.645852
_cell_length_c 14.879183
_cell_angle_alpha 90.000000
_cell_angle_beta 90.000000
_cell_angle_gamma 90.000000
_cell_volume 3123.035289
_symmetry_space_group_name_H-M "P M M M"
_symmetry_group_IT_number 47
_symmetry_cell_setting 'orthorhombic'
loop_
_space_group_symop_operation_xyz
x,y,z
-x,-y,z
x,-y,-z
-x,y,-z
-x,-y,-z
x,y,-z
-x,y,z
x,-y,z
loop_
_atom_site_type_symbol
_atom_site_label
_atom_site_fract_x
_atom_site_fract_y
_atom_site_fract_z
Si Si1 0.500000 0.668280 0.606916
Si Si2 0.873857 0.320775 0.108442
Si Si3 0.266749 0.187637 0.401032
Si Si4 0.646167 0.823830 0.856541
Si Si5 0.614423 0.175181 0.648006
Si Si6 0.242616 0.680613 0.791763
Si Si7 0.063498 0.000000 0.108928
Si Si8 0.563777 0.315587 0.000000
O O1 0.500000 0.500000 0.649725
O O2 0.500000 0.658095 0.500000
O O3 0.443437 0.747832 0.632161
O O4 0.893727 0.500000 0.129457
O O5 0.814636 0.303212 0.155699
O O6 0.908577 0.165853 0.134934
O O7 0.868544 0.316090 0.000000
O O8 0.244081 0.230700 0.500000
O O9 0.330423 0.243664 0.395801
O O10 0.239911 0.246142 0.308393
O O11 0.267348 0.000000 0.396100
O O12 0.626191 0.825211 0.753819
O O13 0.707099 0.751568 0.849510
O O14 0.650660 0.000000 0.888503
O O15 0.600475 0.738879 0.915669
O O16 0.610158 0.000000 0.614714
O O17 0.254744 0.500000 0.779996
O O18 0.000000 0.000000 0.138758
O O19 0.064335 0.000000 0.000000
O O20 0.561178 0.500000 0.000000
O O21 0.500000 0.257225 0.000000
#
# Coordination Sequence:
#
# PCOD9385459 Si02
#       8
#     4   8   8   8   8   8   4   4
#     4  11  23  33  45  68  91 112 143 187 240 301
#     4   9  19  33  50  77 113 152 186 226 268 309
#     4   9  18  33  52  73  98 130 167 208 258 316
#     4  10  22  38  55  74  93 126 166 208 258 310
#     4   9  19  35  52  68  88 116 153 194 242 302
#     4  10  20  33  52  78 108 138 173 217 264 315
#     4   9  18  32  52  80 111 151 195 229 261 306
#     4  11  25  41  55  73  97 125 161 210 267 320
#
# _framework density 16.650469000000001
#
# number of rings (size 3 to 8) (size 9 to 14) (size 15 to 20)
#    0.000    2.385    0.000    2.769    4.308    5.538 
#    0.000    1.538    0.000    0.000    0.000    0.000 
#    0.000    1.231    0.000    3.385    0.000    0.154 
#
# Total GULP energy -289523.062088 kJ/mol
# GULP energy per Si atom -5567.751194 kJ/mol
# Density = 1.661257 g / cm^3
# Si number density = 16.650469 Si / 1000 Ang^3
#
#
#
# Elastic Constant Matrix: (Units=GPa)
#
#
# Indices 1 2 3 4 5 6 
#
# 1 84.0089 59.5856 25.0592 0.0000 0.0000 0.0000
# 2 59.5856 103.5459 26.5094 0.0000 0.0000 0.0000
# 3 25.0592 26.5094 58.7646 0.0000 0.0000 0.0000
# 4 0.0000 0.0000 0.0000 25.5592 0.0000 0.0000
# 5 0.0000 0.0000 0.0000 0.0000 6.1912 0.0000
# 6 0.0000 0.0000 0.0000 0.0000 0.0000 13.5992
#
#
#
# Elastic Compliance Matrix: (Units=1/GPa)
#
#
# Indices 1 2 3 4 5 6 
#
# 1 0.020889 -0.011012 -0.003940 0.000000 0.000000 0.000000
# 2 -0.011012 0.016724 -0.002848 0.000000 0.000000 0.000000
# 3 -0.003940 -0.002848 0.019982 0.000000 0.000000 0.000000
# 4 0.000000 0.000000 0.000000 0.039125 0.000000 0.000000
# 5 0.000000 0.000000 0.000000 0.000000 0.161520 0.000000
# 6 0.000000 0.000000 0.000000 0.000000 0.000000 0.073534
#
#
# Mechanical properties :
#
#
# Convention : Reuss Voigt Hill
#
# Bulk Modulus (GPa) = 45.46698 52.06975 48.76836
# Shear Modulus (GPa) = 13.34377 18.08093 15.71235
#
# Velocity S-wave (km/s) = 2.83398 3.29889 3.07523
# Velocity P-wave (km/s) = 6.17046 6.77129 6.47785
#
# Compressibility (1/GPa) = 0.02199398
#
# Stress axis : x y z
#
# Youngs Moduli (GPa) = 47.87100 59.79544 50.04446
#
# Poissons Ratio (x) = 0.65847 0.19719
# Poissons Ratio (y) = 0.52716 0.14254
# Poissons Ratio (z) = 0.18863 0.17032
#
# Static dielectric constant tensor:
#      x y z
#    x 1.533940 0.000000 0.000000 
#    y 0.000000 1.611100 0.000000 
#    z 0.000000 0.000000 1.622210 
# 
# From -- ./inp_files/25058.got.cif
#   From: 2010.05.17/outbox.cif.g08.bks.cpg/sg47_13_cif.got.tgz:25058.got - 2010.06.03 20:15:42.
