data_PCOD9385089
_publ_section_title
;
Structure prediction by ZEFSAII (Michael W. Deem and Ramdas Pophale) SiO2 
 PCOD9385089
Probable space group: P M M M
;
_chemical_formula_sum "Si O2"
_cell_formula_units_Z 52
_cell_length_a 15.494095
_cell_length_b 8.071073
_cell_length_c 23.896162
_cell_angle_alpha 90.000000
_cell_angle_beta 90.000000
_cell_angle_gamma 90.000000
_cell_volume 2988.309969
_symmetry_space_group_name_H-M "P M M M"
_symmetry_group_IT_number 47
_symmetry_cell_setting 'orthorhombic'
loop_
_space_group_symop_operation_xyz
x,y,z
-x,-y,z
x,-y,-z
-x,y,-z
-x,-y,-z
x,y,-z
-x,y,z
x,-y,z
loop_
_atom_site_type_symbol
_atom_site_label
_atom_site_fract_x
_atom_site_fract_y
_atom_site_fract_z
Si Si1 0.398569 0.305364 0.254911
Si Si2 0.187306 0.805304 0.935591
Si Si3 0.000000 0.310828 0.932327
Si Si4 0.341398 0.306306 0.861619
Si Si5 0.403536 0.194725 0.619629
Si Si6 0.223239 0.805242 0.432648
Si Si7 0.100680 0.500000 0.568119
Si Si8 0.500000 0.195821 0.937286
O O1 0.500000 0.294224 0.239681
O O2 0.378330 0.500000 0.264336
O O3 0.347562 0.236428 0.201347
O O4 0.387596 0.216943 0.314124
O O5 0.252035 0.721107 0.892965
O O6 0.088881 0.776951 0.917218
O O7 0.206447 0.000000 0.936457
O O8 0.197434 0.743164 0.000000
O O9 0.000000 0.500000 0.912494
O O10 0.000000 0.312747 0.000000
O O11 0.358334 0.500000 0.854604
O O12 0.415914 0.241449 0.902114
O O13 0.500000 0.266611 0.607720
O O14 0.318094 0.253891 0.587763
O O15 0.408617 0.000000 0.606490
O O16 0.222875 0.807610 0.500000
O O17 0.152323 0.667804 0.414565
O O18 0.209209 0.000000 0.414639
O O19 0.100729 0.500000 0.500000
O O20 0.000000 0.500000 0.585915
O O21 0.500000 0.000000 0.943027
O O22 0.500000 0.270024 0.000000
#
# Coordination Sequence:
#
# PCOD9385089 Si02
#       8
#     8   8   4   8   8   8   4   4
#     4   9  18  33  49  68  95 128 168 211 248 287
#     4  10  20  33  49  72  99 124 153 192 242 297
#     4   9  17  31  51  73  95 121 153 191 236 289
#     4  11  21  34  50  70  95 126 165 204 244 293
#     4   9  18  31  49  75 103 136 175 211 253 304
#     4   9  18  32  50  77 112 144 177 218 262 313
#     4   9  18  32  51  77 107 141 182 222 263 314
#     4  11  23  35  47  67  97 131 162 199 250 301
#
# _framework density 17.401140000000002
#
# number of rings (size 3 to 8) (size 9 to 14) (size 15 to 20)
#    0.000    2.385    0.769    1.846    1.077    6.154 
#    0.000    3.077    0.000    1.385    2.000    0.000 
#    0.000    0.000    0.000    0.000    0.000    0.000 
#
# Total GULP energy -289669.315286 kJ/mol
# GULP energy per Si atom -5570.563756 kJ/mol
# Density = 1.736153 g / cm^3
# Si number density = 17.401140 Si / 1000 Ang^3
#
#
#
# Elastic Constant Matrix: (Units=GPa)
#
#
# Indices 1 2 3 4 5 6 
#
# 1 113.0917 28.5537 25.6145 0.0000 0.0000 0.0000
# 2 28.5537 50.0409 8.9800 0.0000 0.0000 0.0000
# 3 25.6145 8.9800 21.2689 0.0000 0.0000 0.0000
# 4 0.0000 0.0000 0.0000 18.5477 0.0000 0.0000
# 5 0.0000 0.0000 0.0000 0.0000 -40.5705 0.0000
# 6 0.0000 0.0000 0.0000 0.0000 0.0000 31.1506
#
#
#
# Elastic Compliance Matrix: (Units=1/GPa)
#
#
# Indices 1 2 3 4 5 6 
#
# 1 0.013256 -0.005084 -0.013817 0.000000 0.000000 0.000000
# 2 -0.005084 0.023572 -0.003829 0.000000 0.000000 0.000000
# 3 -0.013817 -0.003829 0.065274 0.000000 0.000000 0.000000
# 4 0.000000 0.000000 0.000000 0.053915 0.000000 0.000000
# 5 0.000000 0.000000 0.000000 0.000000 -0.024648 0.000000
# 6 0.000000 0.000000 0.000000 0.000000 0.000000 0.032102
#
#
# Mechanical properties :
#
#
# Convention : Reuss Voigt Hill
#
# Bulk Modulus (GPa) = 17.65543 34.52201 26.08872
# Shear Modulus (GPa) = 21.94794 9.90913 15.92853
#
# Velocity S-wave (km/s) = 3.55532 2.38891 3.02880
# Velocity P-wave (km/s) = 5.19826 5.24320 5.22078
#
# Compressibility (1/GPa) = 0.05663981
#
# Stress axis : x y z
#
# Youngs Moduli (GPa) = 75.44007 42.42332 15.32003
#
# Poissons Ratio (x) = 0.21569 0.21168
# Poissons Ratio (y) = 0.38355 0.05867
# Poissons Ratio (z) = 1.04237 0.16246
#
# Static dielectric constant tensor:
#      x y z
#    x 1.587710 0.000000 0.000000 
#    y 0.000000 1.630890 0.000000 
#    z 0.000000 0.000000 1.598070 
# 
# From -- ./inp_files/30925.got.cif
#   From: 2010.05.17/outbox.cif.g08.bks.cpg/sg47_16_cif.got.tgz:30925.got - 2010.06.03 20:15:42.
