data_PCOD9385750
_publ_section_title
;
Structure prediction by ZEFSAII (Michael W. Deem and Ramdas Pophale) SiO2 
 PCOD9385750
Probable space group: P M M M
;
_chemical_formula_sum "Si O2"
_cell_formula_units_Z 56
_cell_length_a 14.418977
_cell_length_b 24.290068
_cell_length_c 7.733207
_cell_angle_alpha 90.000000
_cell_angle_beta 90.000000
_cell_angle_gamma 90.000000
_cell_volume 2708.462426
_symmetry_space_group_name_H-M "P M M M"
_symmetry_group_IT_number 47
_symmetry_cell_setting 'orthorhombic'
loop_
_space_group_symop_operation_xyz
x,y,z
-x,-y,z
x,-y,-z
-x,y,-z
-x,-y,-z
x,y,-z
-x,y,z
x,-y,z
loop_
_atom_site_type_symbol
_atom_site_label
_atom_site_fract_x
_atom_site_fract_y
_atom_site_fract_z
Si Si1 0.400503 0.065707 0.792957
Si Si2 0.602724 0.671488 0.794836
Si Si3 0.792532 0.278905 0.795073
Si Si4 0.896992 0.613781 0.703209
Si Si5 0.705822 0.438020 0.290039
Si Si6 0.803394 0.062207 0.296966
Si Si7 0.103506 0.829588 0.709352
O O1 0.500000 0.088442 0.731032
O O2 0.302504 0.083662 0.718642
O O3 0.402860 0.000000 0.758913
O O4 0.397015 0.073010 0.000000
O O5 0.500000 0.681411 0.721967
O O6 0.689787 0.706759 0.725688
O O7 0.634079 0.608285 0.769829
O O8 0.597909 0.682375 0.000000
O O9 0.865500 0.322640 0.718630
O O10 0.824951 0.217291 0.762499
O O11 0.791883 0.289181 0.000000
O O12 0.902406 0.600187 0.500000
O O13 0.809008 0.579602 0.772734
O O14 0.000000 0.605139 0.777663
O O15 0.706767 0.436282 0.500000
O O16 0.683822 0.500000 0.235900
O O17 0.824564 0.057261 0.500000
O O18 0.868205 0.109950 0.224587
O O19 0.809640 0.000000 0.222508
O O20 0.103733 0.831483 0.500000
O O21 0.000000 0.814842 0.767196
#
# Coordination Sequence:
#
# PCOD9385750 Si02
#       7
#     8   8   8   8   8   8   8
#     4   8  14  26  45  68  94 125 158 190 228 275
#     4   9  19  36  55  73  96 129 166 203 246 294
#     4  10  20  34  53  75  97 122 159 207 251 293
#     4   9  17  30  49  71  97 132 169 204 246 293
#     4   9  18  31  47  72 105 136 168 206 244 285
#     4   9  18  32  50  73 100 130 165 203 240 282
#     4  10  21  36  53  73  99 130 161 196 242 296
#
# _framework density 20.675937999999999
#
# number of rings (size 3 to 8) (size 9 to 14) (size 15 to 20)
#    0.000    2.857    0.000    1.286    0.000    5.143 
#    0.000    6.429    0.000    2.571    0.000    7.000 
#    0.000    0.000    0.000    0.000    0.000    0.000 
#
# Total GULP energy -312128.829500 kJ/mol
# GULP energy per Si atom -5573.729098 kJ/mol
# Density = 2.062888 g / cm^3
# Si number density = 20.675938 Si / 1000 Ang^3
#
#
#
# Elastic Constant Matrix: (Units=GPa)
#
#
# Indices 1 2 3 4 5 6 
#
# 1 119.1529 41.6454 1.3527 0.0000 0.0000 0.0000
# 2 41.6454 83.1104 -11.1995 0.0000 0.0000 0.0000
# 3 1.3527 -11.1995 25.6806 0.0000 0.0000 0.0000
# 4 0.0000 0.0000 0.0000 -12.6155 0.0000 0.0000
# 5 0.0000 0.0000 0.0000 0.0000 21.7257 0.0000
# 6 0.0000 0.0000 0.0000 0.0000 0.0000 9.5773
#
#
#
# Elastic Compliance Matrix: (Units=1/GPa)
#
#
# Indices 1 2 3 4 5 6 
#
# 1 0.010387 -0.005608 -0.002993 0.000000 0.000000 0.000000
# 2 -0.005608 0.015811 0.007191 0.000000 0.000000 0.000000
# 3 -0.002993 0.007191 0.042234 0.000000 0.000000 0.000000
# 4 0.000000 0.000000 0.000000 -0.079268 0.000000 0.000000
# 5 0.000000 0.000000 0.000000 0.000000 0.046028 0.000000
# 6 0.000000 0.000000 0.000000 0.000000 0.000000 0.104414
#
#
# Mechanical properties :
#
#
# Convention : Reuss Voigt Hill
#
# Bulk Modulus (GPa) = 15.24119 32.39345 23.81732
# Shear Modulus (GPa) = 30.43297 16.81387 23.62342
#
# Velocity S-wave (km/s) = 3.84070 2.85478 3.38384
# Velocity P-wave (km/s) = 5.20148 5.15437 5.17798
#
# Compressibility (1/GPa) = 0.06561167
#
# Stress axis : x y z
#
# Youngs Moduli (GPa) = 96.27834 63.24643 23.67787
#
# Poissons Ratio (x) = 0.35467 0.07086
# Poissons Ratio (y) = 0.53991 -0.17026
# Poissons Ratio (z) = 0.28813 -0.45479
#
# Static dielectric constant tensor:
#      x y z
#    x 1.772710 0.000000 0.000000 
#    y 0.000000 1.718870 0.000000 
#    z 0.000000 0.000000 1.770430 
# 
# From -- ./inp_files/7364.got.cif
#   From: 2010.05.17/outbox.cif.g08.bks.cpg/sg47_4_cif.got.tgz:7364.got - 2010.06.03 20:15:42.
