data_PCOD9385634
_publ_section_title
;
Structure prediction by ZEFSAII (Michael W. Deem and Ramdas Pophale) SiO2 
 PCOD9385634
Probable space group: P M M M
;
_chemical_formula_sum "Si O2"
_cell_formula_units_Z 44
_cell_length_a 19.277661
_cell_length_b 8.947956
_cell_length_c 14.979151
_cell_angle_alpha 90.000000
_cell_angle_beta 90.000000
_cell_angle_gamma 90.000000
_cell_volume 2583.838574
_symmetry_space_group_name_H-M "P M M M"
_symmetry_group_IT_number 47
_symmetry_cell_setting 'orthorhombic'
loop_
_space_group_symop_operation_xyz
x,y,z
-x,-y,z
x,-y,-z
-x,y,-z
-x,-y,-z
x,y,-z
-x,y,z
x,-y,z
loop_
_atom_site_type_symbol
_atom_site_label
_atom_site_fract_x
_atom_site_fract_y
_atom_site_fract_z
Si Si1 0.147918 0.823814 0.896680
Si Si2 0.877407 0.664955 0.595605
Si Si3 0.000000 0.323267 0.151310
Si Si4 0.762029 0.327528 0.746011
Si Si5 0.353633 0.319054 0.395553
Si Si6 0.000000 0.168268 0.337765
Si Si7 0.500000 0.829910 0.392523
O O1 0.206979 0.759559 0.830771
O O2 0.072394 0.746172 0.883879
O O3 0.138844 0.000000 0.878247
O O4 0.168084 0.804190 0.000000
O O5 0.840441 0.675136 0.500000
O O6 0.911438 0.500000 0.597924
O O7 0.825562 0.671065 0.676711
O O8 0.932834 0.794044 0.605325
O O9 0.000000 0.500000 0.135706
O O10 0.000000 0.282656 0.255724
O O11 0.746803 0.500000 0.771631
O O12 0.699479 0.269806 0.682720
O O13 0.338410 0.273654 0.500000
O O14 0.352677 0.500000 0.395760
O O15 0.429562 0.257614 0.370750
O O16 0.000000 0.000000 0.303973
O O17 0.500000 0.838629 0.500000
O O18 0.500000 0.000000 0.357647
#
# Coordination Sequence:
#
# PCOD9385634 Si02
#       7
#     8   8   4   8   8   4   4
#     4  11  24  40  57  78 104 133 166 213 273 326
#     4  10  20  34  51  71  98 134 172 210 253 303
#     4  12  23  38  59  78  96 126 171 223 274 321
#     4  10  20  34  54  78 104 136 174 213 255 308
#     4   9  17  31  52  79 111 146 180 213 250 295
#     4  12  23  34  49  70  98 132 171 213 258 307
#     4   9  17  29  47  75 110 147 184 217 249 290
#
# _framework density 17.028928000000001
#
# number of rings (size 3 to 8) (size 9 to 14) (size 15 to 20)
#    0.000    1.727    1.818    3.545    0.000    8.000 
#    0.000    0.000    0.000    3.273    0.000    0.636 
#    0.000    5.091    0.000    0.000    0.000    0.000 
#
# Total GULP energy -245206.230807 kJ/mol
# GULP energy per Si atom -5572.868882 kJ/mol
# Density = 1.699017 g / cm^3
# Si number density = 17.028928 Si / 1000 Ang^3
#
#
#
# Elastic Constant Matrix: (Units=GPa)
#
#
# Indices 1 2 3 4 5 6 
#
# 1 106.4131 41.4084 45.9996 0.0000 0.0000 0.0000
# 2 41.4084 68.9033 45.2931 0.0000 0.0000 0.0000
# 3 45.9996 45.2931 105.4356 0.0000 0.0000 0.0000
# 4 0.0000 0.0000 0.0000 16.9319 0.0000 0.0000
# 5 0.0000 0.0000 0.0000 0.0000 -7.2363 0.0000
# 6 0.0000 0.0000 0.0000 0.0000 0.0000 1.6448
#
#
#
# Elastic Compliance Matrix: (Units=1/GPa)
#
#
# Indices 1 2 3 4 5 6 
#
# 1 0.013010 -0.005696 -0.003229 0.000000 0.000000 0.000000
# 2 -0.005696 0.022718 -0.007274 0.000000 0.000000 0.000000
# 3 -0.003229 -0.007274 0.014018 0.000000 0.000000 0.000000
# 4 0.000000 0.000000 0.000000 0.059060 0.000000 0.000000
# 5 0.000000 0.000000 0.000000 0.000000 -0.138193 0.000000
# 6 0.000000 0.000000 0.000000 0.000000 0.000000 0.607977
#
#
# Mechanical properties :
#
#
# Convention : Reuss Voigt Hill
#
# Bulk Modulus (GPa) = 57.64529 60.68380 59.16454
# Shear Modulus (GPa) = 8.10675 12.13814 10.12244
#
# Velocity S-wave (km/s) = 2.18424 2.67272 2.44073
# Velocity P-wave (km/s) = 6.34713 6.72589 6.53926
#
# Compressibility (1/GPa) = 0.01734747
#
# Stress axis : x y z
#
# Youngs Moduli (GPa) = 76.86676 44.01884 71.33641
#
# Poissons Ratio (x) = 0.25071 0.23035
# Poissons Ratio (y) = 0.43780 0.51891
# Poissons Ratio (z) = 0.24821 0.32020
#
# Static dielectric constant tensor:
#      x y z
#    x 1.583860 0.000000 0.000000 
#    y 0.000000 1.601420 0.000000 
#    z 0.000000 0.000000 1.582640 
# 
# From -- ./inp_files/24381.got.cif
#   From: 2010.05.17/outbox.cif.g08.bks.cpg/sg47_13_cif.got.tgz:24381.got - 2010.06.03 20:15:42.
