data_PCOD9385213
_publ_section_title
;
Structure prediction by ZEFSAII (Michael W. Deem and Ramdas Pophale) SiO2 
 PCOD9385213
Probable space group: P M M M
;
_chemical_formula_sum "Si O2"
_cell_formula_units_Z 44
_cell_length_a 9.379648
_cell_length_b 8.693930
_cell_length_c 29.652233
_cell_angle_alpha 90.000000
_cell_angle_beta 90.000000
_cell_angle_gamma 90.000000
_cell_volume 2418.021085
_symmetry_space_group_name_H-M "P M M M"
_symmetry_group_IT_number 47
_symmetry_cell_setting 'orthorhombic'
loop_
_space_group_symop_operation_xyz
x,y,z
-x,-y,z
x,-y,-z
-x,y,-z
-x,-y,-z
x,y,-z
-x,y,z
x,-y,z
loop_
_atom_site_type_symbol
_atom_site_label
_atom_site_fract_x
_atom_site_fract_y
_atom_site_fract_z
Si Si1 0.334911 0.812731 0.449519
Si Si2 0.335269 0.683990 0.723281
Si Si3 0.173633 0.320849 0.902207
Si Si4 0.835468 0.186288 0.361661
Si Si5 0.834064 0.312107 0.000000
Si Si6 0.167130 0.817196 0.192582
O O1 0.291732 0.763041 0.500000
O O2 0.500000 0.767871 0.442211
O O3 0.236525 0.761255 0.408486
O O4 0.331945 0.000000 0.449620
O O5 0.500000 0.734546 0.722701
O O6 0.331108 0.500000 0.720643
O O7 0.252278 0.752987 0.680731
O O8 0.259107 0.737341 0.769020
O O9 0.212992 0.500000 0.896597
O O10 0.215412 0.228880 0.857756
O O11 0.000000 0.315502 0.904502
O O12 0.227100 0.265072 0.951350
O O13 0.000000 0.234319 0.358954
O O14 0.831567 0.000000 0.360882
O O15 0.833587 0.500000 0.000000
O O16 0.000000 0.263585 0.000000
O O17 0.000000 0.771434 0.197129
O O18 0.175080 0.000000 0.198114
#
# Coordination Sequence:
#
# PCOD9385213 Si02
#       6
#     8   8   8   8   4   8
#     4   8  14  26  46  73 105 140 174 205 239 282
#     4  11  24  39  54  72  94 125 167 210 252 301
#     4   8  13  23  41  65  95 131 167 202 240 283
#     4  10  20  33  52  79 107 134 165 203 249 298
#     4   7  10  18  35  61  92 127 166 201 234 278
#     4  10  20  33  50  74 102 130 162 201 248 301
#
# _framework density 18.196698000000001
#
# number of rings (size 3 to 8) (size 9 to 14) (size 15 to 20)
#    0.000    2.818    0.000    3.818    0.000    6.182 
#    0.000    2.273    0.000    3.273    0.000    4.455 
#    0.000    5.091    0.000    0.000    0.000    0.000 
#
# Total GULP energy -245232.689266 kJ/mol
# GULP energy per Si atom -5573.470211 kJ/mol
# Density = 1.815528 g / cm^3
# Si number density = 18.196698 Si / 1000 Ang^3
#
#
#
# Elastic Constant Matrix: (Units=GPa)
#
#
# Indices 1 2 3 4 5 6 
#
# 1 92.7795 25.2461 88.8871 0.0000 0.0000 0.0000
# 2 25.2461 12.3717 26.2750 0.0000 0.0000 0.0000
# 3 88.8871 26.2750 183.2163 0.0000 0.0000 0.0000
# 4 0.0000 0.0000 0.0000 34.8347 0.0000 0.0000
# 5 0.0000 0.0000 0.0000 0.0000 -37.9998 0.0000
# 6 0.0000 0.0000 0.0000 0.0000 0.0000 16.1249
#
#
#
# Elastic Compliance Matrix: (Units=1/GPa)
#
#
# Indices 1 2 3 4 5 6 
#
# 1 0.031747 -0.046121 -0.008788 0.000000 0.000000 0.000000
# 2 -0.046121 0.183233 -0.003902 0.000000 0.000000 0.000000
# 3 -0.008788 -0.003902 0.010281 0.000000 0.000000 0.000000
# 4 0.000000 0.000000 0.000000 0.028707 0.000000 0.000000
# 5 0.000000 0.000000 0.000000 0.000000 -0.026316 0.000000
# 6 0.000000 0.000000 0.000000 0.000000 0.000000 0.062016
#
#
# Mechanical properties :
#
#
# Convention : Reuss Voigt Hill
#
# Bulk Modulus (GPa) = 9.29026 63.24265 36.26646
# Shear Modulus (GPa) = 11.28235 12.45592 11.86914
#
# Velocity S-wave (km/s) = 2.49273 2.61916 2.55673
# Velocity P-wave (km/s) = 3.66080 6.63153 5.35624
#
# Compressibility (1/GPa) = 0.10763959
#
# Stress axis : x y z
#
# Youngs Moduli (GPa) = 31.49856 5.45754 97.26591
#
# Poissons Ratio (x) = 0.25171 0.85478
# Poissons Ratio (y) = 1.45274 0.37952
# Poissons Ratio (z) = 0.27681 0.02129
#
# Static dielectric constant tensor:
#      x y z
#    x 1.611720 0.000000 0.000000 
#    y 0.000000 1.622170 0.000000 
#    z 0.000000 0.000000 1.637930 
# 
# From -- ./inp_files/13666.got.cif
#   From: 2010.05.17/outbox.cif.g08.bks.cpg/sg47_7_cif.got.tgz:13666.got - 2010.06.03 20:15:42.
