data_PCOD9385308
_publ_section_title
;
Structure prediction by ZEFSAII (Michael W. Deem and Ramdas Pophale) SiO2 
 PCOD9385308
Probable space group: P M M M
;
_chemical_formula_sum "Si O2"
_cell_formula_units_Z 44
_cell_length_a 9.474210
_cell_length_b 29.523490
_cell_length_c 7.638203
_cell_angle_alpha 90.000000
_cell_angle_beta 90.000000
_cell_angle_gamma 90.000000
_cell_volume 2136.495084
_symmetry_space_group_name_H-M "P M M M"
_symmetry_group_IT_number 47
_symmetry_cell_setting 'orthorhombic'
loop_
_space_group_symop_operation_xyz
x,y,z
-x,-y,z
x,-y,-z
-x,y,-z
-x,-y,-z
x,y,-z
-x,y,z
x,-y,z
loop_
_atom_site_type_symbol
_atom_site_label
_atom_site_fract_x
_atom_site_fract_y
_atom_site_fract_z
Si Si1 0.160647 0.500000 0.791890
Si Si2 0.660114 0.410697 0.292559
Si Si3 0.159019 0.322469 0.208313
Si Si4 0.336401 0.863550 0.786545
Si Si5 0.663776 0.237258 0.785975
Si Si6 0.835884 0.950171 0.786378
O O1 0.249258 0.455551 0.743714
O O2 0.000000 0.500000 0.719526
O O3 0.148474 0.500000 0.000000
O O4 0.648173 0.406896 0.500000
O O5 0.500000 0.413195 0.219820
O O6 0.745554 0.366728 0.232177
O O7 0.238742 0.278012 0.278027
O O8 0.000000 0.328410 0.278267
O O9 0.146964 0.315824 0.000000
O O10 0.500000 0.868274 0.737378
O O11 0.289070 0.813203 0.731815
O O12 0.248568 0.906503 0.723548
O O13 0.330716 0.863896 0.000000
O O14 0.500000 0.243716 0.734066
O O15 0.664589 0.237825 0.000000
O O16 0.000000 0.946742 0.737436
O O17 0.782849 0.000000 0.731116
O O18 0.830592 0.949768 0.000000
#
# Coordination Sequence:
#
# PCOD9385308 Si02
#       6
#     4   8   8   8   8   8
#     4  11  24  41  62  88 114 139 170 207 246 288
#     4  11  24  40  58  81 108 139 174 207 243 290
#     4  10  20  33  51  76 102 129 165 206 248 295
#     4   8  13  20  30  45  65  92 130 176 225 275
#     4   8  14  25  40  58  82 112 146 188 238 287
#     4   8  13  19  25  35  55  86 125 170 221 275
#
# _framework density 20.594477000000001
#
# number of rings (size 3 to 8) (size 9 to 14) (size 15 to 20)
#    0.000    2.818    0.000    3.818    0.000    7.636 
#    0.000    5.455    0.000    0.000    0.000    0.000 
#    0.000    0.000    0.000    0.000    0.000    0.909 
#
# Total GULP energy -245488.197101 kJ/mol
# GULP energy per Si atom -5579.277207 kJ/mol
# Density = 2.054760 g / cm^3
# Si number density = 20.594477 Si / 1000 Ang^3
#
#
#
# Elastic Constant Matrix: (Units=GPa)
#
#
# Indices 1 2 3 4 5 6 
#
# 1 154.6455 130.1026 5.0745 0.0000 0.0000 0.0000
# 2 130.1026 236.2273 -1.4107 0.0000 0.0000 0.0000
# 3 5.0745 -1.4107 39.7227 0.0000 0.0000 0.0000
# 4 0.0000 0.0000 0.0000 -60.6647 0.0000 0.0000
# 5 0.0000 0.0000 0.0000 0.0000 21.6817 0.0000
# 6 0.0000 0.0000 0.0000 0.0000 0.0000 75.4725
#
#
#
# Elastic Compliance Matrix: (Units=1/GPa)
#
#
# Indices 1 2 3 4 5 6 
#
# 1 0.012176 -0.006717 -0.001794 0.000000 0.000000 0.000000
# 2 -0.006717 0.007939 0.001140 0.000000 0.000000 0.000000
# 3 -0.001794 0.001140 0.025444 0.000000 0.000000 0.000000
# 4 0.000000 0.000000 0.000000 -0.016484 0.000000 0.000000
# 5 0.000000 0.000000 0.000000 0.000000 0.046122 0.000000
# 6 0.000000 0.000000 0.000000 0.000000 0.000000 0.013250
#
#
# Mechanical properties :
#
#
# Convention : Reuss Voigt Hill
#
# Bulk Modulus (GPa) = 32.44847 77.56981 55.00914
# Shear Modulus (GPa) = 44.06804 27.08650 35.57727
#
# Velocity S-wave (km/s) = 4.63081 3.63055 4.16085
# Velocity P-wave (km/s) = 6.66203 7.43785 7.06061
#
# Compressibility (1/GPa) = 0.03081809
#
# Stress axis : x y z
#
# Youngs Moduli (GPa) = 82.12917 125.95699 39.30169
#
# Poissons Ratio (x) = 0.84601 0.07051
# Poissons Ratio (y) = 0.55163 -0.04480
# Poissons Ratio (z) = 0.14734 -0.14359
#
# Static dielectric constant tensor:
#      x y z
#    x 1.740490 0.000000 0.000000 
#    y 0.000000 1.689180 0.000000 
#    z 0.000000 0.000000 1.783560 
# 
# From -- ./inp_files/2107.got.cif
#   From: 2010.05.17/outbox.cif.g08.bks.cpg/sg47_2_cif.got.tgz:2107.got - 2010.06.03 20:15:42.
