data_PCOD9385223
_publ_section_title
;
Structure prediction by ZEFSAII (Michael W. Deem and Ramdas Pophale) SiO2 
 PCOD9385223
Probable space group: P M M M
;
_chemical_formula_sum "Si O2"
_cell_formula_units_Z 48
_cell_length_a 7.930706
_cell_length_b 31.954861
_cell_length_c 9.571354
_cell_angle_alpha 90.000000
_cell_angle_beta 90.000000
_cell_angle_gamma 90.000000
_cell_volume 2425.616634
_symmetry_space_group_name_H-M "P M M M"
_symmetry_group_IT_number 47
_symmetry_cell_setting 'orthorhombic'
loop_
_space_group_symop_operation_xyz
x,y,z
-x,-y,z
x,-y,-z
-x,y,-z
-x,-y,-z
x,y,-z
-x,y,z
x,-y,z
loop_
_atom_site_type_symbol
_atom_site_label
_atom_site_fract_x
_atom_site_fract_y
_atom_site_fract_z
Si Si1 0.299756 0.409647 0.159903
Si Si2 0.293256 0.000000 0.838853
Si Si3 0.202091 0.669607 0.657482
Si Si4 0.297962 0.920702 0.658610
Si Si5 0.799066 0.500000 0.160029
Si Si6 0.796431 0.158295 0.159845
Si Si7 0.205928 0.252925 0.839562
O O1 0.500000 0.406343 0.152073
O O2 0.235690 0.371804 0.253217
O O3 0.256920 0.455551 0.220352
O O4 0.230984 0.407133 0.000000
O O5 0.236276 0.041163 0.755171
O O6 0.500000 0.000000 0.840330
O O7 0.238337 0.000000 0.000000
O O8 0.268707 0.666278 0.500000
O O9 0.267288 0.710666 0.738067
O O10 0.000000 0.674241 0.649257
O O11 0.231732 0.922330 0.500000
O O12 0.500000 0.925351 0.650705
O O13 0.261373 0.876969 0.733921
O O14 0.000000 0.500000 0.155754
O O15 0.730849 0.500000 0.000000
O O16 0.741283 0.205582 0.196531
O O17 0.000000 0.158320 0.158828
O O18 0.740409 0.149345 0.000000
O O19 0.000000 0.253152 0.837213
O O20 0.255750 0.261437 0.000000
#
# Coordination Sequence:
#
# PCOD9385223 Si02
#       7
#     8   4   8   8   4   8   8
#     4  10  20  34  53  77 105 136 169 206 251 302
#     4   9  17  31  52  73  94 127 170 212 254 299
#     4  10  20  33  51  76 103 132 169 210 250 296
#     4  10  20  33  50  74 103 133 166 205 250 302
#     4   9  17  31  54  81 104 129 166 212 256 297
#     4   9  18  33  53  77 103 131 166 208 253 301
#     4   8  15  30  52  75  99 130 169 211 252 295
#
# _framework density 19.788782999999999
#
# number of rings (size 3 to 8) (size 9 to 14) (size 15 to 20)
#    0.000    2.667    0.000    3.000    0.000    6.000 
#    0.000    3.333    0.000    6.000    0.000    0.000 
#    0.000    0.000    0.000    0.000    0.000    0.000 
#
# Total GULP energy -267803.321736 kJ/mol
# GULP energy per Si atom -5579.235870 kJ/mol
# Density = 1.974374 g / cm^3
# Si number density = 19.788783 Si / 1000 Ang^3
#
#
#
# Elastic Constant Matrix: (Units=GPa)
#
#
# Indices 1 2 3 4 5 6 
#
# 1 17.8477 3.0653 9.2214 0.0000 0.0000 0.0000
# 2 3.0653 189.0721 128.4578 0.0000 0.0000 0.0000
# 3 9.2214 128.4578 155.1101 0.0000 0.0000 0.0000
# 4 0.0000 0.0000 0.0000 -5.1018 0.0000 0.0000
# 5 0.0000 0.0000 0.0000 0.0000 15.1609 0.0000
# 6 0.0000 0.0000 0.0000 0.0000 0.0000 29.8822
#
#
#
# Elastic Compliance Matrix: (Units=1/GPa)
#
#
# Indices 1 2 3 4 5 6 
#
# 1 0.058662 0.003243 -0.006174 0.000000 0.000000 0.000000
# 2 0.003243 0.012273 -0.010357 0.000000 0.000000 0.000000
# 3 -0.006174 -0.010357 0.015391 0.000000 0.000000 0.000000
# 4 0.000000 0.000000 0.000000 -0.196011 0.000000 0.000000
# 5 0.000000 0.000000 0.000000 0.000000 0.065959 0.000000
# 6 0.000000 0.000000 0.000000 0.000000 0.000000 0.033465
#
#
# Mechanical properties :
#
#
# Convention : Reuss Voigt Hill
#
# Bulk Modulus (GPa) = 16.73577 71.50210 44.11893
# Shear Modulus (GPa) = 137.99985 22.74063 80.37024
#
# Velocity S-wave (km/s) = 8.35989 3.39361 6.37983
# Velocity P-wave (km/s) = 10.08262 7.18099 8.75288
#
# Compressibility (1/GPa) = 0.05975226
#
# Stress axis : x y z
#
# Youngs Moduli (GPa) = 17.04675 81.47888 64.97100
#
# Poissons Ratio (x) = -0.26426 0.40110
# Poissons Ratio (y) = -0.05529 0.67291
# Poissons Ratio (z) = 0.10524 0.84388
#
# Static dielectric constant tensor:
#      x y z
#    x 1.720590 0.000000 0.000000 
#    y 0.000000 1.682340 0.000000 
#    z 0.000000 0.000000 1.688450 
# 
# From -- ./inp_files/2785.got.cif
#   From: 2010.05.17/outbox.cif.g08.bks.cpg/sg47_2_cif.got.tgz:2785.got - 2010.06.03 20:15:42.
