data_PCOD9385238
_publ_section_title
;
Structure prediction by ZEFSAII (Michael W. Deem and Ramdas Pophale) SiO2 
 PCOD9385238
Probable space group: P M M M
;
_chemical_formula_sum "Si O2"
_cell_formula_units_Z 48
_cell_length_a 9.263292
_cell_length_b 7.831204
_cell_length_c 31.842464
_cell_angle_alpha 90.000000
_cell_angle_beta 90.000000
_cell_angle_gamma 90.000000
_cell_volume 2309.939248
_symmetry_space_group_name_H-M "P M M M"
_symmetry_group_IT_number 47
_symmetry_cell_setting 'orthorhombic'
loop_
_space_group_symop_operation_xyz
x,y,z
-x,-y,z
x,-y,-z
-x,y,-z
-x,-y,-z
x,y,-z
-x,y,z
x,-y,z
loop_
_atom_site_type_symbol
_atom_site_label
_atom_site_fract_x
_atom_site_fract_y
_atom_site_fract_z
Si Si1 0.664867 0.294069 0.667003
Si Si2 0.336489 0.204268 0.832605
Si Si3 0.836124 0.703201 0.083988
Si Si4 0.666522 0.291178 0.500000
Si Si5 0.164462 0.794184 0.248699
Si Si6 0.166579 0.708998 0.583933
Si Si7 0.335803 0.203729 0.000000
O O1 0.500000 0.230869 0.667964
O O2 0.659615 0.500000 0.664518
O O3 0.749459 0.248200 0.709163
O O4 0.750206 0.233812 0.625734
O O5 0.500000 0.272362 0.834619
O O6 0.250654 0.235081 0.875424
O O7 0.248921 0.271159 0.792350
O O8 0.346637 0.000000 0.827429
O O9 0.845054 0.500000 0.087060
O O10 0.750556 0.744614 0.041557
O O11 0.000000 0.772590 0.082919
O O12 0.666213 0.500000 0.500000
O O13 0.500000 0.236270 0.500000
O O14 0.750038 0.236913 0.541943
O O15 0.000000 0.729842 0.250273
O O16 0.157851 0.000000 0.245546
O O17 0.166650 0.500000 0.584048
O O18 0.000000 0.763551 0.583897
O O19 0.500000 0.272536 0.000000
O O20 0.344823 0.000000 0.000000
#
# Coordination Sequence:
#
# PCOD9385238 Si02
#       7
#     8   8   8   4   8   8   4
#     4  10  20  33  50  74 104 137 173 215 265 318
#     4  10  21  38  60  84 109 140 180 223 267 318
#     4  11  24  40  59  86 118 150 185 225 270 320
#     4   9  15  23  37  59  90 127 166 209 258 313
#     4  10  21  37  57  80 106 139 179 221 266 317
#     4   9  16  26  41  63  93 129 168 211 260 313
#     4  11  24  41  62  88 116 149 190 231 272 320
#
# _framework density 20.779767
#
# number of rings (size 3 to 8) (size 9 to 14) (size 15 to 20)
#    0.000    2.000    0.000    3.750    0.000   11.667 
#    0.000    0.000    0.000    0.000    0.000    0.583 
#    0.000    4.667    0.000    0.000    0.000    0.000 
#
# Total GULP energy -268294.978569 kJ/mol
# GULP energy per Si atom -5589.478720 kJ/mol
# Density = 2.073247 g / cm^3
# Si number density = 20.779767 Si / 1000 Ang^3
#
#
#
# Elastic Constant Matrix: (Units=GPa)
#
#
# Indices 1 2 3 4 5 6 
#
# 1 264.8394 8.2513 154.2463 0.0000 0.0000 0.0000
# 2 8.2513 24.4688 -3.3097 0.0000 0.0000 0.0000
# 3 154.2463 -3.3097 239.9049 0.0000 0.0000 0.0000
# 4 0.0000 0.0000 0.0000 28.0416 0.0000 0.0000
# 5 0.0000 0.0000 0.0000 0.0000 46.1995 0.0000
# 6 0.0000 0.0000 0.0000 0.0000 0.0000 10.6508
#
#
#
# Elastic Compliance Matrix: (Units=1/GPa)
#
#
# Indices 1 2 3 4 5 6 
#
# 1 0.006201 -0.002635 -0.004023 0.000000 0.000000 0.000000
# 2 -0.002635 0.042065 0.002275 0.000000 0.000000 0.000000
# 3 -0.004023 0.002275 0.006787 0.000000 0.000000 0.000000
# 4 0.000000 0.000000 0.000000 0.035661 0.000000 0.000000
# 5 0.000000 0.000000 0.000000 0.000000 0.021645 0.000000
# 6 0.000000 0.000000 0.000000 0.000000 0.000000 0.093890
#
#
# Mechanical properties :
#
#
# Convention : Reuss Voigt Hill
#
# Bulk Modulus (GPa) = 21.60552 94.17653 57.89102
# Shear Modulus (GPa) = 21.69708 41.64671 31.67189
#
# Velocity S-wave (km/s) = 3.23483 4.48168 3.90830
# Velocity P-wave (km/s) = 4.93681 8.49707 6.94883
#
# Compressibility (1/GPa) = 0.04628447
#
# Stress axis : x y z
#
# Youngs Moduli (GPa) = 161.25620 23.77282 147.34947
#
# Poissons Ratio (x) = 0.06265 0.59286
# Poissons Ratio (y) = 0.42498 -0.33519
# Poissons Ratio (z) = 0.64881 -0.05408
#
# Static dielectric constant tensor:
#      x y z
#    x 1.734130 0.000000 0.000000 
#    y 0.000000 1.774380 0.000000 
#    z 0.000000 0.000000 1.646600 
# 
# From -- ./inp_files/13908.got.cif
#   From: 2010.05.17/outbox.cif.g08.bks.cpg/sg47_7_cif.got.tgz:13908.got - 2010.06.03 20:15:42.
