data_PCOD9385119
_publ_section_title
;
Structure prediction by ZEFSAII (Michael W. Deem and Ramdas Pophale) SiO2 
 PCOD9385119
Probable space group: P M M M
;
_chemical_formula_sum "Si O2"
_cell_formula_units_Z 44
_cell_length_a 9.438120
_cell_length_b 7.550200
_cell_length_c 29.460053
_cell_angle_alpha 90.000000
_cell_angle_beta 90.000000
_cell_angle_gamma 90.000000
_cell_volume 2099.314351
_symmetry_space_group_name_H-M "P M M M"
_symmetry_group_IT_number 47
_symmetry_cell_setting 'orthorhombic'
loop_
_space_group_symop_operation_xyz
x,y,z
-x,-y,z
x,-y,-z
-x,y,-z
-x,-y,-z
x,y,-z
-x,y,z
x,-y,z
loop_
_atom_site_type_symbol
_atom_site_label
_atom_site_fract_x
_atom_site_fract_y
_atom_site_fract_z
Si Si1 0.337202 0.783101 0.361635
Si Si2 0.839010 0.212613 0.274287
Si Si3 0.836468 0.215905 0.550960
Si Si4 0.838148 0.710480 0.900995
Si Si5 0.838579 0.210358 0.000000
Si Si6 0.660521 0.712678 0.184200
O O1 0.500000 0.727082 0.358086
O O2 0.245401 0.723298 0.318547
O O3 0.264453 0.725423 0.408535
O O4 0.336482 0.000000 0.361525
O O5 0.751888 0.250999 0.228883
O O6 0.000000 0.280502 0.271903
O O7 0.847092 0.000000 0.278440
O O8 0.795713 0.272216 0.500000
O O9 0.000000 0.268144 0.559043
O O10 0.834664 0.000000 0.551044
O O11 0.849139 0.500000 0.894343
O O12 0.742024 0.781476 0.860385
O O13 0.000000 0.782450 0.899832
O O14 0.776105 0.737229 0.951473
O O15 0.000000 0.284951 0.000000
O O16 0.846375 0.000000 0.000000
O O17 0.500000 0.780807 0.188193
O O18 0.651600 0.500000 0.179790
#
# Coordination Sequence:
#
# PCOD9385119 Si02
#       6
#     8   8   8   8   4   8
#     4   9  16  25  38  58  86 119 154 194 241 292
#     4  10  20  33  50  71  95 126 163 201 243 293
#     4   8  13  21  33  50  76 113 155 196 237 283
#     4   9  17  31  51  72  95 126 162 197 236 283
#     4   9  17  29  48  75 102 126 158 201 240 275
#     4  10  21  36  53  74 100 129 162 202 247 292
#
# _framework density 20.959223000000001
#
# number of rings (size 3 to 8) (size 9 to 14) (size 15 to 20)
#    0.000    2.818    0.000    2.455    0.000    6.545 
#    0.000    4.091    0.000    2.727    0.000    0.000 
#    0.000    0.727    0.000    7.636    0.000   10.545 
#
# Total GULP energy -245574.490745 kJ/mol
# GULP energy per Si atom -5581.238426 kJ/mol
# Density = 2.091152 g / cm^3
# Si number density = 20.959223 Si / 1000 Ang^3
#
#
#
# Elastic Constant Matrix: (Units=GPa)
#
#
# Indices 1 2 3 4 5 6 
#
# 1 176.5543 7.1001 139.2999 0.0000 0.0000 0.0000
# 2 7.1001 50.6131 -0.4572 0.0000 0.0000 0.0000
# 3 139.2999 -0.4572 231.9391 0.0000 0.0000 0.0000
# 4 0.0000 0.0000 0.0000 21.3463 0.0000 0.0000
# 5 0.0000 0.0000 0.0000 0.0000 -1.5155 0.0000
# 6 0.0000 0.0000 0.0000 0.0000 0.0000 5.7431
#
#
#
# Elastic Compliance Matrix: (Units=1/GPa)
#
#
# Indices 1 2 3 4 5 6 
#
# 1 0.010891 -0.001587 -0.006544 0.000000 0.000000 0.000000
# 2 -0.001587 0.019989 0.000992 0.000000 0.000000 0.000000
# 3 -0.006544 0.000992 0.008244 0.000000 0.000000 0.000000
# 4 0.000000 0.000000 0.000000 0.046846 0.000000 0.000000
# 5 0.000000 0.000000 0.000000 0.000000 -0.659834 0.000000
# 6 0.000000 0.000000 0.000000 0.000000 0.000000 0.174121
#
#
# Mechanical properties :
#
#
# Convention : Reuss Voigt Hill
#
# Bulk Modulus (GPa) = 40.24638 83.44355 61.84497
# Shear Modulus (GPa) = -13.25618 25.99236 6.36809
#
# Velocity S-wave (km/s) = -2.51763 3.52538 1.74497
# Velocity P-wave (km/s) = 3.28521 7.51464 5.79924
#
# Compressibility (1/GPa) = 0.02484695
#
# Stress axis : x y z
#
# Youngs Moduli (GPa) = 91.81780 50.02673 121.30307
#
# Poissons Ratio (x) = 0.07939 0.79383
# Poissons Ratio (y) = 0.14571 -0.12039
# Poissons Ratio (z) = 0.60088 -0.04965
#
# Static dielectric constant tensor:
#      x y z
#    x 1.732400 0.000000 0.000000 
#    y 0.000000 1.814220 0.000000 
#    z 0.000000 0.000000 1.731420 
# 
# From -- ./inp_files/2194.got.cif
#   From: 2010.05.17/outbox.cif.g08.bks.cpg/sg47_2_cif.got.tgz:2194.got - 2010.06.03 20:15:42.
