data_PCOD9385483
_publ_section_title
;
Structure prediction by ZEFSAII (Michael W. Deem and Ramdas Pophale) SiO2 
 PCOD9385483
Probable space group: P M M M
;
_chemical_formula_sum "Si O2"
_cell_formula_units_Z 48
_cell_length_a 9.467691
_cell_length_b 8.803724
_cell_length_c 31.718014
_cell_angle_alpha 90.000000
_cell_angle_beta 90.000000
_cell_angle_gamma 90.000000
_cell_volume 2643.726234
_symmetry_space_group_name_H-M "P M M M"
_symmetry_group_IT_number 47
_symmetry_cell_setting 'orthorhombic'
loop_
_space_group_symop_operation_xyz
x,y,z
-x,-y,z
x,-y,-z
-x,y,-z
-x,-y,-z
x,y,-z
-x,y,z
x,-y,z
loop_
_atom_site_type_symbol
_atom_site_label
_atom_site_fract_x
_atom_site_fract_y
_atom_site_fract_z
Si Si1 0.834051 0.681448 0.785262
Si Si2 0.337065 0.684825 0.452560
Si Si3 0.335288 0.182099 0.707428
Si Si4 0.332177 0.681647 0.952639
Si Si5 0.835857 0.315940 0.628958
Si Si6 0.833338 0.179539 0.874897
O O1 0.823348 0.500000 0.782197
O O2 0.739832 0.757663 0.749522
O O3 0.791094 0.735652 0.831902
O O4 0.000000 0.723189 0.779403
O O5 0.297904 0.734223 0.500000
O O6 0.500000 0.729997 0.444489
O O7 0.335112 0.500000 0.452821
O O8 0.234619 0.733858 0.415168
O O9 0.500000 0.227374 0.706322
O O10 0.252726 0.249674 0.667535
O O11 0.327683 0.000000 0.706387
O O12 0.500000 0.709159 0.949129
O O13 0.310586 0.500000 0.949363
O O14 0.250795 0.763414 0.915361
O O15 0.287754 0.728647 0.000000
O O16 0.829341 0.500000 0.630874
O O17 0.000000 0.271837 0.631507
O O18 0.000000 0.209159 0.881368
O O19 0.813581 0.000000 0.869001
#
# Coordination Sequence:
#
# PCOD9385483 Si02
#       6
#     8   8   8   8   8   8
#     4  10  21  38  60  83 106 135 173 215 261 314
#     4   8  14  26  46  73 105 140 176 215 260 308
#     4  11  24  39  55  77 105 138 176 216 261 314
#     4   9  19  36  56  78 106 142 184 227 269 313
#     4  10  20  33  52  79 108 139 176 217 263 314
#     4  10  21  36  55  81 112 144 177 215 262 316
#
# _framework density 18.156192000000001
#
# number of rings (size 3 to 8) (size 9 to 14) (size 15 to 20)
#    0.000    2.333    0.000    3.500    0.000    8.333 
#    0.000    4.167    0.000    0.500    0.000    3.500 
#    0.000    0.000    0.000    0.000    0.000    0.000 
#
# Total GULP energy -267946.868080 kJ/mol
# GULP energy per Si atom -5582.226418 kJ/mol
# Density = 1.811487 g / cm^3
# Si number density = 18.156192 Si / 1000 Ang^3
#
#
#
# Elastic Constant Matrix: (Units=GPa)
#
#
# Indices 1 2 3 4 5 6 
#
# 1 110.7348 41.6044 101.5669 0.0000 0.0000 0.0000
# 2 41.6044 24.0470 42.1863 0.0000 0.0000 0.0000
# 3 101.5669 42.1863 167.6667 0.0000 0.0000 0.0000
# 4 0.0000 0.0000 0.0000 -44.4162 0.0000 0.0000
# 5 0.0000 0.0000 0.0000 0.0000 42.1571 0.0000
# 6 0.0000 0.0000 0.0000 0.0000 0.0000 24.8001
#
#
#
# Elastic Compliance Matrix: (Units=1/GPa)
#
#
# Indices 1 2 3 4 5 6 
#
# 1 0.033297 -0.039783 -0.010160 0.000000 0.000000 0.000000
# 2 -0.039783 0.121978 -0.006592 0.000000 0.000000 0.000000
# 3 -0.010160 -0.006592 0.013777 0.000000 0.000000 0.000000
# 4 0.000000 0.000000 0.000000 -0.022514 0.000000 0.000000
# 5 0.000000 0.000000 0.000000 0.000000 0.023721 0.000000
# 6 0.000000 0.000000 0.000000 0.000000 0.000000 0.040322
#
#
# Mechanical properties :
#
#
# Convention : Reuss Voigt Hill
#
# Bulk Modulus (GPa) = 17.86261 74.79598 46.32930
# Shear Modulus (GPa) = 14.60659 12.31427 13.46043
#
# Velocity S-wave (km/s) = 2.83944 2.60713 2.72576
# Velocity P-wave (km/s) = 4.53978 7.09564 5.95641
#
# Compressibility (1/GPa) = 0.05598284
#
# Stress axis : x y z
#
# Youngs Moduli (GPa) = 30.03313 8.19819 72.58230
#
# Poissons Ratio (x) = 0.32615 0.73746
# Poissons Ratio (y) = 1.19480 0.47843
# Poissons Ratio (z) = 0.30514 0.05404
#
# Static dielectric constant tensor:
#      x y z
#    x 1.606810 0.000000 0.000000 
#    y 0.000000 1.610160 0.000000 
#    z 0.000000 0.000000 1.601070 
# 
# From -- ./inp_files/2447.got.cif
#   From: 2010.05.17/outbox.cif.g08.bks.cpg/sg47_2_cif.got.tgz:2447.got - 2010.06.03 20:15:42.
