data_PCOD9385560
_publ_section_title
;
Structure prediction by ZEFSAII (Michael W. Deem and Ramdas Pophale) SiO2 
 PCOD9385560
Probable space group: P M M M
;
_chemical_formula_sum "Si O2"
_cell_formula_units_Z 44
_cell_length_a 8.089896
_cell_length_b 30.596613
_cell_length_c 9.674404
_cell_angle_alpha 90.000000
_cell_angle_beta 90.000000
_cell_angle_gamma 90.000000
_cell_volume 2394.641537
_symmetry_space_group_name_H-M "P M M M"
_symmetry_group_IT_number 47
_symmetry_cell_setting 'orthorhombic'
loop_
_space_group_symop_operation_xyz
x,y,z
-x,-y,z
x,-y,-z
-x,y,-z
-x,-y,-z
x,y,-z
-x,y,z
x,-y,z
loop_
_atom_site_type_symbol
_atom_site_label
_atom_site_fract_x
_atom_site_fract_y
_atom_site_fract_z
Si Si1 0.696755 0.369985 0.155712
Si Si2 0.800837 0.289409 0.343056
Si Si3 0.000000 0.049985 0.832038
Si Si4 0.686846 0.108711 0.834421
Si Si5 0.199454 0.450709 0.342161
Si Si6 0.801228 0.190670 0.663695
O O1 0.500000 0.369130 0.147894
O O2 0.750946 0.327284 0.239702
O O3 0.745943 0.413338 0.238666
O O4 0.765542 0.370181 0.000000
O O5 0.742103 0.298532 0.500000
O O6 0.747537 0.240338 0.303101
O O7 0.000000 0.288204 0.348312
O O8 0.833940 0.075935 0.791051
O O9 0.000000 0.000000 0.783055
O O10 0.000000 0.048957 0.000000
O O11 0.500000 0.092460 0.807789
O O12 0.715209 0.154095 0.755227
O O13 0.702250 0.115373 0.000000
O O14 0.254462 0.441512 0.500000
O O15 0.254476 0.500000 0.305414
O O16 0.000000 0.450959 0.343832
O O17 0.771002 0.183900 0.500000
O O18 0.000000 0.187586 0.685047
#
# Coordination Sequence:
#
# PCOD9385560 Si02
#       6
#     8   8   4   8   8   8
#     4  11  24  37  49  73 110 144 173 211 260 313
#     4   9  19  36  57  79 102 134 179 223 261 310
#     4   9  18  34  55  79 111 149 187 231 280 327
#     4  10  20  33  53  82 112 144 184 229 277 330
#     4   9  19  37  60  82 101 126 167 217 264 314
#     4   9  18  34  56  80 107 141 180 223 273 327
#
# _framework density 18.374357
#
# number of rings (size 3 to 8) (size 9 to 14) (size 15 to 20)
#    0.000    2.455    0.909    2.727    0.000    7.273 
#    0.000   10.000    0.000    1.091    0.000    1.273 
#    0.000    0.000    0.000    0.000    0.000    0.000 
#
# Total GULP energy -245462.639730 kJ/mol
# GULP energy per Si atom -5578.696357 kJ/mol
# Density = 1.833254 g / cm^3
# Si number density = 18.374357 Si / 1000 Ang^3
#
#
#
# Elastic Constant Matrix: (Units=GPa)
#
#
# Indices 1 2 3 4 5 6 
#
# 1 72.7582 58.3769 37.6943 0.0000 0.0000 0.0000
# 2 58.3769 164.7577 86.3861 0.0000 0.0000 0.0000
# 3 37.6943 86.3861 74.8392 0.0000 0.0000 0.0000
# 4 0.0000 0.0000 0.0000 28.4087 0.0000 0.0000
# 5 0.0000 0.0000 0.0000 0.0000 25.9490 0.0000
# 6 0.0000 0.0000 0.0000 0.0000 0.0000 -15.9173
#
#
#
# Elastic Compliance Matrix: (Units=1/GPa)
#
#
# Indices 1 2 3 4 5 6 
#
# 1 0.019851 -0.004537 -0.004761 0.000000 0.000000 0.000000
# 2 -0.004537 0.016412 -0.016658 0.000000 0.000000 0.000000
# 3 -0.004761 -0.016658 0.034989 0.000000 0.000000 0.000000
# 4 0.000000 0.000000 0.000000 0.035201 0.000000 0.000000
# 5 0.000000 0.000000 0.000000 0.000000 0.038537 0.000000
# 6 0.000000 0.000000 0.000000 0.000000 0.000000 -0.062825
#
#
# Mechanical properties :
#
#
# Convention : Reuss Voigt Hill
#
# Bulk Modulus (GPa) = 51.71213 75.25217 63.48215
# Shear Modulus (GPa) = 35.58116 16.34791 25.96454
#
# Velocity S-wave (km/s) = 4.40529 2.98604 3.76318
# Velocity P-wave (km/s) = 7.35393 7.27547 7.31480
#
# Compressibility (1/GPa) = 0.01933782
#
# Stress axis : x y z
#
# Youngs Moduli (GPa) = 50.37462 60.93277 28.58079
#
# Poissons Ratio (x) = 0.27647 0.13607
# Poissons Ratio (y) = 0.22857 0.47611
# Poissons Ratio (z) = 0.23984 1.01504
#
# Static dielectric constant tensor:
#      x y z
#    x 1.655450 0.000000 0.000000 
#    y 0.000000 1.616540 0.000000 
#    z 0.000000 0.000000 1.626770 
# 
# From -- ./inp_files/2151.got.cif
#   From: 2010.05.17/outbox.cif.g08.bks.cpg/sg47_2_cif.got.tgz:2151.got - 2010.06.03 20:15:42.
