data_PCOD9385886
_publ_section_title
;
Structure prediction by ZEFSAII (Michael W. Deem and Ramdas Pophale) SiO2 
 PCOD9385886
Probable space group: P M M M
;
_chemical_formula_sum "Si O2"
_cell_formula_units_Z 45
_cell_length_a 7.491311
_cell_length_b 14.360546
_cell_length_c 23.884291
_cell_angle_alpha 90.000000
_cell_angle_beta 90.000000
_cell_angle_gamma 90.000000
_cell_volume 2569.455694
_symmetry_space_group_name_H-M "P M M M"
_symmetry_group_IT_number 47
_symmetry_cell_setting 'orthorhombic'
loop_
_space_group_symop_operation_xyz
x,y,z
-x,-y,z
x,-y,-z
-x,y,-z
-x,-y,-z
x,y,-z
-x,y,z
x,-y,z
loop_
_atom_site_type_symbol
_atom_site_label
_atom_site_fract_x
_atom_site_fract_y
_atom_site_fract_z
Si Si1 0.500000 0.307924 0.938325
Si Si2 0.283103 0.607224 0.742786
Si Si3 0.206713 0.735733 0.848213
Si Si4 0.294725 0.235917 0.660510
Si Si5 0.216083 0.106435 0.763252
Si Si6 0.500000 0.500000 0.000000
Si Si7 0.718069 0.105013 0.564789
O O1 0.670568 0.283734 0.901006
O O2 0.500000 0.261712 0.000000
O O3 0.500000 0.417400 0.952257
O O4 0.500000 0.610043 0.742429
O O5 0.227253 0.500000 0.738724
O O6 0.225535 0.655596 0.800767
O O7 0.218390 0.672984 0.691625
O O8 0.264729 0.829845 0.816125
O O9 0.000000 0.743179 0.863967
O O10 0.500000 0.259115 0.646864
O O11 0.290210 0.156711 0.708366
O O12 0.215932 0.185969 0.605914
O O13 0.000000 0.109434 0.758965
O O14 0.272698 0.000000 0.767719
O O15 0.768305 0.118446 0.500000
O O16 0.500000 0.105435 0.567064
O O17 0.773462 0.000000 0.582010
#
# Coordination Sequence:
#
# PCOD9385886 Si02
#       7
#     4   8   8   8   8   1   8
#     4  10  22  40  55  76 106 133 161 203 242 279
#     4   9  17  28  45  66  95 125 154 198 250 295
#     4  10  20  34  54  77 101 132 167 198 240 294
#     4   9  16  26  41  65  89 119 159 200 242 291
#     4   9  18  31  47  71 101 128 154 195 247 290
#     4   8  24  40  58  76 106 138 160 204 248 276
#     4   8  13  21  35  57  85 116 153 199 244 287
#
# _framework density 17.513438000000001
#
# number of rings (size 3 to 8) (size 9 to 14) (size 15 to 20)
#    0.267    2.667    0.889    1.067    2.489    1.778 
#    0.000    0.444    0.000    2.133    0.000    8.711 
#    0.000    0.000    0.000    8.889    0.000    9.600 
#
# Total GULP energy -250502.748309 kJ/mol
# GULP energy per Si atom -5566.727740 kJ/mol
# Density = 1.747358 g / cm^3
# Si number density = 17.513438 Si / 1000 Ang^3
#
#
#
# Elastic Constant Matrix: (Units=GPa)
#
#
# Indices 1 2 3 4 5 6 
#
# 1 56.5587 9.6840 18.8672 0.0000 0.0000 0.0000
# 2 9.6840 126.6917 47.4856 0.0000 0.0000 0.0000
# 3 18.8672 47.4856 99.1733 0.0000 0.0000 0.0000
# 4 0.0000 0.0000 0.0000 21.4137 0.0000 0.0000
# 5 0.0000 0.0000 0.0000 0.0000 -37.9871 0.0000
# 6 0.0000 0.0000 0.0000 0.0000 0.0000 4.4549
#
#
#
# Elastic Compliance Matrix: (Units=1/GPa)
#
#
# Indices 1 2 3 4 5 6 
#
# 1 0.018880 -0.000118 -0.003535 0.000000 0.000000 0.000000
# 2 -0.000118 0.009620 -0.004584 0.000000 0.000000 0.000000
# 3 -0.003535 -0.004584 0.012951 0.000000 0.000000 0.000000
# 4 0.000000 0.000000 0.000000 0.046699 0.000000 0.000000
# 5 0.000000 0.000000 0.000000 0.000000 -0.026325 0.000000
# 6 0.000000 0.000000 0.000000 0.000000 0.000000 0.224470
#
#
# Mechanical properties :
#
#
# Convention : Reuss Voigt Hill
#
# Bulk Modulus (GPa) = 40.03719 48.27749 44.15734
# Shear Modulus (GPa) = 16.07223 11.33544 13.70383
#
# Velocity S-wave (km/s) = 3.03266 2.54686 2.80031
# Velocity P-wave (km/s) = 5.93070 6.02283 5.97694
#
# Compressibility (1/GPa) = 0.02497678
#
# Stress axis : x y z
#
# Youngs Moduli (GPa) = 52.96521 103.94692 77.21549
#
# Poissons Ratio (x) = 0.01227 0.27298
# Poissons Ratio (y) = 0.00625 0.35395
# Poissons Ratio (z) = 0.18725 0.47648
#
# Static dielectric constant tensor:
#      x y z
#    x 1.692370 0.000000 0.000000 
#    y 0.000000 1.593110 0.000000 
#    z 0.000000 0.000000 1.580700 
# 
# From -- ./inp_files/29501.got.cif
#   From: 2010.05.17/outbox.cif.g08.bks.cpg/sg47_15_cif.got.tgz:29501.got - 2010.06.03 20:15:42.
