data_PCOD9385436
_publ_section_title
;
Structure prediction by ZEFSAII (Michael W. Deem and Ramdas Pophale) SiO2 
 PCOD9385436
Probable space group: P M M M
;
_chemical_formula_sum "Si O2"
_cell_formula_units_Z 52
_cell_length_a 7.740795
_cell_length_b 12.679548
_cell_length_c 25.966675
_cell_angle_alpha 90.000000
_cell_angle_beta 90.000000
_cell_angle_gamma 90.000000
_cell_volume 2548.623484
_symmetry_space_group_name_H-M "P M M M"
_symmetry_group_IT_number 47
_symmetry_cell_setting 'orthorhombic'
loop_
_space_group_symop_operation_xyz
x,y,z
-x,-y,z
x,-y,-z
-x,y,-z
-x,-y,-z
x,y,-z
-x,y,z
x,-y,z
loop_
_atom_site_type_symbol
_atom_site_label
_atom_site_fract_x
_atom_site_fract_y
_atom_site_fract_z
Si Si1 0.708719 0.616091 0.090662
Si Si2 0.294064 0.619165 0.388544
Si Si3 0.708683 0.617895 0.789246
Si Si4 0.211165 0.000000 0.858934
Si Si5 0.698174 0.628075 0.500000
Si Si6 0.203282 0.158454 0.055444
Si Si7 0.786819 0.000000 0.259954
Si Si8 0.800242 0.223395 0.701742
O O1 0.500000 0.617929 0.088033
O O2 0.765658 0.500000 0.072865
O O3 0.757285 0.627305 0.150905
O O4 0.776366 0.716826 0.061250
O O5 0.500000 0.609193 0.395597
O O6 0.229731 0.500000 0.375964
O O7 0.222495 0.654901 0.444426
O O8 0.269879 0.703128 0.343619
O O9 0.500000 0.622849 0.786225
O O10 0.760201 0.500000 0.771482
O O11 0.782450 0.709107 0.754016
O O12 0.269716 0.099417 0.893683
O O13 0.269447 0.000000 0.799991
O O14 0.000000 0.000000 0.856000
O O15 0.692471 0.500000 0.500000
O O16 0.500000 0.668240 0.500000
O O17 0.000000 0.133356 0.053975
O O18 0.278061 0.125798 0.000000
O O19 0.726720 0.892855 0.287643
O O20 0.000000 0.000000 0.259570
O O21 0.000000 0.208300 0.689682
#
# Coordination Sequence:
#
# PCOD9385436 Si02
#       8
#     8   8   8   4   4   8   4   8
#     4   9  19  35  52  70  96 131 164 192 231 288
#     4   9  17  31  52  77 105 135 166 202 244 288
#     4   9  18  33  51  71  97 127 159 198 244 292
#     4   9  17  34  56  72  91 123 162 202 247 292
#     4   7  12  26  49  74  99 132 170 201 236 285
#     4  10  20  33  52  77  99 120 153 199 246 292
#     4   9  20  35  49  67  95 132 167 202 243 288
#     4  11  21  32  48  72 101 131 166 205 246 292
#
# _framework density 20.403172000000001
#
# number of rings (size 3 to 8) (size 9 to 14) (size 15 to 20)
#    0.000    2.692    0.000    3.923    0.000    6.154 
#    0.000    5.385    0.000    6.462    0.000    3.231 
#    0.000    0.000    0.000    0.000    0.000    0.000 
#
# Total GULP energy -290036.343748 kJ/mol
# GULP energy per Si atom -5577.621995 kJ/mol
# Density = 2.035673 g / cm^3
# Si number density = 20.403172 Si / 1000 Ang^3
#
#
#
# Elastic Constant Matrix: (Units=GPa)
#
#
# Indices 1 2 3 4 5 6 
#
# 1 25.9275 3.2716 9.1003 0.0000 0.0000 0.0000
# 2 3.2716 149.1397 72.7475 0.0000 0.0000 0.0000
# 3 9.1003 72.7475 117.6514 0.0000 0.0000 0.0000
# 4 0.0000 0.0000 0.0000 13.6363 0.0000 0.0000
# 5 0.0000 0.0000 0.0000 0.0000 15.5296 0.0000
# 6 0.0000 0.0000 0.0000 0.0000 0.0000 18.4478
#
#
#
# Elastic Compliance Matrix: (Units=1/GPa)
#
#
# Indices 1 2 3 4 5 6 
#
# 1 0.039729 0.000898 -0.003629 0.000000 0.000000 0.000000
# 2 0.000898 0.009621 -0.006019 0.000000 0.000000 0.000000
# 3 -0.003629 -0.006019 0.012502 0.000000 0.000000 0.000000
# 4 0.000000 0.000000 0.000000 0.073334 0.000000 0.000000
# 5 0.000000 0.000000 0.000000 0.000000 0.064393 0.000000
# 6 0.000000 0.000000 0.000000 0.000000 0.000000 0.054207
#
#
# Mechanical properties :
#
#
# Convention : Reuss Voigt Hill
#
# Bulk Modulus (GPa) = 22.54546 51.43972 36.99259
# Shear Modulus (GPa) = 17.47834 23.36269 20.42051
#
# Velocity S-wave (km/s) = 2.93003 3.38753 3.16705
# Velocity P-wave (km/s) = 4.74560 6.36921 5.61639
#
# Compressibility (1/GPa) = 0.04435483
#
# Stress axis : x y z
#
# Youngs Moduli (GPa) = 25.17037 103.93780 79.98852
#
# Poissons Ratio (x) = -0.09338 0.29024
# Poissons Ratio (y) = -0.02261 0.48141
# Poissons Ratio (z) = 0.09133 0.62555
#
# Static dielectric constant tensor:
#      x y z
#    x 1.768580 0.000000 0.000000 
#    y 0.000000 1.730760 0.000000 
#    z 0.000000 0.000000 1.747020 
# 
# From -- ./inp_files/33343.got.cif
#   From: 2010.05.17/outbox.cif.g08.bks.cpg/sg47_17_cif.got.tgz:33343.got - 2010.06.03 20:15:42.
