data_PCOD9385124
_publ_section_title
;
Structure prediction by ZEFSAII (Michael W. Deem and Ramdas Pophale) SiO2 
 PCOD9385124
Probable space group: P M M M
;
_chemical_formula_sum "Si O2"
_cell_formula_units_Z 52
_cell_length_a 16.035437
_cell_length_b 20.154943
_cell_length_c 8.864446
_cell_angle_alpha 90.000000
_cell_angle_beta 90.000000
_cell_angle_gamma 90.000000
_cell_volume 2864.929721
_symmetry_space_group_name_H-M "P M M M"
_symmetry_group_IT_number 47
_symmetry_cell_setting 'orthorhombic'
loop_
_space_group_symop_operation_xyz
x,y,z
-x,-y,z
x,-y,-z
-x,y,-z
-x,-y,-z
x,y,-z
-x,y,z
x,-y,z
loop_
_atom_site_type_symbol
_atom_site_label
_atom_site_fract_x
_atom_site_fract_y
_atom_site_fract_z
Si Si1 0.094280 0.921056 0.180567
Si Si2 0.768012 0.173213 0.678667
Si Si3 0.900414 0.572343 0.327898
Si Si4 0.178937 0.306301 0.830665
Si Si5 0.599320 0.500000 0.827507
Si Si6 0.633168 0.356767 0.827589
Si Si7 0.407284 0.211510 0.816986
O O1 0.170209 0.883060 0.258595
O O2 0.000000 0.899755 0.228004
O O3 0.100088 0.000000 0.207896
O O4 0.099739 0.910725 0.000000
O O5 0.759954 0.168217 0.500000
O O6 0.811936 0.242435 0.725873
O O7 0.674731 0.175893 0.750847
O O8 0.869258 0.580812 0.500000
O O9 0.869755 0.500000 0.271312
O O10 0.878417 0.635621 0.230342
O O11 0.000000 0.568652 0.334681
O O12 0.269878 0.339688 0.835365
O O13 0.156222 0.284930 0.000000
O O14 0.500000 0.500000 0.837410
O O15 0.622471 0.429122 0.755357
O O16 0.635290 0.500000 0.000000
O O17 0.594952 0.288791 0.763726
O O18 0.600020 0.362980 0.000000
O O19 0.500000 0.184428 0.781960
O O20 0.398142 0.212627 0.000000
#
# Coordination Sequence:
#
# PCOD9385124 Si02
#       7
#     8   8   8   8   4   8   8
#     4   9  19  38  64  91 118 148 180 215 260 318
#     4  11  22  35  54  82 116 149 184 224 270 327
#     4   9  19  35  51  67  92 128 169 215 273 340
#     4  10  20  33  50  71  98 131 175 226 268 313
#     4   9  14  20  34  58  88 117 146 190 253 315
#     4   8  15  25  39  64  94 123 160 210 266 319
#     4   9  17  32  53  75 104 144 189 235 280 326
#
# _framework density 18.150531000000001
#
# number of rings (size 3 to 8) (size 9 to 14) (size 15 to 20)
#    0.000    2.692    0.000    4.154    1.077    4.000 
#    0.000    1.538    0.000    0.462    0.000    3.231 
#    0.000    6.462    0.000    0.000    0.000    0.000 
#
# Total GULP energy -289527.066957 kJ/mol
# GULP energy per Si atom -5567.828211 kJ/mol
# Density = 1.810922 g / cm^3
# Si number density = 18.150531 Si / 1000 Ang^3
#
#
#
# Elastic Constant Matrix: (Units=GPa)
#
#
# Indices 1 2 3 4 5 6 
#
# 1 101.8409 56.8504 44.4720 0.0000 0.0000 0.0000
# 2 56.8504 71.7396 34.5706 0.0000 0.0000 0.0000
# 3 44.4720 34.5706 54.1140 0.0000 0.0000 0.0000
# 4 0.0000 0.0000 0.0000 17.0538 0.0000 0.0000
# 5 0.0000 0.0000 0.0000 0.0000 11.9893 0.0000
# 6 0.0000 0.0000 0.0000 0.0000 0.0000 1.4702
#
#
#
# Elastic Compliance Matrix: (Units=1/GPa)
#
#
# Indices 1 2 3 4 5 6 
#
# 1 0.020406 -0.011688 -0.009304 0.000000 0.000000 0.000000
# 2 -0.011688 0.026833 -0.007537 0.000000 0.000000 0.000000
# 3 -0.009304 -0.007537 0.030941 0.000000 0.000000 0.000000
# 4 0.000000 0.000000 0.000000 0.058638 0.000000 0.000000
# 5 0.000000 0.000000 0.000000 0.000000 0.083408 0.000000
# 6 0.000000 0.000000 0.000000 0.000000 0.000000 0.680168
#
#
# Mechanical properties :
#
#
# Convention : Reuss Voigt Hill
#
# Bulk Modulus (GPa) = 47.34163 55.49783 51.41973
# Shear Modulus (GPa) = 5.18407 12.22276 8.70342
#
# Velocity S-wave (km/s) = 1.69185 2.59783 2.19215
# Velocity P-wave (km/s) = 5.47320 6.29612 5.89902
#
# Compressibility (1/GPa) = 0.02112306
#
# Stress axis : x y z
#
# Youngs Moduli (GPa) = 49.00408 37.26690 32.32001
#
# Poissons Ratio (x) = 0.43557 0.30070
# Poissons Ratio (y) = 0.57275 0.24360
# Poissons Ratio (z) = 0.45592 0.28089
#
# Static dielectric constant tensor:
#      x y z
#    x 1.650690 0.000000 0.000000 
#    y 0.000000 1.637210 0.000000 
#    z 0.000000 0.000000 1.635500 
# 
# From -- ./inp_files/9550.got.cif
#   From: 2010.05.17/outbox.cif.g08.bks.cpg/sg47_5_cif.got.tgz:9550.got - 2010.06.03 20:15:42.
