data_PCOD9385020
_publ_section_title
;
Structure prediction by ZEFSAII (Michael W. Deem and Ramdas Pophale) SiO2 
 PCOD9385020
Probable space group: P M M M
;
_chemical_formula_sum "Si O2"
_cell_formula_units_Z 64
_cell_length_a 8.784734
_cell_length_b 14.684657
_cell_length_c 30.112985
_cell_angle_alpha 90.000000
_cell_angle_beta 90.000000
_cell_angle_gamma 90.000000
_cell_volume 3884.599325
_symmetry_space_group_name_H-M "P M M M"
_symmetry_group_IT_number 47
_symmetry_cell_setting 'orthorhombic'
loop_
_space_group_symop_operation_xyz
x,y,z
-x,-y,z
x,-y,-z
-x,y,-z
-x,-y,-z
x,y,-z
-x,y,z
x,-y,z
loop_
_atom_site_type_symbol
_atom_site_label
_atom_site_fract_x
_atom_site_fract_y
_atom_site_fract_z
Si Si1 0.178570 0.890906 0.310715
Si Si2 0.317904 0.894974 0.593248
Si Si3 0.321656 0.390835 0.372066
Si Si4 0.815475 0.893286 0.145260
Si Si5 0.818579 0.724818 0.450739
Si Si6 0.685558 0.396512 0.271878
Si Si7 0.180568 0.110126 0.952272
Si Si8 0.317616 0.785361 0.227760
O O1 0.252776 0.869561 0.358241
O O2 0.262872 0.841399 0.270716
O O3 0.000000 0.867058 0.310998
O O4 0.190821 0.000000 0.304490
O O5 0.500000 0.889454 0.594322
O O6 0.251737 0.823797 0.558574
O O7 0.274428 0.000000 0.584286
O O8 0.500000 0.365189 0.374429
O O9 0.311246 0.500000 0.376825
O O10 0.236645 0.340381 0.411396
O O11 0.265720 0.369895 0.322026
O O12 0.760589 0.861827 0.096165
O O13 0.752699 0.831223 0.184342
O O14 0.000000 0.890791 0.145472
O O15 0.772644 0.000000 0.151829
O O16 0.772998 0.692365 0.500000
O O17 0.000000 0.731368 0.449179
O O18 0.500000 0.398191 0.273275
O O19 0.735704 0.500000 0.262493
O O20 0.730661 0.319028 0.237225
O O21 0.000000 0.131307 0.952748
O O22 0.191430 0.000000 0.952021
O O23 0.245185 0.141842 0.000000
O O24 0.500000 0.788586 0.224927
#
# Coordination Sequence:
#
# PCOD9385020 Si02
#       8
#     8   8   8   8   8   8   8   8
#     4  10  20  33  49  69  95 126 155 183 220 268
#     4  10  21  37  56  75  94 119 155 197 234 268
#     4   9  18  35  59  80  95 116 150 192 235 278
#     4   9  17  28  41  60  91 128 159 190 232 276
#     4  11  24  38  52  73 101 130 155 182 222 273
#     4   8  16  32  51  69  88 112 146 186 225 266
#     4   7  10  19  37  58  78 108 156 203 232 262
#     4  11  20  28  44  68  93 123 156 190 227 268
#
# _framework density 16.475314999999998
#
# number of rings (size 3 to 8) (size 9 to 14) (size 15 to 20)
#    0.000    2.625    0.000    4.500    0.000    6.000 
#    0.000    3.125    0.000    3.375    0.000    1.750 
#    0.000    0.500    0.000    6.250    0.000    0.250 
#
# Total GULP energy -356778.351446 kJ/mol
# GULP energy per Si atom -5574.661741 kJ/mol
# Density = 1.643782 g / cm^3
# Si number density = 16.475315 Si / 1000 Ang^3
#
#
#
# Elastic Constant Matrix: (Units=GPa)
#
#
# Indices 1 2 3 4 5 6 
#
# 1 28.2022 21.4014 28.5370 0.0000 0.0000 0.0000
# 2 21.4014 56.5895 61.8345 0.0000 0.0000 0.0000
# 3 28.5370 61.8345 119.4536 0.0000 0.0000 0.0000
# 4 0.0000 0.0000 0.0000 17.2083 0.0000 0.0000
# 5 0.0000 0.0000 0.0000 0.0000 61.3479 0.0000
# 6 0.0000 0.0000 0.0000 0.0000 0.0000 10.2253
#
#
#
# Elastic Compliance Matrix: (Units=1/GPa)
#
#
# Indices 1 2 3 4 5 6 
#
# 1 0.051028 -0.013762 -0.005067 0.000000 0.000000 0.000000
# 2 -0.013762 0.044393 -0.019692 0.000000 0.000000 0.000000
# 3 -0.005067 -0.019692 0.019775 0.000000 0.000000 0.000000
# 4 0.000000 0.000000 0.000000 0.058112 0.000000 0.000000
# 5 0.000000 0.000000 0.000000 0.000000 0.016300 0.000000
# 6 0.000000 0.000000 0.000000 0.000000 0.000000 0.097797
#
#
# Mechanical properties :
#
#
# Convention : Reuss Voigt Hill
#
# Bulk Modulus (GPa) = 26.20872 47.53234 36.87053
# Shear Modulus (GPa) = 13.25677 23.92111 18.58894
#
# Velocity S-wave (km/s) = 2.83970 3.81456 3.36265
# Velocity P-wave (km/s) = 5.16665 6.95086 6.12408
#
# Compressibility (1/GPa) = 0.03815524
#
# Stress axis : x y z
#
# Youngs Moduli (GPa) = 19.59696 22.52609 50.56791
#
# Poissons Ratio (x) = 0.31000 0.25621
# Poissons Ratio (y) = 0.26969 0.99579
# Poissons Ratio (z) = 0.09929 0.44359
#
# Static dielectric constant tensor:
#      x y z
#    x 1.556700 0.000000 0.000000 
#    y 0.000000 1.556020 0.000000 
#    z 0.000000 0.000000 1.568010 
# 
# From -- ./inp_files/34463.got.cif
#   From: 2010.05.17/outbox.cif.g08.bks.cpg/sg47_18_cif.got.tgz:34463.got - 2010.06.03 20:15:42.
