data_PCOD9385142
_publ_section_title
;
Structure prediction by ZEFSAII (Michael W. Deem and Ramdas Pophale) SiO2 
 PCOD9385142
Probable space group: P M M M
;
_chemical_formula_sum "Si O2"
_cell_formula_units_Z 52
_cell_length_a 21.655221
_cell_length_b 7.385644
_cell_length_c 15.336291
_cell_angle_alpha 90.000000
_cell_angle_beta 90.000000
_cell_angle_gamma 90.000000
_cell_volume 2452.851923
_symmetry_space_group_name_H-M "P M M M"
_symmetry_group_IT_number 47
_symmetry_cell_setting 'orthorhombic'
loop_
_space_group_symop_operation_xyz
x,y,z
-x,-y,z
x,-y,-z
-x,y,-z
-x,-y,-z
x,y,-z
-x,y,z
x,-y,z
loop_
_atom_site_type_symbol
_atom_site_label
_atom_site_fract_x
_atom_site_fract_y
_atom_site_fract_z
Si Si1 0.587429 0.208643 0.595637
Si Si2 0.202699 0.721022 0.233081
Si Si3 0.069663 0.721779 0.190098
Si Si4 0.432818 0.289249 0.796358
Si Si5 0.925930 0.299416 0.000000
Si Si6 0.309381 0.721063 0.101847
Si Si7 0.731607 0.281029 0.593081
O O1 0.568372 0.285504 0.500000
O O2 0.570002 0.283770 0.690502
O O3 0.661267 0.219687 0.595037
O O4 0.568443 0.000000 0.596330
O O5 0.202471 0.500000 0.230238
O O6 0.131075 0.775272 0.239916
O O7 0.246361 0.777077 0.152051
O O8 0.235136 0.782606 0.321062
O O9 0.067119 0.500000 0.187022
O O10 0.085932 0.786571 0.092268
O O11 0.000000 0.779639 0.214354
O O12 0.500000 0.210477 0.821847
O O13 0.434041 0.500000 0.821092
O O14 0.370270 0.218369 0.842786
O O15 0.896218 0.500000 0.000000
O O16 0.000000 0.320941 0.000000
O O17 0.309358 0.500000 0.103174
O O18 0.311505 0.775673 0.000000
O O19 0.759339 0.226536 0.500000
O O20 0.730723 0.500000 0.596003
#
# Coordination Sequence:
#
# PCOD9385142 Si02
#       7
#     8   8   8   8   4   8   8
#     4  10  20  33  50  72  97 122 149 187 235 280
#     4   9  15  23  39  61  85 115 151 189 227 267
#     4   8  13  19  28  47  79 116 148 178 217 267
#     4  10  20  34  51  70  94 124 156 188 226 274
#     4   7  10  16  24  38  68 110 146 170 203 258
#     4   9  17  28  43  66  92 117 153 197 232 263
#     4   9  16  28  47  68  91 119 152 189 228 274
#
# _framework density 21.199812999999999
#
# number of rings (size 3 to 8) (size 9 to 14) (size 15 to 20)
#    0.000    3.000    1.538    1.385    1.077    1.846 
#    0.000    3.077    0.000    0.923    0.000    4.308 
#    0.000    0.615    0.000    3.846    0.000   11.231 
#
# Total GULP energy -289579.425061 kJ/mol
# GULP energy per Si atom -5568.835097 kJ/mol
# Density = 2.115156 g / cm^3
# Si number density = 21.199813 Si / 1000 Ang^3
#
#
#
# Elastic Constant Matrix: (Units=GPa)
#
#
# Indices 1 2 3 4 5 6 
#
# 1 181.7112 1.6877 83.6303 0.0000 0.0000 0.0000
# 2 1.6877 70.3572 1.0119 0.0000 0.0000 0.0000
# 3 83.6303 1.0119 128.5754 0.0000 0.0000 0.0000
# 4 0.0000 0.0000 0.0000 407.0998 0.0000 0.0000
# 5 0.0000 0.0000 0.0000 0.0000 -25.8320 0.0000
# 6 0.0000 0.0000 0.0000 0.0000 0.0000 -158.6204
#
#
#
# Elastic Compliance Matrix: (Units=1/GPa)
#
#
# Indices 1 2 3 4 5 6 
#
# 1 0.007855 -0.000115 -0.005109 0.000000 0.000000 0.000000
# 2 -0.000115 0.014216 -0.000037 0.000000 0.000000 0.000000
# 3 -0.005109 -0.000037 0.011101 0.000000 0.000000 0.000000
# 4 0.000000 0.000000 0.000000 0.002456 0.000000 0.000000
# 5 0.000000 0.000000 0.000000 0.000000 -0.038712 0.000000
# 6 0.000000 0.000000 0.000000 0.000000 0.000000 -0.006304
#
#
# Mechanical properties :
#
#
# Convention : Reuss Voigt Hill
#
# Bulk Modulus (GPa) = 44.14761 61.47816 52.81289
# Shear Modulus (GPa) = 575.72379 64.15042 319.93710
#
# Velocity S-wave (km/s) = 16.49727 5.50687 12.29808
# Velocity P-wave (km/s) = 19.58952 8.33645 15.05400
#
# Compressibility (1/GPa) = 0.02265128
#
# Stress axis : x y z
#
# Youngs Moduli (GPa) = 127.29994 70.34092 90.08491
#
# Poissons Ratio (x) = 0.00809 0.46021
# Poissons Ratio (y) = 0.01463 0.00334
# Poissons Ratio (z) = 0.65032 0.00261
#
# Static dielectric constant tensor:
#      x y z
#    x 1.765420 0.000000 0.000000 
#    y 0.000000 1.835450 0.000000 
#    z 0.000000 0.000000 1.789140 
# 
# From -- ./inp_files/25440.got.cif
#   From: 2010.05.17/outbox.cif.g08.bks.cpg/sg47_13_cif.got.tgz:25440.got - 2010.06.03 20:15:42.
