data_PCOD9385749
_publ_section_title
;
Structure prediction by ZEFSAII (Michael W. Deem and Ramdas Pophale) SiO2 
 PCOD9385749
Probable space group: P M M M
;
_chemical_formula_sum "Si O2"
_cell_formula_units_Z 48
_cell_length_a 33.285775
_cell_length_b 7.362230
_cell_length_c 8.959234
_cell_angle_alpha 90.000000
_cell_angle_beta 90.000000
_cell_angle_gamma 90.000000
_cell_volume 2195.527766
_symmetry_space_group_name_H-M "P M M M"
_symmetry_group_IT_number 47
_symmetry_cell_setting 'orthorhombic'
loop_
_space_group_symop_operation_xyz
x,y,z
-x,-y,z
x,-y,-z
-x,y,-z
-x,-y,-z
x,y,-z
-x,y,z
x,-y,z
loop_
_atom_site_type_symbol
_atom_site_label
_atom_site_fract_x
_atom_site_fract_y
_atom_site_fract_z
Si Si1 0.452949 0.719549 0.500000
Si Si2 0.162185 0.722049 0.170107
Si Si3 0.414946 0.278957 0.824647
Si Si4 0.000000 0.784644 0.165623
Si Si5 0.756859 0.721643 0.669486
Si Si6 0.082546 0.715385 0.334635
Si Si7 0.322422 0.279780 0.831083
O O1 0.447772 0.500000 0.500000
O O2 0.500000 0.763200 0.500000
O O3 0.435960 0.777704 0.334033
O O4 0.162473 0.500000 0.174680
O O5 0.204798 0.780974 0.236086
O O6 0.122741 0.786296 0.256876
O O7 0.158683 0.777129 0.000000
O O8 0.417635 0.500000 0.827511
O O9 0.368291 0.223017 0.805507
O O10 0.426789 0.225210 0.000000
O O11 0.041092 0.736486 0.247597
O O12 0.000000 0.000000 0.155606
O O13 0.000000 0.706132 0.000000
O O14 0.763182 0.774924 0.500000
O O15 0.756100 0.500000 0.676180
O O16 0.713357 0.783519 0.726135
O O17 0.077972 0.790697 0.500000
O O18 0.088987 0.500000 0.345832
O O19 0.323597 0.500000 0.821973
O O20 0.311427 0.231428 0.000000
#
# Coordination Sequence:
#
# PCOD9385749 Si02
#       7
#     4   8   8   4   8   8   8
#     4   9  16  22  28  36  44  58  84 120 164 213
#     4   9  16  26  40  58  82 110 136 163 196 238
#     4   8  14  22  29  36  47  63  86 119 160 210
#     4  11  24  39  54  74  98 123 154 189 224 266
#     4   9  15  20  29  47  69  92 117 146 179 218
#     4  10  20  34  53  75  97 121 151 186 224 267
#     4   8  13  20  28  38  53  75 101 129 165 212
#
# _framework density 21.862625999999999
#
# number of rings (size 3 to 8) (size 9 to 14) (size 15 to 20)
#    0.000    3.000    0.000    3.000    1.167    7.000 
#    0.000    1.667    0.000    0.000    0.000    0.000 
#    0.000    0.000    0.000    0.000    0.000    0.000 
#
# Total GULP energy -267596.450596 kJ/mol
# GULP energy per Si atom -5574.926054 kJ/mol
# Density = 2.181287 g / cm^3
# Si number density = 21.862626 Si / 1000 Ang^3
#
#
#
# Elastic Constant Matrix: (Units=GPa)
#
#
# Indices 1 2 3 4 5 6 
#
# 1 140.1662 0.5938 114.5981 0.0000 0.0000 0.0000
# 2 0.5938 78.4427 6.1017 0.0000 0.0000 0.0000
# 3 114.5981 6.1017 211.8607 0.0000 0.0000 0.0000
# 4 0.0000 0.0000 0.0000 34.1175 0.0000 0.0000
# 5 0.0000 0.0000 0.0000 0.0000 54.0864 0.0000
# 6 0.0000 0.0000 0.0000 0.0000 0.0000 2.0792
#
#
#
# Elastic Compliance Matrix: (Units=1/GPa)
#
#
# Indices 1 2 3 4 5 6 
#
# 1 0.012807 0.000443 -0.006940 0.000000 0.000000 0.000000
# 2 0.000443 0.012792 -0.000608 0.000000 0.000000 0.000000
# 3 -0.006940 -0.000608 0.008492 0.000000 0.000000 0.000000
# 4 0.000000 0.000000 0.000000 0.029310 0.000000 0.000000
# 5 0.000000 0.000000 0.000000 0.000000 0.018489 0.000000
# 6 0.000000 0.000000 0.000000 0.000000 0.000000 0.480945
#
#
# Mechanical properties :
#
#
# Convention : Reuss Voigt Hill
#
# Bulk Modulus (GPa) = 50.30181 74.78410 62.54295
# Shear Modulus (GPa) = 8.56646 38.66838 23.61742
#
# Velocity S-wave (km/s) = 1.98162 4.21015 3.29030
# Velocity P-wave (km/s) = 5.31919 7.61015 6.56537
#
# Compressibility (1/GPa) = 0.01988000
#
# Stress axis : x y z
#
# Youngs Moduli (GPa) = 78.08506 78.17331 117.76469
#
# Poissons Ratio (x) = -0.03462 0.81728
# Poissons Ratio (y) = -0.03458 0.07160
# Poissons Ratio (z) = 0.54191 0.04753
#
# Static dielectric constant tensor:
#      x y z
#    x 1.785320 0.000000 0.000000 
#    y 0.000000 1.747390 0.000000 
#    z 0.000000 0.000000 1.799510 
# 
# From -- ./inp_files/13982.got.cif
#   From: 2010.05.17/outbox.cif.g08.bks.cpg/sg47_7_cif.got.tgz:13982.got - 2010.06.03 20:15:42.
