data_PCOD9385472
_publ_section_title
;
Structure prediction by ZEFSAII (Michael W. Deem and Ramdas Pophale) SiO2 
 PCOD9385472
Probable space group: P M M M
;
_chemical_formula_sum "Si O2"
_cell_formula_units_Z 44
_cell_length_a 8.653915
_cell_length_b 9.248465
_cell_length_c 29.499243
_cell_angle_alpha 90.000000
_cell_angle_beta 90.000000
_cell_angle_gamma 90.000000
_cell_volume 2360.984598
_symmetry_space_group_name_H-M "P M M M"
_symmetry_group_IT_number 47
_symmetry_cell_setting 'orthorhombic'
loop_
_space_group_symop_operation_xyz
x,y,z
-x,-y,z
x,-y,-z
-x,y,-z
-x,-y,-z
x,y,-z
-x,y,z
x,-y,z
loop_
_atom_site_type_symbol
_atom_site_label
_atom_site_fract_x
_atom_site_fract_y
_atom_site_fract_z
Si Si1 0.682116 0.824877 0.950381
Si Si2 0.811170 0.166907 0.500000
Si Si3 0.186938 0.167350 0.681620
Si Si4 0.315109 0.333142 0.768664
Si Si5 0.816029 0.830354 0.144945
Si Si6 0.811332 0.666737 0.590719
O O1 0.500000 0.791335 0.946609
O O2 0.767856 0.776732 0.905081
O O3 0.695635 0.000000 0.951132
O O4 0.737366 0.773089 0.000000
O O5 0.761639 0.249872 0.454598
O O6 0.000000 0.167226 0.500000
O O7 0.762107 0.000000 0.500000
O O8 0.247917 0.245612 0.726274
O O9 0.237637 0.250906 0.636245
O O10 0.000000 0.170277 0.682630
O O11 0.235440 0.000000 0.680353
O O12 0.500000 0.329572 0.766511
O O13 0.263460 0.500000 0.766618
O O14 0.261019 0.260161 0.815253
O O15 0.000000 0.823713 0.149569
O O16 0.769362 0.000000 0.148896
O O17 0.761494 0.500000 0.590636
O O18 0.000000 0.667055 0.590518
#
# Coordination Sequence:
#
# PCOD9385472 Si02
#       6
#     8   4   8   8   8   8
#     4   8  14  26  46  73 105 140 175 210 250 297
#     4   9  15  23  37  61  96 135 174 215 256 299
#     4  10  20  34  53  77 103 131 166 209 258 310
#     4  11  24  39  54  73  98 131 171 212 256 308
#     4  10  20  33  52  79 107 135 169 210 257 307
#     4   9  16  26  42  66  98 135 171 208 254 306
#
# _framework density 18.636292999999998
#
# number of rings (size 3 to 8) (size 9 to 14) (size 15 to 20)
#    0.000    2.455    0.000    3.545    0.000    9.455 
#    0.000    1.818    0.000    0.545    0.000    4.455 
#    0.000    5.091    0.000    0.000    0.000    0.000 
#
# Total GULP energy -245515.747604 kJ/mol
# GULP energy per Si atom -5579.903355 kJ/mol
# Density = 1.859388 g / cm^3
# Si number density = 18.636293 Si / 1000 Ang^3
#
#
#
# Elastic Constant Matrix: (Units=GPa)
#
#
# Indices 1 2 3 4 5 6 
#
# 1 8.5946 26.0235 27.6248 0.0000 0.0000 0.0000
# 2 26.0235 146.3901 102.7794 0.0000 0.0000 0.0000
# 3 27.6248 102.7794 194.3336 0.0000 0.0000 0.0000
# 4 0.0000 0.0000 0.0000 -22.6723 0.0000 0.0000
# 5 0.0000 0.0000 0.0000 0.0000 -499.9588 0.0000
# 6 0.0000 0.0000 0.0000 0.0000 0.0000 15.9667
#
#
#
# Elastic Compliance Matrix: (Units=1/GPa)
#
#
# Indices 1 2 3 4 5 6 
#
# 1 0.307472 -0.038131 -0.023541 0.000000 0.000000 0.000000
# 2 -0.038131 0.015595 -0.002827 0.000000 0.000000 0.000000
# 3 -0.023541 -0.002827 0.009987 0.000000 0.000000 0.000000
# 4 0.000000 0.000000 0.000000 -0.044107 0.000000 0.000000
# 5 0.000000 0.000000 0.000000 0.000000 -0.002000 0.000000
# 6 0.000000 0.000000 0.000000 0.000000 0.000000 0.062631
#
#
# Mechanical properties :
#
#
# Convention : Reuss Voigt Hill
#
# Bulk Modulus (GPa) = 4.90062 73.57486 39.23774
# Shear Modulus (GPa) = 9.14755 -88.47353 -39.66299
#
# Velocity S-wave (km/s) = 2.21791 -6.89760 -4.61832
# Velocity P-wave (km/s) = 3.03218 4.88577 2.70893
#
# Compressibility (1/GPa) = 0.20405587
#
# Stress axis : x y z
#
# Youngs Moduli (GPa) = 3.25233 64.12510 100.12516
#
# Poissons Ratio (x) = 2.44513 2.35705
# Poissons Ratio (y) = 0.12401 0.28308
# Poissons Ratio (z) = 0.07656 0.18130
#
# Static dielectric constant tensor:
#      x y z
#    x 1.634560 0.000000 0.000000 
#    y 0.000000 1.630020 0.000000 
#    z 0.000000 0.000000 1.628390 
# 
# From -- ./inp_files/33932.got.cif
#   From: 2010.05.17/outbox.cif.g08.bks.cpg/sg47_17_cif.got.tgz:33932.got - 2010.06.03 20:15:42.
