data_PCOD9385807
_publ_section_title
;
Structure prediction by ZEFSAII (Michael W. Deem and Ramdas Pophale) SiO2 
 PCOD9385807
Probable space group: P M M M
;
_chemical_formula_sum "Si O2"
_cell_formula_units_Z 40
_cell_length_a 7.795101
_cell_length_b 28.480323
_cell_length_c 9.454291
_cell_angle_alpha 90.000000
_cell_angle_beta 90.000000
_cell_angle_gamma 90.000000
_cell_volume 2098.918728
_symmetry_space_group_name_H-M "P M M M"
_symmetry_group_IT_number 47
_symmetry_cell_setting 'orthorhombic'
loop_
_space_group_symop_operation_xyz
x,y,z
-x,-y,z
x,-y,-z
-x,y,-z
-x,-y,-z
x,y,-z
-x,y,z
x,-y,z
loop_
_atom_site_type_symbol
_atom_site_label
_atom_site_fract_x
_atom_site_fract_y
_atom_site_fract_z
Si Si1 0.500000 0.053597 0.327929
Si Si2 0.206413 0.216484 0.838323
Si Si3 0.799081 0.875987 0.330090
Si Si4 0.296775 0.320982 0.161221
Si Si5 0.203856 0.589338 0.340684
Si Si6 0.789342 0.500000 0.162674
O O1 0.500000 0.052213 0.500000
O O2 0.330059 0.082617 0.286609
O O3 0.500000 0.000000 0.277157
O O4 0.257893 0.172572 0.742801
O O5 0.260092 0.268092 0.787959
O O6 0.000000 0.216208 0.841354
O O7 0.269634 0.211051 0.000000
O O8 0.789570 0.870986 0.500000
O O9 0.000000 0.885053 0.294335
O O10 0.500000 0.326843 0.153879
O O11 0.228866 0.361388 0.262287
O O12 0.226598 0.325143 0.000000
O O13 0.274993 0.589493 0.500000
O O14 0.269831 0.546446 0.245324
O O15 0.000000 0.581716 0.351773
O O16 0.000000 0.500000 0.161011
O O17 0.733698 0.500000 0.000000
#
# Coordination Sequence:
#
# PCOD9385807 Si02
#       6
#     4   8   8   8   8   4
#     4   9  18  32  51  77 107 139 177 220 267 314
#     4   9  18  33  53  76 102 134 170 210 258 309
#     4   9  18  32  51  76 104 135 175 220 264 315
#     4  10  21  35  51  74 103 135 172 211 254 310
#     4  10  20  34  53  77 104 133 168 212 260 310
#     4   9  17  31  54  79 100 129 170 214 260 309
#
# _framework density 19.057433
#
# number of rings (size 3 to 8) (size 9 to 14) (size 15 to 20)
#    0.000    2.600    0.000    1.500    1.400    4.800 
#    0.000    4.500    0.000    4.200    0.000    2.800 
#    0.000    0.000    0.000    0.000    0.000    0.000 
#
# Total GULP energy -223130.195755 kJ/mol
# GULP energy per Si atom -5578.254894 kJ/mol
# Density = 1.901406 g / cm^3
# Si number density = 19.057433 Si / 1000 Ang^3
#
#
#
# Elastic Constant Matrix: (Units=GPa)
#
#
# Indices 1 2 3 4 5 6 
#
# 1 46.9780 40.4271 27.9104 0.0000 0.0000 0.0000
# 2 40.4271 187.5973 88.8942 0.0000 0.0000 0.0000
# 3 27.9104 88.8942 86.4512 0.0000 0.0000 0.0000
# 4 0.0000 0.0000 0.0000 35.8804 0.0000 0.0000
# 5 0.0000 0.0000 0.0000 0.0000 10.4056 0.0000
# 6 0.0000 0.0000 0.0000 0.0000 0.0000 57.1298
#
#
#
# Elastic Compliance Matrix: (Units=1/GPa)
#
#
# Indices 1 2 3 4 5 6 
#
# 1 0.027369 -0.003337 -0.005405 0.000000 0.000000 0.000000
# 2 -0.003337 0.010803 -0.010031 0.000000 0.000000 0.000000
# 3 -0.005405 -0.010031 0.023626 0.000000 0.000000 0.000000
# 4 0.000000 0.000000 0.000000 0.027870 0.000000 0.000000
# 5 0.000000 0.000000 0.000000 0.000000 0.096102 0.000000
# 6 0.000000 0.000000 0.000000 0.000000 0.000000 0.017504
#
#
# Mechanical properties :
#
#
# Convention : Reuss Voigt Hill
#
# Bulk Modulus (GPa) = 41.23131 70.60999 55.92065
# Shear Modulus (GPa) = 20.08803 31.60281 25.84542
#
# Velocity S-wave (km/s) = 3.25018 4.07663 3.68664
# Velocity P-wave (km/s) = 5.98056 7.70001 6.89410
#
# Compressibility (1/GPa) = 0.02425342
#
# Stress axis : x y z
#
# Youngs Moduli (GPa) = 36.53730 92.56829 42.32562
#
# Poissons Ratio (x) = 0.30890 0.22876
# Poissons Ratio (y) = 0.12192 0.42456
# Poissons Ratio (z) = 0.19748 0.92853
#
# Static dielectric constant tensor:
#      x y z
#    x 1.688150 0.000000 0.000000 
#    y 0.000000 1.634130 0.000000 
#    z 0.000000 0.000000 1.670720 
# 
# From -- ./inp_files/1874.got.cif
#   From: 2010.05.17/outbox.cif.g08.bks.cpg/sg47_1_cif.got.tgz:1874.got - 2010.06.03 20:15:42.
