data_PCOD9385781
_publ_section_title
;
Structure prediction by ZEFSAII (Michael W. Deem and Ramdas Pophale) SiO2 
 PCOD9385781
Probable space group: P M M M
;
_chemical_formula_sum "Si O2"
_cell_formula_units_Z 40
_cell_length_a 9.520990
_cell_length_b 8.025165
_cell_length_c 28.469529
_cell_angle_alpha 90.000000
_cell_angle_beta 90.000000
_cell_angle_gamma 90.000000
_cell_volume 2175.285984
_symmetry_space_group_name_H-M "P M M M"
_symmetry_group_IT_number 47
_symmetry_cell_setting 'orthorhombic'
loop_
_space_group_symop_operation_xyz
x,y,z
-x,-y,z
x,-y,-z
-x,y,-z
-x,-y,-z
x,y,-z
-x,y,z
x,-y,z
loop_
_atom_site_type_symbol
_atom_site_label
_atom_site_fract_x
_atom_site_fract_y
_atom_site_fract_z
Si Si1 0.160804 0.700394 0.899384
Si Si2 0.168227 0.687210 0.617308
Si Si3 0.335707 0.198122 0.706610
Si Si4 0.170912 0.000000 0.553759
Si Si5 0.337972 0.701717 0.189652
Si Si6 0.161527 0.198435 0.000000
O O1 0.156098 0.500000 0.896788
O O2 0.247858 0.760862 0.854638
O O3 0.223656 0.745042 0.950326
O O4 0.000000 0.763808 0.897551
O O5 0.196262 0.500000 0.599537
O O6 0.245375 0.713719 0.666737
O O7 0.000000 0.702875 0.623977
O O8 0.213469 0.834021 0.581995
O O9 0.500000 0.249041 0.703534
O O10 0.287045 0.238117 0.759486
O O11 0.327628 0.000000 0.699078
O O12 0.220026 0.000000 0.500000
O O13 0.000000 0.000000 0.552742
O O14 0.500000 0.755407 0.184521
O O15 0.335402 0.500000 0.190086
O O16 0.000000 0.265328 0.000000
O O17 0.156960 0.000000 0.000000
#
# Coordination Sequence:
#
# PCOD9385781 Si02
#       6
#     8   8   8   4   8   4
#     4   9  17  30  48  68  90 119 157 199 243 294
#     4  10  20  34  55  82 110 142 181 223 266 313
#     4  10  20  34  53  76 104 141 179 215 262 317
#     4   9  18  34  55  81 115 147 177 220 269 314
#     4   9  18  32  48  68  96 128 162 202 249 303
#     4   9  17  29  46  67  90 116 150 193 242 296
#
# _framework density 18.388387999999999
#
# number of rings (size 3 to 8) (size 9 to 14) (size 15 to 20)
#    0.000    2.600    1.000    0.900    0.000    4.400 
#    0.000    4.500    0.000    4.200    0.000    1.400 
#    0.000    0.000    0.000    0.000    0.000    0.000 
#
# Total GULP energy -223018.890379 kJ/mol
# GULP energy per Si atom -5575.472259 kJ/mol
# Density = 1.834654 g / cm^3
# Si number density = 18.388388 Si / 1000 Ang^3
#
#
#
# Elastic Constant Matrix: (Units=GPa)
#
#
# Indices 1 2 3 4 5 6 
#
# 1 25.8975 24.9758 46.6818 0.0000 0.0000 0.0000
# 2 24.9758 72.1999 57.5728 0.0000 0.0000 0.0000
# 3 46.6818 57.5728 171.5236 0.0000 0.0000 0.0000
# 4 0.0000 0.0000 0.0000 55.7784 0.0000 0.0000
# 5 0.0000 0.0000 0.0000 0.0000 -61.9909 0.0000
# 6 0.0000 0.0000 0.0000 0.0000 0.0000 11.9087
#
#
#
# Elastic Compliance Matrix: (Units=1/GPa)
#
#
# Indices 1 2 3 4 5 6 
#
# 1 0.086547 -0.015233 -0.018441 0.000000 0.000000 0.000000
# 2 -0.015233 0.021594 -0.003102 0.000000 0.000000 0.000000
# 3 -0.018441 -0.003102 0.011890 0.000000 0.000000 0.000000
# 4 0.000000 0.000000 0.000000 0.017928 0.000000 0.000000
# 5 0.000000 0.000000 0.000000 0.000000 -0.016131 0.000000
# 6 0.000000 0.000000 0.000000 0.000000 0.000000 0.083972
#
#
# Mechanical properties :
#
#
# Convention : Reuss Voigt Hill
#
# Bulk Modulus (GPa) = 21.51607 58.67575 40.09591
# Shear Modulus (GPa) = 16.95803 10.49861 13.72832
#
# Velocity S-wave (km/s) = 3.04009 2.39202 2.73532
# Velocity P-wave (km/s) = 4.90400 6.29344 5.64166
#
# Compressibility (1/GPa) = 0.04647690
#
# Stress axis : x y z
#
# Youngs Moduli (GPa) = 11.55448 46.30977 84.10195
#
# Poissons Ratio (x) = 0.70545 1.55095
# Poissons Ratio (y) = 0.17601 0.26089
# Poissons Ratio (z) = 0.21308 0.14366
#
# Static dielectric constant tensor:
#      x y z
#    x 1.625070 0.000000 0.000000 
#    y 0.000000 1.646310 0.000000 
#    z 0.000000 0.000000 1.624320 
# 
# From -- ./inp_files/33022.got.cif
#   From: 2010.05.17/outbox.cif.g08.bks.cpg/sg47_17_cif.got.tgz:33022.got - 2010.06.03 20:15:42.
