data_PCOD9385657
_publ_section_title
;
Structure prediction by ZEFSAII (Michael W. Deem and Ramdas Pophale) SiO2 
 PCOD9385657
Probable space group: P M M M
;
_chemical_formula_sum "Si O2"
_cell_formula_units_Z 56
_cell_length_a 22.928059
_cell_length_b 15.997288
_cell_length_c 8.923968
_cell_angle_alpha 90.000000
_cell_angle_beta 90.000000
_cell_angle_gamma 90.000000
_cell_volume 3273.193337
_symmetry_space_group_name_H-M "P M M M"
_symmetry_group_IT_number 47
_symmetry_cell_setting 'orthorhombic'
loop_
_space_group_symop_operation_xyz
x,y,z
-x,-y,z
x,-y,-z
-x,y,-z
-x,-y,-z
x,y,-z
-x,y,z
x,-y,z
loop_
_atom_site_type_symbol
_atom_site_label
_atom_site_fract_x
_atom_site_fract_y
_atom_site_fract_z
Si Si1 0.288219 0.768830 0.676122
Si Si2 0.000000 0.401041 0.335518
Si Si3 0.500000 0.899314 0.670565
Si Si4 0.845413 0.199659 0.329124
Si Si5 0.935503 0.900543 0.171601
Si Si6 0.878851 0.363354 0.825762
Si Si7 0.376760 0.098374 0.179938
Si Si8 0.749108 0.593506 0.181471
O O1 0.302692 0.760854 0.500000
O O2 0.223644 0.809325 0.687653
O O3 0.332083 0.833219 0.755209
O O4 0.281706 0.675160 0.746702
O O5 0.060320 0.381709 0.253039
O O6 0.000000 0.500000 0.350594
O O7 0.000000 0.360682 0.500000
O O8 0.500000 0.866688 0.500000
O O9 0.440753 0.878327 0.757387
O O10 0.500000 0.000000 0.662183
O O11 0.855917 0.228466 0.500000
O O12 0.885560 0.122426 0.287914
O O13 0.866013 0.267318 0.208832
O O14 0.000000 0.866451 0.212558
O O15 0.939560 0.000000 0.167214
O O16 0.922843 0.873404 0.000000
O O17 0.817861 0.404627 0.772644
O O18 0.885014 0.382934 0.000000
O O19 0.364644 0.000000 0.222796
O O20 0.376470 0.101403 0.000000
O O21 0.726271 0.500000 0.218854
O O22 0.747389 0.602598 0.000000
#
# Coordination Sequence:
#
# PCOD9385657 Si02
#       8
#     8   4   4   8   8   8   8   8
#     4  10  21  35  51  76 108 141 178 217 264 319
#     4  11  23  35  47  67  94 119 146 187 241 301
#     4   9  17  31  53  81 114 151 186 219 259 307
#     4  10  21  35  50  70  97 126 159 205 258 310
#     4   9  19  35  52  68  87 116 159 208 256 310
#     4  10  20  34  52  71  92 122 159 199 248 310
#     4  10  20  34  54  81 114 151 188 224 260 302
#     4   9  18  34  55  76  99 130 171 220 269 317
#
# _framework density 17.108674000000001
#
# number of rings (size 3 to 8) (size 9 to 14) (size 15 to 20)
#    0.000    2.286    0.000    3.000    1.000    6.571 
#    0.000    3.571    0.000    0.000    0.000    0.500 
#    0.000    4.000    0.000    0.000    0.000    0.000 
#
# Total GULP energy -311862.582114 kJ/mol
# GULP energy per Si atom -5568.974681 kJ/mol
# Density = 1.706973 g / cm^3
# Si number density = 17.108674 Si / 1000 Ang^3
#
#
#
# Elastic Constant Matrix: (Units=GPa)
#
#
# Indices 1 2 3 4 5 6 
#
# 1 97.6669 59.6966 51.2186 0.0000 0.0000 0.0000
# 2 59.6966 86.0259 40.3046 0.0000 0.0000 0.0000
# 3 51.2186 40.3046 69.4668 0.0000 0.0000 0.0000
# 4 0.0000 0.0000 0.0000 21.4143 0.0000 0.0000
# 5 0.0000 0.0000 0.0000 0.0000 27.9601 0.0000
# 6 0.0000 0.0000 0.0000 0.0000 0.0000 -238.0313
#
#
#
# Elastic Compliance Matrix: (Units=1/GPa)
#
#
# Indices 1 2 3 4 5 6 
#
# 1 0.021951 -0.010506 -0.010090 0.000000 0.000000 0.000000
# 2 -0.010506 0.020992 -0.004433 0.000000 0.000000 0.000000
# 3 -0.010090 -0.004433 0.024407 0.000000 0.000000 0.000000
# 4 0.000000 0.000000 0.000000 0.046698 0.000000 0.000000
# 5 0.000000 0.000000 0.000000 0.000000 0.035765 0.000000
# 6 0.000000 0.000000 0.000000 0.000000 0.000000 -0.004201
#
#
# Mechanical properties :
#
#
# Convention : Reuss Voigt Hill
#
# Bulk Modulus (GPa) = 57.82853 61.73323 59.78088
# Shear Modulus (GPa) = 24.82202 -30.93538 -3.05668
#
# Velocity S-wave (km/s) = 3.81313 -4.25687 -1.33810
# Velocity P-wave (km/s) = 7.29799 3.46411 5.71230
#
# Compressibility (1/GPa) = 0.01729250
#
# Stress axis : x y z
#
# Youngs Moduli (GPa) = 45.55500 47.63730 40.97217
#
# Poissons Ratio (x) = 0.50047 0.41339
# Poissons Ratio (y) = 0.47859 0.18165
# Poissons Ratio (z) = 0.45963 0.21120
#
# Static dielectric constant tensor:
#      x y z
#    x 1.514360 0.000000 0.000000 
#    y 0.000000 1.627020 0.000000 
#    z 0.000000 0.000000 1.618690 
# 
# From -- ./inp_files/11381.got.cif
#   From: 2010.05.17/outbox.cif.g08.bks.cpg/sg47_6_cif.got.tgz:11381.got - 2010.06.03 20:15:42.
