data_PCOD9385208
_publ_section_title
;
Structure prediction by ZEFSAII (Michael W. Deem and Ramdas Pophale) SiO2 
 PCOD9385208
Probable space group: P M M M
;
_chemical_formula_sum "Si O2"
_cell_formula_units_Z 44
_cell_length_a 9.281006
_cell_length_b 30.264836
_cell_length_c 7.682225
_cell_angle_alpha 90.000000
_cell_angle_beta 90.000000
_cell_angle_gamma 90.000000
_cell_volume 2157.845772
_symmetry_space_group_name_H-M "P M M M"
_symmetry_group_IT_number 47
_symmetry_cell_setting 'orthorhombic'
loop_
_space_group_symop_operation_xyz
x,y,z
-x,-y,z
x,-y,-z
-x,y,-z
-x,-y,-z
x,y,-z
-x,y,z
x,-y,z
loop_
_atom_site_type_symbol
_atom_site_label
_atom_site_fract_x
_atom_site_fract_y
_atom_site_fract_z
Si Si1 0.162735 0.500000 0.792947
Si Si2 0.838338 0.675636 0.207426
Si Si3 0.325856 0.142634 0.791994
Si Si4 0.672040 0.952417 0.211425
Si Si5 0.662289 0.588218 0.706429
Si Si6 0.667750 0.761068 0.786536
O O1 0.249284 0.456104 0.743995
O O2 0.000000 0.500000 0.720010
O O3 0.151545 0.500000 0.000000
O O4 0.746046 0.631620 0.233189
O O5 0.758788 0.719354 0.275625
O O6 0.000000 0.670442 0.277664
O O7 0.849185 0.681884 0.000000
O O8 0.500000 0.142822 0.770560
O O9 0.271869 0.095142 0.723689
O O10 0.277145 0.190626 0.726775
O O11 0.299061 0.142281 0.000000
O O12 0.500000 0.952675 0.247324
O O13 0.730351 0.000000 0.273067
O O14 0.685469 0.952141 0.000000
O O15 0.651244 0.591769 0.500000
O O16 0.500000 0.585914 0.779756
O O17 0.500000 0.756029 0.736859
O O18 0.669859 0.761640 0.000000
#
# Coordination Sequence:
#
# PCOD9385208 Si02
#       6
#     4   8   8   8   8   8
#     4  11  24  41  62  88 114 139 168 199 232 272
#     4  10  20  33  50  73  99 127 162 202 243 288
#     4   7   9  13  22  38  61  91 129 172 219 270
#     4   7   8   9  14  27  51  84 121 163 212 264
#     4  11  24  40  58  81 107 135 168 202 237 280
#     4   8  13  22  37  56  79 109 145 187 234 280
#
# _framework density 20.390706000000002
#
# number of rings (size 3 to 8) (size 9 to 14) (size 15 to 20)
#    0.000    3.182    0.000    4.909    0.000    6.545 
#    0.000    0.000    0.000    0.000    0.000    0.000 
#    0.000    0.727    0.000   10.182    0.000   10.000 
#
# Total GULP energy -245079.418150 kJ/mol
# GULP energy per Si atom -5569.986776 kJ/mol
# Density = 2.034430 g / cm^3
# Si number density = 20.390706 Si / 1000 Ang^3
#
#
#
# Elastic Constant Matrix: (Units=GPa)
#
#
# Indices 1 2 3 4 5 6 
#
# 1 105.3036 94.6584 4.3536 0.0000 0.0000 0.0000
# 2 94.6584 259.5791 0.8681 0.0000 0.0000 0.0000
# 3 4.3536 0.8681 33.5652 0.0000 0.0000 0.0000
# 4 0.0000 0.0000 0.0000 -55.0248 0.0000 0.0000
# 5 0.0000 0.0000 0.0000 0.0000 13.6551 0.0000
# 6 0.0000 0.0000 0.0000 0.0000 0.0000 -12.0861
#
#
#
# Elastic Compliance Matrix: (Units=1/GPa)
#
#
# Indices 1 2 3 4 5 6 
#
# 1 0.014225 -0.005182 -0.001711 0.000000 0.000000 0.000000
# 2 -0.005182 0.005740 0.000524 0.000000 0.000000 0.000000
# 3 -0.001711 0.000524 0.030001 0.000000 0.000000 0.000000
# 4 0.000000 0.000000 0.000000 -0.018174 0.000000 0.000000
# 5 0.000000 0.000000 0.000000 0.000000 0.073233 0.000000
# 6 0.000000 0.000000 0.000000 0.000000 0.000000 -0.082740
#
#
# Mechanical properties :
#
#
# Convention : Reuss Voigt Hill
#
# Bulk Modulus (GPa) = 26.86133 66.46756 46.66445
# Shear Modulus (GPa) = 105.41338 9.21336 57.31337
#
# Velocity S-wave (km/s) = 7.19785 2.12796 5.30741
# Velocity P-wave (km/s) = 9.07087 6.22137 7.77772
#
# Compressibility (1/GPa) = 0.03722824
#
# Stress axis : x y z
#
# Youngs Moduli (GPa) = 70.29968 174.21181 33.33204
#
# Poissons Ratio (x) = 0.90268 0.05703
# Poissons Ratio (y) = 0.36426 -0.01745
# Poissons Ratio (z) = 0.12029 -0.09122
#
# Static dielectric constant tensor:
#      x y z
#    x 1.706920 0.000000 0.000000 
#    y 0.000000 1.722810 0.000000 
#    z 0.000000 0.000000 1.765170 
# 
# From -- ./inp_files/2217.got.cif
#   From: 2010.05.17/outbox.cif.g08.bks.cpg/sg47_2_cif.got.tgz:2217.got - 2010.06.03 20:15:42.
