data_PCOD9385561
_publ_section_title
;
Structure prediction by ZEFSAII (Michael W. Deem and Ramdas Pophale) SiO2 
 PCOD9385561
Probable space group: P M M M
;
_chemical_formula_sum "Si O2"
_cell_formula_units_Z 56
_cell_length_a 22.032955
_cell_length_b 8.047023
_cell_length_c 15.870651
_cell_angle_alpha 90.000000
_cell_angle_beta 90.000000
_cell_angle_gamma 90.000000
_cell_volume 2813.861592
_symmetry_space_group_name_H-M "P M M M"
_symmetry_group_IT_number 47
_symmetry_cell_setting 'orthorhombic'
loop_
_space_group_symop_operation_xyz
x,y,z
-x,-y,z
x,-y,-z
-x,y,-z
-x,-y,-z
x,y,-z
-x,y,z
x,-y,z
loop_
_atom_site_type_symbol
_atom_site_label
_atom_site_fract_x
_atom_site_fract_y
_atom_site_fract_z
Si Si1 0.500000 0.309985 0.176681
Si Si2 0.709172 0.701630 0.752924
Si Si3 0.930653 0.200699 0.095879
Si Si4 0.366714 0.301879 0.407857
Si Si5 0.623936 0.801566 0.095014
Si Si6 0.069772 0.297108 0.595455
Si Si7 0.500000 0.189901 0.361950
Si Si8 0.847713 0.300358 0.250942
O O1 0.500000 0.500000 0.206647
O O2 0.439804 0.276596 0.123447
O O3 0.500000 0.200046 0.260534
O O4 0.708910 0.500000 0.751050
O O5 0.671581 0.763054 0.671397
O O6 0.674430 0.754423 0.837050
O O7 0.778580 0.760599 0.751302
O O8 0.884291 0.260473 0.166157
O O9 0.000000 0.254975 0.114815
O O10 0.930460 0.000000 0.096318
O O11 0.916010 0.254250 0.000000
O O12 0.349405 0.234462 0.500000
O O13 0.356918 0.500000 0.409506
O O14 0.437966 0.271845 0.393069
O O15 0.616268 0.000000 0.095862
O O16 0.639557 0.749094 0.000000
O O17 0.085958 0.246162 0.500000
O O18 0.070473 0.500000 0.596302
O O19 0.114644 0.237401 0.668188
O O20 0.000000 0.246970 0.612130
O O21 0.500000 0.000000 0.389841
O O22 0.844953 0.500000 0.258660
#
# Coordination Sequence:
#
# PCOD9385561 Si02
#       8
#     4   8   8   8   8   8   4   8
#     4  12  23  38  63  90 116 144 177 225 286 339
#     4  10  22  38  55  79 113 152 188 228 276 328
#     4   9  19  36  56  78 106 142 183 226 278 339
#     4  10  21  38  59  82 111 150 192 232 280 337
#     4  11  24  41  61  85 112 145 186 230 277 331
#     4   8  14  26  47  77 111 143 176 220 274 327
#     4  12  23  36  59  88 116 146 185 233 282 331
#     4  10  20  33  53  82 112 144 186 230 275 322
#
# _framework density 19.901475000000001
#
# number of rings (size 3 to 8) (size 9 to 14) (size 15 to 20)
#    0.000    2.000    1.429    3.429    0.000    6.000 
#    0.000    6.429    0.000    0.429    0.000    4.000 
#    0.000    0.000    0.000    0.000    0.000    0.000 
#
# Total GULP energy -312777.042405 kJ/mol
# GULP energy per Si atom -5585.304329 kJ/mol
# Density = 1.985618 g / cm^3
# Si number density = 19.901475 Si / 1000 Ang^3
#
#
#
# Elastic Constant Matrix: (Units=GPa)
#
#
# Indices 1 2 3 4 5 6 
#
# 1 157.2933 3.8377 103.2460 0.0000 0.0000 0.0000
# 2 3.8377 19.1251 2.6009 0.0000 0.0000 0.0000
# 3 103.2460 2.6009 172.3616 0.0000 0.0000 0.0000
# 4 0.0000 0.0000 0.0000 70.8701 0.0000 0.0000
# 5 0.0000 0.0000 0.0000 0.0000 3.7660 0.0000
# 6 0.0000 0.0000 0.0000 0.0000 0.0000 8.6464
#
#
#
# Elastic Compliance Matrix: (Units=1/GPa)
#
#
# Indices 1 2 3 4 5 6 
#
# 1 0.010507 -0.001255 -0.006275 0.000000 0.000000 0.000000
# 2 -0.001255 0.052545 -0.000041 0.000000 0.000000 0.000000
# 3 -0.006275 -0.000041 0.009561 0.000000 0.000000 0.000000
# 4 0.000000 0.000000 0.000000 0.014110 0.000000 0.000000
# 5 0.000000 0.000000 0.000000 0.000000 0.265534 0.000000
# 6 0.000000 0.000000 0.000000 0.000000 0.000000 0.115655
#
#
# Mechanical properties :
#
#
# Convention : Reuss Voigt Hill
#
# Bulk Modulus (GPa) = 17.40011 63.12768 40.26389
# Shear Modulus (GPa) = 9.95597 32.59618 21.27608
#
# Velocity S-wave (km/s) = 2.23908 4.05146 3.27321
# Velocity P-wave (km/s) = 3.93024 7.32630 5.87884
#
# Compressibility (1/GPa) = 0.05747091
#
# Stress axis : x y z
#
# Youngs Moduli (GPa) = 95.17580 19.03137 104.59144
#
# Poissons Ratio (x) = 0.02388 0.65629
# Poissons Ratio (y) = 0.11945 0.00430
# Poissons Ratio (z) = 0.59721 0.00078
#
# Static dielectric constant tensor:
#      x y z
#    x 1.668640 0.000000 0.000000 
#    y 0.000000 1.713090 0.000000 
#    z 0.000000 0.000000 1.698000 
# 
# From -- ./inp_files/25234.got.cif
#   From: 2010.05.17/outbox.cif.g08.bks.cpg/sg47_13_cif.got.tgz:25234.got - 2010.06.03 20:15:42.
