data_PCOD9385147
_publ_section_title
;
Structure prediction by ZEFSAII (Michael W. Deem and Ramdas Pophale) SiO2 
 PCOD9385147
Probable space group: P M M M
;
_chemical_formula_sum "Si O2"
_cell_formula_units_Z 52
_cell_length_a 14.859131
_cell_length_b 24.059783
_cell_length_c 8.407963
_cell_angle_alpha 90.000000
_cell_angle_beta 90.000000
_cell_angle_gamma 90.000000
_cell_volume 3005.909558
_symmetry_space_group_name_H-M "P M M M"
_symmetry_group_IT_number 47
_symmetry_cell_setting 'orthorhombic'
loop_
_space_group_symop_operation_xyz
x,y,z
-x,-y,z
x,-y,-z
-x,y,-z
-x,-y,-z
x,y,-z
-x,y,z
x,-y,z
loop_
_atom_site_type_symbol
_atom_site_label
_atom_site_fract_x
_atom_site_fract_y
_atom_site_fract_z
Si Si1 0.896595 0.670388 0.194293
Si Si2 0.895902 0.880416 0.689646
Si Si3 0.108959 0.000000 0.183873
Si Si4 0.599665 0.606538 0.191149
Si Si5 0.601107 0.731963 0.310419
Si Si6 0.210953 0.561361 0.805509
Si Si7 0.781574 0.777340 0.810063
O O1 0.850569 0.612823 0.246164
O O2 0.838387 0.723417 0.246427
O O3 0.000000 0.674642 0.245672
O O4 0.896125 0.670541 0.000000
O O5 0.896430 0.875797 0.500000
O O6 0.833702 0.832598 0.760197
O O7 0.000000 0.873779 0.746397
O O8 0.863461 0.942159 0.736338
O O9 0.000000 0.000000 0.192834
O O10 0.135580 0.000000 0.000000
O O11 0.500000 0.590574 0.251739
O O12 0.614612 0.671233 0.232698
O O13 0.686233 0.572527 0.247062
O O14 0.597634 0.601350 0.000000
O O15 0.604302 0.725109 0.500000
O O16 0.500000 0.750740 0.266423
O O17 0.681224 0.771666 0.256928
O O18 0.180831 0.500000 0.755650
O O19 0.210693 0.562204 0.000000
O O20 0.776889 0.774665 0.000000
#
# Coordination Sequence:
#
# PCOD9385147 Si02
#       7
#     8   8   4   8   8   8   8
#     4   9  17  28  42  64  94 125 158 202 252 295
#     4  10  20  33  50  76 111 147 180 214 254 298
#     4   9  17  31  51  75 106 145 186 221 253 291
#     4   9  16  28  46  67  91 118 151 195 250 309
#     4  10  20  33  50  72  97 125 158 200 254 313
#     4   9  16  26  41  64  92 121 157 200 249 305
#     4  11  20  32  51  74 101 132 169 212 255 303
#
# _framework density 17.299257000000001
#
# number of rings (size 3 to 8) (size 9 to 14) (size 15 to 20)
#    0.000    2.385    1.538    2.077    0.000    4.000 
#    0.000    3.077    0.000    0.462    0.000    2.692 
#    0.000    5.538    0.000    0.000    0.000    0.000 
#
# Total GULP energy -290008.476722 kJ/mol
# GULP energy per Si atom -5577.086091 kJ/mol
# Density = 1.725988 g / cm^3
# Si number density = 17.299257 Si / 1000 Ang^3
#
#
#
# Elastic Constant Matrix: (Units=GPa)
#
#
# Indices 1 2 3 4 5 6 
#
# 1 101.7174 55.8225 8.1800 0.0000 0.0000 0.0000
# 2 55.8225 103.7451 2.2457 0.0000 0.0000 0.0000
# 3 8.1800 2.2457 6.9874 0.0000 0.0000 0.0000
# 4 0.0000 0.0000 0.0000 -11.4373 0.0000 0.0000
# 5 0.0000 0.0000 0.0000 0.0000 16.2816 0.0000
# 6 0.0000 0.0000 0.0000 0.0000 0.0000 -85.7984
#
#
#
# Elastic Compliance Matrix: (Units=1/GPa)
#
#
# Indices 1 2 3 4 5 6 
#
# 1 0.015462 -0.007983 -0.015535 0.000000 0.000000 0.000000
# 2 -0.007983 0.013828 0.004901 0.000000 0.000000 0.000000
# 3 -0.015535 0.004901 0.159727 0.000000 0.000000 0.000000
# 4 0.000000 0.000000 0.000000 -0.087433 0.000000 0.000000
# 5 0.000000 0.000000 0.000000 0.000000 0.061419 0.000000
# 6 0.000000 0.000000 0.000000 0.000000 0.000000 -0.011655
#
#
# Mechanical properties :
#
#
# Convention : Reuss Voigt Hill
#
# Bulk Modulus (GPa) = 6.58834 38.32738 22.45786
# Shear Modulus (GPa) = 20.90514 -6.44405 7.23054
#
# Velocity S-wave (km/s) = 3.48004 -1.93213 2.04665
# Velocity P-wave (km/s) = 4.46814 4.15043 4.31221
#
# Compressibility (1/GPa) = 0.15178321
#
# Stress axis : x y z
#
# Youngs Moduli (GPa) = 64.67604 72.31450 6.26070
#
# Poissons Ratio (x) = 0.57730 0.09726
# Poissons Ratio (y) = 0.51632 -0.03069
# Poissons Ratio (z) = 1.00474 -0.35445
#
# Static dielectric constant tensor:
#      x y z
#    x 1.595600 0.000000 0.000000 
#    y 0.000000 1.569400 0.000000 
#    z 0.000000 0.000000 1.594380 
# 
# From -- ./inp_files/6931.got.cif
#   From: 2010.05.17/outbox.cif.g08.bks.cpg/sg47_4_cif.got.tgz:6931.got - 2010.06.03 20:15:42.
