data_PCOD9385210
_publ_section_title
;
Structure prediction by ZEFSAII (Michael W. Deem and Ramdas Pophale) SiO2 
 PCOD9385210
Probable space group: P M M M
;
_chemical_formula_sum "Si O2"
_cell_formula_units_Z 44
_cell_length_a 29.759053
_cell_length_b 7.592347
_cell_length_c 9.594170
_cell_angle_alpha 90.000000
_cell_angle_beta 90.000000
_cell_angle_gamma 90.000000
_cell_volume 2167.716909
_symmetry_space_group_name_H-M "P M M M"
_symmetry_group_IT_number 47
_symmetry_cell_setting 'orthorhombic'
loop_
_space_group_symop_operation_xyz
x,y,z
-x,-y,z
x,-y,-z
-x,y,-z
-x,-y,-z
x,y,-z
-x,y,z
x,-y,z
loop_
_atom_site_type_symbol
_atom_site_label
_atom_site_fract_x
_atom_site_fract_y
_atom_site_fract_z
Si Si1 0.000000 0.216070 0.160751
Si Si2 0.728926 0.715090 0.839331
Si Si3 0.354023 0.290084 0.341892
Si Si4 0.548331 0.788316 0.337735
Si Si5 0.170421 0.287717 0.159581
Si Si6 0.084364 0.209345 0.342264
O O1 0.955922 0.276272 0.244626
O O2 0.000000 0.000000 0.158426
O O3 0.000000 0.273197 0.000000
O O4 0.728627 0.500000 0.835303
O O5 0.687978 0.779265 0.745284
O O6 0.779343 0.770794 0.798088
O O7 0.722272 0.765831 0.000000
O O8 0.354167 0.218226 0.500000
O O9 0.348286 0.500000 0.351363
O O10 0.403482 0.262333 0.276745
O O11 0.549225 0.728128 0.500000
O O12 0.500000 0.728173 0.278287
O O13 0.547446 0.000000 0.338799
O O14 0.171178 0.500000 0.155329
O O15 0.131560 0.235556 0.264978
O O16 0.161642 0.226977 0.000000
O O17 0.083910 0.280883 0.500000
O O18 0.077131 0.000000 0.352973
#
# Coordination Sequence:
#
# PCOD9385210 Si02
#       6
#     4   8   8   8   8   8
#     4   9  17  31  52  73  94 127 166 198 232 277
#     4   8  15  29  47  65  88 119 150 180 220 271
#     4   9  16  25  41  66  88 106 138 184 223 255
#     4   8  14  25  40  58  83 115 145 173 214 267
#     4   9  18  33  52  72  94 124 162 198 233 278
#     4  10  20  33  50  74 102 128 156 194 239 283
#
# _framework density 20.297854999999998
#
# number of rings (size 3 to 8) (size 9 to 14) (size 15 to 20)
#    0.000    3.182    0.000    2.455    0.000    3.636 
#    0.000    5.000    0.000    7.091    0.000    3.818 
#    0.000    0.000    0.000    0.000    0.000    0.000 
#
# Total GULP energy -245208.571262 kJ/mol
# GULP energy per Si atom -5572.922074 kJ/mol
# Density = 2.025166 g / cm^3
# Si number density = 20.297855 Si / 1000 Ang^3
#
#
#
# Elastic Constant Matrix: (Units=GPa)
#
#
# Indices 1 2 3 4 5 6 
#
# 1 227.3868 1.3484 118.6065 0.0000 0.0000 0.0000
# 2 1.3484 40.8152 5.4627 0.0000 0.0000 0.0000
# 3 118.6065 5.4627 113.6365 0.0000 0.0000 0.0000
# 4 0.0000 0.0000 0.0000 9.1680 0.0000 0.0000
# 5 0.0000 0.0000 0.0000 0.0000 52.8346 0.0000
# 6 0.0000 0.0000 0.0000 0.0000 0.0000 24.3152
#
#
#
# Elastic Compliance Matrix: (Units=1/GPa)
#
#
# Indices 1 2 3 4 5 6 
#
# 1 0.009697 0.001041 -0.010171 0.000000 0.000000 0.000000
# 2 0.001041 0.024771 -0.002277 0.000000 0.000000 0.000000
# 3 -0.010171 -0.002277 0.019525 0.000000 0.000000 0.000000
# 4 0.000000 0.000000 0.000000 0.109075 0.000000 0.000000
# 5 0.000000 0.000000 0.000000 0.000000 0.018927 0.000000
# 6 0.000000 0.000000 0.000000 0.000000 0.000000 0.041126
#
#
# Mechanical properties :
#
#
# Convention : Reuss Voigt Hill
#
# Bulk Modulus (GPa) = 32.07329 70.29709 51.18519
# Shear Modulus (GPa) = 19.50618 34.35829 26.93224
#
# Velocity S-wave (km/s) = 3.10336 4.11871 3.64655
# Velocity P-wave (km/s) = 5.35507 7.57142 6.55756
#
# Compressibility (1/GPa) = 0.03117860
#
# Stress axis : x y z
#
# Youngs Moduli (GPa) = 103.12569 40.36968 51.21551
#
# Poissons Ratio (x) = -0.04202 0.52092
# Poissons Ratio (y) = -0.10735 0.11663
# Poissons Ratio (z) = 1.04890 0.09193
#
# Static dielectric constant tensor:
#      x y z
#    x 1.739500 0.000000 0.000000 
#    y 0.000000 1.771050 0.000000 
#    z 0.000000 0.000000 1.700630 
# 
# From -- ./inp_files/2000.got.cif
#   From: 2010.05.17/outbox.cif.g08.bks.cpg/sg47_1_cif.got.tgz:2000.got - 2010.06.03 20:15:42.
