data_PCOD9385820
_publ_section_title
;
Structure prediction by ZEFSAII (Michael W. Deem and Ramdas Pophale) SiO2 
 PCOD9385820
Probable space group: P M M M
;
_chemical_formula_sum "Si O2"
_cell_formula_units_Z 52
_cell_length_a 10.421519
_cell_length_b 9.105997
_cell_length_c 31.531863
_cell_angle_alpha 90.000000
_cell_angle_beta 90.000000
_cell_angle_gamma 90.000000
_cell_volume 2992.320849
_symmetry_space_group_name_H-M "P M M M"
_symmetry_group_IT_number 47
_symmetry_cell_setting 'orthorhombic'
loop_
_space_group_symop_operation_xyz
x,y,z
-x,-y,z
x,-y,-z
-x,y,-z
-x,-y,-z
x,y,-z
-x,y,z
x,-y,z
loop_
_atom_site_type_symbol
_atom_site_label
_atom_site_fract_x
_atom_site_fract_y
_atom_site_fract_z
Si Si1 0.648755 0.163482 0.629834
Si Si2 0.843919 0.828550 0.952857
Si Si3 0.000000 0.166511 0.550824
Si Si4 0.346393 0.675608 0.285228
Si Si5 0.264973 0.675553 0.549316
Si Si6 0.151325 0.175983 0.219349
Si Si7 0.844565 0.666847 0.131432
O O1 0.500000 0.145333 0.639795
O O2 0.696832 0.261728 0.668778
O O3 0.653067 0.244516 0.584817
O O4 0.708115 0.000000 0.627656
O O5 0.797920 0.734837 0.912929
O O6 0.000000 0.822944 0.952647
O O7 0.809593 0.000000 0.947697
O O8 0.802826 0.779368 0.000000
O O9 0.124592 0.261720 0.560330
O O10 0.000000 0.151539 0.500000
O O11 0.000000 0.000000 0.568332
O O12 0.500000 0.706838 0.278159
O O13 0.332879 0.500000 0.284515
O O14 0.252164 0.749667 0.251177
O O15 0.294686 0.712995 0.500000
O O16 0.270979 0.500000 0.552892
O O17 0.183379 0.233210 0.172092
O O18 0.000000 0.214357 0.227833
O O19 0.161451 0.000000 0.221586
O O20 0.799334 0.500000 0.137644
O O21 0.000000 0.662499 0.128739
#
# Coordination Sequence:
#
# PCOD9385820 Si02
#       7
#     8   8   4   8   8   8   8
#     4  10  21  37  56  77 102 132 166 204 246 294
#     4   8  13  21  33  51  80 121 166 207 249 302
#     4   9  17  31  51  73  99 131 165 201 241 285
#     4  10  21  38  59  80 104 135 170 211 261 314
#     4  10  20  34  53  77 105 135 167 203 244 291
#     4  10  20  34  53  77 105 136 172 214 259 309
#     4   9  16  25  39  61  91 127 165 208 258 306
#
# _framework density 17.377815999999999
#
# number of rings (size 3 to 8) (size 9 to 14) (size 15 to 20)
#    0.000    2.538    0.000    3.000    0.000    7.077 
#    1.385    3.077    0.000    0.000    0.000    0.000 
#    0.000    0.615    0.000    6.462    0.000    8.923 
#
# Total GULP energy -289483.611916 kJ/mol
# GULP energy per Si atom -5566.992537 kJ/mol
# Density = 1.733826 g / cm^3
# Si number density = 17.377816 Si / 1000 Ang^3
#
#
#
# Elastic Constant Matrix: (Units=GPa)
#
#
# Indices 1 2 3 4 5 6 
#
# 1 38.0879 35.4498 38.9272 0.0000 0.0000 0.0000
# 2 35.4498 112.2092 76.4531 0.0000 0.0000 0.0000
# 3 38.9272 76.4531 136.6270 0.0000 0.0000 0.0000
# 4 0.0000 0.0000 0.0000 31.0174 0.0000 0.0000
# 5 0.0000 0.0000 0.0000 0.0000 -211.2739 0.0000
# 6 0.0000 0.0000 0.0000 0.0000 0.0000 23.5894
#
#
#
# Elastic Compliance Matrix: (Units=1/GPa)
#
#
# Indices 1 2 3 4 5 6 
#
# 1 0.041141 -0.008099 -0.007190 0.000000 0.000000 0.000000
# 2 -0.008099 0.015998 -0.006644 0.000000 0.000000 0.000000
# 3 -0.007190 -0.006644 0.013086 0.000000 0.000000 0.000000
# 4 0.000000 0.000000 0.000000 0.032240 0.000000 0.000000
# 5 0.000000 0.000000 0.000000 0.000000 -0.004733 0.000000
# 6 0.000000 0.000000 0.000000 0.000000 0.000000 0.042392
#
#
# Mechanical properties :
#
#
# Convention : Reuss Voigt Hill
#
# Bulk Modulus (GPa) = 37.93848 65.39825 51.66837
# Shear Modulus (GPa) = 25.93683 -22.26050 1.83816
#
# Velocity S-wave (km/s) = 3.86751 -3.58295 1.02959
# Velocity P-wave (km/s) = 6.46703 4.53852 5.58662
#
# Compressibility (1/GPa) = 0.02635846
#
# Stress axis : x y z
#
# Youngs Moduli (GPa) = 24.30648 62.50890 76.41876
#
# Poissons Ratio (x) = 0.50625 0.54944
# Poissons Ratio (y) = 0.19685 0.50776
# Poissons Ratio (z) = 0.17476 0.41534
#
# Static dielectric constant tensor:
#      x y z
#    x 1.659740 0.000000 0.000000 
#    y 0.000000 1.604110 0.000000 
#    z 0.000000 0.000000 1.590810 
# 
# From -- ./inp_files/19819.got.cif
#   From: 2010.05.17/outbox.cif.g08.bks.cpg/sg47_10_cif.got.tgz:19819.got - 2010.06.03 20:15:42.
