data_PCOD9385056
_publ_section_title
;
Structure prediction by ZEFSAII (Michael W. Deem and Ramdas Pophale) SiO2 
 PCOD9385056
Probable space group: P M M M
;
_chemical_formula_sum "Si O2"
_cell_formula_units_Z 40
_cell_length_a 9.455134
_cell_length_b 7.648172
_cell_length_c 27.081562
_cell_angle_alpha 90.000000
_cell_angle_beta 90.000000
_cell_angle_gamma 90.000000
_cell_volume 1958.389375
_symmetry_space_group_name_H-M "P M M M"
_symmetry_group_IT_number 47
_symmetry_cell_setting 'orthorhombic'
loop_
_space_group_symop_operation_xyz
x,y,z
-x,-y,z
x,-y,-z
-x,y,-z
-x,-y,-z
x,y,-z
-x,y,z
x,-y,z
loop_
_atom_site_type_symbol
_atom_site_label
_atom_site_fract_x
_atom_site_fract_y
_atom_site_fract_z
Si Si1 0.172246 0.297842 0.000000
Si Si2 0.838221 0.288902 0.892770
Si Si3 0.661630 0.208266 0.392609
Si Si4 0.661265 0.707788 0.500000
Si Si5 0.340011 0.790650 0.203812
Si Si6 0.837398 0.785476 0.298359
O O1 0.211609 0.221537 0.946661
O O2 0.220731 0.500000 0.000000
O O3 0.000000 0.299336 0.000000
O O4 0.843733 0.500000 0.896541
O O5 0.738066 0.244068 0.847602
O O6 0.000000 0.228468 0.883729
O O7 0.500000 0.278915 0.390997
O O8 0.723598 0.239133 0.447303
O O9 0.756865 0.273822 0.347781
O O10 0.651398 0.000000 0.386310
O O11 0.653842 0.500000 0.500000
O O12 0.500000 0.781349 0.500000
O O13 0.500000 0.721576 0.204377
O O14 0.247364 0.726249 0.249907
O O15 0.348226 0.000000 0.209476
O O16 0.000000 0.729488 0.297171
O O17 0.837743 0.000000 0.298377
#
# Coordination Sequence:
#
# PCOD9385056 Si02
#       6
#     4   8   8   4   8   8
#     4   7  12  26  48  71  94 122 158 199 240 283
#     4   9  17  31  52  75  97 124 161 203 244 287
#     4   9  16  28  48  71  92 117 153 193 228 268
#     4   9  17  29  46  69  96 124 152 183 224 274
#     4  10  20  33  49  71 100 132 163 197 241 291
#     4   9  17  30  49  71  93 120 157 199 239 279
#
# _framework density 20.424949000000002
#
# number of rings (size 3 to 8) (size 9 to 14) (size 15 to 20)
#    0.000    3.000    0.000    2.700    0.000    5.200 
#    0.000    2.500    0.000   12.000    0.000    0.000 
#    0.000    0.000    0.000    0.000    0.000    0.000 
#
# Total GULP energy -223025.515688 kJ/mol
# GULP energy per Si atom -5575.637892 kJ/mol
# Density = 2.037846 g / cm^3
# Si number density = 20.424949 Si / 1000 Ang^3
#
#
#
# Elastic Constant Matrix: (Units=GPa)
#
#
# Indices 1 2 3 4 5 6 
#
# 1 131.6321 6.8587 118.5162 0.0000 0.0000 0.0000
# 2 6.8587 38.0812 1.6669 0.0000 0.0000 0.0000
# 3 118.5162 1.6669 246.3545 0.0000 0.0000 0.0000
# 4 0.0000 0.0000 0.0000 25.5720 0.0000 0.0000
# 5 0.0000 0.0000 0.0000 0.0000 31.6430 0.0000
# 6 0.0000 0.0000 0.0000 0.0000 0.0000 7.2518
#
#
#
# Elastic Compliance Matrix: (Units=1/GPa)
#
#
# Indices 1 2 3 4 5 6 
#
# 1 0.013577 -0.002160 -0.006517 0.000000 0.000000 0.000000
# 2 -0.002160 0.026611 0.000859 0.000000 0.000000 0.000000
# 3 -0.006517 0.000859 0.007189 0.000000 0.000000 0.000000
# 4 0.000000 0.000000 0.000000 0.039105 0.000000 0.000000
# 5 0.000000 0.000000 0.000000 0.000000 0.031603 0.000000
# 6 0.000000 0.000000 0.000000 0.000000 0.000000 0.137897
#
#
# Mechanical properties :
#
#
# Convention : Reuss Voigt Hill
#
# Bulk Modulus (GPa) = 31.50520 74.46126 52.98323
# Shear Modulus (GPa) = 17.71806 32.16176 24.93991
#
# Velocity S-wave (km/s) = 2.94848 3.97247 3.49815
# Velocity P-wave (km/s) = 5.20094 7.58787 6.50483
#
# Compressibility (1/GPa) = 0.03174079
#
# Stress axis : x y z
#
# Youngs Moduli (GPa) = 73.65273 37.57828 139.10860
#
# Poissons Ratio (x) = 0.08117 0.90659
# Poissons Ratio (y) = 0.15910 -0.11951
# Poissons Ratio (z) = 0.48000 -0.03228
#
# Static dielectric constant tensor:
#      x y z
#    x 1.702530 0.000000 0.000000 
#    y 0.000000 1.771950 0.000000 
#    z 0.000000 0.000000 1.739960 
# 
# From -- ./inp_files/1800.got.cif
#   From: 2010.05.17/outbox.cif.g08.bks.cpg/sg47_1_cif.got.tgz:1800.got - 2010.06.03 20:15:42.
