data_PCOD9385618
_publ_section_title
;
Structure prediction by ZEFSAII (Michael W. Deem and Ramdas Pophale) SiO2 
 PCOD9385618
Probable space group: P M M M
;
_chemical_formula_sum "Si O2"
_cell_formula_units_Z 52
_cell_length_a 14.260297
_cell_length_b 24.023391
_cell_length_c 9.078375
_cell_angle_alpha 90.000000
_cell_angle_beta 90.000000
_cell_angle_gamma 90.000000
_cell_volume 3110.075977
_symmetry_space_group_name_H-M "P M M M"
_symmetry_group_IT_number 47
_symmetry_cell_setting 'orthorhombic'
loop_
_space_group_symop_operation_xyz
x,y,z
-x,-y,z
x,-y,-z
-x,y,-z
-x,-y,-z
x,y,-z
-x,y,z
x,-y,z
loop_
_atom_site_type_symbol
_atom_site_label
_atom_site_fract_x
_atom_site_fract_y
_atom_site_fract_z
Si Si1 0.389993 0.257996 0.834377
Si Si2 0.247876 0.328961 0.673054
Si Si3 0.605850 0.065391 0.676973
Si Si4 0.000000 0.566934 0.666417
Si Si5 0.806180 0.435107 0.824204
Si Si6 0.260651 0.150350 0.830977
Si Si7 0.110559 0.759831 0.178168
O O1 0.500000 0.252487 0.815078
O O2 0.341641 0.295513 0.712195
O O3 0.339070 0.198762 0.829664
O O4 0.371260 0.281072 0.000000
O O5 0.231202 0.333876 0.500000
O O6 0.257384 0.389310 0.747304
O O7 0.165048 0.291816 0.747379
O O8 0.607301 0.070336 0.500000
O O9 0.500000 0.083386 0.726085
O O10 0.691531 0.100677 0.741847
O O11 0.614833 0.000000 0.713871
O O12 0.908044 0.580200 0.758625
O O13 0.000000 0.500000 0.653232
O O14 0.000000 0.590135 0.500000
O O15 0.786714 0.500000 0.788130
O O16 0.805849 0.429771 0.000000
O O17 0.166925 0.183437 0.779381
O O18 0.244700 0.132789 0.000000
O O19 0.000000 0.761020 0.213631
O O20 0.120184 0.754598 0.000000
#
# Coordination Sequence:
#
# PCOD9385618 Si02
#       7
#     8   8   8   4   8   8   8
#     4   9  18  34  54  74  99 130 164 202 244 296
#     4  11  22  33  49  75 104 129 159 203 251 296
#     4   9  18  31  46  68 101 138 169 197 238 294
#     4   9  17  29  45  67  93 119 151 193 238 281
#     4  10  20  34  51  69  93 129 168 200 239 297
#     4   9  17  30  50  76  99 123 162 206 248 288
#     4   9  19  36  54  70  95 132 169 205 246 295
#
# _framework density 16.719847999999999
#
# number of rings (size 3 to 8) (size 9 to 14) (size 15 to 20)
#    0.000    2.538    0.000    3.923    1.077    6.154 
#    0.000    0.769    0.000    0.923    0.000    6.462 
#    0.000    0.000    0.000    0.000    0.000    0.000 
#
# Total GULP energy -289692.311834 kJ/mol
# GULP energy per Si atom -5571.005997 kJ/mol
# Density = 1.668179 g / cm^3
# Si number density = 16.719848 Si / 1000 Ang^3
#
#
#
# Elastic Constant Matrix: (Units=GPa)
#
#
# Indices 1 2 3 4 5 6 
#
# 1 80.7015 25.4098 22.3065 0.0000 0.0000 0.0000
# 2 25.4098 62.6304 33.6305 0.0000 0.0000 0.0000
# 3 22.3065 33.6305 56.9465 0.0000 0.0000 0.0000
# 4 0.0000 0.0000 0.0000 21.2819 0.0000 0.0000
# 5 0.0000 0.0000 0.0000 0.0000 39.7765 0.0000
# 6 0.0000 0.0000 0.0000 0.0000 0.0000 15.8811
#
#
#
# Elastic Compliance Matrix: (Units=1/GPa)
#
#
# Indices 1 2 3 4 5 6 
#
# 1 0.014606 -0.004179 -0.003254 0.000000 0.000000 0.000000
# 2 -0.004179 0.024577 -0.012877 0.000000 0.000000 0.000000
# 3 -0.003254 -0.012877 0.026440 0.000000 0.000000 0.000000
# 4 0.000000 0.000000 0.000000 0.046988 0.000000 0.000000
# 5 0.000000 0.000000 0.000000 0.000000 0.025140 0.000000
# 6 0.000000 0.000000 0.000000 0.000000 0.000000 0.062968
#
#
# Mechanical properties :
#
#
# Convention : Reuss Voigt Hill
#
# Bulk Modulus (GPa) = 39.99457 40.33025 40.16241
# Shear Modulus (GPa) = 20.02617 23.31668 21.67143
#
# Velocity S-wave (km/s) = 3.46460 3.73842 3.60411
# Velocity P-wave (km/s) = 6.32274 6.54278 6.43370
#
# Compressibility (1/GPa) = 0.02500339
#
# Stress axis : x y z
#
# Youngs Moduli (GPa) = 68.46299 40.68878 37.82203
#
# Poissons Ratio (x) = 0.17004 0.12306
# Poissons Ratio (y) = 0.28610 0.48704
# Poissons Ratio (z) = 0.22275 0.52396
#
# Static dielectric constant tensor:
#      x y z
#    x 1.571390 0.000000 0.000000 
#    y 0.000000 1.569430 0.000000 
#    z 0.000000 0.000000 1.574970 
# 
# From -- ./inp_files/6941.got.cif
#   From: 2010.05.17/outbox.cif.g08.bks.cpg/sg47_4_cif.got.tgz:6941.got - 2010.06.03 20:15:42.
