data_PCOD9385924
_publ_section_title
;
Structure prediction by ZEFSAII (Michael W. Deem and Ramdas Pophale) SiO2 
 PCOD9385924
Probable space group: P M M M
;
_chemical_formula_sum "Si O2"
_cell_formula_units_Z 40
_cell_length_a 7.603709
_cell_length_b 27.305558
_cell_length_c 9.299892
_cell_angle_alpha 90.000000
_cell_angle_beta 90.000000
_cell_angle_gamma 90.000000
_cell_volume 1930.876286
_symmetry_space_group_name_H-M "P M M M"
_symmetry_group_IT_number 47
_symmetry_cell_setting 'orthorhombic'
loop_
_space_group_symop_operation_xyz
x,y,z
-x,-y,z
x,-y,-z
-x,y,-z
-x,-y,-z
x,y,-z
-x,y,z
x,-y,z
loop_
_atom_site_type_symbol
_atom_site_label
_atom_site_fract_x
_atom_site_fract_y
_atom_site_fract_z
Si Si1 0.784548 0.500000 0.665677
Si Si2 0.211205 0.404040 0.163304
Si Si3 0.711438 0.694296 0.662681
Si Si4 0.209528 0.000000 0.174899
Si Si5 0.289962 0.211886 0.164371
Si Si6 0.788170 0.894858 0.833639
O O1 0.728599 0.500000 0.500000
O O2 0.725449 0.451234 0.748351
O O3 0.000000 0.500000 0.665734
O O4 0.250359 0.353935 0.245572
O O5 0.000000 0.408460 0.155849
O O6 0.278859 0.403173 0.000000
O O7 0.778818 0.689781 0.500000
O O8 0.500000 0.698655 0.654803
O O9 0.778778 0.743065 0.742156
O O10 0.277432 0.947085 0.226870
O O11 0.000000 0.000000 0.203522
O O12 0.228752 0.000000 0.000000
O O13 0.500000 0.217476 0.154638
O O14 0.257915 0.157914 0.229474
O O15 0.219681 0.213437 0.000000
O O16 0.000000 0.897547 0.836318
O O17 0.725838 0.892742 0.000000
#
# Coordination Sequence:
#
# PCOD9385924 Si02
#       6
#     4   8   8   4   8   8
#     4   9  17  31  52  77 106 137 164 194 236 283
#     4  10  20  34  54  79 104 130 162 200 241 286
#     4  10  21  36  52  70  95 129 166 203 245 291
#     4   7  10  18  33  55  84 115 144 178 224 275
#     4   9  17  29  44  63  89 119 150 189 238 286
#     4   8  13  22  38  60  86 116 149 184 225 277
#
# _framework density 20.715982
#
# number of rings (size 3 to 8) (size 9 to 14) (size 15 to 20)
#    0.000    3.000    0.000    2.700    0.000    4.400 
#    0.000    3.000    0.000    6.000    0.000    0.700 
#    0.000    5.600    0.000    0.000    0.000    0.000 
#
# Total GULP energy -222974.735135 kJ/mol
# GULP energy per Si atom -5574.368378 kJ/mol
# Density = 2.066883 g / cm^3
# Si number density = 20.715982 Si / 1000 Ang^3
#
#
#
# Elastic Constant Matrix: (Units=GPa)
#
#
# Indices 1 2 3 4 5 6 
#
# 1 42.4394 1.3786 6.4670 0.0000 0.0000 0.0000
# 2 1.3786 262.3249 108.2747 0.0000 0.0000 0.0000
# 3 6.4670 108.2747 126.9506 0.0000 0.0000 0.0000
# 4 0.0000 0.0000 0.0000 -25.2180 0.0000 0.0000
# 5 0.0000 0.0000 0.0000 0.0000 9.2552 0.0000
# 6 0.0000 0.0000 0.0000 0.0000 0.0000 32.0952
#
#
#
# Elastic Compliance Matrix: (Units=1/GPa)
#
#
# Indices 1 2 3 4 5 6 
#
# 1 0.023804 0.000579 -0.001707 0.000000 0.000000 0.000000
# 2 0.000579 0.005897 -0.005059 0.000000 0.000000 0.000000
# 3 -0.001707 -0.005059 0.012279 0.000000 0.000000 0.000000
# 4 0.000000 0.000000 0.000000 -0.039654 0.000000 0.000000
# 5 0.000000 0.000000 0.000000 0.000000 0.108047 0.000000
# 6 0.000000 0.000000 0.000000 0.000000 0.000000 0.031157
#
#
# Mechanical properties :
#
#
# Convention : Reuss Voigt Hill
#
# Bulk Modulus (GPa) = 33.77548 73.77284 53.77416
# Shear Modulus (GPa) = 30.53005 24.26613 27.39809
#
# Velocity S-wave (km/s) = 3.84310 3.42624 3.64064
# Velocity P-wave (km/s) = 6.00267 7.16527 6.60958
#
# Compressibility (1/GPa) = 0.02960728
#
# Stress axis : x y z
#
# Youngs Moduli (GPa) = 42.00930 169.57222 81.44038
#
# Poissons Ratio (x) = -0.09824 0.13900
# Poissons Ratio (y) = -0.02434 0.41202
# Poissons Ratio (z) = 0.07170 0.85789
#
# Static dielectric constant tensor:
#      x y z
#    x 1.782450 0.000000 0.000000 
#    y 0.000000 1.763190 0.000000 
#    z 0.000000 0.000000 1.714460 
# 
# From -- ./inp_files/1885.got.cif
#   From: 2010.05.17/outbox.cif.g08.bks.cpg/sg47_1_cif.got.tgz:1885.got - 2010.06.03 20:15:42.
