data_PCOD9385083
_publ_section_title
;
Structure prediction by ZEFSAII (Michael W. Deem and Ramdas Pophale) SiO2 
 PCOD9385083
Probable space group: P M M M
;
_chemical_formula_sum "Si O2"
_cell_formula_units_Z 36
_cell_length_a 14.486642
_cell_length_b 7.772785
_cell_length_c 18.755519
_cell_angle_alpha 90.000000
_cell_angle_beta 90.000000
_cell_angle_gamma 90.000000
_cell_volume 2111.900579
_symmetry_space_group_name_H-M "P M M M"
_symmetry_group_IT_number 47
_symmetry_cell_setting 'orthorhombic'
loop_
_space_group_symop_operation_xyz
x,y,z
-x,-y,z
x,-y,-z
-x,y,-z
-x,-y,-z
x,y,-z
-x,y,z
x,-y,z
loop_
_atom_site_type_symbol
_atom_site_label
_atom_site_fract_x
_atom_site_fract_y
_atom_site_fract_z
Si Si1 0.888923 0.500000 0.419642
Si Si2 0.891838 0.803144 0.688324
Si Si3 0.896889 0.797687 0.915517
Si Si4 0.247018 0.692408 0.810499
Si Si5 0.608061 0.709828 0.079752
O O1 0.851089 0.500000 0.500000
O O2 0.866536 0.331622 0.373299
O O3 0.000000 0.500000 0.425209
O O4 0.815796 0.782400 0.750603
O O5 0.000000 0.767409 0.710757
O O6 0.890441 0.000000 0.663526
O O7 0.822613 0.685563 0.876886
O O8 0.000000 0.754461 0.891475
O O9 0.881035 0.000000 0.899156
O O10 0.893146 0.778752 0.000000
O O11 0.269641 0.500000 0.784564
O O12 0.335773 0.772085 0.850766
O O13 0.500000 0.753761 0.084546
O O14 0.614870 0.500000 0.080590
O O15 0.641065 0.765801 0.000000
#
# Coordination Sequence:
#
# PCOD9385083 Si02
#       5
#     4   8   8   8   8
#     4   9  18  34  54  76 102 131 166 200 226 271
#     4  10  20  33  49  72 104 137 164 195 239 285
#     4   9  18  30  40  53  79 117 158 196 235 281
#     4  11  19  27  44  67  91 121 160 204 247 290
#     4   8  15  28  44  63  89 123 166 214 260 302
#
# _framework density 17.046256
#
# number of rings (size 3 to 8) (size 9 to 14) (size 15 to 20)
#    0.000    2.556    1.111    3.333    0.000    4.889 
#    0.000    3.333    0.000    2.667    0.000    7.778 
#    0.000    1.778    0.000    2.000    0.000    0.222 
#
# Total GULP energy -200456.024864 kJ/mol
# GULP energy per Si atom -5568.222913 kJ/mol
# Density = 1.700746 g / cm^3
# Si number density = 17.046256 Si / 1000 Ang^3
#
#
#
# Elastic Constant Matrix: (Units=GPa)
#
#
# Indices 1 2 3 4 5 6 
#
# 1 58.4207 20.9400 44.5002 0.0000 0.0000 0.0000
# 2 20.9400 56.8961 36.5104 0.0000 0.0000 0.0000
# 3 44.5002 36.5104 95.5110 0.0000 0.0000 0.0000
# 4 0.0000 0.0000 0.0000 3.1031 0.0000 0.0000
# 5 0.0000 0.0000 0.0000 0.0000 26.9737 0.0000
# 6 0.0000 0.0000 0.0000 0.0000 0.0000 38.7161
#
#
#
# Elastic Compliance Matrix: (Units=1/GPa)
#
#
# Indices 1 2 3 4 5 6 
#
# 1 0.026790 -0.002451 -0.011545 0.000000 0.000000 0.000000
# 2 -0.002451 0.023513 -0.007846 0.000000 0.000000 0.000000
# 3 -0.011545 -0.007846 0.018848 0.000000 0.000000 0.000000
# 4 0.000000 0.000000 0.000000 0.322257 0.000000 0.000000
# 5 0.000000 0.000000 0.000000 0.000000 0.037073 0.000000
# 6 0.000000 0.000000 0.000000 0.000000 0.000000 0.025829
#
#
# Mechanical properties :
#
#
# Convention : Reuss Voigt Hill
#
# Bulk Modulus (GPa) = 39.26716 46.08098 42.67407
# Shear Modulus (GPa) = 9.87199 21.01706 15.44453
#
# Velocity S-wave (km/s) = 2.40912 3.51514 3.01331
# Velocity P-wave (km/s) = 5.55195 6.60049 6.09880
#
# Compressibility (1/GPa) = 0.02546657
#
# Stress axis : x y z
#
# Youngs Moduli (GPa) = 37.32773 42.52987 53.05571
#
# Poissons Ratio (x) = 0.10426 0.61251
# Poissons Ratio (y) = 0.09150 0.41627
# Poissons Ratio (z) = 0.43094 0.33369
#
# Static dielectric constant tensor:
#      x y z
#    x 1.609970 0.000000 0.000000 
#    y 0.000000 1.646070 0.000000 
#    z 0.000000 0.000000 1.587580 
# 
# From -- ./inp_files/24208.got.cif
#   From: 2010.05.17/outbox.cif.g08.bks.cpg/sg47_13_cif.got.tgz:24208.got - 2010.06.03 20:15:42.
