data_PCOD9385806
_publ_section_title
;
Structure prediction by ZEFSAII (Michael W. Deem and Ramdas Pophale) SiO2 
 PCOD9385806
Probable space group: P M M M
;
_chemical_formula_sum "Si O2"
_cell_formula_units_Z 40
_cell_length_a 9.354306
_cell_length_b 8.133363
_cell_length_c 28.495654
_cell_angle_alpha 90.000000
_cell_angle_beta 90.000000
_cell_angle_gamma 90.000000
_cell_volume 2168.005388
_symmetry_space_group_name_H-M "P M M M"
_symmetry_group_IT_number 47
_symmetry_cell_setting 'orthorhombic'
loop_
_space_group_symop_operation_xyz
x,y,z
-x,-y,z
x,-y,-z
-x,y,-z
-x,-y,-z
x,y,-z
-x,y,z
x,-y,z
loop_
_atom_site_type_symbol
_atom_site_label
_atom_site_fract_x
_atom_site_fract_y
_atom_site_fract_z
Si Si1 0.325856 0.816122 0.114001
Si Si2 0.336144 0.195867 0.399786
Si Si3 0.674614 0.500000 0.945768
Si Si4 0.332064 0.301376 0.783218
Si Si5 0.335337 0.304056 0.500000
Si Si6 0.837734 0.301895 0.691158
O O1 0.500000 0.814030 0.113062
O O2 0.278466 0.665371 0.081211
O O3 0.285296 0.778758 0.167840
O O4 0.280113 0.000000 0.099970
O O5 0.500000 0.261117 0.396753
O O6 0.273239 0.246749 0.450407
O O7 0.246449 0.255955 0.355723
O O8 0.342201 0.000000 0.398424
O O9 0.500000 0.500000 0.944676
O O10 0.718278 0.500000 0.000000
O O11 0.500000 0.264965 0.775915
O O12 0.319628 0.500000 0.788190
O O13 0.243764 0.245489 0.738033
O O14 0.338209 0.500000 0.500000
O O15 0.500000 0.239699 0.500000
O O16 0.841100 0.500000 0.693640
O O17 0.000000 0.240340 0.689744
#
# Coordination Sequence:
#
# PCOD9385806 Si02
#       6
#     8   8   4   8   4   8
#     4   9  16  26  42  65  93 127 169 211 251 302
#     4  10  20  34  53  77 104 133 167 207 252 302
#     4   9  16  26  40  62  97 135 167 204 253 304
#     4   9  16  29  49  69  94 131 171 211 255 301
#     4   9  17  31  54  79 100 125 162 208 252 297
#     4  10  21  35  51  74 104 136 170 209 255 307
#
# _framework density 18.450139
#
# number of rings (size 3 to 8) (size 9 to 14) (size 15 to 20)
#    0.000    2.600    1.000    1.500    0.000    4.800 
#    0.000    4.500    0.000    3.000    0.000    0.000 
#    0.000    1.600    0.000    1.800    0.000    2.000 
#
# Total GULP energy -223034.746029 kJ/mol
# GULP energy per Si atom -5575.868651 kJ/mol
# Density = 1.840815 g / cm^3
# Si number density = 18.450139 Si / 1000 Ang^3
#
#
#
# Elastic Constant Matrix: (Units=GPa)
#
#
# Indices 1 2 3 4 5 6 
#
# 1 42.0810 24.9850 49.8011 0.0000 0.0000 0.0000
# 2 24.9850 77.1519 69.0761 0.0000 0.0000 0.0000
# 3 49.8011 69.0761 186.2607 0.0000 0.0000 0.0000
# 4 0.0000 0.0000 0.0000 -4.1489 0.0000 0.0000
# 5 0.0000 0.0000 0.0000 0.0000 -0.0034 0.0000
# 6 0.0000 0.0000 0.0000 0.0000 0.0000 9.1999
#
#
#
# Elastic Compliance Matrix: (Units=1/GPa)
#
#
# Indices 1 2 3 4 5 6 
#
# 1 0.035789 -0.004525 -0.007891 0.000000 0.000000 0.000000
# 2 -0.004525 0.019977 -0.006199 0.000000 0.000000 0.000000
# 3 -0.007891 -0.006199 0.009777 0.000000 0.000000 0.000000
# 4 0.000000 0.000000 0.000000 -0.241028 0.000000 0.000000
# 5 0.000000 0.000000 0.000000 0.000000********** 0.000000
# 6 0.000000 0.000000 0.000000 0.000000 0.000000 0.108696
#
#
# Mechanical properties :
#
#
# Convention : Reuss Voigt Hill
#
# Bulk Modulus (GPa) = 35.31831 65.91309 50.61570
# Shear Modulus (GPa) = -0.01684 11.78496 5.88406
#
# Velocity S-wave (km/s) = -0.09563 2.53009 1.78776
# Velocity P-wave (km/s) = 4.37858 6.65865 5.63514
#
# Compressibility (1/GPa) = 0.02831392
#
# Stress axis : x y z
#
# Youngs Moduli (GPa) = 27.94166 50.05853 102.27661
#
# Poissons Ratio (x) = 0.22652 0.80705
# Poissons Ratio (y) = 0.12644 0.63397
# Poissons Ratio (z) = 0.22048 0.31029
#
# Static dielectric constant tensor:
#      x y z
#    x 1.617900 0.000000 0.000000 
#    y 0.000000 1.650670 0.000000 
#    z 0.000000 0.000000 1.623920 
# 
# From -- ./inp_files/33036.got.cif
#   From: 2010.05.17/outbox.cif.g08.bks.cpg/sg47_17_cif.got.tgz:33036.got - 2010.06.03 20:15:42.
