data_PCOD9385325
_publ_section_title
;
Structure prediction by ZEFSAII (Michael W. Deem and Ramdas Pophale) SiO2 
 PCOD9385325
Probable space group: P M M M
;
_chemical_formula_sum "Si O2"
_cell_formula_units_Z 44
_cell_length_a 8.149810
_cell_length_b 31.352244
_cell_length_c 9.181666
_cell_angle_alpha 90.000000
_cell_angle_beta 90.000000
_cell_angle_gamma 90.000000
_cell_volume 2346.051842
_symmetry_space_group_name_H-M "P M M M"
_symmetry_group_IT_number 47
_symmetry_cell_setting 'orthorhombic'
loop_
_space_group_symop_operation_xyz
x,y,z
-x,-y,z
x,-y,-z
-x,y,-z
-x,-y,-z
x,y,-z
-x,y,z
x,-y,z
loop_
_atom_site_type_symbol
_atom_site_label
_atom_site_fract_x
_atom_site_fract_y
_atom_site_fract_z
Si Si1 0.304899 0.862565 0.332970
Si Si2 0.691945 0.392800 0.824313
Si Si3 0.197339 0.953920 0.328001
Si Si4 0.303029 0.694986 0.664974
Si Si5 0.000000 0.548921 0.822770
Si Si6 0.195296 0.221140 0.164108
O O1 0.239519 0.860127 0.500000
O O2 0.500000 0.859659 0.340197
O O3 0.260538 0.909045 0.268982
O O4 0.241999 0.822964 0.241066
O O5 0.500000 0.402702 0.784510
O O6 0.740056 0.347441 0.754550
O O7 0.831930 0.426708 0.779867
O O8 0.695527 0.389361 0.000000
O O9 0.243017 0.953958 0.500000
O O10 0.000000 0.953226 0.320126
O O11 0.253227 0.000000 0.267397
O O12 0.238066 0.693360 0.500000
O O13 0.500000 0.695307 0.657901
O O14 0.251722 0.738150 0.744300
O O15 0.000000 0.500000 0.772706
O O16 0.000000 0.548617 0.000000
O O17 0.000000 0.222928 0.156198
O O18 0.263655 0.222957 0.000000
#
# Coordination Sequence:
#
# PCOD9385325 Si02
#       6
#     8   8   8   8   4   8
#     4  10  20  33  51  76 105 136 171 213 260 311
#     4   9  18  33  54  80 112 149 186 229 279 326
#     4   8  14  26  46  72 101 133 168 207 253 305
#     4  10  21  37  57  81 108 138 175 220 270 324
#     4   9  18  32  53  83 115 147 189 237 276 321
#     4  11  24  38  53  75 103 137 176 217 263 317
#
# _framework density 18.754913999999999
#
# number of rings (size 3 to 8) (size 9 to 14) (size 15 to 20)
#    0.000    2.455    0.000    2.727    1.273    6.545 
#    0.000    3.636    0.000    1.636    0.000    6.364 
#    0.000    0.000    0.000    0.000    0.000    0.000 
#
# Total GULP energy -245295.334381 kJ/mol
# GULP energy per Si atom -5574.893963 kJ/mol
# Density = 1.871223 g / cm^3
# Si number density = 18.754914 Si / 1000 Ang^3
#
#
#
# Elastic Constant Matrix: (Units=GPa)
#
#
# Indices 1 2 3 4 5 6 
#
# 1 43.7074 54.5574 22.8024 0.0000 0.0000 0.0000
# 2 54.5574 193.0541 54.1214 0.0000 0.0000 0.0000
# 3 22.8024 54.1214 52.5448 0.0000 0.0000 0.0000
# 4 0.0000 0.0000 0.0000 25.4978 0.0000 0.0000
# 5 0.0000 0.0000 0.0000 0.0000 15.3605 0.0000
# 6 0.0000 0.0000 0.0000 0.0000 0.0000 55.5378
#
#
#
# Elastic Compliance Matrix: (Units=1/GPa)
#
#
# Indices 1 2 3 4 5 6 
#
# 1 0.037340 -0.008449 -0.007501 0.000000 0.000000 0.000000
# 2 -0.008449 0.009195 -0.005804 0.000000 0.000000 0.000000
# 3 -0.007501 -0.005804 0.028265 0.000000 0.000000 0.000000
# 4 0.000000 0.000000 0.000000 0.039219 0.000000 0.000000
# 5 0.000000 0.000000 0.000000 0.000000 0.065102 0.000000
# 6 0.000000 0.000000 0.000000 0.000000 0.000000 0.018006
#
#
# Mechanical properties :
#
#
# Convention : Reuss Voigt Hill
#
# Bulk Modulus (GPa) = 31.95883 61.36322 46.66103
# Shear Modulus (GPa) = 19.91518 29.80089 24.85804
#
# Velocity S-wave (km/s) = 3.26216 3.99051 3.64457
# Velocity P-wave (km/s) = 5.59162 7.34995 6.53023
#
# Compressibility (1/GPa) = 0.03129025
#
# Stress axis : x y z
#
# Youngs Moduli (GPa) = 26.78123 108.75696 35.37985
#
# Poissons Ratio (x) = 0.91893 0.26539
# Poissons Ratio (y) = 0.22628 0.20534
# Poissons Ratio (z) = 0.20089 0.63123
#
# Static dielectric constant tensor:
#      x y z
#    x 1.659700 0.000000 0.000000 
#    y 0.000000 1.629050 0.000000 
#    z 0.000000 0.000000 1.652080 
# 
# From -- ./inp_files/2187.got.cif
#   From: 2010.05.17/outbox.cif.g08.bks.cpg/sg47_2_cif.got.tgz:2187.got - 2010.06.03 20:15:42.
