data_PCOD9385535
_publ_section_title
;
Structure prediction by ZEFSAII (Michael W. Deem and Ramdas Pophale) SiO2 
 PCOD9385535
Probable space group: P M M M
;
_chemical_formula_sum "Si O2"
_cell_formula_units_Z 52
_cell_length_a 7.430448
_cell_length_b 20.420680
_cell_length_c 15.285938
_cell_angle_alpha 90.000000
_cell_angle_beta 90.000000
_cell_angle_gamma 90.000000
_cell_volume 2319.408758
_symmetry_space_group_name_H-M "P M M M"
_symmetry_group_IT_number 47
_symmetry_cell_setting 'orthorhombic'
loop_
_space_group_symop_operation_xyz
x,y,z
-x,-y,z
x,-y,-z
-x,y,-z
-x,-y,-z
x,y,-z
-x,y,z
x,-y,z
loop_
_atom_site_type_symbol
_atom_site_label
_atom_site_fract_x
_atom_site_fract_y
_atom_site_fract_z
Si Si1 0.215609 0.421025 0.093663
Si Si2 0.217278 0.574950 0.716744
Si Si3 0.710540 0.196777 0.723880
Si Si4 0.721273 0.143556 0.900356
Si Si5 0.287598 0.306381 0.402818
Si Si6 0.217267 0.074725 0.399344
Si Si7 0.297280 0.000000 0.105908
O O1 0.242191 0.500000 0.094531
O O2 0.282393 0.398396 0.188391
O O3 0.000000 0.410639 0.092381
O O4 0.286752 0.396221 0.000000
O O5 0.278316 0.500000 0.705518
O O6 0.269577 0.622404 0.639140
O O7 0.000000 0.573327 0.720617
O O8 0.500000 0.211611 0.735876
O O9 0.783112 0.189605 0.822031
O O10 0.791413 0.253441 0.663994
O O11 0.722562 0.129001 0.669671
O O12 0.500000 0.141106 0.901325
O O13 0.784611 0.070207 0.874164
O O14 0.775969 0.158620 0.000000
O O15 0.211091 0.302317 0.500000
O O16 0.500000 0.291951 0.409678
O O17 0.273862 0.089810 0.500000
O O18 0.000000 0.075078 0.398952
O O19 0.274785 0.000000 0.378843
O O20 0.500000 0.000000 0.142572
O O21 0.309990 0.000000 0.000000
#
# Coordination Sequence:
#
# PCOD9385535 Si02
#       7
#     8   8   8   8   8   8   4
#     4   7  10  20  42  72 103 129 151 184 236 291
#     4   9  18  33  55  82 104 124 164 217 253 290
#     4  10  20  33  53  77 100 130 172 215 248 289
#     4   8  14  25  43  70 103 133 162 202 250 296
#     4  10  22  38  51  68 101 139 169 204 260 320
#     4   9  19  35  52  72 101 134 166 205 257 309
#     4   7  10  18  34  60  94 125 152 188 235 283
#
# _framework density 22.419506999999999
#
# number of rings (size 3 to 8) (size 9 to 14) (size 15 to 20)
#    0.000    3.308    0.000    3.231    1.077    2.769 
#    0.000    3.077    0.000    1.846    0.000    3.231 
#    0.000    0.000    0.000    0.000    0.000    0.000 
#
# Total GULP energy -289969.235308 kJ/mol
# GULP energy per Si atom -5576.331448 kJ/mol
# Density = 2.236848 g / cm^3
# Si number density = 22.419507 Si / 1000 Ang^3
#
#
#
# Elastic Constant Matrix: (Units=GPa)
#
#
# Indices 1 2 3 4 5 6 
#
# 1 71.8590 -3.5143 6.3364 0.0000 0.0000 0.0000
# 2 -3.5143 73.5820 83.3569 0.0000 0.0000 0.0000
# 3 6.3364 83.3569 193.4608 0.0000 0.0000 0.0000
# 4 0.0000 0.0000 0.0000 26.1490 0.0000 0.0000
# 5 0.0000 0.0000 0.0000 0.0000 -4.5403 0.0000
# 6 0.0000 0.0000 0.0000 0.0000 0.0000 12.2528
#
#
#
# Elastic Compliance Matrix: (Units=1/GPa)
#
#
# Indices 1 2 3 4 5 6 
#
# 1 0.014161 0.002348 -0.001475 0.000000 0.000000 0.000000
# 2 0.002348 0.026939 -0.011684 0.000000 0.000000 0.000000
# 3 -0.001475 -0.011684 0.010252 0.000000 0.000000 0.000000
# 4 0.000000 0.000000 0.000000 0.038242 0.000000 0.000000
# 5 0.000000 0.000000 0.000000 0.000000 -0.220251 0.000000
# 6 0.000000 0.000000 0.000000 0.000000 0.000000 0.081614
#
#
# Mechanical properties :
#
#
# Convention : Reuss Voigt Hill
#
# Bulk Modulus (GPa) = 33.63836 56.80665 45.22251
# Shear Modulus (GPa) = -285.54209 23.62049 -130.96080
#
# Velocity S-wave (km/s) = -11.29778 3.24939 -7.65118
# Velocity P-wave (km/s) = 12.45591 6.28261 7.60521
#
# Compressibility (1/GPa) = 0.02972796
#
# Stress axis : x y z
#
# Youngs Moduli (GPa) = 70.61618 37.12158 97.54554
#
# Poissons Ratio (x) = -0.08715 0.14392
# Poissons Ratio (y) = -0.16579 1.13972
# Poissons Ratio (z) = 0.10419 0.43373
#
# Static dielectric constant tensor:
#      x y z
#    x 1.919370 0.000000 0.000000 
#    y 0.000000 1.818720 0.000000 
#    z 0.000000 0.000000 1.851920 
# 
# From -- ./inp_files/21395.got.cif
#   From: 2010.05.17/outbox.cif.g08.bks.cpg/sg47_11_cif.got.tgz:21395.got - 2010.06.03 20:15:42.
