data_PCOD9385312
_publ_section_title
;
Structure prediction by ZEFSAII (Michael W. Deem and Ramdas Pophale) SiO2 
 PCOD9385312
Probable space group: P M M M
;
_chemical_formula_sum "Si O2"
_cell_formula_units_Z 52
_cell_length_a 7.470583
_cell_length_b 9.563288
_cell_length_c 34.377241
_cell_angle_alpha 90.000000
_cell_angle_beta 90.000000
_cell_angle_gamma 90.000000
_cell_volume 2456.024806
_symmetry_space_group_name_H-M "P M M M"
_symmetry_group_IT_number 47
_symmetry_cell_setting 'orthorhombic'
loop_
_space_group_symop_operation_xyz
x,y,z
-x,-y,z
x,-y,-z
-x,y,-z
-x,-y,-z
x,y,-z
-x,y,z
x,-y,z
loop_
_atom_site_type_symbol
_atom_site_label
_atom_site_fract_x
_atom_site_fract_y
_atom_site_fract_z
Si Si1 0.285832 0.340863 0.236251
Si Si2 0.719474 0.160378 0.690761
Si Si3 0.288100 0.657131 0.618154
Si Si4 0.784473 0.841380 0.456168
Si Si5 0.213967 0.659432 0.851878
Si Si6 0.218983 0.839057 0.924771
Si Si7 0.781526 0.338572 0.000000
O O1 0.500000 0.348035 0.240369
O O2 0.216425 0.500000 0.240478
O O3 0.221318 0.239150 0.270098
O O4 0.248931 0.293671 0.192242
O O5 0.500000 0.159167 0.690625
O O6 0.781559 0.246493 0.653075
O O7 0.777362 0.000000 0.689392
O O8 0.500000 0.645695 0.625195
O O9 0.213903 0.500000 0.618079
O O10 0.266605 0.733550 0.577020
O O11 0.723430 0.805930 0.500000
O O12 0.000000 0.844818 0.457095
O O13 0.723111 0.000000 0.447061
O O14 0.283488 0.500000 0.856122
O O15 0.279364 0.763411 0.885186
O O16 0.000000 0.651775 0.856493
O O17 0.000000 0.840740 0.924766
O O18 0.276804 0.000000 0.927575
O O19 0.274011 0.746051 0.961650
O O20 0.722941 0.500000 0.000000
O O21 0.000000 0.340785 0.000000
#
# Coordination Sequence:
#
# PCOD9385312 Si02
#       7
#     8   8   8   8   8   8   4
#     4   9  17  30  48  68  90 118 153 191 229 272
#     4   9  17  30  49  71  94 122 157 196 237 280
#     4  10  20  33  51  76 103 129 160 200 243 286
#     4   9  19  36  55  74  99 132 167 201 239 285
#     4   9  17  29  44  63  89 119 148 180 222 270
#     4   9  16  25  38  58  85 115 146 182 223 265
#     4   9  15  23  37  57  82 113 148 183 220 266
#
# _framework density 21.172423999999999
#
# number of rings (size 3 to 8) (size 9 to 14) (size 15 to 20)
#    0.000    2.846    0.000    2.077    0.000    7.077 
#    0.000    3.077    0.000    2.769    0.000    0.538 
#    0.000    4.308    0.000    0.000    0.000    0.000 
#
# Total GULP energy -290356.143504 kJ/mol
# GULP energy per Si atom -5583.771990 kJ/mol
# Density = 2.112423 g / cm^3
# Si number density = 21.172424 Si / 1000 Ang^3
#
#
#
# Elastic Constant Matrix: (Units=GPa)
#
#
# Indices 1 2 3 4 5 6 
#
# 1 59.6307 6.4954 -1.1643 0.0000 0.0000 0.0000
# 2 6.4954 205.6371 161.2081 0.0000 0.0000 0.0000
# 3 -1.1643 161.2081 209.8292 0.0000 0.0000 0.0000
# 4 0.0000 0.0000 0.0000 36.9242 0.0000 0.0000
# 5 0.0000 0.0000 0.0000 0.0000 17.2404 0.0000
# 6 0.0000 0.0000 0.0000 0.0000 0.0000 1.7742
#
#
#
# Elastic Compliance Matrix: (Units=1/GPa)
#
#
# Indices 1 2 3 4 5 6 
#
# 1 0.016962 -0.001533 0.001272 0.000000 0.000000 0.000000
# 2 -0.001533 0.012366 -0.009509 0.000000 0.000000 0.000000
# 3 0.001272 -0.009509 0.012078 0.000000 0.000000 0.000000
# 4 0.000000 0.000000 0.000000 0.027082 0.000000 0.000000
# 5 0.000000 0.000000 0.000000 0.000000 0.058003 0.000000
# 6 0.000000 0.000000 0.000000 0.000000 0.000000 0.563634
#
#
# Mechanical properties :
#
#
# Convention : Reuss Voigt Hill
#
# Bulk Modulus (GPa) = 45.73326 89.79729 67.76527
# Shear Modulus (GPa) = 6.97394 31.75828 19.36611
#
# Velocity S-wave (km/s) = 1.81687 3.87716 3.02766
# Velocity P-wave (km/s) = 5.10379 7.90871 6.65569
#
# Compressibility (1/GPa) = 0.02186593
#
# Stress axis : x y z
#
# Youngs Moduli (GPa) = 58.95652 80.86779 82.79228
#
# Poissons Ratio (x) = 0.12394 -0.10528
# Poissons Ratio (y) = 0.09036 0.78727
# Poissons Ratio (z) = -0.07497 0.76897
#
# Static dielectric constant tensor:
#      x y z
#    x 1.830160 0.000000 0.000000 
#    y 0.000000 1.730990 0.000000 
#    z 0.000000 0.000000 1.723150 
# 
# From -- ./inp_files/33247.got.cif
#   From: 2010.05.17/outbox.cif.g08.bks.cpg/sg47_17_cif.got.tgz:33247.got - 2010.06.03 20:15:42.
