data_PCOD9385413
_publ_section_title
;
Structure prediction by ZEFSAII (Michael W. Deem and Ramdas Pophale) SiO2 
 PCOD9385413
Probable space group: P M M M
;
_chemical_formula_sum "Si O2"
_cell_formula_units_Z 49
_cell_length_a 35.254199
_cell_length_b 8.701656
_cell_length_c 7.614056
_cell_angle_alpha 90.000000
_cell_angle_beta 90.000000
_cell_angle_gamma 90.000000
_cell_volume 2335.763291
_symmetry_space_group_name_H-M "P M M M"
_symmetry_group_IT_number 47
_symmetry_cell_setting 'orthorhombic'
loop_
_space_group_symop_operation_xyz
x,y,z
-x,-y,z
x,-y,-z
-x,y,-z
-x,-y,-z
x,y,-z
-x,y,z
x,-y,z
loop_
_atom_site_type_symbol
_atom_site_label
_atom_site_fract_x
_atom_site_fract_y
_atom_site_fract_z
Si Si1 0.842993 0.675363 0.284894
Si Si2 0.000000 0.671173 0.208950
Si Si3 0.610008 0.819595 0.210040
Si Si4 0.687484 0.671073 0.789630
Si Si5 0.920440 0.171783 0.710040
Si Si6 0.500000 0.000000 0.500000
Si Si7 0.765820 0.829650 0.289615
Si Si8 0.557395 0.312772 0.500000
O O1 0.843195 0.679783 0.500000
O O2 0.838539 0.500000 0.231922
O O3 0.883601 0.738086 0.223889
O O4 0.806221 0.768469 0.224065
O O5 0.961148 0.753569 0.259240
O O6 0.000000 0.500000 0.284480
O O7 0.000000 0.662462 0.000000
O O8 0.653372 0.782620 0.264379
O O9 0.582685 0.713495 0.325849
O O10 0.602180 0.000000 0.239206
O O11 0.605740 0.790730 0.000000
O O12 0.680547 0.500000 0.720025
O O13 0.729594 0.725171 0.745456
O O14 0.685631 0.665711 0.000000
O O15 0.915925 0.163750 0.500000
O O16 0.920345 0.000000 0.781899
O O17 0.532003 0.149005 0.500000
O O18 0.769478 0.837579 0.500000
O O19 0.758185 0.000000 0.220617
O O20 0.544706 0.500000 0.500000
#
# Coordination Sequence:
#
# PCOD9385413 Si02
#       8
#     8   4   8   8   8   1   8   4
#     4   9  17  31  52  77 106 140 179 225 276 333
#     4  11  24  39  54  76 106 135 168 215 270 326
#     4  10  21  41  68  98 136 180 228 283 340 403
#     4  10  21  36  55  83 119 159 207 259 309 366
#     4  10  20  35  57  82 105 133 172 218 269 331
#     4  12  26  52  70 110 148 178 238 292 334 422
#     4  10  20  33  51  78 112 151 192 238 291 350
#     4  12  25  45  75 104 141 187 228 283 349 407
#
# _framework density 20.978152000000001
#
# number of rings (size 3 to 8) (size 9 to 14) (size 15 to 20)
#    0.000    1.878    0.816    3.061    1.143    7.510 
#    0.000    1.633    0.000    5.878    0.000    0.000 
#    0.000    0.000    0.000    0.000    0.000    0.000 
#
# Total GULP energy -273031.775239 kJ/mol
# GULP energy per Si atom -5572.077046 kJ/mol
# Density = 2.093040 g / cm^3
# Si number density = 20.978152 Si / 1000 Ang^3
#
#
#
# Elastic Constant Matrix: (Units=GPa)
#
#
# Indices 1 2 3 4 5 6 
#
# 1 119.9485 36.1496 17.5780 0.0000 0.0000 0.0000
# 2 36.1496 117.1820 20.4204 0.0000 0.0000 0.0000
# 3 17.5780 20.4204 54.0673 0.0000 0.0000 0.0000
# 4 0.0000 0.0000 0.0000 5.3391 0.0000 0.0000
# 5 0.0000 0.0000 0.0000 0.0000 -40.3704 0.0000
# 6 0.0000 0.0000 0.0000 0.0000 0.0000 20.2245
#
#
#
# Elastic Compliance Matrix: (Units=1/GPa)
#
#
# Indices 1 2 3 4 5 6 
#
# 1 0.009409 -0.002537 -0.002101 0.000000 0.000000 0.000000
# 2 -0.002537 0.009819 -0.002884 0.000000 0.000000 0.000000
# 3 -0.002101 -0.002884 0.020268 0.000000 0.000000 0.000000
# 4 0.000000 0.000000 0.000000 0.187299 0.000000 0.000000
# 5 0.000000 0.000000 0.000000 0.000000 -0.024771 0.000000
# 6 0.000000 0.000000 0.000000 0.000000 0.000000 0.049445
#
#
# Mechanical properties :
#
#
# Convention : Reuss Voigt Hill
#
# Bulk Modulus (GPa) = 40.89468 48.83263 44.86366
# Shear Modulus (GPa) = 18.20414 11.50863 14.85638
#
# Velocity S-wave (km/s) = 2.94898 2.34476 2.66406
# Velocity P-wave (km/s) = 5.57957 5.53705 5.55835
#
# Compressibility (1/GPa) = 0.02445306
#
# Stress axis : x y z
#
# Youngs Moduli (GPa) = 106.27820 101.84583 49.33960
#
# Poissons Ratio (x) = 0.25834 0.10367
# Poissons Ratio (y) = 0.26958 0.14228
# Poissons Ratio (z) = 0.22330 0.29370
#
# Static dielectric constant tensor:
#      x y z
#    x 1.956090 0.000000 0.000000 
#    y 0.000000 1.784270 0.000000 
#    z 0.000000 0.000000 1.747350 
# 
# From -- ./inp_files/14050.got.cif
#   From: 2010.05.17/outbox.cif.g08.bks.cpg/sg47_8_cif.got.tgz:14050.got - 2010.06.03 20:15:42.
