data_PCOD9385902
_publ_section_title
;
Structure prediction by ZEFSAII (Michael W. Deem and Ramdas Pophale) SiO2 
 PCOD9385902
Probable space group: P M M M
;
_chemical_formula_sum "Si O2"
_cell_formula_units_Z 48
_cell_length_a 9.377380
_cell_length_b 7.625621
_cell_length_c 34.019459
_cell_angle_alpha 90.000000
_cell_angle_beta 90.000000
_cell_angle_gamma 90.000000
_cell_volume 2432.675240
_symmetry_space_group_name_H-M "P M M M"
_symmetry_group_IT_number 47
_symmetry_cell_setting 'orthorhombic'
loop_
_space_group_symop_operation_xyz
x,y,z
-x,-y,z
x,-y,-z
-x,y,-z
-x,-y,-z
x,y,-z
-x,y,z
x,-y,z
loop_
_atom_site_type_symbol
_atom_site_label
_atom_site_fract_x
_atom_site_fract_y
_atom_site_fract_z
Si Si1 0.835436 0.785163 0.500000
Si Si2 0.828993 0.205604 0.105924
Si Si3 0.337691 0.210602 0.576519
Si Si4 0.337116 0.789366 0.183414
Si Si5 0.826461 0.500000 0.955199
Si Si6 0.337265 0.709630 0.270738
Si Si7 0.838515 0.710956 0.345208
O O1 0.752009 0.726406 0.538958
O O2 0.000000 0.729145 0.500000
O O3 0.835944 0.000000 0.500000
O O4 0.755522 0.267498 0.146283
O O5 0.784584 0.328889 0.069846
O O6 0.000000 0.218457 0.110243
O O7 0.794464 0.000000 0.099276
O O8 0.500000 0.277859 0.576988
O O9 0.255626 0.249883 0.616679
O O10 0.345342 0.000000 0.572947
O O11 0.500000 0.722824 0.180590
O O12 0.281815 0.742949 0.226750
O O13 0.341495 0.000000 0.181700
O O14 0.000000 0.500000 0.956608
O O15 0.774766 0.500000 0.000000
O O16 0.500000 0.779078 0.273146
O O17 0.345744 0.500000 0.275434
O O18 0.239183 0.777896 0.305843
O O19 0.846569 0.500000 0.341992
O O20 0.000000 0.777847 0.349318
#
# Coordination Sequence:
#
# PCOD9385902 Si02
#       7
#     4   8   8   8   4   8   8
#     4   9  17  31  52  77 104 131 162 206 258 309
#     4   9  18  32  50  74 103 134 170 215 265 313
#     4  10  20  34  54  78 102 131 168 209 254 306
#     4   9  18  32  50  73 101 133 168 208 255 304
#     4   9  18  32  51  77 105 135 175 219 263 314
#     4   9  18  32  49  69  95 130 169 206 247 298
#     4  10  21  36  52  73 103 137 171 209 256 306
#
# _framework density 19.731362000000001
#
# number of rings (size 3 to 8) (size 9 to 14) (size 15 to 20)
#    0.000    2.667    0.000    1.250    1.167    4.667 
#    0.000    3.750    0.000    3.500    0.000    2.333 
#    0.000    0.000    0.000    0.000    0.000    0.000 
#
# Total GULP energy -267855.846616 kJ/mol
# GULP energy per Si atom -5580.330138 kJ/mol
# Density = 1.968645 g / cm^3
# Si number density = 19.731362 Si / 1000 Ang^3
#
#
#
# Elastic Constant Matrix: (Units=GPa)
#
#
# Indices 1 2 3 4 5 6 
#
# 1 112.8688 24.4952 100.4990 0.0000 0.0000 0.0000
# 2 24.4952 51.7649 35.4054 0.0000 0.0000 0.0000
# 3 100.4990 35.4054 225.9300 0.0000 0.0000 0.0000
# 4 0.0000 0.0000 0.0000 27.7051 0.0000 0.0000
# 5 0.0000 0.0000 0.0000 0.0000 36.5273 0.0000
# 6 0.0000 0.0000 0.0000 0.0000 0.0000 12.6789
#
#
#
# Elastic Compliance Matrix: (Units=1/GPa)
#
#
# Indices 1 2 3 4 5 6 
#
# 1 0.015035 -0.002845 -0.006242 0.000000 0.000000 0.000000
# 2 -0.002845 0.022176 -0.002209 0.000000 0.000000 0.000000
# 3 -0.006242 -0.002209 0.007549 0.000000 0.000000 0.000000
# 4 0.000000 0.000000 0.000000 0.036094 0.000000 0.000000
# 5 0.000000 0.000000 0.000000 0.000000 0.027377 0.000000
# 6 0.000000 0.000000 0.000000 0.000000 0.000000 0.078871
#
#
# Mechanical properties :
#
#
# Convention : Reuss Voigt Hill
#
# Bulk Modulus (GPa) = 45.11370 79.04033 62.07701
# Shear Modulus (GPa) = 23.03242 30.72655 26.87949
#
# Velocity S-wave (km/s) = 3.42028 3.95047 3.69490
# Velocity P-wave (km/s) = 6.20575 7.80727 7.05212
#
# Compressibility (1/GPa) = 0.02216622
#
# Stress axis : x y z
#
# Youngs Moduli (GPa) = 66.50935 45.09431 132.46618
#
# Poissons Ratio (x) = 0.12831 0.82689
# Poissons Ratio (y) = 0.18924 0.29268
# Poissons Ratio (z) = 0.41517 0.09964
#
# Static dielectric constant tensor:
#      x y z
#    x 1.688660 0.000000 0.000000 
#    y 0.000000 1.734150 0.000000 
#    z 0.000000 0.000000 1.661700 
# 
# From -- ./inp_files/34149.got.cif
#   From: 2010.05.17/outbox.cif.g08.bks.cpg/sg47_18_cif.got.tgz:34149.got - 2010.06.03 20:15:42.
