data_PCOD9385760
_publ_section_title
;
Structure prediction by ZEFSAII (Michael W. Deem and Ramdas Pophale) SiO2 
 PCOD9385760
Probable space group: P M M M
;
_chemical_formula_sum "Si O2"
_cell_formula_units_Z 44
_cell_length_a 29.785307
_cell_length_b 7.647722
_cell_length_c 9.308918
_cell_angle_alpha 90.000000
_cell_angle_beta 90.000000
_cell_angle_gamma 90.000000
_cell_volume 2120.476082
_symmetry_space_group_name_H-M "P M M M"
_symmetry_group_IT_number 47
_symmetry_cell_setting 'orthorhombic'
loop_
_space_group_symop_operation_xyz
x,y,z
-x,-y,z
x,-y,-z
-x,y,-z
-x,-y,-z
x,y,-z
-x,y,z
x,-y,z
loop_
_atom_site_type_symbol
_atom_site_label
_atom_site_fract_x
_atom_site_fract_y
_atom_site_fract_z
Si Si1 0.000000 0.208090 0.662901
Si Si2 0.353932 0.786101 0.332770
Si Si3 0.910193 0.292836 0.162401
Si Si4 0.821412 0.207677 0.338370
Si Si5 0.265280 0.214358 0.834922
Si Si6 0.451737 0.790461 0.326762
O O1 0.955571 0.257470 0.750267
O O2 0.000000 0.280276 0.500000
O O3 0.000000 0.000000 0.651863
O O4 0.348583 0.735289 0.500000
O O5 0.311476 0.729819 0.240253
O O6 0.402964 0.725680 0.277597
O O7 0.354726 0.000000 0.331216
O O8 0.905775 0.500000 0.151278
O O9 0.866862 0.230309 0.249183
O O10 0.912185 0.219920 0.000000
O O11 0.825453 0.279290 0.500000
O O12 0.778110 0.276205 0.253392
O O13 0.814262 0.000000 0.350908
O O14 0.265092 0.000000 0.833874
O O15 0.262787 0.269372 0.000000
O O16 0.451280 0.767463 0.500000
O O17 0.500000 0.720678 0.273934
O O18 0.452317 0.000000 0.301478
#
# Coordination Sequence:
#
# PCOD9385760 Si02
#       6
#     4   8   8   8   8   8
#     4  11  24  41  62  88 114 141 176 213 246 282
#     4   8  12  18  29  45  66  94 132 180 230 279
#     4  11  24  40  58  82 111 141 172 205 245 294
#     4  10  20  34  53  76 100 128 166 209 250 294
#     4   9  16  25  38  57  82 112 146 188 239 290
#     4   7   9  13  22  37  57  84 123 172 223 273
#
# _framework density 20.750057999999999
#
# number of rings (size 3 to 8) (size 9 to 14) (size 15 to 20)
#    0.000    2.818    0.000    4.364    0.000    8.727 
#    0.000    0.000    0.000    0.545    0.000    3.818 
#    0.000    0.000    0.000    0.000    0.000    0.909 
#
# Total GULP energy -245429.324366 kJ/mol
# GULP energy per Si atom -5577.939190 kJ/mol
# Density = 2.070283 g / cm^3
# Si number density = 20.750058 Si / 1000 Ang^3
#
#
#
# Elastic Constant Matrix: (Units=GPa)
#
#
# Indices 1 2 3 4 5 6 
#
# 1 246.2399 -2.3081 121.4797 0.0000 0.0000 0.0000
# 2 -2.3081 37.3620 5.5435 0.0000 0.0000 0.0000
# 3 121.4797 5.5435 165.6584 0.0000 0.0000 0.0000
# 4 0.0000 0.0000 0.0000 19.0262 0.0000 0.0000
# 5 0.0000 0.0000 0.0000 0.0000 -34.9069 0.0000
# 6 0.0000 0.0000 0.0000 0.0000 0.0000 -54.9158
#
#
#
# Elastic Compliance Matrix: (Units=1/GPa)
#
#
# Indices 1 2 3 4 5 6 
#
# 1 0.006408 0.001098 -0.004736 0.000000 0.000000 0.000000
# 2 0.001098 0.027087 -0.001712 0.000000 0.000000 0.000000
# 3 -0.004736 -0.001712 0.009566 0.000000 0.000000 0.000000
# 4 0.000000 0.000000 0.000000 0.052559 0.000000 0.000000
# 5 0.000000 0.000000 0.000000 0.000000 -0.028648 0.000000
# 6 0.000000 0.000000 0.000000 0.000000 0.000000 -0.018210
#
#
# Mechanical properties :
#
#
# Convention : Reuss Voigt Hill
#
# Bulk Modulus (GPa) = 30.89948 77.63230 54.26589
# Shear Modulus (GPa) = 71.17584 7.47705 39.32644
#
# Velocity S-wave (km/s) = 5.86310 1.90032 4.35816
# Velocity P-wave (km/s) = 7.79476 6.50455 7.17870
#
# Compressibility (1/GPa) = 0.03236301
#
# Stress axis : x y z
#
# Youngs Moduli (GPa) = 156.06454 36.91805 104.53196
#
# Poissons Ratio (x) = -0.04055 0.49502
# Poissons Ratio (y) = -0.17143 0.17895
# Poissons Ratio (z) = 0.73905 0.06320
#
# Static dielectric constant tensor:
#      x y z
#    x 1.702120 0.000000 0.000000 
#    y 0.000000 1.785760 0.000000 
#    z 0.000000 0.000000 1.731180 
# 
# From -- ./inp_files/13658.got.cif
#   From: 2010.05.17/outbox.cif.g08.bks.cpg/sg47_7_cif.got.tgz:13658.got - 2010.06.03 20:15:42.
