data_PCOD9385279
_publ_section_title
;
Structure prediction by ZEFSAII (Michael W. Deem and Ramdas Pophale) SiO2 
 PCOD9385279
Probable space group: P M M M
;
_chemical_formula_sum "Si O2"
_cell_formula_units_Z 64
_cell_length_a 9.249961
_cell_length_b 14.665636
_cell_length_c 32.104599
_cell_angle_alpha 90.000000
_cell_angle_beta 90.000000
_cell_angle_gamma 90.000000
_cell_volume 4355.199494
_symmetry_space_group_name_H-M "P M M M"
_symmetry_group_IT_number 47
_symmetry_cell_setting 'orthorhombic'
loop_
_space_group_symop_operation_xyz
x,y,z
-x,-y,z
x,-y,-z
-x,y,-z
-x,-y,-z
x,y,-z
-x,y,z
x,-y,z
loop_
_atom_site_type_symbol
_atom_site_label
_atom_site_fract_x
_atom_site_fract_y
_atom_site_fract_z
Si Si1 0.674781 0.600232 0.422555
Si Si2 0.674596 0.892055 0.220852
Si Si3 0.830441 0.889368 0.954437
Si Si4 0.826770 0.780573 0.293734
Si Si5 0.172725 0.106166 0.622839
Si Si6 0.674670 0.204347 0.546717
Si Si7 0.672407 0.395174 0.675985
Si Si8 0.666955 0.110854 0.872489
O O1 0.500000 0.597490 0.426052
O O2 0.728408 0.500000 0.436037
O O3 0.722084 0.690262 0.446659
O O4 0.707040 0.612111 0.373439
O O5 0.500000 0.882434 0.223710
O O6 0.754151 0.833085 0.255404
O O7 0.718891 0.863867 0.173799
O O8 0.706655 0.000000 0.226266
O O9 0.752436 0.855889 0.912877
O O10 0.000000 0.867668 0.952375
O O11 0.819106 0.000000 0.954192
O O12 0.774150 0.859154 0.000000
O O13 0.790307 0.835682 0.336162
O O14 0.761788 0.679859 0.299348
O O15 0.000000 0.778730 0.289482
O O16 0.254519 0.144998 0.582809
O O17 0.000000 0.113911 0.616431
O O18 0.207546 0.000000 0.629563
O O19 0.712205 0.174303 0.500000
O O20 0.500000 0.201422 0.550784
O O21 0.500000 0.378746 0.680241
O O22 0.701015 0.500000 0.688246
O O23 0.500000 0.137811 0.876317
O O24 0.670987 0.000000 0.872847
#
# Coordination Sequence:
#
# PCOD9385279 Si02
#       8
#     8   8   8   8   8   8   8   8
#     4   8  14  27  48  72  95 115 134 160 198 245
#     4   9  18  31  45  62  86 117 151 187 228 270
#     4   8  13  20  30  46  69  99 137 180 224 266
#     4  11  21  32  49  71  92 113 142 182 220 259
#     4  10  22  38  51  64  86 117 148 176 210 253
#     4  10  20  33  51  74  94 111 138 176 211 246
#     4   9  17  31  52  73  92 116 143 169 203 254
#     4   8  14  24  36  51  73 102 139 182 224 264
#
# _framework density 14.695079
#
# number of rings (size 3 to 8) (size 9 to 14) (size 15 to 20)
#    0.000    2.875    1.250    2.625    0.000    3.250 
#    0.000    5.000    0.000    0.375    0.000    0.875 
#    0.000    0.000    0.000    0.000    0.000    0.625 
#
# Total GULP energy -356399.504858 kJ/mol
# GULP energy per Si atom -5568.742263 kJ/mol
# Density = 1.466163 g / cm^3
# Si number density = 14.695079 Si / 1000 Ang^3
#
#
#
# Elastic Constant Matrix: (Units=GPa)
#
#
# Indices 1 2 3 4 5 6 
#
# 1 30.5948 29.1384 52.3033 0.0000 0.0000 0.0000
# 2 29.1384 61.2486 46.6414 0.0000 0.0000 0.0000
# 3 52.3033 46.6414 130.2619 0.0000 0.0000 0.0000
# 4 0.0000 0.0000 0.0000 1.9592 0.0000 0.0000
# 5 0.0000 0.0000 0.0000 0.0000 23.9386 0.0000
# 6 0.0000 0.0000 0.0000 0.0000 0.0000 15.0712
#
#
#
# Elastic Compliance Matrix: (Units=1/GPa)
#
#
# Indices 1 2 3 4 5 6 
#
# 1 0.139650 -0.032636 -0.044387 0.000000 0.000000 0.000000
# 2 -0.032636 0.030074 0.002336 0.000000 0.000000 0.000000
# 3 -0.044387 0.002336 0.024663 0.000000 0.000000 0.000000
# 4 0.000000 0.000000 0.000000 0.510415 0.000000 0.000000
# 5 0.000000 0.000000 0.000000 0.000000 0.041773 0.000000
# 6 0.000000 0.000000 0.000000 0.000000 0.000000 0.066352
#
#
# Mechanical properties :
#
#
# Convention : Reuss Voigt Hill
#
# Bulk Modulus (GPa) = 22.21597 53.14127 37.67862
# Shear Modulus (GPa) = 5.11610 14.46195 9.78903
#
# Velocity S-wave (km/s) = 1.86790 3.14050 2.58378
# Velocity P-wave (km/s) = 4.45004 7.02790 5.88193
#
# Compressibility (1/GPa) = 0.04501266
#
# Stress axis : x y z
#
# Youngs Moduli (GPa) = 7.16076 33.25080 40.54636
#
# Poissons Ratio (x) = 1.08517 1.79974
# Poissons Ratio (y) = 0.23370 -0.09470
# Poissons Ratio (z) = 0.31785 -0.07766
#
# Static dielectric constant tensor:
#      x y z
#    x 1.487740 0.000000 0.000000 
#    y 0.000000 1.476670 0.000000 
#    z 0.000000 0.000000 1.493000 
# 
# From -- ./inp_files/14255.got.cif
#   From: 2010.05.17/outbox.cif.g08.bks.cpg/sg47_8_cif.got.tgz:14255.got - 2010.06.03 20:15:42.
