data_PCOD9385635
_publ_section_title
;
Structure prediction by ZEFSAII (Michael W. Deem and Ramdas Pophale) SiO2 
 PCOD9385635
Probable space group: P M M M
;
_chemical_formula_sum "Si O2"
_cell_formula_units_Z 56
_cell_length_a 14.696800
_cell_length_b 8.741335
_cell_length_c 26.449574
_cell_angle_alpha 90.000000
_cell_angle_beta 90.000000
_cell_angle_gamma 90.000000
_cell_volume 3397.967573
_symmetry_space_group_name_H-M "P M M M"
_symmetry_group_IT_number 47
_symmetry_cell_setting 'orthorhombic'
loop_
_space_group_symop_operation_xyz
x,y,z
-x,-y,z
x,-y,-z
-x,y,-z
-x,-y,-z
x,y,-z
-x,y,z
x,-y,z
loop_
_atom_site_type_symbol
_atom_site_label
_atom_site_fract_x
_atom_site_fract_y
_atom_site_fract_z
Si Si1 0.604907 0.686224 0.556816
Si Si2 0.718215 0.817037 0.850170
Si Si3 0.103500 0.317230 0.807303
Si Si4 0.103570 0.182982 0.305210
Si Si5 0.393675 0.815302 0.250413
Si Si6 0.716080 0.683744 0.654343
Si Si7 0.605767 0.684260 0.942003
O O1 0.630882 0.735402 0.500000
O O2 0.500000 0.732354 0.565964
O O3 0.605806 0.500000 0.556866
O O4 0.669300 0.736697 0.602224
O O5 0.818043 0.747044 0.842872
O O6 0.657679 0.770411 0.801267
O O7 0.669447 0.759951 0.900614
O O8 0.723993 0.000000 0.850054
O O9 0.111504 0.500000 0.803097
O O10 0.116780 0.244649 0.751780
O O11 0.000000 0.280549 0.823471
O O12 0.182014 0.254773 0.339151
O O13 0.000000 0.222217 0.320412
O O14 0.112586 0.000000 0.304490
O O15 0.500000 0.771669 0.248991
O O16 0.342828 0.743625 0.298318
O O17 0.388619 0.000000 0.254390
O O18 0.716628 0.500000 0.655497
O O19 0.500000 0.725806 0.932739
O O20 0.612227 0.500000 0.938329
O O21 0.627795 0.726744 0.000000
#
# Coordination Sequence:
#
# PCOD9385635 Si02
#       7
#     8   8   8   8   8   8   8
#     4   8  15  29  48  71 100 132 167 208 252 299
#     4  11  21  33  52  77 106 140 173 206 253 308
#     4  10  20  34  53  77 103 132 170 213 254 300
#     4  10  20  34  51  71  99 135 170 204 250 307
#     4  10  21  34  46  67 104 143 170 198 245 303
#     4  11  20  30  50  77 101 129 168 211 257 305
#     4   9  19  36  56  77 103 138 179 220 259 298
#
# _framework density 16.480440000000002
#
# number of rings (size 3 to 8) (size 9 to 14) (size 15 to 20)
#    0.000    2.143    1.429    3.429    0.000    4.286 
#    0.000    0.714    0.000    2.571    0.000   11.000 
#    0.000    0.000    0.000    0.000    0.000    0.000 
#
# Total GULP energy -312511.690917 kJ/mol
# GULP energy per Si atom -5580.565909 kJ/mol
# Density = 1.644293 g / cm^3
# Si number density = 16.480440 Si / 1000 Ang^3
#
#
#
# Elastic Constant Matrix: (Units=GPa)
#
#
# Indices 1 2 3 4 5 6 
#
# 1 144.0277 42.7651 93.3286 0.0000 0.0000 0.0000
# 2 42.7651 30.6396 35.4441 0.0000 0.0000 0.0000
# 3 93.3286 35.4441 126.0761 0.0000 0.0000 0.0000
# 4 0.0000 0.0000 0.0000 -74.8531 0.0000 0.0000
# 5 0.0000 0.0000 0.0000 0.0000 22.6656 0.0000
# 6 0.0000 0.0000 0.0000 0.0000 0.0000 26.6909
#
#
#
# Elastic Compliance Matrix: (Units=1/GPa)
#
#
# Indices 1 2 3 4 5 6 
#
# 1 0.016200 -0.012950 -0.008351 0.000000 0.000000 0.000000
# 2 -0.012950 0.058719 -0.006922 0.000000 0.000000 0.000000
# 3 -0.008351 -0.006922 0.016060 0.000000 0.000000 0.000000
# 4 0.000000 0.000000 0.000000 -0.013360 0.000000 0.000000
# 5 0.000000 0.000000 0.000000 0.000000 0.044120 0.000000
# 6 0.000000 0.000000 0.000000 0.000000 0.000000 0.037466
#
#
# Mechanical properties :
#
#
# Convention : Reuss Voigt Hill
#
# Bulk Modulus (GPa) = 28.95785 71.53544 50.24664
# Shear Modulus (GPa) = 22.01074 3.51440 12.76257
#
# Velocity S-wave (km/s) = 3.65851 1.46188 2.78584
# Velocity P-wave (km/s) = 5.95444 6.80808 6.39552
#
# Compressibility (1/GPa) = 0.03453295
#
# Stress axis : x y z
#
# Youngs Moduli (GPa) = 61.72895 17.03021 62.26737
#
# Poissons Ratio (x) = 0.22054 0.52002
# Poissons Ratio (y) = 0.79938 0.43099
# Poissons Ratio (z) = 0.51552 0.11788
#
# Static dielectric constant tensor:
#      x y z
#    x 1.554240 0.000000 0.000000 
#    y 0.000000 1.554210 0.000000 
#    z 0.000000 0.000000 1.530560 
# 
# From -- ./inp_files/30969.got.cif
#   From: 2010.05.17/outbox.cif.g08.bks.cpg/sg47_16_cif.got.tgz:30969.got - 2010.06.03 20:15:42.
