data_PCOD9385786
_publ_section_title
;
Structure prediction by ZEFSAII (Michael W. Deem and Ramdas Pophale) SiO2 
 PCOD9385786
Probable space group: P M M M
;
_chemical_formula_sum "Si O2"
_cell_formula_units_Z 52
_cell_length_a 19.963385
_cell_length_b 16.195579
_cell_length_c 8.494440
_cell_angle_alpha 90.000000
_cell_angle_beta 90.000000
_cell_angle_gamma 90.000000
_cell_volume 2746.410269
_symmetry_space_group_name_H-M "P M M M"
_symmetry_group_IT_number 47
_symmetry_cell_setting 'orthorhombic'
loop_
_space_group_symop_operation_xyz
x,y,z
-x,-y,z
x,-y,-z
-x,y,-z
-x,-y,-z
x,y,-z
-x,y,z
x,-y,z
loop_
_atom_site_type_symbol
_atom_site_label
_atom_site_fract_x
_atom_site_fract_y
_atom_site_fract_z
Si Si1 0.793131 0.092486 0.688346
Si Si2 0.424265 0.323343 0.189057
Si Si3 0.924564 0.173625 0.186808
Si Si4 0.418430 0.500000 0.319654
Si Si5 0.291087 0.245579 0.809164
Si Si6 0.784739 0.410838 0.811479
Si Si7 0.924814 0.359207 0.312707
O O1 0.795903 0.095276 0.500000
O O2 0.866408 0.114352 0.754727
O O3 0.743443 0.163545 0.747005
O O4 0.773458 0.000000 0.737933
O O5 0.500000 0.310608 0.250077
O O6 0.399718 0.414963 0.235667
O O7 0.368133 0.258566 0.240231
O O8 0.427233 0.321010 0.000000
O O9 0.918565 0.261874 0.272802
O O10 0.000000 0.142005 0.214517
O O11 0.916608 0.188405 0.000000
O O12 0.500000 0.500000 0.317248
O O13 0.396369 0.500000 0.500000
O O14 0.251385 0.327750 0.753308
O O15 0.287932 0.244001 0.000000
O O16 0.759634 0.500000 0.751227
O O17 0.863094 0.403039 0.770740
O O18 0.776587 0.410842 0.000000
O O19 0.919558 0.371358 0.500000
O O20 0.000000 0.384795 0.262808
#
# Coordination Sequence:
#
# PCOD9385786 Si02
#       7
#     8   8   8   4   8   8   8
#     4  11  24  40  59  84 113 144 180 226 280 335
#     4   9  18  33  55  82 112 148 188 229 275 326
#     4  10  20  35  57  83 110 142 181 225 275 331
#     4   9  17  29  47  77 115 151 188 225 264 317
#     4  10  21  37  59  83 110 146 185 227 274 328
#     4  10  21  35  52  77 109 146 188 230 273 324
#     4  10  20  34  53  76 105 143 187 234 279 322
#
# _framework density 18.933807999999999
#
# number of rings (size 3 to 8) (size 9 to 14) (size 15 to 20)
#    0.000    2.077    1.538    1.615    1.077    5.538 
#    0.000    3.077    0.000    0.462    0.000    3.231 
#    0.000    0.000    0.000    0.000    0.000    0.000 
#
# Total GULP energy -290295.315953 kJ/mol
# GULP energy per Si atom -5582.602230 kJ/mol
# Density = 1.889071 g / cm^3
# Si number density = 18.933808 Si / 1000 Ang^3
#
#
#
# Elastic Constant Matrix: (Units=GPa)
#
#
# Indices 1 2 3 4 5 6 
#
# 1 105.2891 64.1777 11.7234 0.0000 0.0000 0.0000
# 2 64.1777 123.3631 12.0746 0.0000 0.0000 0.0000
# 3 11.7234 12.0746 9.3756 0.0000 0.0000 0.0000
# 4 0.0000 0.0000 0.0000 29.0936 0.0000 0.0000
# 5 0.0000 0.0000 0.0000 0.0000 10.0479 0.0000
# 6 0.0000 0.0000 0.0000 0.0000 0.0000 15.2990
#
#
#
# Elastic Compliance Matrix: (Units=1/GPa)
#
#
# Indices 1 2 3 4 5 6 
#
# 1 0.014644 -0.006666 -0.009726 0.000000 0.000000 0.000000
# 2 -0.006666 0.012310 -0.007518 0.000000 0.000000 0.000000
# 3 -0.009726 -0.007518 0.128503 0.000000 0.000000 0.000000
# 4 0.000000 0.000000 0.000000 0.034372 0.000000 0.000000
# 5 0.000000 0.000000 0.000000 0.000000 0.099524 0.000000
# 6 0.000000 0.000000 0.000000 0.000000 0.000000 0.065364
#
#
# Mechanical properties :
#
#
# Convention : Reuss Voigt Hill
#
# Bulk Modulus (GPa) = 9.29051 45.99769 27.64410
# Shear Modulus (GPa) = 11.40473 20.89158 16.14815
#
# Velocity S-wave (km/s) = 2.45694 3.32535 2.92357
# Velocity P-wave (km/s) = 3.60086 6.25225 5.10181
#
# Compressibility (1/GPa) = 0.10763672
#
# Stress axis : x y z
#
# Youngs Moduli (GPa) = 68.28758 81.23428 7.78195
#
# Poissons Ratio (x) = 0.54154 0.07568
# Poissons Ratio (y) = 0.45523 0.05850
# Poissons Ratio (z) = 0.66413 0.61072
#
# Static dielectric constant tensor:
#      x y z
#    x 1.689090 0.000000 0.000000 
#    y 0.000000 1.651700 0.000000 
#    z 0.000000 0.000000 1.644960 
# 
# From -- ./inp_files/10965.got.cif
#   From: 2010.05.17/outbox.cif.g08.bks.cpg/sg47_6_cif.got.tgz:10965.got - 2010.06.03 20:15:42.
