data_PCOD9385617
_publ_section_title
;
Structure prediction by ZEFSAII (Michael W. Deem and Ramdas Pophale) SiO2 
 PCOD9385617
Probable space group: P M M M
;
_chemical_formula_sum "Si O2"
_cell_formula_units_Z 52
_cell_length_a 15.182974
_cell_length_b 23.650247
_cell_length_c 7.942138
_cell_angle_alpha 90.000000
_cell_angle_beta 90.000000
_cell_angle_gamma 90.000000
_cell_volume 2851.871533
_symmetry_space_group_name_H-M "P M M M"
_symmetry_group_IT_number 47
_symmetry_cell_setting 'orthorhombic'
loop_
_space_group_symop_operation_xyz
x,y,z
-x,-y,z
x,-y,-z
-x,y,-z
-x,-y,-z
x,y,-z
-x,y,z
x,-y,z
loop_
_atom_site_type_symbol
_atom_site_label
_atom_site_fract_x
_atom_site_fract_y
_atom_site_fract_z
Si Si1 0.404660 0.319468 0.807113
Si Si2 0.395830 0.146526 0.193488
Si Si3 0.634868 0.437989 0.303929
Si Si4 0.736973 0.756962 0.308742
Si Si5 0.098604 0.313480 0.703404
Si Si6 0.394046 0.936209 0.500000
Si Si7 0.836636 0.562515 0.798460
O O1 0.500000 0.298695 0.750413
O O2 0.403046 0.386616 0.799275
O O3 0.327084 0.297172 0.692794
O O4 0.390651 0.301175 0.000000
O O5 0.500000 0.163099 0.222089
O O6 0.324365 0.196452 0.218699
O O7 0.372719 0.099297 0.332224
O O8 0.391098 0.126878 0.000000
O O9 0.611328 0.431446 0.500000
O O10 0.607093 0.500000 0.246512
O O11 0.740585 0.435572 0.285485
O O12 0.752748 0.776531 0.500000
O O13 0.827329 0.731075 0.234500
O O14 0.103539 0.311422 0.500000
O O15 0.115835 0.378987 0.752006
O O16 0.000000 0.298030 0.757308
O O17 0.500000 0.940350 0.500000
O O18 0.358055 0.000000 0.500000
O O19 0.876054 0.500000 0.755233
O O20 0.825067 0.563179 0.000000
#
# Coordination Sequence:
#
# PCOD9385617 Si02
#       7
#     8   8   8   8   8   4   8
#     4  11  23  35  49  72  99 129 166 210 263 320
#     4  10  20  34  55  85 120 159 199 234 270 314
#     4  10  20  34  51  69  90 120 161 209 263 322
#     4  11  21  35  55  76 104 142 180 224 271 318
#     4  10  22  38  55  77 102 131 171 219 276 337
#     4   9  18  34  56  86 125 165 202 235 265 303
#     4  10  20  34  53  74  95 122 160 210 272 340
#
# _framework density 18.233639
#
# number of rings (size 3 to 8) (size 9 to 14) (size 15 to 20)
#    0.000    1.769    2.308    2.308    0.000    6.769 
#    0.000    4.615    0.000    0.000    0.000    0.000 
#    0.000    1.231    0.000    1.385    0.000    0.154 
#
# Total GULP energy -289973.430721 kJ/mol
# GULP energy per Si atom -5576.412129 kJ/mol
# Density = 1.819214 g / cm^3
# Si number density = 18.233639 Si / 1000 Ang^3
#
#
#
# Elastic Constant Matrix: (Units=GPa)
#
#
# Indices 1 2 3 4 5 6 
#
# 1 105.4741 42.3451 25.5916 0.0000 0.0000 0.0000
# 2 42.3451 111.2362 38.9160 0.0000 0.0000 0.0000
# 3 25.5916 38.9160 65.1655 0.0000 0.0000 0.0000
# 4 0.0000 0.0000 0.0000 11.5055 0.0000 0.0000
# 5 0.0000 0.0000 0.0000 0.0000 6.7768 0.0000
# 6 0.0000 0.0000 0.0000 0.0000 0.0000 13.5065
#
#
#
# Elastic Compliance Matrix: (Units=1/GPa)
#
#
# Indices 1 2 3 4 5 6 
#
# 1 0.011481 -0.003531 -0.002400 0.000000 0.000000 0.000000
# 2 -0.003531 0.012450 -0.006048 0.000000 0.000000 0.000000
# 3 -0.002400 -0.006048 0.019900 0.000000 0.000000 0.000000
# 4 0.000000 0.000000 0.000000 0.086915 0.000000 0.000000
# 5 0.000000 0.000000 0.000000 0.000000 0.147561 0.000000
# 6 0.000000 0.000000 0.000000 0.000000 0.000000 0.074038
#
#
# Mechanical properties :
#
#
# Convention : Reuss Voigt Hill
#
# Bulk Modulus (GPa) = 50.32129 55.06456 52.69292
# Shear Modulus (GPa) = 13.05727 18.02598 15.54163
#
# Velocity S-wave (km/s) = 2.67892 3.14763 2.92269
# Velocity P-wave (km/s) = 6.10138 6.59356 6.35224
#
# Compressibility (1/GPa) = 0.01987231
#
# Stress axis : x y z
#
# Youngs Moduli (GPa) = 87.10127 80.32132 50.25094
#
# Poissons Ratio (x) = 0.28360 0.12061
# Poissons Ratio (y) = 0.30754 0.30394
# Poissons Ratio (z) = 0.20906 0.48581
#
# Static dielectric constant tensor:
#      x y z
#    x 1.647070 0.000000 0.000000 
#    y 0.000000 1.644910 0.000000 
#    z 0.000000 0.000000 1.653280 
# 
# From -- ./inp_files/6950.got.cif
#   From: 2010.05.17/outbox.cif.g08.bks.cpg/sg47_4_cif.got.tgz:6950.got - 2010.06.03 20:15:42.
