data_PCOD9385653
_publ_section_title
;
Structure prediction by ZEFSAII (Michael W. Deem and Ramdas Pophale) SiO2 
 PCOD9385653
Probable space group: P M M M
;
_chemical_formula_sum "Si O2"
_cell_formula_units_Z 52
_cell_length_a 15.071649
_cell_length_b 9.189218
_cell_length_c 24.751476
_cell_angle_alpha 90.000000
_cell_angle_beta 90.000000
_cell_angle_gamma 90.000000
_cell_volume 3427.996961
_symmetry_space_group_name_H-M "P M M M"
_symmetry_group_IT_number 47
_symmetry_cell_setting 'orthorhombic'
loop_
_space_group_symop_operation_xyz
x,y,z
-x,-y,z
x,-y,-z
-x,y,-z
-x,-y,-z
x,y,-z
-x,y,z
x,-y,z
loop_
_atom_site_type_symbol
_atom_site_label
_atom_site_fract_x
_atom_site_fract_y
_atom_site_fract_z
Si Si1 0.403674 0.665957 0.601111
Si Si2 0.349197 0.829353 0.500000
Si Si3 0.898823 0.171401 0.610899
Si Si4 0.396455 0.826952 0.780830
Si Si5 0.840673 0.674789 0.500000
Si Si6 0.725938 0.172310 0.677962
Si Si7 0.391710 0.167638 0.000000
Si Si8 0.607433 0.665767 0.107603
O O1 0.500000 0.672458 0.628208
O O2 0.390258 0.500000 0.582154
O O3 0.401464 0.777510 0.552101
O O4 0.327634 0.719203 0.639913
O O5 0.258820 0.737312 0.500000
O O6 0.330741 0.000000 0.500000
O O7 0.881290 0.262710 0.556045
O O8 0.827881 0.196882 0.659263
O O9 0.000000 0.196770 0.628509
O O10 0.889575 0.000000 0.596068
O O11 0.500000 0.787871 0.765152
O O12 0.319811 0.801045 0.736180
O O13 0.373305 0.744679 0.836045
O O14 0.398009 0.000000 0.790829
O O15 0.843900 0.500000 0.500000
O O16 0.708019 0.000000 0.666205
O O17 0.361970 0.248266 0.054489
O O18 0.500000 0.169723 0.000000
O O19 0.364290 0.000000 0.000000
O O20 0.500000 0.662159 0.104298
O O21 0.639471 0.500000 0.107332
#
# Coordination Sequence:
#
# PCOD9385653 Si02
#       8
#     8   4   8   8   4   8   4   8
#     4  11  23  36  50  70  95 120 147 184 227 268
#     4  12  23  36  53  70  90 118 149 181 222 271
#     4  10  21  37  56  76  96 119 148 185 232 286
#     4   9  17  29  44  63  88 120 160 197 225 261
#     4  12  23  36  55  76  96 116 143 183 234 287
#     4  10  20  34  52  70  91 122 156 189 226 274
#     4   9  15  23  37  57  83 117 156 197 234 265
#     4   9  16  25  38  58  85 118 156 195 234 270
#
# _framework density 15.169207
#
# number of rings (size 3 to 8) (size 9 to 14) (size 15 to 20)
#    0.000    1.923    1.538    3.462    0.000    7.385 
#    0.000    1.538    0.000    0.000    0.000    0.000 
#    0.000    0.000    0.000    0.692    0.000   16.385 
#
# Total GULP energy -289596.630281 kJ/mol
# GULP energy per Si atom -5569.165967 kJ/mol
# Density = 1.513468 g / cm^3
# Si number density = 15.169207 Si / 1000 Ang^3
#
#
#
# Elastic Constant Matrix: (Units=GPa)
#
#
# Indices 1 2 3 4 5 6 
#
# 1 92.2754 41.0699 43.5521 0.0000 0.0000 0.0000
# 2 41.0699 76.3278 62.0557 0.0000 0.0000 0.0000
# 3 43.5521 62.0557 102.4720 0.0000 0.0000 0.0000
# 4 0.0000 0.0000 0.0000 72.1304 0.0000 0.0000
# 5 0.0000 0.0000 0.0000 0.0000 7.7804 0.0000
# 6 0.0000 0.0000 0.0000 0.0000 0.0000 11.8876
#
#
#
# Elastic Compliance Matrix: (Units=1/GPa)
#
#
# Indices 1 2 3 4 5 6 
#
# 1 0.014665 -0.005562 -0.002865 0.000000 0.000000 0.000000
# 2 -0.005562 0.027917 -0.014543 0.000000 0.000000 0.000000
# 3 -0.002865 -0.014543 0.019783 0.000000 0.000000 0.000000
# 4 0.000000 0.000000 0.000000 0.013864 0.000000 0.000000
# 5 0.000000 0.000000 0.000000 0.000000 0.128528 0.000000
# 6 0.000000 0.000000 0.000000 0.000000 0.000000 0.084121
#
#
# Mechanical properties :
#
#
# Convention : Reuss Voigt Hill
#
# Bulk Modulus (GPa) = 60.87434 62.71450 61.79442
# Shear Modulus (GPa) = 14.69329 26.65286 20.67308
#
# Velocity S-wave (km/s) = 3.11565 4.19625 3.69566
# Velocity P-wave (km/s) = 7.29112 8.05674 7.68347
#
# Compressibility (1/GPa) = 0.01642728
#
# Stress axis : x y z
#
# Youngs Moduli (GPa) = 68.19180 35.82017 50.54840
#
# Poissons Ratio (x) = 0.19922 0.14480
# Poissons Ratio (y) = 0.37926 0.73510
# Poissons Ratio (z) = 0.19534 0.52092
#
# Static dielectric constant tensor:
#      x y z
#    x 1.507140 0.000000 0.000000 
#    y 0.000000 1.510670 0.000000 
#    z 0.000000 0.000000 1.517540 
# 
# From -- ./inp_files/12597.got.cif
#   From: 2010.05.17/outbox.cif.g08.bks.cpg/sg47_7_cif.got.tgz:12597.got - 2010.06.03 20:15:42.
