data_PCOD9385543
_publ_section_title
;
Structure prediction by ZEFSAII (Michael W. Deem and Ramdas Pophale) SiO2 
 PCOD9385543
Probable space group: P M M M
;
_chemical_formula_sum "Si O2"
_cell_formula_units_Z 44
_cell_length_a 8.725103
_cell_length_b 13.430739
_cell_length_c 20.570892
_cell_angle_alpha 90.000000
_cell_angle_beta 90.000000
_cell_angle_gamma 90.000000
_cell_volume 2410.591363
_symmetry_space_group_name_H-M "P M M M"
_symmetry_group_IT_number 47
_symmetry_cell_setting 'orthorhombic'
loop_
_space_group_symop_operation_xyz
x,y,z
-x,-y,z
x,-y,-z
-x,y,-z
-x,-y,-z
x,y,-z
-x,y,z
x,-y,z
loop_
_atom_site_type_symbol
_atom_site_label
_atom_site_fract_x
_atom_site_fract_y
_atom_site_fract_z
Si Si1 0.314489 0.116608 0.643783
Si Si2 0.324713 0.120082 0.500000
Si Si3 0.682846 0.615327 0.137354
Si Si4 0.500000 0.388748 0.576470
Si Si5 0.824136 0.379321 0.000000
Si Si6 0.167634 0.383599 0.613587
Si Si7 0.825863 0.724278 0.742081
O O1 0.500000 0.125859 0.641808
O O2 0.253683 0.141891 0.570650
O O3 0.248434 0.186824 0.699892
O O4 0.279885 0.000000 0.655856
O O5 0.500000 0.160832 0.500000
O O6 0.338370 0.000000 0.500000
O O7 0.500000 0.613764 0.136289
O O8 0.735952 0.500000 0.148037
O O9 0.743379 0.649934 0.067069
O O10 0.739112 0.686784 0.194597
O O11 0.500000 0.500000 0.607628
O O12 0.500000 0.399036 0.500000
O O13 0.334746 0.343260 0.592942
O O14 0.820736 0.500000 0.000000
O O15 0.000000 0.346713 0.000000
O O16 0.168445 0.500000 0.595091
O O17 0.169165 0.366925 0.690737
O O18 0.000000 0.343448 0.590783
O O19 0.000000 0.751083 0.758790
#
# Coordination Sequence:
#
# PCOD9385543 Si02
#       7
#     8   4   8   4   4   8   8
#     4   9  18  34  55  77 101 130 169 219 271 323
#     4   7  12  28  53  75  94 121 160 211 271 324
#     4  10  20  33  53  80 109 142 179 217 253 297
#     4   9  18  32  50  68  87 124 174 214 256 308
#     4   9  17  31  51  77 112 147 174 205 249 301
#     4   9  19  34  49  68  98 131 166 212 259 308
#     4  11  22  34  49  74 104 136 172 211 262 317
#
# _framework density 18.252783000000001
#
# number of rings (size 3 to 8) (size 9 to 14) (size 15 to 20)
#    0.000    2.636    0.000    3.000    2.545    3.636 
#    1.636    2.273    0.000    1.636    0.000    0.636 
#    0.000    5.091    0.000    0.000    0.000    0.000 
#
# Total GULP energy -245084.347696 kJ/mol
# GULP energy per Si atom -5570.098811 kJ/mol
# Density = 1.821124 g / cm^3
# Si number density = 18.252783 Si / 1000 Ang^3
#
#
#
# Elastic Constant Matrix: (Units=GPa)
#
#
# Indices 1 2 3 4 5 6 
#
# 1 124.2697 28.2797 62.8997 0.0000 0.0000 0.0000
# 2 28.2797 79.0103 46.9962 0.0000 0.0000 0.0000
# 3 62.8997 46.9962 147.2376 0.0000 0.0000 0.0000
# 4 0.0000 0.0000 0.0000 12.8954 0.0000 0.0000
# 5 0.0000 0.0000 0.0000 0.0000 37.5850 0.0000
# 6 0.0000 0.0000 0.0000 0.0000 0.0000 -24.9749
#
#
#
# Elastic Compliance Matrix: (Units=1/GPa)
#
#
# Indices 1 2 3 4 5 6 
#
# 1 0.010379 -0.001330 -0.004009 0.000000 0.000000 0.000000
# 2 -0.001330 0.015793 -0.004473 0.000000 0.000000 0.000000
# 3 -0.004009 -0.004473 0.009932 0.000000 0.000000 0.000000
# 4 0.000000 0.000000 0.000000 0.077547 0.000000 0.000000
# 5 0.000000 0.000000 0.000000 0.000000 0.026606 0.000000
# 6 0.000000 0.000000 0.000000 0.000000 0.000000 -0.040040
#
#
# Mechanical properties :
#
#
# Convention : Reuss Voigt Hill
#
# Bulk Modulus (GPa) = 60.67982 69.65208 65.16595
# Shear Modulus (GPa) = 39.89303 19.25724 29.57513
#
# Velocity S-wave (km/s) = 4.68010 3.25165 4.02967
# Velocity P-wave (km/s) = 7.90701 7.23465 7.57829
#
# Compressibility (1/GPa) = 0.01647994
#
# Stress axis : x y z
#
# Youngs Moduli (GPa) = 96.34776 63.31886 100.68290
#
# Poissons Ratio (x) = 0.08422 0.40368
# Poissons Ratio (y) = 0.12815 0.45033
# Poissons Ratio (z) = 0.38629 0.28321
#
# Static dielectric constant tensor:
#      x y z
#    x 1.695020 0.000000 0.000000 
#    y 0.000000 1.668480 0.000000 
#    z 0.000000 0.000000 1.614660 
# 
# From -- ./inp_files/26414.got.cif
#   From: 2010.05.17/outbox.cif.g08.bks.cpg/sg47_14_cif.got.tgz:26414.got - 2010.06.03 20:15:42.
