data_PCOD9385810
_publ_section_title
;
Structure prediction by ZEFSAII (Michael W. Deem and Ramdas Pophale) SiO2 
 PCOD9385810
Probable space group: P M M M
;
_chemical_formula_sum "Si O2"
_cell_formula_units_Z 48
_cell_length_a 9.364597
_cell_length_b 32.009927
_cell_length_c 7.937714
_cell_angle_alpha 90.000000
_cell_angle_beta 90.000000
_cell_angle_gamma 90.000000
_cell_volume 2379.409675
_symmetry_space_group_name_H-M "P M M M"
_symmetry_group_IT_number 47
_symmetry_cell_setting 'orthorhombic'
loop_
_space_group_symop_operation_xyz
x,y,z
-x,-y,z
x,-y,-z
-x,y,-z
-x,-y,-z
x,y,-z
-x,y,z
x,-y,z
loop_
_atom_site_type_symbol
_atom_site_label
_atom_site_fract_x
_atom_site_fract_y
_atom_site_fract_z
Si Si1 0.836596 0.172745 0.702047
Si Si2 0.163241 0.335267 0.703223
Si Si3 0.663530 0.417961 0.203138
Si Si4 0.162226 0.918904 0.200571
Si Si5 0.339904 0.000000 0.700393
Si Si6 0.664255 0.746515 0.706459
Si Si7 0.834915 0.500000 0.206257
O O1 0.843291 0.176480 0.500000
O O2 0.782272 0.126299 0.741826
O O3 0.738805 0.210596 0.763373
O O4 0.000000 0.176017 0.766947
O O5 0.157845 0.333227 0.500000
O O6 0.252694 0.376071 0.750483
O O7 0.244102 0.293488 0.761634
O O8 0.000000 0.337457 0.765419
O O9 0.500000 0.417533 0.265349
O O10 0.750906 0.458595 0.261961
O O11 0.658047 0.420341 0.000000
O O12 0.000000 0.923508 0.268728
O O13 0.256026 0.958349 0.249432
O O14 0.154180 0.917921 0.000000
O O15 0.500000 0.000000 0.772132
O O16 0.348941 0.000000 0.500000
O O17 0.664319 0.746543 0.500000
O O18 0.500000 0.743554 0.760427
O O19 0.000000 0.500000 0.260394
O O20 0.835412 0.500000 0.000000
#
# Coordination Sequence:
#
# PCOD9385810 Si02
#       7
#     8   8   8   8   4   8   4
#     4   9  17  31  52  76 101 132 172 215 256 302
#     4  10  20  34  53  77 105 138 176 217 261 310
#     4  10  20  34  53  77 104 134 170 213 261 313
#     4  10  21  37  57  81 109 141 176 214 260 313
#     4  11  24  39  56  80 108 139 178 221 262 308
#     4   9  17  30  50  75 102 134 173 216 260 306
#     4   9  17  31  52  75 100 133 172 212 256 309
#
# _framework density 20.173071
#
# number of rings (size 3 to 8) (size 9 to 14) (size 15 to 20)
#    0.000    2.333    0.000    2.750    0.000    8.333 
#    0.000    2.917    0.000    5.500    0.000    0.000 
#    0.000    0.000    0.000    0.000    0.000    0.000 
#
# Total GULP energy -268061.993474 kJ/mol
# GULP energy per Si atom -5584.624864 kJ/mol
# Density = 2.012716 g / cm^3
# Si number density = 20.173071 Si / 1000 Ang^3
#
#
#
# Elastic Constant Matrix: (Units=GPa)
#
#
# Indices 1 2 3 4 5 6 
#
# 1 188.2442 140.4982 9.1719 0.0000 0.0000 0.0000
# 2 140.4982 235.5979 6.2178 0.0000 0.0000 0.0000
# 3 9.1719 6.2178 18.3054 0.0000 0.0000 0.0000
# 4 0.0000 0.0000 0.0000 33.3763 0.0000 0.0000
# 5 0.0000 0.0000 0.0000 0.0000 14.6622 0.0000
# 6 0.0000 0.0000 0.0000 0.0000 0.0000 -81.5028
#
#
#
# Elastic Compliance Matrix: (Units=1/GPa)
#
#
# Indices 1 2 3 4 5 6 
#
# 1 0.009726 -0.005723 -0.002929 0.000000 0.000000 0.000000
# 2 -0.005723 0.007650 0.000269 0.000000 0.000000 0.000000
# 3 -0.002929 0.000269 0.056005 0.000000 0.000000 0.000000
# 4 0.000000 0.000000 0.000000 0.029961 0.000000 0.000000
# 5 0.000000 0.000000 0.000000 0.000000 0.068203 0.000000
# 6 0.000000 0.000000 0.000000 0.000000 0.000000 -0.012270
#
#
# Mechanical properties :
#
#
# Convention : Reuss Voigt Hill
#
# Bulk Modulus (GPa) = 17.66322 83.76925 50.71623
# Shear Modulus (GPa) = 25.65219 12.39111 19.02165
#
# Velocity S-wave (km/s) = 3.56983 2.48108 3.07404
# Velocity P-wave (km/s) = 5.07606 7.05855 6.14774
#
# Compressibility (1/GPa) = 0.05661482
#
# Stress axis : x y z
#
# Youngs Moduli (GPa) = 102.81280 130.71338 17.85549
#
# Poissons Ratio (x) = 0.74807 0.05231
# Poissons Ratio (y) = 0.58840 -0.00480
# Poissons Ratio (z) = 0.30119 -0.03515
#
# Static dielectric constant tensor:
#      x y z
#    x 1.710750 0.000000 0.000000 
#    y 0.000000 1.706560 0.000000 
#    z 0.000000 0.000000 1.737230 
# 
# From -- ./inp_files/2618.got.cif
#   From: 2010.05.17/outbox.cif.g08.bks.cpg/sg47_2_cif.got.tgz:2618.got - 2010.06.03 20:15:42.
