data_PCOD9385031
_publ_section_title
;
Structure prediction by ZEFSAII (Michael W. Deem and Ramdas Pophale) SiO2 
 PCOD9385031
Probable space group: P M M M
;
_chemical_formula_sum "Si O2"
_cell_formula_units_Z 52
_cell_length_a 23.761812
_cell_length_b 8.784444
_cell_length_c 15.662841
_cell_angle_alpha 90.000000
_cell_angle_beta 90.000000
_cell_angle_gamma 90.000000
_cell_volume 3269.372259
_symmetry_space_group_name_H-M "P M M M"
_symmetry_group_IT_number 47
_symmetry_cell_setting 'orthorhombic'
loop_
_space_group_symop_operation_xyz
x,y,z
-x,-y,z
x,-y,-z
-x,y,-z
-x,-y,-z
x,y,-z
-x,y,z
x,-y,z
loop_
_atom_site_type_symbol
_atom_site_label
_atom_site_fract_x
_atom_site_fract_y
_atom_site_fract_z
Si Si1 0.727659 0.677274 0.229594
Si Si2 0.939538 0.179226 0.103367
Si Si3 0.432820 0.172501 0.000000
Si Si4 0.319428 0.683821 0.594527
Si Si5 0.562227 0.818575 0.649235
Si Si6 0.597380 0.676128 0.822613
Si Si7 0.815751 0.184150 0.099069
O O1 0.744756 0.500000 0.233048
O O2 0.719488 0.736978 0.326697
O O3 0.664168 0.683766 0.193661
O O4 0.769313 0.762280 0.165949
O O5 0.878131 0.240946 0.127232
O O6 0.000000 0.245569 0.132099
O O7 0.940067 0.000000 0.126661
O O8 0.939465 0.184608 0.000000
O O9 0.414805 0.259753 0.915358
O O10 0.500000 0.165083 0.000000
O O11 0.410103 0.000000 0.000000
O O12 0.299443 0.726240 0.500000
O O13 0.321682 0.500000 0.600849
O O14 0.383236 0.742776 0.606700
O O15 0.500000 0.769973 0.618435
O O16 0.567708 0.773683 0.748900
O O17 0.566166 0.000000 0.639186
O O18 0.579828 0.500000 0.814642
O O19 0.817410 0.000000 0.097874
O O20 0.804984 0.232257 0.000000
#
# Coordination Sequence:
#
# PCOD9385031 Si02
#       7
#     8   8   4   8   8   8   8
#     4   9  19  33  47  65  89 116 146 184 227 265
#     4   7  10  19  36  58  86 119 154 189 217 244
#     4  11  23  35  47  65  87 111 144 189 238 277
#     4   9  19  36  54  69  86 113 150 187 225 275
#     4  10  20  33  49  70  94 114 135 172 226 281
#     4  10  21  35  49  64  84 116 155 188 220 266
#     4   9  17  27  42  67  94 123 158 187 215 257
#
# _framework density 15.905193000000001
#
# number of rings (size 3 to 8) (size 9 to 14) (size 15 to 20)
#    0.000    2.846    0.000    3.923    1.077    7.692 
#    0.000    1.538    0.000    0.462    0.000    2.154 
#    0.000    0.615    0.000    7.692    0.000    0.308 
#
# Total GULP energy -289545.202486 kJ/mol
# GULP energy per Si atom -5568.176971 kJ/mol
# Density = 1.586899 g / cm^3
# Si number density = 15.905193 Si / 1000 Ang^3
#
#
#
# Elastic Constant Matrix: (Units=GPa)
#
#
# Indices 1 2 3 4 5 6 
#
# 1 82.6073 17.6880 38.0036 0.0000 0.0000 0.0000
# 2 17.6880 14.2476 13.5341 0.0000 0.0000 0.0000
# 3 38.0036 13.5341 97.0112 0.0000 0.0000 0.0000
# 4 0.0000 0.0000 0.0000 16.7591 0.0000 0.0000
# 5 0.0000 0.0000 0.0000 0.0000 10.6923 0.0000
# 6 0.0000 0.0000 0.0000 0.0000 0.0000 148.2093
#
#
#
# Elastic Compliance Matrix: (Units=1/GPa)
#
#
# Indices 1 2 3 4 5 6 
#
# 1 0.018081 -0.018120 -0.004555 0.000000 0.000000 0.000000
# 2 -0.018120 0.099069 -0.006723 0.000000 0.000000 0.000000
# 3 -0.004555 -0.006723 0.013030 0.000000 0.000000 0.000000
# 4 0.000000 0.000000 0.000000 0.059669 0.000000 0.000000
# 5 0.000000 0.000000 0.000000 0.000000 0.093525 0.000000
# 6 0.000000 0.000000 0.000000 0.000000 0.000000 0.006747
#
#
# Mechanical properties :
#
#
# Convention : Reuss Voigt Hill
#
# Bulk Modulus (GPa) = 14.00868 36.92417 25.46643
# Shear Modulus (GPa) = 13.41519 43.44152 28.42835
#
# Velocity S-wave (km/s) = 2.90737 5.23183 4.23231
# Velocity P-wave (km/s) = 4.48298 7.73057 6.31897
#
# Compressibility (1/GPa) = 0.07138430
#
# Stress axis : x y z
#
# Youngs Moduli (GPa) = 55.30681 10.09401 76.74333
#
# Poissons Ratio (x) = 0.18290 0.34958
# Poissons Ratio (y) = 1.00216 0.51593
# Poissons Ratio (z) = 0.25193 0.06786
#
# Static dielectric constant tensor:
#      x y z
#    x 1.551120 0.000000 0.000000 
#    y 0.000000 1.546730 0.000000 
#    z 0.000000 0.000000 1.572560 
# 
# From -- ./inp_files/25423.got.cif
#   From: 2010.05.17/outbox.cif.g08.bks.cpg/sg47_13_cif.got.tgz:25423.got - 2010.06.03 20:15:42.
