data_PCOD9385419
_publ_section_title
;
Structure prediction by ZEFSAII (Michael W. Deem and Ramdas Pophale) SiO2 
 PCOD9385419
Probable space group: P M M M
;
_chemical_formula_sum "Si O2"
_cell_formula_units_Z 56
_cell_length_a 22.332215
_cell_length_b 9.836457
_cell_length_c 13.858604
_cell_angle_alpha 90.000000
_cell_angle_beta 90.000000
_cell_angle_gamma 90.000000
_cell_volume 3044.317775
_symmetry_space_group_name_H-M "P M M M"
_symmetry_group_IT_number 47
_symmetry_cell_setting 'orthorhombic'
loop_
_space_group_symop_operation_xyz
x,y,z
-x,-y,z
x,-y,-z
-x,y,-z
-x,-y,-z
x,y,-z
-x,y,z
x,-y,z
loop_
_atom_site_type_symbol
_atom_site_label
_atom_site_fract_x
_atom_site_fract_y
_atom_site_fract_z
Si Si1 0.931891 0.841923 0.191902
Si Si2 0.175145 0.657527 0.115734
Si Si3 0.570106 0.000000 0.615443
Si Si4 0.292330 0.838417 0.115214
Si Si5 0.571908 0.500000 0.385047
Si Si6 0.875111 0.843627 0.610497
Si Si7 0.639087 0.248900 0.707374
Si Si8 0.761616 0.657899 0.384561
O O1 0.883539 0.738350 0.149907
O O2 0.925304 0.832920 0.308027
O O3 0.000000 0.812963 0.162402
O O4 0.918047 0.000000 0.165525
O O5 0.178071 0.500000 0.149687
O O6 0.233716 0.747908 0.140170
O O7 0.173464 0.652768 0.000000
O O8 0.604425 0.126011 0.659552
O O9 0.500000 0.000000 0.640830
O O10 0.574333 0.000000 0.500000
O O11 0.346470 0.781709 0.180709
O O12 0.283007 0.000000 0.136120
O O13 0.302711 0.825798 0.000000
O O14 0.500000 0.500000 0.383601
O O15 0.589917 0.500000 0.500000
O O16 0.599509 0.624896 0.326559
O O17 0.894445 0.817986 0.500000
O O18 0.822098 0.740146 0.636575
O O19 0.852420 0.000000 0.614182
O O20 0.704351 0.271199 0.661114
O O21 0.754584 0.660849 0.500000
O O22 0.764467 0.500000 0.355047
#
# Coordination Sequence:
#
# PCOD9385419 Si02
#       8
#     8   8   4   8   4   8   8   8
#     4  10  21  36  55  79 111 153 197 237 284 348
#     4  10  22  39  61  88 116 146 185 240 302 357
#     4  11  24  40  59  87 123 159 201 248 288 340
#     4  10  22  41  63  90 121 154 196 249 306 360
#     4  11  24  42  63  89 127 169 203 238 288 352
#     4   9  19  34  52  76 108 145 187 237 285 331
#     4  12  22  37  62  89 117 161 203 245 296 351
#     4  10  20  33  51  79 114 147 183 231 291 355
#
# _framework density 18.394926000000002
#
# number of rings (size 3 to 8) (size 9 to 14) (size 15 to 20)
#    0.000    1.714    1.429    3.000    2.000    5.714 
#    0.000    2.857    0.000    2.571    0.000    3.000 
#    0.000    0.000    0.000    0.000    0.000    0.000 
#
# Total GULP energy -312512.014715 kJ/mol
# GULP energy per Si atom -5580.571691 kJ/mol
# Density = 1.835306 g / cm^3
# Si number density = 18.394926 Si / 1000 Ang^3
#
#
#
# Elastic Constant Matrix: (Units=GPa)
#
#
# Indices 1 2 3 4 5 6 
#
# 1 89.4815 64.4333 55.6826 0.0000 0.0000 0.0000
# 2 64.4333 150.7997 54.3780 0.0000 0.0000 0.0000
# 3 55.6826 54.3780 74.3744 0.0000 0.0000 0.0000
# 4 0.0000 0.0000 0.0000 -14.9846 0.0000 0.0000
# 5 0.0000 0.0000 0.0000 0.0000 25.8274 0.0000
# 6 0.0000 0.0000 0.0000 0.0000 0.0000 26.2383
#
#
#
# Elastic Compliance Matrix: (Units=1/GPa)
#
#
# Indices 1 2 3 4 5 6 
#
# 1 0.023405 -0.005000 -0.013867 0.000000 0.000000 0.000000
# 2 -0.005000 0.010074 -0.003622 0.000000 0.000000 0.000000
# 3 -0.013867 -0.003622 0.026476 0.000000 0.000000 0.000000
# 4 0.000000 0.000000 0.000000 -0.066735 0.000000 0.000000
# 5 0.000000 0.000000 0.000000 0.000000 0.038719 0.000000
# 6 0.000000 0.000000 0.000000 0.000000 0.000000 0.038112
#
#
# Mechanical properties :
#
#
# Convention : Reuss Voigt Hill
#
# Bulk Modulus (GPa) = 66.77218 73.73816 70.25517
# Shear Modulus (GPa) = 41.65942 16.76035 29.20989
#
# Velocity S-wave (km/s) = 4.76407 3.02178 3.98921
# Velocity P-wave (km/s) = 8.16333 7.23520 7.71323
#
# Compressibility (1/GPa) = 0.01497630
#
# Stress axis : x y z
#
# Youngs Moduli (GPa) = 42.72540 99.26793 37.77028
#
# Poissons Ratio (x) = 0.49634 0.52377
# Poissons Ratio (y) = 0.21363 0.13680
# Poissons Ratio (z) = 0.59249 0.35954
#
# Static dielectric constant tensor:
#      x y z
#    x 1.586540 0.000000 0.000000 
#    y 0.000000 1.566380 0.000000 
#    z 0.000000 0.000000 1.664460 
# 
# From -- ./inp_files/25168.got.cif
#   From: 2010.05.17/outbox.cif.g08.bks.cpg/sg47_13_cif.got.tgz:25168.got - 2010.06.03 20:15:42.
