data_PCOD9385421
_publ_section_title
;
Structure prediction by ZEFSAII (Michael W. Deem and Ramdas Pophale) SiO2 
 PCOD9385421
Probable space group: P M M M
;
_chemical_formula_sum "Si O2"
_cell_formula_units_Z 48
_cell_length_a 9.335215
_cell_length_b 7.827243
_cell_length_c 33.094049
_cell_angle_alpha 90.000000
_cell_angle_beta 90.000000
_cell_angle_gamma 90.000000
_cell_volume 2418.148943
_symmetry_space_group_name_H-M "P M M M"
_symmetry_group_IT_number 47
_symmetry_cell_setting 'orthorhombic'
loop_
_space_group_symop_operation_xyz
x,y,z
-x,-y,z
x,-y,-z
-x,y,-z
-x,-y,-z
x,y,-z
-x,y,z
x,-y,z
loop_
_atom_site_type_symbol
_atom_site_label
_atom_site_fract_x
_atom_site_fract_y
_atom_site_fract_z
Si Si1 0.171175 0.693630 0.592337
Si Si2 0.836026 0.797075 0.682039
Si Si3 0.663446 0.293659 0.761676
Si Si4 0.330523 0.000000 0.451880
Si Si5 0.834978 0.709286 0.159141
Si Si6 0.162994 0.203896 0.000000
Si Si7 0.662979 0.705203 0.080241
O O1 0.199356 0.500000 0.578834
O O2 0.206816 0.710572 0.639944
O O3 0.000000 0.726412 0.589097
O O4 0.257108 0.833972 0.567600
O O5 0.735691 0.757001 0.719638
O O6 0.000000 0.744435 0.691663
O O7 0.835593 0.000000 0.674730
O O8 0.500000 0.232588 0.764502
O O9 0.660942 0.500000 0.763305
O O10 0.757190 0.234617 0.799808
O O11 0.500000 0.000000 0.443384
O O12 0.309584 0.000000 0.500000
O O13 0.834778 0.500000 0.158974
O O14 0.747275 0.767361 0.119831
O O15 0.000000 0.764010 0.157658
O O16 0.248761 0.257242 0.960118
O O17 0.000000 0.272309 0.000000
O O18 0.155323 0.000000 0.000000
O O19 0.500000 0.770983 0.078051
O O20 0.654516 0.500000 0.083891
#
# Coordination Sequence:
#
# PCOD9385421 Si02
#       7
#     8   8   8   4   8   4   8
#     4  10  21  40  67  95 123 161 211 264 316 371
#     4  10  20  36  58  83 114 152 195 245 297 349
#     4  10  20  33  51  79 114 149 186 229 279 338
#     4  11  25  43  63  91 131 173 209 255 315 378
#     4   9  17  31  53  79 107 141 181 226 276 330
#     4  11  24  39  54  76 106 139 176 219 268 326
#     4  10  20  35  57  83 108 136 174 222 276 334
#
# _framework density 19.849892000000001
#
# number of rings (size 3 to 8) (size 9 to 14) (size 15 to 20)
#    0.000    2.000    0.833    2.750    0.000    8.667 
#    0.000    2.500    0.000    5.000    0.000    0.000 
#    0.000    0.000    0.000    0.000    0.000    0.000 
#
# Total GULP energy -268247.311470 kJ/mol
# GULP energy per Si atom -5588.485656 kJ/mol
# Density = 1.980471 g / cm^3
# Si number density = 19.849892 Si / 1000 Ang^3
#
#
#
# Elastic Constant Matrix: (Units=GPa)
#
#
# Indices 1 2 3 4 5 6 
#
# 1 171.8208 48.2395 107.0262 0.0000 0.0000 0.0000
# 2 48.2395 64.7310 49.6722 0.0000 0.0000 0.0000
# 3 107.0262 49.6722 147.5077 0.0000 0.0000 0.0000
# 4 0.0000 0.0000 0.0000 22.2739 0.0000 0.0000
# 5 0.0000 0.0000 0.0000 0.0000 50.8146 0.0000
# 6 0.0000 0.0000 0.0000 0.0000 0.0000 16.7504
#
#
#
# Elastic Compliance Matrix: (Units=1/GPa)
#
#
# Indices 1 2 3 4 5 6 
#
# 1 0.010981 -0.002791 -0.007028 0.000000 0.000000 0.000000
# 2 -0.002791 0.021541 -0.005229 0.000000 0.000000 0.000000
# 3 -0.007028 -0.005229 0.013639 0.000000 0.000000 0.000000
# 4 0.000000 0.000000 0.000000 0.044896 0.000000 0.000000
# 5 0.000000 0.000000 0.000000 0.000000 0.019679 0.000000
# 6 0.000000 0.000000 0.000000 0.000000 0.000000 0.059700
#
#
# Mechanical properties :
#
#
# Convention : Reuss Voigt Hill
#
# Bulk Modulus (GPa) = 62.24171 88.21505 75.22838
# Shear Modulus (GPa) = 24.28530 29.90921 27.09725
#
# Velocity S-wave (km/s) = 3.50158 3.88592 3.69875
# Velocity P-wave (km/s) = 6.91175 8.04185 7.49812
#
# Compressibility (1/GPa) = 0.01606640
#
# Stress axis : x y z
#
# Youngs Moduli (GPa) = 91.06639 46.42385 73.31829
#
# Poissons Ratio (x) = 0.12955 0.51526
# Poissons Ratio (y) = 0.25413 0.38338
# Poissons Ratio (z) = 0.63999 0.24275
#
# Static dielectric constant tensor:
#      x y z
#    x 1.682030 0.000000 0.000000 
#    y 0.000000 1.719000 0.000000 
#    z 0.000000 0.000000 1.654640 
# 
# From -- ./inp_files/34062.got.cif
#   From: 2010.05.17/outbox.cif.g08.bks.cpg/sg47_18_cif.got.tgz:34062.got - 2010.06.03 20:15:42.
