data_PCOD9385225
_publ_section_title
;
Structure prediction by ZEFSAII (Michael W. Deem and Ramdas Pophale) SiO2 
 PCOD9385225
Probable space group: P M M M
;
_chemical_formula_sum "Si O2"
_cell_formula_units_Z 48
_cell_length_a 7.481188
_cell_length_b 31.838728
_cell_length_c 9.283078
_cell_angle_alpha 90.000000
_cell_angle_beta 90.000000
_cell_angle_gamma 90.000000
_cell_volume 2211.150365
_symmetry_space_group_name_H-M "P M M M"
_symmetry_group_IT_number 47
_symmetry_cell_setting 'orthorhombic'
loop_
_space_group_symop_operation_xyz
x,y,z
-x,-y,z
x,-y,-z
-x,y,-z
-x,-y,-z
x,y,-z
-x,y,z
x,-y,z
loop_
_atom_site_type_symbol
_atom_site_label
_atom_site_fract_x
_atom_site_fract_y
_atom_site_fract_z
Si Si1 0.718271 0.500000 0.166142
Si Si2 0.718857 0.000000 0.833765
Si Si3 0.718624 0.416216 0.666228
Si Si4 0.785877 0.832353 0.163537
Si Si5 0.285691 0.666242 0.836195
Si Si6 0.714289 0.917455 0.336227
Si Si7 0.785842 0.248644 0.336445
O O1 0.500000 0.500000 0.165573
O O2 0.774547 0.541893 0.249835
O O3 0.775663 0.500000 0.000000
O O4 0.778804 0.958231 0.750531
O O5 0.500000 0.000000 0.833923
O O6 0.775284 0.000000 0.000000
O O7 0.775350 0.416398 0.500000
O O8 0.500000 0.416028 0.665945
O O9 0.779304 0.374466 0.749233
O O10 0.751517 0.874918 0.250230
O O11 0.716660 0.791870 0.250064
O O12 0.000000 0.827737 0.154312
O O13 0.716677 0.834457 0.000000
O O14 0.500000 0.662086 0.844492
O O15 0.248738 0.708820 0.750350
O O16 0.217226 0.667967 0.000000
O O17 0.782864 0.915724 0.500000
O O18 0.500000 0.921526 0.344561
O O19 0.716718 0.250766 0.500000
O O20 0.000000 0.244072 0.345617
#
# Coordination Sequence:
#
# PCOD9385225 Si02
#       7
#     4   4   8   8   8   8   8
#     4   9  15  23  37  59  90 127 164 201 244 297
#     4   9  17  31  52  77 106 139 172 208 250 295
#     4   9  16  26  41  63  93 128 164 203 248 296
#     4  10  21  37  56  77 102 133 169 210 255 301
#     4  10  20  33  50  74 103 133 166 207 254 300
#     4  10  20  34  54  80 108 138 172 209 250 298
#     4  10  21  37  56  76  99 131 170 209 252 304
#
# _framework density 21.708158000000001
#
# number of rings (size 3 to 8) (size 9 to 14) (size 15 to 20)
#    0.000    2.333    0.000    3.000    0.000    8.667 
#    0.000    0.417    0.000    2.500    0.000    0.583 
#    0.000    4.667    0.000    0.000    0.000    0.000 
#
# Total GULP energy -268343.531178 kJ/mol
# GULP energy per Si atom -5590.490233 kJ/mol
# Density = 2.165875 g / cm^3
# Si number density = 21.708158 Si / 1000 Ang^3
#
#
#
# Elastic Constant Matrix: (Units=GPa)
#
#
# Indices 1 2 3 4 5 6 
#
# 1 62.0220 -1.3465 8.8003 0.0000 0.0000 0.0000
# 2 -1.3465 264.7743 173.2496 0.0000 0.0000 0.0000
# 3 8.8003 173.2496 287.4139 0.0000 0.0000 0.0000
# 4 0.0000 0.0000 0.0000 47.8182 0.0000 0.0000
# 5 0.0000 0.0000 0.0000 0.0000 9.4116 0.0000
# 6 0.0000 0.0000 0.0000 0.0000 0.0000 33.4495
#
#
#
# Elastic Compliance Matrix: (Units=1/GPa)
#
#
# Indices 1 2 3 4 5 6 
#
# 1 0.016266 0.000675 -0.000905 0.000000 0.000000 0.000000
# 2 0.000675 0.006265 -0.003797 0.000000 0.000000 0.000000
# 3 -0.000905 -0.003797 0.005796 0.000000 0.000000 0.000000
# 4 0.000000 0.000000 0.000000 0.020913 0.000000 0.000000
# 5 0.000000 0.000000 0.000000 0.000000 0.106252 0.000000
# 6 0.000000 0.000000 0.000000 0.000000 0.000000 0.029896
#
#
# Mechanical properties :
#
#
# Convention : Reuss Voigt Hill
#
# Bulk Modulus (GPa) = 49.32711 108.40191 78.86451
# Shear Modulus (GPa) = 24.97518 47.03632 36.00575
#
# Velocity S-wave (km/s) = 3.39558 4.65989 4.07704
# Velocity P-wave (km/s) = 6.17620 8.88804 7.65319
#
# Compressibility (1/GPa) = 0.02027283
#
# Stress axis : x y z
#
# Youngs Moduli (GPa) = 61.47665 159.62519 172.54024
#
# Poissons Ratio (x) = -0.10771 0.15611
# Poissons Ratio (y) = -0.04148 0.65512
# Poissons Ratio (z) = 0.05562 0.60609
#
# Static dielectric constant tensor:
#      x y z
#    x 1.847240 0.000000 0.000000 
#    y 0.000000 1.721420 0.000000 
#    z 0.000000 0.000000 1.758190 
# 
# From -- ./inp_files/2599.got.cif
#   From: 2010.05.17/outbox.cif.g08.bks.cpg/sg47_2_cif.got.tgz:2599.got - 2010.06.03 20:15:42.
