data_PCOD9385286
_publ_section_title
;
Structure prediction by ZEFSAII (Michael W. Deem and Ramdas Pophale) SiO2 
 PCOD9385286
Probable space group: P M M M
;
_chemical_formula_sum "Si O2"
_cell_formula_units_Z 56
_cell_length_a 19.451737
_cell_length_b 18.965759
_cell_length_c 9.098159
_cell_angle_alpha 90.000000
_cell_angle_beta 90.000000
_cell_angle_gamma 90.000000
_cell_volume 3356.465124
_symmetry_space_group_name_H-M "P M M M"
_symmetry_group_IT_number 47
_symmetry_cell_setting 'orthorhombic'
loop_
_space_group_symop_operation_xyz
x,y,z
-x,-y,z
x,-y,-z
-x,y,-z
-x,-y,-z
x,y,-z
-x,y,z
x,-y,z
loop_
_atom_site_type_symbol
_atom_site_label
_atom_site_fract_x
_atom_site_fract_y
_atom_site_fract_z
Si Si1 0.290204 0.832449 0.675716
Si Si2 0.284224 0.583243 0.674189
Si Si3 0.211435 0.293635 0.175852
Si Si4 0.423745 0.414397 0.170274
Si Si5 0.152433 0.080717 0.324875
Si Si6 0.577902 0.081250 0.678910
Si Si7 0.077490 0.208079 0.823193
O O1 0.293390 0.818213 0.500000
O O2 0.265667 0.762868 0.759596
O O3 0.229645 0.889936 0.698792
O O4 0.362317 0.865703 0.725929
O O5 0.279548 0.592615 0.500000
O O6 0.276625 0.500000 0.707457
O O7 0.229147 0.631092 0.756379
O O8 0.359735 0.606634 0.730608
O O9 0.136063 0.264487 0.218774
O O10 0.216129 0.295573 0.000000
O O11 0.500000 0.390122 0.216691
O O12 0.425393 0.500000 0.173032
O O13 0.412712 0.393812 0.000000
O O14 0.139911 0.083712 0.500000
O O15 0.101312 0.133916 0.244388
O O16 0.146188 0.000000 0.276374
O O17 0.579024 0.081404 0.500000
O O18 0.500000 0.099645 0.724399
O O19 0.591771 0.000000 0.723526
O O20 0.000000 0.226166 0.777473
O O21 0.078940 0.202664 0.000000
#
# Coordination Sequence:
#
# PCOD9385286 Si02
#       7
#     8   8   8   8   8   8   8
#     4   9  16  28  46  66  92 125 159 197 239 280
#     4  10  20  33  51  75 100 125 156 196 238 281
#     4  10  20  34  52  71  92 121 156 193 235 286
#     4   8  14  26  45  69  97 127 156 186 223 268
#     4   9  17  28  44  69  98 126 157 192 231 278
#     4   8  13  22  40  67  94 121 159 205 245 276
#     4   9  19  35  52  70  93 122 156 193 234 281
#
# _framework density 16.68422
#
# number of rings (size 3 to 8) (size 9 to 14) (size 15 to 20)
#    0.000    3.000    0.000    2.143    0.000    4.286 
#    0.000    3.571    0.000    4.714    0.000    4.000 
#    0.000    0.000    0.000    0.000    0.000    0.000 
#
# Total GULP energy -311988.374693 kJ/mol
# GULP energy per Si atom -5571.220977 kJ/mol
# Density = 1.664625 g / cm^3
# Si number density = 16.684220 Si / 1000 Ang^3
#
#
#
# Elastic Constant Matrix: (Units=GPa)
#
#
# Indices 1 2 3 4 5 6 
#
# 1 121.0404 60.8913 40.1893 0.0000 0.0000 0.0000
# 2 60.8913 78.2560 41.4764 0.0000 0.0000 0.0000
# 3 40.1893 41.4764 30.1958 0.0000 0.0000 0.0000
# 4 0.0000 0.0000 0.0000 19.2656 0.0000 0.0000
# 5 0.0000 0.0000 0.0000 0.0000 19.8373 0.0000
# 6 0.0000 0.0000 0.0000 0.0000 0.0000 13.1817
#
#
#
# Elastic Compliance Matrix: (Units=1/GPa)
#
#
# Indices 1 2 3 4 5 6 
#
# 1 0.015145 -0.004047 -0.014598 0.000000 0.000000 0.000000
# 2 -0.004047 0.048063 -0.060633 0.000000 0.000000 0.000000
# 3 -0.014598 -0.060633 0.135830 0.000000 0.000000 0.000000
# 4 0.000000 0.000000 0.000000 0.051906 0.000000 0.000000
# 5 0.000000 0.000000 0.000000 0.000000 0.050410 0.000000
# 6 0.000000 0.000000 0.000000 0.000000 0.000000 0.075863
#
#
# Mechanical properties :
#
#
# Convention : Reuss Voigt Hill
#
# Bulk Modulus (GPa) = 24.70162 57.17848 40.94005
# Shear Modulus (GPa) = 9.10305 16.25261 12.67783
#
# Velocity S-wave (km/s) = 2.33836 3.12449 2.75956
# Velocity P-wave (km/s) = 4.70405 6.88201 5.89449
#
# Compressibility (1/GPa) = 0.04048318
#
# Stress axis : x y z
#
# Youngs Moduli (GPa) = 66.03011 20.80582 7.36214
#
# Poissons Ratio (x) = 0.08420 0.10747
# Poissons Ratio (y) = 0.26723 0.44639
# Poissons Ratio (z) = 0.96390 1.26151
#
# Static dielectric constant tensor:
#      x y z
#    x 1.575520 0.000000 0.000000 
#    y 0.000000 1.554980 0.000000 
#    z 0.000000 0.000000 1.554530 
# 
# From -- ./inp_files/9849.got.cif
#   From: 2010.05.17/outbox.cif.g08.bks.cpg/sg47_5_cif.got.tgz:9849.got - 2010.06.03 20:15:42.
