data_PCOD9385079
_publ_section_title
;
Structure prediction by ZEFSAII (Michael W. Deem and Ramdas Pophale) SiO2 
 PCOD9385079
Probable space group: P M M M
;
_chemical_formula_sum "Si O2"
_cell_formula_units_Z 64
_cell_length_a 7.470653
_cell_length_b 15.003591
_cell_length_c 26.435079
_cell_angle_alpha 90.000000
_cell_angle_beta 90.000000
_cell_angle_gamma 90.000000
_cell_volume 2963.018710
_symmetry_space_group_name_H-M "P M M M"
_symmetry_group_IT_number 47
_symmetry_cell_setting 'orthorhombic'
loop_
_space_group_symop_operation_xyz
x,y,z
-x,-y,z
x,-y,-z
-x,y,-z
-x,-y,-z
x,y,-z
-x,y,z
x,-y,z
loop_
_atom_site_type_symbol
_atom_site_label
_atom_site_fract_x
_atom_site_fract_y
_atom_site_fract_z
Si Si1 0.218967 0.896843 0.347067
Si Si2 0.785241 0.597874 0.715736
Si Si3 0.284693 0.404584 0.059349
Si Si4 0.210099 0.208560 0.942834
Si Si5 0.208857 0.209694 0.444616
Si Si6 0.287593 0.401240 0.595990
Si Si7 0.218882 0.786102 0.248107
Si Si8 0.219311 0.898373 0.151590
O O1 0.283106 0.845375 0.397209
O O2 0.274112 0.843138 0.297100
O O3 0.000000 0.895310 0.347067
O O4 0.273277 0.000000 0.346056
O O5 0.716002 0.500000 0.730656
O O6 0.748116 0.609771 0.655938
O O7 0.719291 0.684406 0.745285
O O8 0.000000 0.596073 0.721219
O O9 0.500000 0.404336 0.060822
O O10 0.223474 0.500000 0.081255
O O11 0.224321 0.309130 0.079039
O O12 0.230651 0.404626 0.000000
O O13 0.283230 0.139983 0.902030
O O14 0.000000 0.189397 0.947629
O O15 0.286651 0.206314 0.000000
O O16 0.288069 0.192428 0.500000
O O17 0.216405 0.314923 0.432457
O O18 0.000000 0.184946 0.447007
O O19 0.500000 0.401641 0.588211
O O20 0.218791 0.500000 0.581437
O O21 0.276600 0.834810 0.197210
O O22 0.000000 0.785018 0.248085
O O23 0.000000 0.897082 0.151199
O O24 0.273814 0.000000 0.159836
#
# Coordination Sequence:
#
# PCOD9385079 Si02
#       8
#     8   8   8   8   8   8   8   8
#     4   9  16  27  46  72  97 120 151 195 243 284
#     4   9  16  28  49  74  98 122 151 192 241 290
#     4   8  14  26  45  67  90 120 159 197 233 280
#     4   9  17  28  43  67  99 131 162 199 243 287
#     4  10  20  33  49  72 101 129 159 198 242 285
#     4  10  20  33  50  72  98 129 163 196 233 282
#     4   9  15  26  46  71  96 121 154 196 239 283
#     4   9  17  28  43  67  98 129 162 202 245 286
#
# _framework density 21.599594
#
# number of rings (size 3 to 8) (size 9 to 14) (size 15 to 20)
#    0.000    2.875    1.250    1.125    0.000    3.500 
#    0.000    5.625    0.000    3.750    0.000    4.375 
#    0.000    0.000    0.000    0.000    0.000    0.000 
#
# Total GULP energy -357060.704088 kJ/mol
# GULP energy per Si atom -5579.073501 kJ/mol
# Density = 2.155043 g / cm^3
# Si number density = 21.599594 Si / 1000 Ang^3
#
#
#
# Elastic Constant Matrix: (Units=GPa)
#
#
# Indices 1 2 3 4 5 6 
#
# 1 62.4446 -0.8883 4.7788 0.0000 0.0000 0.0000
# 2 -0.8883 110.4034 73.1099 0.0000 0.0000 0.0000
# 3 4.7788 73.1099 116.3963 0.0000 0.0000 0.0000
# 4 0.0000 0.0000 0.0000 9.6822 0.0000 0.0000
# 5 0.0000 0.0000 0.0000 0.0000 -20.7580 0.0000
# 6 0.0000 0.0000 0.0000 0.0000 0.0000 26.5147
#
#
#
# Elastic Compliance Matrix: (Units=1/GPa)
#
#
# Indices 1 2 3 4 5 6 
#
# 1 0.016125 0.000973 -0.001273 0.000000 0.000000 0.000000
# 2 0.000973 0.015567 -0.009818 0.000000 0.000000 0.000000
# 3 -0.001273 -0.009818 0.014810 0.000000 0.000000 0.000000
# 4 0.000000 0.000000 0.000000 0.103282 0.000000 0.000000
# 5 0.000000 0.000000 0.000000 0.000000 -0.048174 0.000000
# 6 0.000000 0.000000 0.000000 0.000000 0.000000 0.037715
#
#
# Mechanical properties :
#
#
# Convention : Reuss Voigt Hill
#
# Bulk Modulus (GPa) = 38.07117 49.24946 43.66031
# Shear Modulus (GPa) = 29.70587 17.23737 23.47162
#
# Velocity S-wave (km/s) = 3.71252 2.82803 3.30004
# Velocity P-wave (km/s) = 6.00344 5.78915 5.89727
#
# Compressibility (1/GPa) = 0.02626660
#
# Stress axis : x y z
#
# Youngs Moduli (GPa) = 62.01377 64.23909 67.52101
#
# Poissons Ratio (x) = -0.06249 0.08596
# Poissons Ratio (y) = -0.06033 0.66290
# Poissons Ratio (z) = 0.07895 0.63068
#
# Static dielectric constant tensor:
#      x y z
#    x 1.784180 0.000000 0.000000 
#    y 0.000000 1.782050 0.000000 
#    z 0.000000 0.000000 1.762470 
# 
# From -- ./inp_files/21883.got.cif
#   From: 2010.05.17/outbox.cif.g08.bks.cpg/sg47_11_cif.got.tgz:21883.got - 2010.06.03 20:15:42.
