data_PCOD9385518
_publ_section_title
;
Structure prediction by ZEFSAII (Michael W. Deem and Ramdas Pophale) SiO2 
 PCOD9385518
Probable space group: P M M M
;
_chemical_formula_sum "Si O2"
_cell_formula_units_Z 48
_cell_length_a 29.900803
_cell_length_b 7.571487
_cell_length_c 9.899897
_cell_angle_alpha 90.000000
_cell_angle_beta 90.000000
_cell_angle_gamma 90.000000
_cell_volume 2241.272739
_symmetry_space_group_name_H-M "P M M M"
_symmetry_group_IT_number 47
_symmetry_cell_setting 'orthorhombic'
loop_
_space_group_symop_operation_xyz
x,y,z
-x,-y,z
x,-y,-z
-x,y,-z
-x,-y,-z
x,y,-z
-x,y,z
x,-y,z
loop_
_atom_site_type_symbol
_atom_site_label
_atom_site_fract_x
_atom_site_fract_y
_atom_site_fract_z
Si Si1 0.551377 0.715429 0.153051
Si Si2 0.051782 0.282672 0.000000
Si Si3 0.369874 0.712646 0.345306
Si Si4 0.051828 0.213097 0.500000
Si Si5 0.889478 0.297840 0.246784
Si Si6 0.207625 0.206605 0.653072
Si Si7 0.714617 0.788278 0.845497
O O1 0.500000 0.769652 0.175840
O O2 0.551852 0.500000 0.153930
O O3 0.585690 0.776339 0.267236
O O4 0.564565 0.769051 0.000000
O O5 0.080914 0.221293 0.126647
O O6 0.050279 0.500000 0.000000
O O7 0.000000 0.225395 0.000000
O O8 0.365009 0.777757 0.500000
O O9 0.372733 0.500000 0.353133
O O10 0.328386 0.754311 0.247821
O O11 0.077604 0.287423 0.627375
O O12 0.000000 0.261086 0.500000
O O13 0.055477 0.000000 0.500000
O O14 0.879086 0.500000 0.211630
O O15 0.842407 0.216194 0.288855
O O16 0.209331 0.282103 0.500000
O O17 0.242846 0.282094 0.760632
O O18 0.218913 0.000000 0.640130
O O19 0.719451 0.000000 0.856957
O O20 0.710916 0.720369 0.000000
#
# Coordination Sequence:
#
# PCOD9385518 Si02
#       7
#     8   4   8   4   8   8   8
#     4   8  14  26  46  73 107 147 188 230 280 335
#     4   9  20  38  57  81 115 149 181 221 270 323
#     4  10  20  33  52  81 114 147 185 232 282 331
#     4  11  23  39  59  85 117 151 189 229 270 321
#     4  11  22  37  60  87 114 147 185 227 275 326
#     4  10  21  38  58  80 111 145 178 222 274 330
#     4  10  22  39  59  82 107 144 189 228 275 335
#
# _framework density 21.416402000000001
#
# number of rings (size 3 to 8) (size 9 to 14) (size 15 to 20)
#    0.000    2.167    0.833    2.750    1.167    4.333 
#    0.000    2.917    0.000    3.500    0.000    3.500 
#    0.000    0.000    0.000    0.000    0.000    0.000 
#
# Total GULP energy -267963.982076 kJ/mol
# GULP energy per Si atom -5582.582960 kJ/mol
# Density = 2.136766 g / cm^3
# Si number density = 21.416402 Si / 1000 Ang^3
#
#
#
# Elastic Constant Matrix: (Units=GPa)
#
#
# Indices 1 2 3 4 5 6 
#
# 1 163.5522 -3.3769 122.7063 0.0000 0.0000 0.0000
# 2 -3.3769 49.8077 2.0760 0.0000 0.0000 0.0000
# 3 122.7063 2.0760 239.8524 0.0000 0.0000 0.0000
# 4 0.0000 0.0000 0.0000 13.1191 0.0000 0.0000
# 5 0.0000 0.0000 0.0000 0.0000 25.3410 0.0000
# 6 0.0000 0.0000 0.0000 0.0000 0.0000 19.9415
#
#
#
# Elastic Compliance Matrix: (Units=1/GPa)
#
#
# Indices 1 2 3 4 5 6 
#
# 1 0.009962 0.000888 -0.005104 0.000000 0.000000 0.000000
# 2 0.000888 0.020164 -0.000629 0.000000 0.000000 0.000000
# 3 -0.005104 -0.000629 0.006786 0.000000 0.000000 0.000000
# 4 0.000000 0.000000 0.000000 0.076225 0.000000 0.000000
# 5 0.000000 0.000000 0.000000 0.000000 0.039462 0.000000
# 6 0.000000 0.000000 0.000000 0.000000 0.000000 0.050147
#
#
# Mechanical properties :
#
#
# Convention : Reuss Voigt Hill
#
# Bulk Modulus (GPa) = 36.73528 77.33591 57.03560
# Shear Modulus (GPa) = 22.57249 33.80079 28.18664
#
# Velocity S-wave (km/s) = 3.25003 3.97705 3.63178
# Velocity P-wave (km/s) = 5.59229 7.56824 6.65402
#
# Compressibility (1/GPa) = 0.02722179
#
# Stress axis : x y z
#
# Youngs Moduli (GPa) = 100.38104 49.59419 147.36387
#
# Poissons Ratio (x) = -0.04405 0.75217
# Poissons Ratio (y) = -0.08915 0.09268
# Poissons Ratio (z) = 0.51236 0.03119
#
# Static dielectric constant tensor:
#      x y z
#    x 1.729960 0.000000 0.000000 
#    y 0.000000 1.844800 0.000000 
#    z 0.000000 0.000000 1.756510 
# 
# From -- ./inp_files/13871.got.cif
#   From: 2010.05.17/outbox.cif.g08.bks.cpg/sg47_7_cif.got.tgz:13871.got - 2010.06.03 20:15:42.
