data_PCOD9385193
_publ_section_title
;
Structure prediction by ZEFSAII (Michael W. Deem and Ramdas Pophale) SiO2 
 PCOD9385193
Probable space group: P M M M
;
_chemical_formula_sum "Si O2"
_cell_formula_units_Z 64
_cell_length_a 7.480997
_cell_length_b 15.082360
_cell_length_c 26.143207
_cell_angle_alpha 90.000000
_cell_angle_beta 90.000000
_cell_angle_gamma 90.000000
_cell_volume 2949.766540
_symmetry_space_group_name_H-M "P M M M"
_symmetry_group_IT_number 47
_symmetry_cell_setting 'orthorhombic'
loop_
_space_group_symop_operation_xyz
x,y,z
-x,-y,z
x,-y,-z
-x,y,-z
-x,-y,-z
x,y,-z
-x,y,z
x,-y,z
loop_
_atom_site_type_symbol
_atom_site_label
_atom_site_fract_x
_atom_site_fract_y
_atom_site_fract_z
Si Si1 0.215540 0.212975 0.941670
Si Si2 0.715140 0.597133 0.715638
Si Si3 0.788629 0.401902 0.594526
Si Si4 0.718792 0.783766 0.753534
Si Si5 0.712002 0.901306 0.846250
Si Si6 0.786742 0.594866 0.061846
Si Si7 0.718534 0.897364 0.345619
Si Si8 0.708695 0.790480 0.555931
O O1 0.263226 0.136123 0.902877
O O2 0.282177 0.309139 0.921344
O O3 0.000000 0.218376 0.943674
O O4 0.277817 0.199478 0.000000
O O5 0.500000 0.595974 0.719736
O O6 0.782024 0.500000 0.731844
O O7 0.757095 0.607822 0.655407
O O8 0.780759 0.683013 0.745708
O O9 0.718583 0.500000 0.579693
O O10 0.716315 0.314516 0.567493
O O11 0.000000 0.402345 0.585221
O O12 0.500000 0.781282 0.753826
O O13 0.782154 0.831532 0.804842
O O14 0.771972 0.842907 0.704707
O O15 0.500000 0.906947 0.836870
O O16 0.786380 0.000000 0.840152
O O17 0.713794 0.500000 0.080567
O O18 0.000000 0.593509 0.071565
O O19 0.765618 0.595800 0.000000
O O20 0.500000 0.896511 0.345745
O O21 0.782526 0.845547 0.396177
O O22 0.773762 0.000000 0.344410
O O23 0.787864 0.808302 0.500000
O O24 0.500000 0.814823 0.553632
#
# Coordination Sequence:
#
# PCOD9385193 Si02
#       8
#     8   8   8   8   8   8   8   8
#     4   9  18  33  53  76 102 134 171 210 253 300
#     4   9  16  29  53  80 103 129 164 206 251 301
#     4  10  20  33  50  73 102 136 171 206 249 304
#     4   9  16  30  52  76 100 128 164 203 245 297
#     4  10  21  35  51  73 101 134 172 213 255 300
#     4   7  10  20  42  70  95 120 155 196 234 279
#     4   9  16  28  50  77 100 125 162 209 256 299
#     4  10  20  33  50  75 104 132 168 215 260 301
#
# _framework density 21.696632000000001
#
# number of rings (size 3 to 8) (size 9 to 14) (size 15 to 20)
#    0.000    2.875    1.250    1.875    0.000    3.750 
#    0.000    5.000    0.000    1.500    0.000    2.625 
#    0.000    0.000    0.000    0.000    0.000    0.000 
#
# Total GULP energy -357048.440199 kJ/mol
# GULP energy per Si atom -5578.881878 kJ/mol
# Density = 2.164725 g / cm^3
# Si number density = 21.696632 Si / 1000 Ang^3
#
#
#
# Elastic Constant Matrix: (Units=GPa)
#
#
# Indices 1 2 3 4 5 6 
#
# 1 60.9411 -1.9750 -3.2695 0.0000 0.0000 0.0000
# 2 -1.9750 120.3113 60.4359 0.0000 0.0000 0.0000
# 3 -3.2695 60.4359 94.7674 0.0000 0.0000 0.0000
# 4 0.0000 0.0000 0.0000 0.5472 0.0000 0.0000
# 5 0.0000 0.0000 0.0000 0.0000 10.6297 0.0000
# 6 0.0000 0.0000 0.0000 0.0000 0.0000 -8.0821
#
#
#
# Elastic Compliance Matrix: (Units=1/GPa)
#
#
# Indices 1 2 3 4 5 6 
#
# 1 0.016440 -0.000022 0.000581 0.000000 0.000000 0.000000
# 2 -0.000022 0.012230 -0.007800 0.000000 0.000000 0.000000
# 3 0.000581 -0.007800 0.015546 0.000000 0.000000 0.000000
# 4 0.000000 0.000000 0.000000 1.827446 0.000000 0.000000
# 5 0.000000 0.000000 0.000000 0.000000 0.094076 0.000000
# 6 0.000000 0.000000 0.000000 0.000000 0.000000 -0.123730
#
#
# Mechanical properties :
#
#
# Convention : Reuss Voigt Hill
#
# Bulk Modulus (GPa) = 33.63123 42.93361 38.28242
# Shear Modulus (GPa) = 2.67895 15.34086 9.00990
#
# Velocity S-wave (km/s) = 1.11239 2.66195 2.04002
# Velocity P-wave (km/s) = 4.14538 5.41101 4.81992
#
# Compressibility (1/GPa) = 0.02973426
#
# Stress axis : x y z
#
# Youngs Moduli (GPa) = 60.82813 81.76936 64.32352
#
# Poissons Ratio (x) = 0.00181 -0.03739
# Poissons Ratio (y) = 0.00135 0.50172
# Poissons Ratio (z) = -0.03536 0.63779
#
# Static dielectric constant tensor:
#      x y z
#    x 2.026540 0.000000 0.000000 
#    y 0.000000 1.804960 0.000000 
#    z 0.000000 0.000000 1.760030 
# 
# From -- ./inp_files/32101.got.cif
#   From: 2010.05.17/outbox.cif.g08.bks.cpg/sg47_17_cif.got.tgz:32101.got - 2010.06.03 20:15:42.
