data_PCOD9385303
_publ_section_title
;
Structure prediction by ZEFSAII (Michael W. Deem and Ramdas Pophale) SiO2 
 PCOD9385303
Probable space group: P M M M
;
_chemical_formula_sum "Si O2"
_cell_formula_units_Z 36
_cell_length_a 24.119895
_cell_length_b 9.610498
_cell_length_c 7.408837
_cell_angle_alpha 90.000000
_cell_angle_beta 90.000000
_cell_angle_gamma 90.000000
_cell_volume 1717.399553
_symmetry_space_group_name_H-M "P M M M"
_symmetry_group_IT_number 47
_symmetry_cell_setting 'orthorhombic'
loop_
_space_group_symop_operation_xyz
x,y,z
-x,-y,z
x,-y,-z
-x,y,-z
-x,-y,-z
x,y,-z
-x,y,z
x,-y,z
loop_
_atom_site_type_symbol
_atom_site_label
_atom_site_fract_x
_atom_site_fract_y
_atom_site_fract_z
Si Si1 0.561210 0.161384 0.780022
Si Si2 0.210585 0.661093 0.779686
Si Si3 0.334693 0.339349 0.219834
Si Si4 0.000000 0.658163 0.285877
Si Si5 0.108068 0.157342 0.785621
O O1 0.500000 0.212325 0.724003
O O2 0.613871 0.248156 0.716691
O O3 0.566137 0.000000 0.728071
O O4 0.561715 0.165277 0.000000
O O5 0.201395 0.500000 0.725702
O O6 0.272714 0.704437 0.724490
O O7 0.162068 0.761834 0.714652
O O8 0.209771 0.661264 0.000000
O O9 0.341865 0.500000 0.271924
O O10 0.335013 0.334969 0.000000
O O11 0.945742 0.746616 0.237425
O O12 0.000000 0.500000 0.211530
O O13 0.000000 0.646330 0.500000
O O14 0.100812 0.000000 0.714733
O O15 0.116296 0.144913 0.000000
#
# Coordination Sequence:
#
# PCOD9385303 Si02
#       5
#     8   8   8   4   8
#     4   8  13  19  25  35  55  86 124 165 209 255
#     4   8  14  25  40  58  81 108 138 175 219 263
#     4   8  13  20  30  45  65  91 126 168 211 252
#     4  11  24  39  54  72  94 123 156 185 220 268
#     4  10  20  33  51  75  98 120 150 187 227 271
#
# _framework density 20.961924
#
# number of rings (size 3 to 8) (size 9 to 14) (size 15 to 20)
#    0.000    3.222    0.000    3.333    0.000    4.889 
#    0.000    6.667    0.000    0.000    0.000    0.000 
#    0.000    0.000    0.000    0.000    0.000    1.111 
#
# Total GULP energy -200843.489345 kJ/mol
# GULP energy per Si atom -5578.985815 kJ/mol
# Density = 2.091421 g / cm^3
# Si number density = 20.961924 Si / 1000 Ang^3
#
#
#
# Elastic Constant Matrix: (Units=GPa)
#
#
# Indices 1 2 3 4 5 6 
#
# 1 247.6031 144.8315 2.3632 0.0000 0.0000 0.0000
# 2 144.8315 151.3007 5.5288 0.0000 0.0000 0.0000
# 3 2.3632 5.5288 68.9276 0.0000 0.0000 0.0000
# 4 0.0000 0.0000 0.0000 -11.1356 0.0000 0.0000
# 5 0.0000 0.0000 0.0000 0.0000 -42.9412 0.0000
# 6 0.0000 0.0000 0.0000 0.0000 0.0000 247.1660
#
#
#
# Elastic Compliance Matrix: (Units=1/GPa)
#
#
# Indices 1 2 3 4 5 6 
#
# 1 0.009188 -0.008809 0.000392 0.000000 0.000000 0.000000
# 2 -0.008809 0.015075 -0.000907 0.000000 0.000000 0.000000
# 3 0.000392 -0.000907 0.014567 0.000000 0.000000 0.000000
# 4 0.000000 0.000000 0.000000 -0.089802 0.000000 0.000000
# 5 0.000000 0.000000 0.000000 0.000000 -0.023288 0.000000
# 6 0.000000 0.000000 0.000000 0.000000 0.000000 0.004046
#
#
# Mechanical properties :
#
#
# Convention : Reuss Voigt Hill
#
# Bulk Modulus (GPa) = 49.55263 85.91982 67.73623
# Shear Modulus (GPa) = -111.51466 59.62505 -25.94481
#
# Velocity S-wave (km/s) = -7.30166 5.33912 -3.52193
# Velocity P-wave (km/s) = 6.88439 8.89302 3.98063
#
# Compressibility (1/GPa) = 0.02018056
#
# Stress axis : x y z
#
# Youngs Moduli (GPa) = 108.83931 66.33427 68.64679
#
# Poissons Ratio (x) = 0.58436 -0.02688
# Poissons Ratio (y) = 0.95880 0.06227
# Poissons Ratio (z) = -0.04262 0.06018
#
# Static dielectric constant tensor:
#      x y z
#    x 1.740350 0.000000 0.000000 
#    y 0.000000 1.723910 0.000000 
#    z 0.000000 0.000000 1.810400 
# 
# From -- ./inp_files/12060.got.cif
#   From: 2010.05.17/outbox.cif.g08.bks.cpg/sg47_7_cif.got.tgz:12060.got - 2010.06.03 20:15:42.
