data_PCOD9385682
_publ_section_title
;
Structure prediction by ZEFSAII (Michael W. Deem and Ramdas Pophale) SiO2 
 PCOD9385682
Probable space group: P M M M
;
_chemical_formula_sum "Si O2"
_cell_formula_units_Z 48
_cell_length_a 8.991918
_cell_length_b 32.644446
_cell_length_c 7.449831
_cell_angle_alpha 90.000000
_cell_angle_beta 90.000000
_cell_angle_gamma 90.000000
_cell_volume 2186.794945
_symmetry_space_group_name_H-M "P M M M"
_symmetry_group_IT_number 47
_symmetry_cell_setting 'orthorhombic'
loop_
_space_group_symop_operation_xyz
x,y,z
-x,-y,z
x,-y,-z
-x,y,-z
-x,-y,-z
x,y,-z
-x,y,z
x,-y,z
loop_
_atom_site_type_symbol
_atom_site_label
_atom_site_fract_x
_atom_site_fract_y
_atom_site_fract_z
Si Si1 0.165879 0.333952 0.784867
Si Si2 0.830059 0.500000 0.280257
Si Si3 0.500000 0.048849 0.288906
Si Si4 0.169739 0.171867 0.785780
Si Si5 0.333556 0.581797 0.285116
Si Si6 0.827770 0.077451 0.705366
Si Si7 0.330475 0.252710 0.780604
O O1 0.256911 0.374935 0.749312
O O2 0.237587 0.291806 0.718053
O O3 0.000000 0.338982 0.714524
O O4 0.159095 0.329827 0.000000
O O5 0.826885 0.500000 0.500000
O O6 0.752446 0.458247 0.218776
O O7 0.000000 0.500000 0.224521
O O8 0.500000 0.061748 0.500000
O O9 0.334306 0.062688 0.217892
O O10 0.500000 0.000000 0.277221
O O11 0.185876 0.126749 0.706430
O O12 0.272600 0.208485 0.719885
O O13 0.000000 0.185402 0.757413
O O14 0.192409 0.166814 0.000000
O O15 0.340493 0.577395 0.500000
O O16 0.500000 0.582358 0.213417
O O17 0.831293 0.061987 0.500000
O O18 0.000000 0.068886 0.777745
O O19 0.500000 0.258722 0.729516
O O20 0.322226 0.251806 0.000000
#
# Coordination Sequence:
#
# PCOD9385682 Si02
#       7
#     8   4   4   8   8   8   8
#     4  10  20  34  52  73  99 132 167 204 247 293
#     4   9  17  31  52  75  98 127 162 198 240 293
#     4   9  18  32  51  75 101 131 169 209 249 298
#     4   9  17  30  49  72  97 128 166 204 242 290
#     4  10  20  34  53  76 101 128 161 202 247 295
#     4   9  18  32  50  73 101 131 164 206 255 299
#     4   9  17  29  47  71  97 128 166 203 239 287
#
# _framework density 21.949932
#
# number of rings (size 3 to 8) (size 9 to 14) (size 15 to 20)
#    0.000    2.667    0.000    1.750    1.167    5.333 
#    0.000    2.917    0.000    6.500    0.000    2.333 
#    0.000    0.000    0.000    0.000    0.000    0.000 
#
# Total GULP energy -267696.405353 kJ/mol
# GULP energy per Si atom -5577.008445 kJ/mol
# Density = 2.189997 g / cm^3
# Si number density = 21.949932 Si / 1000 Ang^3
#
#
#
# Elastic Constant Matrix: (Units=GPa)
#
#
# Indices 1 2 3 4 5 6 
#
# 1 192.1562 70.5882 16.5940 0.0000 0.0000 0.0000
# 2 70.5882 84.8342 1.6146 0.0000 0.0000 0.0000
# 3 16.5940 1.6146 59.8460 0.0000 0.0000 0.0000
# 4 0.0000 0.0000 0.0000 8.2896 0.0000 0.0000
# 5 0.0000 0.0000 0.0000 0.0000 3.3891 0.0000
# 6 0.0000 0.0000 0.0000 0.0000 0.0000 50.8251
#
#
#
# Elastic Compliance Matrix: (Units=1/GPa)
#
#
# Indices 1 2 3 4 5 6 
#
# 1 0.007720 -0.006386 -0.001968 0.000000 0.000000 0.000000
# 2 -0.006386 0.017076 0.001310 0.000000 0.000000 0.000000
# 3 -0.001968 0.001310 0.017220 0.000000 0.000000 0.000000
# 4 0.000000 0.000000 0.000000 0.120633 0.000000 0.000000
# 5 0.000000 0.000000 0.000000 0.000000 0.295067 0.000000
# 6 0.000000 0.000000 0.000000 0.000000 0.000000 0.019675
#
#
# Mechanical properties :
#
#
# Convention : Reuss Voigt Hill
#
# Bulk Modulus (GPa) = 35.80681 57.15889 46.48285
# Shear Modulus (GPa) = 9.98423 29.03674 19.51048
#
# Velocity S-wave (km/s) = 2.13507 3.64106 2.98462
# Velocity P-wave (km/s) = 4.73565 6.61616 5.75326
#
# Compressibility (1/GPa) = 0.02792765
#
# Stress axis : x y z
#
# Youngs Moduli (GPa) = 129.53349 58.56005 58.07212
#
# Poissons Ratio (x) = 0.37397 0.11430
# Poissons Ratio (y) = 0.82722 -0.07608
# Poissons Ratio (z) = 0.25496 -0.07672
#
# Static dielectric constant tensor:
#      x y z
#    x 1.817520 0.000000 0.000000 
#    y 0.000000 1.742960 0.000000 
#    z 0.000000 0.000000 1.899710 
# 
# From -- ./inp_files/2761.got.cif
#   From: 2010.05.17/outbox.cif.g08.bks.cpg/sg47_2_cif.got.tgz:2761.got - 2010.06.03 20:15:42.
