data_PCOD9385159
_publ_section_title
;
Structure prediction by ZEFSAII (Michael W. Deem and Ramdas Pophale) SiO2 
 PCOD9385159
Probable space group: P M M M
;
_chemical_formula_sum "Si O2"
_cell_formula_units_Z 52
_cell_length_a 8.701313
_cell_length_b 22.111813
_cell_length_c 15.022810
_cell_angle_alpha 90.000000
_cell_angle_beta 90.000000
_cell_angle_gamma 90.000000
_cell_volume 2890.415774
_symmetry_space_group_name_H-M "P M M M"
_symmetry_group_IT_number 47
_symmetry_cell_setting 'orthorhombic'
loop_
_space_group_symop_operation_xyz
x,y,z
-x,-y,z
x,-y,-z
-x,y,-z
-x,-y,-z
x,y,-z
-x,y,z
x,-y,z
loop_
_atom_site_type_symbol
_atom_site_label
_atom_site_fract_x
_atom_site_fract_y
_atom_site_fract_z
Si Si1 0.822475 0.730326 0.732683
Si Si2 0.174979 0.500000 0.392599
Si Si3 0.673017 0.813401 0.599240
Si Si4 0.315642 0.932725 0.165103
Si Si5 0.821160 0.068117 0.638871
Si Si6 0.684956 0.201279 0.900363
Si Si7 0.683730 0.370932 0.396369
O O1 0.796372 0.785893 0.665087
O O2 0.751412 0.754654 0.824776
O O3 0.744056 0.676141 0.677025
O O4 0.000000 0.716235 0.745556
O O5 0.169138 0.500000 0.500000
O O6 0.260739 0.561996 0.369629
O O7 0.000000 0.500000 0.358936
O O8 0.684057 0.787630 0.500000
O O9 0.500000 0.801770 0.632964
O O10 0.707701 0.883961 0.596269
O O11 0.500000 0.930014 0.183851
O O12 0.220762 0.931339 0.256512
O O13 0.276991 0.870088 0.115438
O O14 0.289042 0.000000 0.123554
O O15 0.000000 0.083887 0.624422
O O16 0.797817 0.000000 0.607017
O O17 0.500000 0.205041 0.895750
O O18 0.734969 0.218081 0.000000
O O19 0.736600 0.359611 0.500000
O O20 0.500000 0.368233 0.397945
#
# Coordination Sequence:
#
# PCOD9385159 Si02
#       7
#     8   4   8   8   8   8   8
#     4  12  24  37  55  79 109 145 182 226 276 325
#     4   9  17  31  53  85 124 159 192 229 265 307
#     4  11  23  37  53  73  99 134 177 221 266 322
#     4   9  17  31  53  77 101 131 168 215 273 337
#     4  10  20  33  50  72  98 129 166 212 268 325
#     4  10  21  37  57  80 107 140 179 225 278 338
#     4  10  20  35  57  85 119 158 195 229 267 314
#
# _framework density 17.990492
#
# number of rings (size 3 to 8) (size 9 to 14) (size 15 to 20)
#    0.000    1.769    1.538    3.462    0.000    6.769 
#    0.000    3.077    0.000    0.000    0.000    3.769 
#    0.000    4.308    0.000    0.000    0.000    0.000 
#
# Total GULP energy -290019.291586 kJ/mol
# GULP energy per Si atom -5577.294069 kJ/mol
# Density = 1.794954 g / cm^3
# Si number density = 17.990492 Si / 1000 Ang^3
#
#
#
# Elastic Constant Matrix: (Units=GPa)
#
#
# Indices 1 2 3 4 5 6 
#
# 1 52.2357 35.2440 31.7381 0.0000 0.0000 0.0000
# 2 35.2440 119.4650 54.4257 0.0000 0.0000 0.0000
# 3 31.7381 54.4257 104.9091 0.0000 0.0000 0.0000
# 4 0.0000 0.0000 0.0000 17.0743 0.0000 0.0000
# 5 0.0000 0.0000 0.0000 0.0000 -70.5802 0.0000
# 6 0.0000 0.0000 0.0000 0.0000 0.0000 27.7658
#
#
#
# Elastic Compliance Matrix: (Units=1/GPa)
#
#
# Indices 1 2 3 4 5 6 
#
# 1 0.025794 -0.005309 -0.005049 0.000000 0.000000 0.000000
# 2 -0.005309 0.012054 -0.004647 0.000000 0.000000 0.000000
# 3 -0.005049 -0.004647 0.013471 0.000000 0.000000 0.000000
# 4 0.000000 0.000000 0.000000 0.058568 0.000000 0.000000
# 5 0.000000 0.000000 0.000000 0.000000 -0.014168 0.000000
# 6 0.000000 0.000000 0.000000 0.000000 0.000000 0.036016
#
#
# Mechanical properties :
#
#
# Convention : Reuss Voigt Hill
#
# Bulk Modulus (GPa) = 46.93228 57.71393 52.32311
# Shear Modulus (GPa) = 29.61248 5.19877 17.40562
#
# Velocity S-wave (km/s) = 4.06150 1.70177 3.11382
# Velocity P-wave (km/s) = 6.93818 6.00094 6.48651
#
# Compressibility (1/GPa) = 0.02130730
#
# Stress axis : x y z
#
# Youngs Moduli (GPa) = 38.76863 82.95829 74.23611
#
# Poissons Ratio (x) = 0.44046 0.37482
# Poissons Ratio (y) = 0.20584 0.34500
# Poissons Ratio (z) = 0.19574 0.38554
#
# Static dielectric constant tensor:
#      x y z
#    x 1.605950 0.000000 0.000000 
#    y 0.000000 1.647270 0.000000 
#    z 0.000000 0.000000 1.626500 
# 
# From -- ./inp_files/21466.got.cif
#   From: 2010.05.17/outbox.cif.g08.bks.cpg/sg47_11_cif.got.tgz:21466.got - 2010.06.03 20:15:42.
