data_PCOD9385551
_publ_section_title
;
Structure prediction by ZEFSAII (Michael W. Deem and Ramdas Pophale) SiO2 
 PCOD9385551
Probable space group: P M M M
;
_chemical_formula_sum "Si O2"
_cell_formula_units_Z 48
_cell_length_a 12.878459
_cell_length_b 13.730839
_cell_length_c 14.790521
_cell_angle_alpha 90.000000
_cell_angle_beta 90.000000
_cell_angle_gamma 90.000000
_cell_volume 2615.438106
_symmetry_space_group_name_H-M "P M M M"
_symmetry_group_IT_number 47
_symmetry_cell_setting 'orthorhombic'
loop_
_space_group_symop_operation_xyz
x,y,z
-x,-y,z
x,-y,-z
-x,y,-z
-x,-y,-z
x,y,-z
-x,y,z
x,-y,z
loop_
_atom_site_type_symbol
_atom_site_label
_atom_site_fract_x
_atom_site_fract_y
_atom_site_fract_z
Si Si1 0.169277 0.388644 0.895387
Si Si2 0.617554 0.388526 0.798698
Si Si3 0.125658 0.889058 0.000000
Si Si4 0.884743 0.608609 0.608146
Si Si5 0.624857 0.884696 0.500000
Si Si6 0.118420 0.197202 0.808392
Si Si7 0.281819 0.765137 0.331833
O O1 0.137167 0.500000 0.880735
O O2 0.292396 0.381880 0.873953
O O3 0.118498 0.313416 0.826463
O O4 0.146377 0.364307 0.000000
O O5 0.500000 0.379513 0.833032
O O6 0.626981 0.500000 0.760336
O O7 0.639914 0.301558 0.727650
O O8 0.156340 0.842007 0.094534
O O9 0.000000 0.884388 0.000000
O O10 0.159148 0.000000 0.000000
O O11 0.889068 0.600800 0.500000
O O12 0.863649 0.500000 0.644789
O O13 0.796484 0.684789 0.628643
O O14 0.000000 0.640080 0.638071
O O15 0.500000 0.877958 0.500000
O O16 0.667977 0.829492 0.589335
O O17 0.652819 0.000000 0.500000
O O18 0.204932 0.174112 0.734012
O O19 0.000000 0.164232 0.789705
#
# Coordination Sequence:
#
# PCOD9385551 Si02
#       7
#     8   8   4   8   4   8   8
#     4   9  17  29  47  73 108 149 190 223 255 305
#     4   9  18  31  48  75 109 141 177 224 275 323
#     4   9  18  34  53  73 102 137 173 215 261 308
#     4   9  17  30  51  80 113 147 178 209 255 319
#     4  11  26  46  64  81 102 134 180 235 294 346
#     4  10  20  33  53  81 111 143 179 216 259 314
#     4  11  20  36  58  81 107 140 183 225 271 328
#
# _framework density 18.352564999999998
#
# number of rings (size 3 to 8) (size 9 to 14) (size 15 to 20)
#    0.000    2.333    1.667    2.000    0.000    2.000 
#    0.000    2.500    0.000    5.500    0.000    0.000 
#    0.000    5.333    0.000    0.000    0.000    0.000 
#
# Total GULP energy -267502.559613 kJ/mol
# GULP energy per Si atom -5572.969992 kJ/mol
# Density = 1.831079 g / cm^3
# Si number density = 18.352565 Si / 1000 Ang^3
#
#
#
# Elastic Constant Matrix: (Units=GPa)
#
#
# Indices 1 2 3 4 5 6 
#
# 1 82.6308 13.9276 19.2356 0.0000 0.0000 0.0000
# 2 13.9276 56.7023 23.5312 0.0000 0.0000 0.0000
# 3 19.2356 23.5312 86.2350 0.0000 0.0000 0.0000
# 4 0.0000 0.0000 0.0000 8.2107 0.0000 0.0000
# 5 0.0000 0.0000 0.0000 0.0000 18.8634 0.0000
# 6 0.0000 0.0000 0.0000 0.0000 0.0000 18.2584
#
#
#
# Elastic Compliance Matrix: (Units=1/GPa)
#
#
# Indices 1 2 3 4 5 6 
#
# 1 0.013014 -0.002246 -0.002290 0.000000 0.000000 0.000000
# 2 -0.002246 0.020276 -0.005032 0.000000 0.000000 0.000000
# 3 -0.002290 -0.005032 0.013480 0.000000 0.000000 0.000000
# 4 0.000000 0.000000 0.000000 0.121792 0.000000 0.000000
# 5 0.000000 0.000000 0.000000 0.000000 0.053013 0.000000
# 6 0.000000 0.000000 0.000000 0.000000 0.000000 0.054769
#
#
# Mechanical properties :
#
#
# Convention : Reuss Voigt Hill
#
# Bulk Modulus (GPa) = 36.18738 37.66187 36.92463
# Shear Modulus (GPa) = 16.41010 20.32474 18.36742
#
# Velocity S-wave (km/s) = 2.99349 3.33146 3.16699
# Velocity P-wave (km/s) = 5.63105 5.94677 5.79106
#
# Compressibility (1/GPa) = 0.02763394
#
# Stress axis : x y z
#
# Youngs Moduli (GPa) = 76.84206 49.31979 74.18396
#
# Poissons Ratio (x) = 0.11078 0.16987
# Poissons Ratio (y) = 0.17260 0.37327
# Poissons Ratio (z) = 0.17596 0.24816
#
# Static dielectric constant tensor:
#      x y z
#    x 1.628270 0.000000 0.000000 
#    y 0.000000 1.658440 0.000000 
#    z 0.000000 0.000000 1.664660 
# 
# From -- ./inp_files/22744.got.cif
#   From: 2010.05.17/outbox.cif.g08.bks.cpg/sg47_12_cif.got.tgz:22744.got - 2010.06.03 20:15:42.
