data_PCOD9385628
_publ_section_title
;
Structure prediction by ZEFSAII (Michael W. Deem and Ramdas Pophale) SiO2 
 PCOD9385628
Probable space group: P M M M
;
_chemical_formula_sum "Si O2"
_cell_formula_units_Z 44
_cell_length_a 8.280560
_cell_length_b 11.342524
_cell_length_c 24.614777
_cell_angle_alpha 90.000000
_cell_angle_beta 90.000000
_cell_angle_gamma 90.000000
_cell_volume 2311.880175
_symmetry_space_group_name_H-M "P M M M"
_symmetry_group_IT_number 47
_symmetry_cell_setting 'orthorhombic'
loop_
_space_group_symop_operation_xyz
x,y,z
-x,-y,z
x,-y,-z
-x,y,-z
-x,-y,-z
x,y,-z
-x,y,z
x,-y,z
loop_
_atom_site_type_symbol
_atom_site_label
_atom_site_fract_x
_atom_site_fract_y
_atom_site_fract_z
Si Si1 0.813709 0.859862 0.940959
Si Si2 0.302580 0.500000 0.062591
Si Si3 0.696466 0.867902 0.436030
Si Si4 0.309207 0.634939 0.373292
Si Si5 0.685510 0.705754 0.856453
Si Si6 0.812113 0.364081 0.745305
O O1 0.705851 0.823217 0.890752
O O2 0.000000 0.820741 0.933318
O O3 0.816962 0.000000 0.943995
O O4 0.755420 0.814339 0.000000
O O5 0.500000 0.500000 0.060210
O O6 0.251692 0.610541 0.099534
O O7 0.245673 0.500000 0.000000
O O8 0.734748 0.858943 0.500000
O O9 0.500000 0.868130 0.431301
O O10 0.755964 0.749188 0.405795
O O11 0.750123 0.000000 0.417280
O O12 0.500000 0.628683 0.385375
O O13 0.244203 0.500000 0.383238
O O14 0.285531 0.660701 0.309358
O O15 0.500000 0.676902 0.844712
O O16 0.774396 0.708064 0.799240
O O17 0.777282 0.500000 0.760771
O O18 0.000000 0.354285 0.731190
#
# Coordination Sequence:
#
# PCOD9385628 Si02
#       6
#     8   4   8   8   8   8
#     4   9  19  36  54  71  96 130 165 203 249 301
#     4   9  18  30  45  71 103 127 148 189 250 303
#     4   8  14  26  46  74 107 138 165 200 252 308
#     4   9  17  29  48  74 101 130 170 216 256 295
#     4  11  20  32  52  75 101 129 162 206 253 304
#     4  10  20  34  51  70  97 133 171 207 250 303
#
# _framework density 19.032129999999999
#
# number of rings (size 3 to 8) (size 9 to 14) (size 15 to 20)
#    0.000    2.636    0.909    2.727    0.000    2.545 
#    0.000    3.636    0.000    6.545    0.000    3.818 
#    0.000    0.000    0.000    0.000    0.000    0.000 
#
# Total GULP energy -244956.725573 kJ/mol
# GULP energy per Si atom -5567.198308 kJ/mol
# Density = 1.898881 g / cm^3
# Si number density = 19.032130 Si / 1000 Ang^3
#
#
#
# Elastic Constant Matrix: (Units=GPa)
#
#
# Indices 1 2 3 4 5 6 
#
# 1 6.3109 8.2460 0.6346 0.0000 0.0000 0.0000
# 2 8.2460 102.1013 58.5556 0.0000 0.0000 0.0000
# 3 0.6346 58.5556 76.3278 0.0000 0.0000 0.0000
# 4 0.0000 0.0000 0.0000 17.8444 0.0000 0.0000
# 5 0.0000 0.0000 0.0000 0.0000 -13.5393 0.0000
# 6 0.0000 0.0000 0.0000 0.0000 0.0000 13.8796
#
#
#
# Elastic Compliance Matrix: (Units=1/GPa)
#
#
# Indices 1 2 3 4 5 6 
#
# 1 0.190378 -0.025834 0.018236 0.000000 0.000000 0.000000
# 2 -0.025834 0.020994 -0.015891 0.000000 0.000000 0.000000
# 3 0.018236 -0.015891 0.025141 0.000000 0.000000 0.000000
# 4 0.000000 0.000000 0.000000 0.056040 0.000000 0.000000
# 5 0.000000 0.000000 0.000000 0.000000 -0.073859 0.000000
# 6 0.000000 0.000000 0.000000 0.000000 0.000000 0.072048
#
#
# Mechanical properties :
#
#
# Convention : Reuss Voigt Hill
#
# Bulk Modulus (GPa) = 5.27607 35.51249 20.39428
# Shear Modulus (GPa) = 12.47197 11.45720 11.96458
#
# Velocity S-wave (km/s) = 2.56268 2.45622 2.51001
# Velocity P-wave (km/s) = 3.39627 5.17143 4.37484
#
# Compressibility (1/GPa) = 0.18953498
#
# Stress axis : x y z
#
# Youngs Moduli (GPa) = 5.25270 47.63213 39.77601
#
# Poissons Ratio (x) = 1.23052 -0.72534
# Poissons Ratio (y) = 0.13570 0.63209
# Poissons Ratio (z) = -0.09579 0.75693
#
# Static dielectric constant tensor:
#      x y z
#    x 1.690530 0.000000 0.000000 
#    y 0.000000 1.741960 0.000000 
#    z 0.000000 0.000000 1.638420 
# 
# From -- ./inp_files/15284.got.cif
#   From: 2010.05.17/outbox.cif.g08.bks.cpg/sg47_8_cif.got.tgz:15284.got - 2010.06.03 20:15:42.
