data_PCOD9385624
_publ_section_title
;
Structure prediction by ZEFSAII (Michael W. Deem and Ramdas Pophale) SiO2 
 PCOD9385624
Probable space group: P M M M
;
_chemical_formula_sum "Si O2"
_cell_formula_units_Z 52
_cell_length_a 29.334999
_cell_length_b 12.179166
_cell_length_c 7.639905
_cell_angle_alpha 90.000000
_cell_angle_beta 90.000000
_cell_angle_gamma 90.000000
_cell_volume 2729.553342
_symmetry_space_group_name_H-M "P M M M"
_symmetry_group_IT_number 47
_symmetry_cell_setting 'orthorhombic'
loop_
_space_group_symop_operation_xyz
x,y,z
-x,-y,z
x,-y,-z
-x,y,-z
-x,-y,-z
x,y,-z
-x,y,z
x,-y,z
loop_
_atom_site_type_symbol
_atom_site_label
_atom_site_fract_x
_atom_site_fract_y
_atom_site_fract_z
Si Si1 0.450958 0.371930 0.710691
Si Si2 0.787109 0.500000 0.711081
Si Si3 0.177230 0.876329 0.706246
Si Si4 0.649145 0.626505 0.208218
Si Si5 0.260515 0.272416 0.797902
Si Si6 0.106170 0.500000 0.712498
Si Si7 0.910655 0.741859 0.714782
Si Si8 0.000000 0.125681 0.286181
O O1 0.451285 0.370744 0.500000
O O2 0.500000 0.324948 0.770096
O O3 0.450558 0.500000 0.767297
O O4 0.401851 0.328117 0.766049
O O5 0.783045 0.500000 0.500000
O O6 0.763730 0.609182 0.782163
O O7 0.840273 0.500000 0.755344
O O8 0.167815 0.885866 0.500000
O O9 0.225757 0.816169 0.721687
O O10 0.136364 0.799233 0.775237
O O11 0.177187 0.000000 0.779786
O O12 0.651732 0.500000 0.277990
O O13 0.689314 0.703686 0.279544
O O14 0.656762 0.618019 0.000000
O O15 0.265799 0.241501 0.000000
O O16 0.102815 0.500000 0.500000
O O17 0.086173 0.384368 0.773515
O O18 0.909784 0.739842 0.500000
O O19 0.954304 0.811902 0.768773
O O20 0.000000 0.125317 0.500000
O O21 0.000000 0.000000 0.228185
#
# Coordination Sequence:
#
# PCOD9385624 Si02
#       8
#     8   4   8   8   8   4   8   4
#     4   8  14  24  37  56  84 118 157 197 232 271
#     4  11  19  31  50  71  96 127 162 196 240 294
#     4  10  20  34  51  70  94 126 164 203 242 290
#     4   9  17  28  40  59  89 122 156 193 234 281
#     4  11  21  33  48  70 100 128 161 204 245 288
#     4   9  16  26  43  66  92 119 151 192 239 288
#     4   9  16  27  43  66  94 123 156 197 244 294
#     4   9  16  25  39  61  92 128 160 196 248 295
#
# _framework density 19.050735
#
# number of rings (size 3 to 8) (size 9 to 14) (size 15 to 20)
#    0.000    2.538    2.308    1.615    0.000    4.000 
#    0.000    3.077    0.000    0.000    0.000    0.538 
#    0.000    3.692    0.000    6.769    0.000    5.231 
#
# Total GULP energy -289852.177555 kJ/mol
# GULP energy per Si atom -5574.080338 kJ/mol
# Density = 1.900738 g / cm^3
# Si number density = 19.050735 Si / 1000 Ang^3
#
#
#
# Elastic Constant Matrix: (Units=GPa)
#
#
# Indices 1 2 3 4 5 6 
#
# 1 165.3046 76.9474 2.9495 0.0000 0.0000 0.0000
# 2 76.9474 129.3605 -0.5065 0.0000 0.0000 0.0000
# 3 2.9495 -0.5065 32.7926 0.0000 0.0000 0.0000
# 4 0.0000 0.0000 0.0000 0.4408 0.0000 0.0000
# 5 0.0000 0.0000 0.0000 0.0000 25.1929 0.0000
# 6 0.0000 0.0000 0.0000 0.0000 0.0000 7.8917
#
#
#
# Elastic Compliance Matrix: (Units=1/GPa)
#
#
# Indices 1 2 3 4 5 6 
#
# 1 0.008388 -0.004993 -0.000832 0.000000 0.000000 0.000000
# 2 -0.004993 0.010703 0.000614 0.000000 0.000000 0.000000
# 3 -0.000832 0.000614 0.030579 0.000000 0.000000 0.000000
# 4 0.000000 0.000000 0.000000 2.268606 0.000000 0.000000
# 5 0.000000 0.000000 0.000000 0.000000 0.039694 0.000000
# 6 0.000000 0.000000 0.000000 0.000000 0.000000 0.126716
#
#
# Mechanical properties :
#
#
# Convention : Reuss Voigt Hill
#
# Bulk Modulus (GPa) = 25.47783 54.02650 39.75217
# Shear Modulus (GPa) = 1.99347 23.24289 12.61818
#
# Velocity S-wave (km/s) = 1.02405 3.49671 2.57640
# Velocity P-wave (km/s) = 3.84720 6.68756 5.45548
#
# Compressibility (1/GPa) = 0.03924981
#
# Stress axis : x y z
#
# Youngs Moduli (GPa) = 119.21179 93.43452 32.70217
#
# Poissons Ratio (x) = 0.46651 0.02720
# Poissons Ratio (y) = 0.59522 -0.02009
# Poissons Ratio (z) = 0.09914 -0.05740
#
# Static dielectric constant tensor:
#      x y z
#    x 1.695100 0.000000 0.000000 
#    y 0.000000 1.645240 0.000000 
#    z 0.000000 0.000000 1.709140 
# 
# From -- ./inp_files/13323.got.cif
#   From: 2010.05.17/outbox.cif.g08.bks.cpg/sg47_7_cif.got.tgz:13323.got - 2010.06.03 20:15:42.
