data_PCOD9385593
_publ_section_title
;
Structure prediction by ZEFSAII (Michael W. Deem and Ramdas Pophale) SiO2 
 PCOD9385593
Probable space group: P M M M
;
_chemical_formula_sum "Si O2"
_cell_formula_units_Z 28
_cell_length_a 8.072215
_cell_length_b 21.556625
_cell_length_c 7.699060
_cell_angle_alpha 90.000000
_cell_angle_beta 90.000000
_cell_angle_gamma 90.000000
_cell_volume 1339.711211
_symmetry_space_group_name_H-M "P M M M"
_symmetry_group_IT_number 47
_symmetry_cell_setting 'orthorhombic'
loop_
_space_group_symop_operation_xyz
x,y,z
-x,-y,z
x,-y,-z
-x,y,-z
-x,-y,-z
x,y,-z
-x,y,z
x,-y,z
loop_
_atom_site_type_symbol
_atom_site_label
_atom_site_fract_x
_atom_site_fract_y
_atom_site_fract_z
Si Si1 0.500000 0.706587 0.699876
Si Si2 0.817462 0.634418 0.712858
Si Si3 0.691777 0.500000 0.711414
Si Si4 0.186520 0.928491 0.709960
Si Si5 0.500000 0.844606 0.198204
O O1 0.500000 0.684678 0.500000
O O2 0.668249 0.677958 0.775338
O O3 0.500000 0.780477 0.699331
O O4 0.820150 0.635834 0.500000
O O5 0.778911 0.563615 0.764960
O O6 0.000000 0.653532 0.771483
O O7 0.500000 0.500000 0.766520
O O8 0.692219 0.500000 0.500000
O O9 0.186901 0.928286 0.500000
O O10 0.336373 0.885301 0.767569
O O11 0.000000 0.909835 0.765855
O O12 0.213288 0.000000 0.765681
O O13 0.500000 0.825026 0.000000
#
# Coordination Sequence:
#
# PCOD9385593 Si02
#       5
#     4   8   4   8   4
#     4  10  20  34  49  68  98 138 184 225 258 307
#     4   9  16  26  43  68  97 129 166 212 269 325
#     4   9  13  21  39  66 101 130 152 200 274 335
#     4   9  19  38  64  90 113 140 178 224 272 323
#     4  12  25  37  53  80 115 153 188 223 272 324
#
# _framework density 20.900026
#
# number of rings (size 3 to 8) (size 9 to 14) (size 15 to 20)
#    0.000    2.429    1.429    3.000    0.000    5.714 
#    0.000    4.286    0.000    0.000    0.000    2.000 
#    0.000    2.286    0.000    0.000    0.000    0.000 
#
# Total GULP energy -156298.890773 kJ/mol
# GULP energy per Si atom -5582.103242 kJ/mol
# Density = 2.085246 g / cm^3
# Si number density = 20.900026 Si / 1000 Ang^3
#
#
#
# Elastic Constant Matrix: (Units=GPa)
#
#
# Indices 1 2 3 4 5 6 
#
# 1 220.7842 93.7627 3.6456 0.0000 0.0000 0.0000
# 2 93.7627 99.1203 -9.6548 0.0000 0.0000 0.0000
# 3 3.6456 -9.6548 34.9715 0.0000 0.0000 0.0000
# 4 0.0000 0.0000 0.0000 -49.8178 0.0000 0.0000
# 5 0.0000 0.0000 0.0000 0.0000 -561.6814 0.0000
# 6 0.0000 0.0000 0.0000 0.0000 0.0000 0.8978
#
#
#
# Elastic Compliance Matrix: (Units=1/GPa)
#
#
# Indices 1 2 3 4 5 6 
#
# 1 0.007856 -0.007719 -0.002950 0.000000 0.000000 0.000000
# 2 -0.007719 0.017951 0.005761 0.000000 0.000000 0.000000
# 3 -0.002950 0.005761 0.030493 0.000000 0.000000 0.000000
# 4 0.000000 0.000000 0.000000 -0.020073 0.000000 0.000000
# 5 0.000000 0.000000 0.000000 0.000000 -0.001780 0.000000
# 6 0.000000 0.000000 0.000000 0.000000 0.000000 1.113793
#
#
# Mechanical properties :
#
#
# Convention : Reuss Voigt Hill
#
# Bulk Modulus (GPa) = 21.51285 58.93144 40.22214
# Shear Modulus (GPa) = 4.26058 -104.31209 -50.02576
#
# Velocity S-wave (km/s) = 1.42933 -7.07237 -4.89772
# Velocity P-wave (km/s) = 3.61103 6.19945 3.56326
#
# Compressibility (1/GPa) = 0.04648385
#
# Stress axis : x y z
#
# Youngs Moduli (GPa) = 127.29133 55.70614 32.79490
#
# Poissons Ratio (x) = 0.42998 0.09674
# Poissons Ratio (y) = 0.98252 -0.18892
# Poissons Ratio (z) = 0.37550 -0.32090
#
# Static dielectric constant tensor:
#      x y z
#    x 1.748980 0.000000 0.000000 
#    y 0.000000 1.702200 0.000000 
#    z 0.000000 0.000000 1.785520 
# 
# From -- ./inp_files/872.got.cif
#   From: 2010.05.17/outbox.cif.g08.bks.cpg/sg47_1_cif.got.tgz:872.got - 2010.06.03 20:15:42.
