data_PCOD9385372
_publ_section_title
;
Structure prediction by ZEFSAII (Michael W. Deem and Ramdas Pophale) SiO2 
 PCOD9385372
Probable space group: P M M M
;
_chemical_formula_sum "Si O2"
_cell_formula_units_Z 40
_cell_length_a 7.694954
_cell_length_b 9.469674
_cell_length_c 26.617098
_cell_angle_alpha 90.000000
_cell_angle_beta 90.000000
_cell_angle_gamma 90.000000
_cell_volume 1939.553484
_symmetry_space_group_name_H-M "P M M M"
_symmetry_group_IT_number 47
_symmetry_cell_setting 'orthorhombic'
loop_
_space_group_symop_operation_xyz
x,y,z
-x,-y,z
x,-y,-z
-x,y,-z
-x,-y,-z
x,y,-z
-x,y,z
x,-y,z
loop_
_atom_site_type_symbol
_atom_site_label
_atom_site_fract_x
_atom_site_fract_y
_atom_site_fract_z
Si Si1 0.291589 0.659601 0.903379
Si Si2 0.208725 0.661189 0.597069
Si Si3 0.290632 0.160504 0.696002
Si Si4 0.212916 0.163335 0.500000
Si Si5 0.287886 0.663829 0.208581
Si Si6 0.205762 0.156748 0.000000
O O1 0.500000 0.651574 0.900143
O O2 0.226662 0.500000 0.912788
O O3 0.230877 0.705038 0.847777
O O4 0.252108 0.759359 0.949688
O O5 0.275178 0.500000 0.597357
O O6 0.248260 0.743270 0.648249
O O7 0.270972 0.752337 0.549509
O O8 0.000000 0.653340 0.592489
O O9 0.500000 0.153964 0.699363
O O10 0.226344 0.235515 0.746908
O O11 0.225902 0.000000 0.690283
O O12 0.000000 0.162195 0.500000
O O13 0.268669 0.000000 0.500000
O O14 0.500000 0.667032 0.209290
O O15 0.238150 0.500000 0.217056
O O16 0.000000 0.144912 0.000000
O O17 0.283735 0.000000 0.000000
#
# Coordination Sequence:
#
# PCOD9385372 Si02
#       6
#     8   8   8   4   8   4
#     4   9  18  34  57  81 100 124 166 213 251 295
#     4  10  20  34  53  76 101 132 172 213 251 297
#     4  10  20  33  51  77 107 137 168 204 250 302
#     4   9  17  31  52  75 100 131 166 208 258 305
#     4   8  15  30  52  76 101 129 163 205 250 296
#     4  11  24  37  48  70 106 141 170 203 248 300
#
# _framework density 20.623303
#
# number of rings (size 3 to 8) (size 9 to 14) (size 15 to 20)
#    0.000    2.600    0.000    3.300    0.000    6.800 
#    0.000    3.500    0.000    4.200    0.000    0.000 
#    0.000    0.000    0.000    0.000    0.000    0.000 
#
# Total GULP energy -223302.430613 kJ/mol
# GULP energy per Si atom -5582.560765 kJ/mol
# Density = 2.057636 g / cm^3
# Si number density = 20.623303 Si / 1000 Ang^3
#
#
#
# Elastic Constant Matrix: (Units=GPa)
#
#
# Indices 1 2 3 4 5 6 
#
# 1 33.1996 7.5978 4.9973 0.0000 0.0000 0.0000
# 2 7.5978 203.8719 154.5059 0.0000 0.0000 0.0000
# 3 4.9973 154.5059 226.7612 0.0000 0.0000 0.0000
# 4 0.0000 0.0000 0.0000 -205.3761 0.0000 0.0000
# 5 0.0000 0.0000 0.0000 0.0000 28.3661 0.0000
# 6 0.0000 0.0000 0.0000 0.0000 0.0000 18.2471
#
#
#
# Elastic Compliance Matrix: (Units=1/GPa)
#
#
# Indices 1 2 3 4 5 6 
#
# 1 0.030385 -0.001292 0.000211 0.000000 0.000000 0.000000
# 2 -0.001292 0.010197 -0.006919 0.000000 0.000000 0.000000
# 3 0.000211 -0.006919 0.009120 0.000000 0.000000 0.000000
# 4 0.000000 0.000000 0.000000 -0.004869 0.000000 0.000000
# 5 0.000000 0.000000 0.000000 0.000000 0.035253 0.000000
# 6 0.000000 0.000000 0.000000 0.000000 0.000000 0.054803
#
#
# Mechanical properties :
#
#
# Convention : Reuss Voigt Hill
#
# Bulk Modulus (GPa) = 29.67333 88.67053 59.17193
# Shear Modulus (GPa) = 30.84055 -11.97047 9.43504
#
# Velocity S-wave (km/s) = 3.87126 -2.41183 2.14123
# Velocity P-wave (km/s) = 5.86530 5.94413 5.90485
#
# Compressibility (1/GPa) = 0.03370029
#
# Stress axis : x y z
#
# Youngs Moduli (GPa) = 32.91121 98.06661 109.65018
#
# Poissons Ratio (x) = 0.12671 -0.02311
# Poissons Ratio (y) = 0.04252 0.75872
# Poissons Ratio (z) = -0.00694 0.67857
#
# Static dielectric constant tensor:
#      x y z
#    x 1.783950 0.000000 0.000000 
#    y 0.000000 1.730070 0.000000 
#    z 0.000000 0.000000 1.718060 
# 
# From -- ./inp_files/33020.got.cif
#   From: 2010.05.17/outbox.cif.g08.bks.cpg/sg47_17_cif.got.tgz:33020.got - 2010.06.03 20:15:42.
