data_PCOD9385430
_publ_section_title
;
Structure prediction by ZEFSAII (Michael W. Deem and Ramdas Pophale) SiO2 
 PCOD9385430
Probable space group: P M M M
;
_chemical_formula_sum "Si O2"
_cell_formula_units_Z 41
_cell_length_a 16.532898
_cell_length_b 9.731259
_cell_length_c 13.182990
_cell_angle_alpha 90.000000
_cell_angle_beta 90.000000
_cell_angle_gamma 90.000000
_cell_volume 2120.957375
_symmetry_space_group_name_H-M "P M M M"
_symmetry_group_IT_number 47
_symmetry_cell_setting 'orthorhombic'
loop_
_space_group_symop_operation_xyz
x,y,z
-x,-y,z
x,-y,-z
-x,y,-z
-x,-y,-z
x,y,-z
-x,y,z
x,-y,z
loop_
_atom_site_type_symbol
_atom_site_label
_atom_site_fract_x
_atom_site_fract_y
_atom_site_fract_z
Si Si1 0.909812 0.781768 0.500000
Si Si2 0.369643 0.657777 0.115873
Si Si3 0.094638 0.159110 0.718584
Si Si4 0.599110 0.339662 0.500000
Si Si5 0.404077 0.156900 0.690955
Si Si6 0.825200 0.657599 0.112719
Si Si7 0.000000 0.500000 0.500000
O O1 0.870390 0.822166 0.605578
O O2 0.000000 0.850463 0.500000
O O3 0.930704 0.621277 0.500000
O O4 0.395564 0.500000 0.139228
O O5 0.394431 0.765208 0.201804
O O6 0.272020 0.658158 0.114978
O O7 0.396183 0.689632 0.000000
O O8 0.140004 0.249119 0.800030
O O9 0.000000 0.202976 0.714511
O O10 0.097631 0.000000 0.746325
O O11 0.624973 0.500000 0.500000
O O12 0.500000 0.342369 0.500000
O O13 0.626483 0.255130 0.400102
O O14 0.500000 0.144828 0.672989
O O15 0.370935 0.000000 0.691271
O O16 0.851783 0.500000 0.126507
O O17 0.850807 0.703314 0.000000
#
# Coordination Sequence:
#
# PCOD9385430 Si02
#       7
#     4   8   8   4   8   8   1
#     4   8  17  30  49  75 104 130 166 204 251 301
#     4   9  19  37  56  74 100 136 177 218 260 305
#     4  10  20  33  52  76 106 137 167 207 255 308
#     4   9  17  31  52  76 104 139 175 209 250 300
#     4  10  20  33  52  80 110 138 169 208 256 307
#     4   9  20  37  55  74  99 134 175 217 258 301
#     4   8  16  28  50  80  98 136 170 204 246 310
#
# _framework density 19.330894000000001
#
# number of rings (size 3 to 8) (size 9 to 14) (size 15 to 20)
#    0.293    2.439    0.000    2.341    1.366    6.244 
#    0.000    6.829    0.000    4.683    0.000    0.000 
#    0.000    0.000    0.000    0.000    0.000    0.000 
#
# Total GULP energy -228249.669356 kJ/mol
# GULP energy per Si atom -5567.065106 kJ/mol
# Density = 1.928690 g / cm^3
# Si number density = 19.330894 Si / 1000 Ang^3
#
#
#
# Elastic Constant Matrix: (Units=GPa)
#
#
# Indices 1 2 3 4 5 6 
#
# 1 16.3131 13.5853 18.8830 0.0000 0.0000 0.0000
# 2 13.5853 142.1292 90.9033 0.0000 0.0000 0.0000
# 3 18.8830 90.9033 155.7405 0.0000 0.0000 0.0000
# 4 0.0000 0.0000 0.0000 12.9498 0.0000 0.0000
# 5 0.0000 0.0000 0.0000 0.0000 39.6055 0.0000
# 6 0.0000 0.0000 0.0000 0.0000 0.0000 21.4497
#
#
#
# Elastic Compliance Matrix: (Units=1/GPa)
#
#
# Indices 1 2 3 4 5 6 
#
# 1 0.071686 -0.002063 -0.007487 0.000000 0.000000 0.000000
# 2 -0.002063 0.011286 -0.006338 0.000000 0.000000 0.000000
# 3 -0.007487 -0.006338 0.011028 0.000000 0.000000 0.000000
# 4 0.000000 0.000000 0.000000 0.077221 0.000000 0.000000
# 5 0.000000 0.000000 0.000000 0.000000 0.025249 0.000000
# 6 0.000000 0.000000 0.000000 0.000000 0.000000 0.046621
#
#
# Mechanical properties :
#
#
# Convention : Reuss Voigt Hill
#
# Bulk Modulus (GPa) = 16.07102 62.32509 39.19806
# Shear Modulus (GPa) = 16.91424 27.52174 22.21799
#
# Velocity S-wave (km/s) = 2.96122 3.77731 3.39389
# Velocity P-wave (km/s) = 4.47476 7.16487 5.97322
#
# Compressibility (1/GPa) = 0.06222379
#
# Stress axis : x y z
#
# Youngs Moduli (GPa) = 13.94977 88.60169 90.67899
#
# Poissons Ratio (x) = 0.18280 0.67895
# Poissons Ratio (y) = 0.02878 0.57469
# Poissons Ratio (z) = 0.10445 0.56152
#
# Static dielectric constant tensor:
#      x y z
#    x 1.694240 0.000000 0.000000 
#    y 0.000000 1.659840 0.000000 
#    z 0.000000 0.000000 1.688070 
# 
# From -- ./inp_files/18981.got.cif
#   From: 2010.05.17/outbox.cif.g08.bks.cpg/sg47_10_cif.got.tgz:18981.got - 2010.06.03 20:15:42.
