data_PCOD9385497
_publ_section_title
;
Structure prediction by ZEFSAII (Michael W. Deem and Ramdas Pophale) SiO2 
 PCOD9385497
Probable space group: P M M M
;
_chemical_formula_sum "Si O2"
_cell_formula_units_Z 52
_cell_length_a 8.634237
_cell_length_b 14.822622
_cell_length_c 21.110245
_cell_angle_alpha 90.000000
_cell_angle_beta 90.000000
_cell_angle_gamma 90.000000
_cell_volume 2701.732037
_symmetry_space_group_name_H-M "P M M M"
_symmetry_group_IT_number 47
_symmetry_cell_setting 'orthorhombic'
loop_
_space_group_symop_operation_xyz
x,y,z
-x,-y,z
x,-y,-z
-x,y,-z
-x,-y,-z
x,y,-z
-x,y,z
x,-y,z
loop_
_atom_site_type_symbol
_atom_site_label
_atom_site_fract_x
_atom_site_fract_y
_atom_site_fract_z
Si Si1 0.186259 0.703294 0.431036
Si Si2 0.682175 0.101300 0.250759
Si Si3 0.677537 0.000000 0.923062
Si Si4 0.314696 0.604338 0.306870
Si Si5 0.181293 0.720972 0.193064
Si Si6 0.815283 0.098551 0.390302
Si Si7 0.312640 0.200298 0.927122
O O1 0.238846 0.668416 0.500000
O O2 0.255345 0.655390 0.369589
O O3 0.220716 0.810370 0.427396
O O4 0.000000 0.693641 0.428048
O O5 0.500000 0.119719 0.240117
O O6 0.782697 0.180262 0.221593
O O7 0.719599 0.101158 0.325336
O O8 0.716507 0.000000 0.226920
O O9 0.744489 0.901179 0.908218
O O10 0.500000 0.000000 0.899244
O O11 0.669832 0.000000 0.000000
O O12 0.500000 0.608663 0.306502
O O13 0.265441 0.500000 0.309037
O O14 0.254135 0.651941 0.243215
O O15 0.254126 0.727118 0.123141
O O16 0.000000 0.704826 0.189007
O O17 0.000000 0.102357 0.375331
O O18 0.787859 0.000000 0.420543
O O19 0.500000 0.196802 0.925224
O O20 0.267019 0.217454 0.000000
#
# Coordination Sequence:
#
# PCOD9385497 Si02
#       7
#     8   8   4   8   8   8   8
#     4  10  21  37  59  89 123 158 193 232 287 351
#     4  10  20  33  52  79 113 154 199 244 286 333
#     4   7  12  26  49  77 111 155 202 239 272 315
#     4  11  25  45  67  88 110 142 192 249 302 357
#     4  12  24  37  58  87 120 155 192 238 297 357
#     4   9  17  31  52  80 117 158 197 235 277 330
#     4   9  18  34  56  83 118 160 204 243 280 330
#
# _framework density 19.246912999999999
#
# number of rings (size 3 to 8) (size 9 to 14) (size 15 to 20)
#    0.000    2.077    1.538    3.231    1.077    3.385 
#    0.000    3.077    0.000    1.846    0.000    6.462 
#    0.000    0.000    0.000    0.000    0.000    0.000 
#
# Total GULP energy -290172.113527 kJ/mol
# GULP energy per Si atom -5580.232952 kJ/mol
# Density = 1.920311 g / cm^3
# Si number density = 19.246913 Si / 1000 Ang^3
#
#
#
# Elastic Constant Matrix: (Units=GPa)
#
#
# Indices 1 2 3 4 5 6 
#
# 1 31.0078 31.5863 34.0634 0.0000 0.0000 0.0000
# 2 31.5863 106.9449 70.2234 0.0000 0.0000 0.0000
# 3 34.0634 70.2234 146.0447 0.0000 0.0000 0.0000
# 4 0.0000 0.0000 0.0000 2.2605 0.0000 0.0000
# 5 0.0000 0.0000 0.0000 0.0000 22.9782 0.0000
# 6 0.0000 0.0000 0.0000 0.0000 0.0000 17.9340
#
#
#
# Elastic Compliance Matrix: (Units=1/GPa)
#
#
# Indices 1 2 3 4 5 6 
#
# 1 0.050245 -0.010441 -0.006698 0.000000 0.000000 0.000000
# 2 -0.010441 0.015835 -0.005179 0.000000 0.000000 0.000000
# 3 -0.006698 -0.005179 0.010900 0.000000 0.000000 0.000000
# 4 0.000000 0.000000 0.000000 0.442377 0.000000 0.000000
# 5 0.000000 0.000000 0.000000 0.000000 0.043520 0.000000
# 6 0.000000 0.000000 0.000000 0.000000 0.000000 0.055760
#
#
# Mechanical properties :
#
#
# Convention : Reuss Voigt Hill
#
# Bulk Modulus (GPa) = 30.91933 61.74931 46.33432
# Shear Modulus (GPa) = 7.41781 18.50950 12.96365
#
# Velocity S-wave (km/s) = 1.96530 3.10447 2.59809
# Velocity P-wave (km/s) = 4.60970 6.70840 5.75552
#
# Compressibility (1/GPa) = 0.03234223
#
# Stress axis : x y z
#
# Youngs Moduli (GPa) = 19.90263 63.15143 91.74618
#
# Poissons Ratio (x) = 0.65939 0.61456
# Poissons Ratio (y) = 0.20781 0.47512
# Poissons Ratio (z) = 0.13332 0.32704
#
# Static dielectric constant tensor:
#      x y z
#    x 1.649550 0.000000 0.000000 
#    y 0.000000 1.678750 0.000000 
#    z 0.000000 0.000000 1.707980 
# 
# From -- ./inp_files/29547.got.cif
#   From: 2010.05.17/outbox.cif.g08.bks.cpg/sg47_15_cif.got.tgz:29547.got - 2010.06.03 20:15:42.
