data_PCOD9385925
_publ_section_title
;
Structure prediction by ZEFSAII (Michael W. Deem and Ramdas Pophale) SiO2 
 PCOD9385925
Probable space group: P M M M
;
_chemical_formula_sum "Si O2"
_cell_formula_units_Z 40
_cell_length_a 9.215708
_cell_length_b 26.956714
_cell_length_c 9.162456
_cell_angle_alpha 90.000000
_cell_angle_beta 90.000000
_cell_angle_gamma 90.000000
_cell_volume 2276.185009
_symmetry_space_group_name_H-M "P M M M"
_symmetry_group_IT_number 47
_symmetry_cell_setting 'orthorhombic'
loop_
_space_group_symop_operation_xyz
x,y,z
-x,-y,z
x,-y,-z
-x,y,-z
-x,-y,-z
x,y,-z
-x,y,z
x,-y,z
loop_
_atom_site_type_symbol
_atom_site_label
_atom_site_fract_x
_atom_site_fract_y
_atom_site_fract_z
Si Si1 0.674133 0.592366 0.327311
Si Si2 0.166563 0.000000 0.321768
Si Si3 0.677133 0.792342 0.330701
Si Si4 0.676702 0.306485 0.167103
Si Si5 0.172832 0.500000 0.173273
Si Si6 0.332243 0.901490 0.321964
O O1 0.702128 0.590710 0.500000
O O2 0.500000 0.586721 0.306066
O O3 0.718006 0.645587 0.261271
O O4 0.755851 0.548285 0.245909
O O5 0.244296 0.949495 0.273298
O O6 0.172632 0.000000 0.500000
O O7 0.000000 0.000000 0.278018
O O8 0.719688 0.785852 0.500000
O O9 0.500000 0.793476 0.328754
O O10 0.725609 0.745388 0.237160
O O11 0.723486 0.846986 0.277314
O O12 0.500000 0.305213 0.167828
O O13 0.724145 0.311640 0.000000
O O14 0.000000 0.500000 0.196601
O O15 0.200840 0.500000 0.000000
O O16 0.330417 0.900596 0.500000
O O17 0.500000 0.906729 0.277717
#
# Coordination Sequence:
#
# PCOD9385925 Si02
#       6
#     8   4   8   8   4   8
#     4  10  20  34  54  79 104 131 165 203 241 284
#     4   9  15  21  31  51  80 109 136 174 224 269
#     4   8  13  22  37  58  84 114 148 184 222 269
#     4   9  16  26  43  69  98 124 151 189 237 282
#     4  11  24  39  54  74 102 135 168 203 244 288
#     4   8  13  21  34  52  76 108 143 176 213 262
#
# _framework density 17.573264000000002
#
# number of rings (size 3 to 8) (size 9 to 14) (size 15 to 20)
#    0.000    3.000    0.000    3.300    0.000    6.800 
#    0.000    0.000    0.000    1.200    0.000    3.500 
#    0.000    5.600    0.000    0.000    0.000    0.000 
#
# Total GULP energy -222872.438259 kJ/mol
# GULP energy per Si atom -5571.810956 kJ/mol
# Density = 1.753327 g / cm^3
# Si number density = 17.573264 Si / 1000 Ang^3
#
#
#
# Elastic Constant Matrix: (Units=GPa)
#
#
# Indices 1 2 3 4 5 6 
#
# 1 36.9406 63.7881 38.5668 0.0000 0.0000 0.0000
# 2 63.7881 215.9171 81.7863 0.0000 0.0000 0.0000
# 3 38.5668 81.7863 84.0634 0.0000 0.0000 0.0000
# 4 0.0000 0.0000 0.0000 -8.5226 0.0000 0.0000
# 5 0.0000 0.0000 0.0000 0.0000 10.9974 0.0000
# 6 0.0000 0.0000 0.0000 0.0000 0.0000 -5.5890
#
#
#
# Elastic Compliance Matrix: (Units=1/GPa)
#
#
# Indices 1 2 3 4 5 6 
#
# 1 0.070488 -0.013579 -0.019127 0.000000 0.000000 0.000000
# 2 -0.013579 0.009950 -0.003451 0.000000 0.000000 0.000000
# 3 -0.019127 -0.003451 0.024028 0.000000 0.000000 0.000000
# 4 0.000000 0.000000 0.000000 -0.117335 0.000000 0.000000
# 5 0.000000 0.000000 0.000000 0.000000 0.090930 0.000000
# 6 0.000000 0.000000 0.000000 0.000000 0.000000 -0.178923
#
#
# Mechanical properties :
#
#
# Convention : Reuss Voigt Hill
#
# Bulk Modulus (GPa) = 31.10231 78.35593 54.72912
# Shear Modulus (GPa) = -280.43123 9.56249 -135.43437
#
# Velocity S-wave (km/s) = -12.64614 2.33523 -8.78839
# Velocity P-wave (km/s) = 13.98199 7.20805 8.47172
#
# Compressibility (1/GPa) = 0.03215196
#
# Stress axis : x y z
#
# Youngs Moduli (GPa) = 14.18689 100.50116 41.61733
#
# Poissons Ratio (x) = 1.36469 0.79603
# Poissons Ratio (y) = 0.19264 0.14362
# Poissons Ratio (z) = 0.27136 0.34681
#
# Static dielectric constant tensor:
#      x y z
#    x 1.578080 0.000000 0.000000 
#    y 0.000000 1.605040 0.000000 
#    z 0.000000 0.000000 1.582680 
# 
# From -- ./inp_files/1847.got.cif
#   From: 2010.05.17/outbox.cif.g08.bks.cpg/sg47_1_cif.got.tgz:1847.got - 2010.06.03 20:15:42.
