data_PCOD9385839
_publ_section_title
;
Structure prediction by ZEFSAII (Michael W. Deem and Ramdas Pophale) SiO2 
 PCOD9385839
Probable space group: P M M M
;
_chemical_formula_sum "Si O2"
_cell_formula_units_Z 44
_cell_length_a 16.766001
_cell_length_b 7.851553
_cell_length_c 15.116491
_cell_angle_alpha 90.000000
_cell_angle_beta 90.000000
_cell_angle_gamma 90.000000
_cell_volume 1989.921957
_symmetry_space_group_name_H-M "P M M M"
_symmetry_group_IT_number 47
_symmetry_cell_setting 'orthorhombic'
loop_
_space_group_symop_operation_xyz
x,y,z
-x,-y,z
x,-y,-z
-x,y,-z
-x,-y,-z
x,y,-z
-x,y,z
x,-y,z
loop_
_atom_site_type_symbol
_atom_site_label
_atom_site_fract_x
_atom_site_fract_y
_atom_site_fract_z
Si Si1 0.744999 0.694649 0.905007
Si Si2 0.912894 0.801560 0.133734
Si Si3 0.360744 0.191365 0.236217
Si Si4 0.264412 0.205711 0.401203
Si Si5 0.088121 0.704139 0.337577
Si Si6 0.500000 0.208759 0.895893
O O1 0.719761 0.500000 0.890081
O O2 0.839724 0.700858 0.905122
O O3 0.716980 0.810526 0.825510
O O4 0.713471 0.753965 0.000000
O O5 0.909095 0.783844 0.239947
O O6 0.000000 0.740392 0.106427
O O7 0.905174 0.000000 0.109995
O O8 0.326519 0.272001 0.326521
O O9 0.425389 0.263493 0.166345
O O10 0.388933 0.000000 0.257353
O O11 0.285865 0.262086 0.500000
O O12 0.171294 0.249165 0.384214
O O13 0.269201 0.000000 0.396786
O O14 0.088416 0.500000 0.328523
O O15 0.000000 0.751034 0.376566
O O16 0.500000 0.000000 0.900368
O O17 0.500000 0.265467 0.000000
#
# Coordination Sequence:
#
# PCOD9385839 Si02
#       6
#     8   8   8   8   8   4
#     4  11  23  36  53  80 113 148 187 233 285 339
#     4  10  20  34  53  77 107 146 191 236 283 336
#     4  10  20  37  60  84 112 148 187 233 285 341
#     4  10  21  36  55  82 115 152 195 240 287 340
#     4  10  20  34  54  80 111 149 195 245 292 337
#     4   9  18  34  60  92 118 143 185 237 285 338
#
# _framework density 22.111419999999999
#
# number of rings (size 3 to 8) (size 9 to 14) (size 15 to 20)
#    0.000    1.909    1.818    2.182    0.000    5.455 
#    0.000    4.545    0.000    4.364    0.000    0.000 
#    0.000    2.909    0.000    0.000    0.000    0.000 
#
# Total GULP energy -245331.828473 kJ/mol
# GULP energy per Si atom -5575.723374 kJ/mol
# Density = 2.206109 g / cm^3
# Si number density = 22.111420 Si / 1000 Ang^3
#
#
#
# Elastic Constant Matrix: (Units=GPa)
#
#
# Indices 1 2 3 4 5 6 
#
# 1 122.9775 6.4403 66.3150 0.0000 0.0000 0.0000
# 2 6.4403 38.6483 13.0519 0.0000 0.0000 0.0000
# 3 66.3150 13.0519 170.8367 0.0000 0.0000 0.0000
# 4 0.0000 0.0000 0.0000 1.9259 0.0000 0.0000
# 5 0.0000 0.0000 0.0000 0.0000 -3.6105 0.0000
# 6 0.0000 0.0000 0.0000 0.0000 0.0000 7.5715
#
#
#
# Elastic Compliance Matrix: (Units=1/GPa)
#
#
# Indices 1 2 3 4 5 6 
#
# 1 0.010290 -0.000375 -0.003966 0.000000 0.000000 0.000000
# 2 -0.000375 0.026573 -0.001884 0.000000 0.000000 0.000000
# 3 -0.003966 -0.001884 0.007537 0.000000 0.000000 0.000000
# 4 0.000000 0.000000 0.000000 0.519251 0.000000 0.000000
# 5 0.000000 0.000000 0.000000 0.000000 -0.276973 0.000000
# 6 0.000000 0.000000 0.000000 0.000000 0.000000 0.132074
#
#
# Mechanical properties :
#
#
# Convention : Reuss Voigt Hill
#
# Bulk Modulus (GPa) = 31.29999 56.00857 43.65428
# Shear Modulus (GPa) = 11.31600 17.62107 14.46853
#
# Velocity S-wave (km/s) = 2.26469 2.82604 2.56080
# Velocity P-wave (km/s) = 4.58527 6.00282 5.34128
#
# Compressibility (1/GPa) = 0.03194889
#
# Stress axis : x y z
#
# Youngs Moduli (GPa) = 97.18535 37.63177 132.68161
#
# Poissons Ratio (x) = 0.01413 0.52615
# Poissons Ratio (y) = 0.03649 0.25003
# Poissons Ratio (z) = 0.38539 0.07091
#
# Static dielectric constant tensor:
#      x y z
#    x 1.880090 0.000000 0.000000 
#    y 0.000000 1.808570 0.000000 
#    z 0.000000 0.000000 1.821870 
# 
# From -- ./inp_files/20911.got.cif
#   From: 2010.05.17/outbox.cif.g08.bks.cpg/sg47_11_cif.got.tgz:20911.got - 2010.06.03 20:15:42.
