data_PCOD9385957
_publ_section_title
;
Structure prediction by ZEFSAII (Michael W. Deem and Ramdas Pophale) SiO2 
 PCOD9385957
Probable space group: P M M M
;
_chemical_formula_sum "Si O2"
_cell_formula_units_Z 64
_cell_length_a 18.374608
_cell_length_b 21.182876
_cell_length_c 9.164213
_cell_angle_alpha 90.000000
_cell_angle_beta 90.000000
_cell_angle_gamma 90.000000
_cell_volume 3566.959526
_symmetry_space_group_name_H-M "P M M M"
_symmetry_group_IT_number 47
_symmetry_cell_setting 'orthorhombic'
loop_
_space_group_symop_operation_xyz
x,y,z
-x,-y,z
x,-y,-z
-x,y,-z
-x,-y,-z
x,y,-z
-x,y,z
x,-y,z
loop_
_atom_site_type_symbol
_atom_site_label
_atom_site_fract_x
_atom_site_fract_y
_atom_site_fract_z
Si Si1 0.413946 0.426124 0.327311
Si Si2 0.088456 0.070461 0.330333
Si Si3 0.912048 0.802451 0.170267
Si Si4 0.411686 0.930852 0.328689
Si Si5 0.677836 0.319112 0.825151
Si Si6 0.415531 0.195770 0.174657
Si Si7 0.834115 0.313814 0.673901
Si Si8 0.912564 0.572783 0.169964
O O1 0.400692 0.414868 0.500000
O O2 0.500000 0.415553 0.300870
O O3 0.398826 0.500000 0.298502
O O4 0.366026 0.379858 0.231026
O O5 0.109210 0.079800 0.500000
O O6 0.111664 0.129376 0.232645
O O7 0.000000 0.069888 0.326514
O O8 0.112496 0.000000 0.284441
O O9 0.876951 0.746372 0.262287
O O10 0.000000 0.798710 0.181885
O O11 0.892831 0.796118 0.000000
O O12 0.394288 0.925712 0.500000
O O13 0.500000 0.931257 0.316742
O O14 0.386586 0.868930 0.244548
O O15 0.386331 0.000000 0.275989
O O16 0.631156 0.256841 0.786846
O O17 0.754705 0.315341 0.745441
O O18 0.686921 0.321279 0.000000
O O19 0.500000 0.204844 0.220181
O O20 0.414848 0.189145 0.000000
O O21 0.830367 0.310732 0.500000
O O22 0.875158 0.376919 0.726604
O O23 0.892447 0.500000 0.201237
O O24 0.000000 0.577594 0.181756
O O25 0.893801 0.586018 0.000000
#
# Coordination Sequence:
#
# PCOD9385957 Si02
#       8
#     8   8   8   8   8   8   8   8
#     4   9  19  37  60  85 112 140 172 213 260 311
#     4   8  14  26  46  74 107 139 172 214 263 313
#     4  10  20  34  54  79 107 140 178 220 266 318
#     4   8  14  25  43  70 102 133 166 205 250 302
#     4  11  23  38  55  76 106 142 180 222 264 311
#     4   9  18  32  51  76 103 132 169 213 260 308
#     4  12  25  38  54  77 107 143 181 221 265 314
#     4   9  19  38  63  87 110 137 170 210 258 313
#
# _framework density 17.942450999999998
#
# number of rings (size 3 to 8) (size 9 to 14) (size 15 to 20)
#    0.000    2.500    0.000    4.125    0.000    5.750 
#    0.000    5.000    0.000    0.750    0.000    3.500 
#    0.000    0.000    0.000    0.000    0.000    0.000 
#
# Total GULP energy -357033.749435 kJ/mol
# GULP energy per Si atom -5578.652335 kJ/mol
# Density = 1.790161 g / cm^3
# Si number density = 17.942451 Si / 1000 Ang^3
#
#
#
# Elastic Constant Matrix: (Units=GPa)
#
#
# Indices 1 2 3 4 5 6 
#
# 1 41.8480 57.1399 49.2245 0.0000 0.0000 0.0000
# 2 57.1399 146.1508 90.9042 0.0000 0.0000 0.0000
# 3 49.2245 90.9042 100.0675 0.0000 0.0000 0.0000
# 4 0.0000 0.0000 0.0000 38.6335 0.0000 0.0000
# 5 0.0000 0.0000 0.0000 0.0000 18.0641 0.0000
# 6 0.0000 0.0000 0.0000 0.0000 0.0000 -8.5188
#
#
#
# Elastic Compliance Matrix: (Units=1/GPa)
#
#
# Indices 1 2 3 4 5 6 
#
# 1 0.065763 -0.012851 -0.020675 0.000000 0.000000 0.000000
# 2 -0.012851 0.018242 -0.010250 0.000000 0.000000 0.000000
# 3 -0.020675 -0.010250 0.029475 0.000000 0.000000 0.000000
# 4 0.000000 0.000000 0.000000 0.025884 0.000000 0.000000
# 5 0.000000 0.000000 0.000000 0.000000 0.055358 0.000000
# 6 0.000000 0.000000 0.000000 0.000000 0.000000 -0.117387
#
#
# Mechanical properties :
#
#
# Convention : Reuss Voigt Hill
#
# Bulk Modulus (GPa) = 38.56957 75.84483 57.20720
# Shear Modulus (GPa) = 28.81363 15.68893 22.25128
#
# Velocity S-wave (km/s) = 4.01170 2.96024 3.52539
# Velocity P-wave (km/s) = 6.55754 7.35166 6.96593
#
# Compressibility (1/GPa) = 0.02592718
#
# Stress axis : x y z
#
# Youngs Moduli (GPa) = 15.20621 54.81888 33.92740
#
# Poissons Ratio (x) = 0.70449 0.70145
# Poissons Ratio (y) = 0.19542 0.34775
# Poissons Ratio (z) = 0.31439 0.56188
#
# Static dielectric constant tensor:
#      x y z
#    x 1.601280 0.000000 0.000000 
#    y 0.000000 1.612910 0.000000 
#    z 0.000000 0.000000 1.595610 
# 
# From -- ./inp_files/10006.got.cif
#   From: 2010.05.17/outbox.cif.g08.bks.cpg/sg47_6_cif.got.tgz:10006.got - 2010.06.03 20:15:42.
