data_PCOD9385034
_publ_section_title
;
Structure prediction by ZEFSAII (Michael W. Deem and Ramdas Pophale) SiO2 
 PCOD9385034
Probable space group: P M M M
;
_chemical_formula_sum "Si O2"
_cell_formula_units_Z 52
_cell_length_a 9.193587
_cell_length_b 20.452546
_cell_length_c 16.157987
_cell_angle_alpha 90.000000
_cell_angle_beta 90.000000
_cell_angle_gamma 90.000000
_cell_volume 3038.222829
_symmetry_space_group_name_H-M "P M M M"
_symmetry_group_IT_number 47
_symmetry_cell_setting 'orthorhombic'
loop_
_space_group_symop_operation_xyz
x,y,z
-x,-y,z
x,-y,-z
-x,y,-z
-x,-y,-z
x,y,-z
-x,y,z
x,-y,z
loop_
_atom_site_type_symbol
_atom_site_label
_atom_site_fract_x
_atom_site_fract_y
_atom_site_fract_z
Si Si1 0.831890 0.833674 0.379015
Si Si2 0.831652 0.809748 0.813011
Si Si3 0.325415 0.673224 0.222204
Si Si4 0.330914 0.926805 0.900488
Si Si5 0.826835 0.577879 0.094835
Si Si6 0.667201 0.077477 0.500000
Si Si7 0.325463 0.696855 0.591008
O O1 0.827151 0.836625 0.280476
O O2 0.748931 0.892818 0.421399
O O3 0.752470 0.766936 0.405355
O O4 0.000000 0.831820 0.404266
O O5 0.742691 0.741956 0.808882
O O6 0.761533 0.866136 0.868351
O O7 0.000000 0.796867 0.835521
O O8 0.500000 0.675564 0.216050
O O9 0.260469 0.617536 0.163477
O O10 0.286994 0.663966 0.320348
O O11 0.500000 0.919105 0.874834
O O12 0.282217 0.000000 0.873467
O O13 0.327665 0.926575 0.000000
O O14 0.803549 0.500000 0.102839
O O15 0.000000 0.589811 0.104276
O O16 0.787080 0.596437 0.000000
O O17 0.500000 0.099636 0.500000
O O18 0.671668 0.000000 0.500000
O O19 0.290143 0.666780 0.500000
O O20 0.500000 0.705666 0.592901
#
# Coordination Sequence:
#
# PCOD9385034 Si02
#       7
#     8   8   8   8   8   4   8
#     4  10  20  33  49  70  95 124 162 208 255 303
#     4  10  21  35  52  76 105 135 169 213 264 315
#     4  10  20  33  53  83 112 139 177 222 265 313
#     4   9  19  36  55  73  95 127 169 216 265 317
#     4   9  19  37  59  81 109 147 184 218 264 320
#     4  11  23  35  47  65  91 127 168 207 254 313
#     4   9  17  31  52  75 102 136 171 209 256 310
#
# _framework density 17.115269999999999
#
# number of rings (size 3 to 8) (size 9 to 14) (size 15 to 20)
#    0.000    2.385    0.769    2.538    0.000    5.538 
#    0.000    4.615    0.000    0.462    0.000    3.231 
#    0.000    0.000    0.000    0.000    0.000    0.000 
#
# Total GULP energy -289793.017063 kJ/mol
# GULP energy per Si atom -5572.942636 kJ/mol
# Density = 1.707631 g / cm^3
# Si number density = 17.115270 Si / 1000 Ang^3
#
#
#
# Elastic Constant Matrix: (Units=GPa)
#
#
# Indices 1 2 3 4 5 6 
#
# 1 64.1846 43.5024 51.1241 0.0000 0.0000 0.0000
# 2 43.5024 63.7746 56.8321 0.0000 0.0000 0.0000
# 3 51.1241 56.8321 104.4238 0.0000 0.0000 0.0000
# 4 0.0000 0.0000 0.0000 20.8419 0.0000 0.0000
# 5 0.0000 0.0000 0.0000 0.0000 122.8933 0.0000
# 6 0.0000 0.0000 0.0000 0.0000 0.0000 32.8920
#
#
#
# Elastic Compliance Matrix: (Units=1/GPa)
#
#
# Indices 1 2 3 4 5 6 
#
# 1 0.031575 -0.015073 -0.007255 0.000000 0.000000 0.000000
# 2 -0.015073 0.037642 -0.013107 0.000000 0.000000 0.000000
# 3 -0.007255 -0.013107 0.020262 0.000000 0.000000 0.000000
# 4 0.000000 0.000000 0.000000 0.047980 0.000000 0.000000
# 5 0.000000 0.000000 0.000000 0.000000 0.008137 0.000000
# 6 0.000000 0.000000 0.000000 0.000000 0.000000 0.030402
#
#
# Mechanical properties :
#
#
# Convention : Reuss Voigt Hill
#
# Bulk Modulus (GPa) = 53.73855 59.47780 56.60817
# Shear Modulus (GPa) = 19.75728 40.72041 30.23885
#
# Velocity S-wave (km/s) = 3.40128 4.88298 4.20786
# Velocity P-wave (km/s) = 6.84771 8.16199 7.53357
#
# Compressibility (1/GPa) = 0.01860862
#
# Stress axis : x y z
#
# Youngs Moduli (GPa) = 31.67092 26.56611 49.35360
#
# Poissons Ratio (x) = 0.40042 0.35807
# Poissons Ratio (y) = 0.47736 0.64689
# Poissons Ratio (z) = 0.22978 0.34821
#
# Static dielectric constant tensor:
#      x y z
#    x 1.577040 0.000000 0.000000 
#    y 0.000000 1.544520 0.000000 
#    z 0.000000 0.000000 1.610750 
# 
# From -- ./inp_files/21461.got.cif
#   From: 2010.05.17/outbox.cif.g08.bks.cpg/sg47_11_cif.got.tgz:21461.got - 2010.06.03 20:15:42.
