data_PCOD9385818
_publ_section_title
;
Structure prediction by ZEFSAII (Michael W. Deem and Ramdas Pophale) SiO2 
 PCOD9385818
Probable space group: P M M M
;
_chemical_formula_sum "Si O2"
_cell_formula_units_Z 48
_cell_length_a 8.619906
_cell_length_b 9.312135
_cell_length_c 31.789887
_cell_angle_alpha 90.000000
_cell_angle_beta 90.000000
_cell_angle_gamma 90.000000
_cell_volume 2551.765594
_symmetry_space_group_name_H-M "P M M M"
_symmetry_group_IT_number 47
_symmetry_cell_setting 'orthorhombic'
loop_
_space_group_symop_operation_xyz
x,y,z
-x,-y,z
x,-y,-z
-x,y,-z
-x,-y,-z
x,y,-z
-x,y,z
x,-y,z
loop_
_atom_site_type_symbol
_atom_site_label
_atom_site_fract_x
_atom_site_fract_y
_atom_site_fract_z
Si Si1 0.314492 0.831808 0.580501
Si Si2 0.814244 0.167884 0.671311
Si Si3 0.189575 0.833995 0.000000
Si Si4 0.189376 0.334191 0.916216
Si Si5 0.685936 0.666186 0.248533
Si Si6 0.187781 0.166617 0.832170
Si Si7 0.185751 0.666719 0.500000
O O1 0.500000 0.820582 0.581887
O O2 0.245736 0.786011 0.625447
O O3 0.250063 0.742975 0.541575
O O4 0.273291 0.000000 0.574650
O O5 0.745553 0.262318 0.708597
O O6 0.000000 0.175371 0.672275
O O7 0.768634 0.000000 0.677148
O O8 0.239034 0.750167 0.041943
O O9 0.000000 0.834395 0.000000
O O10 0.239097 0.000000 0.000000
O O11 0.239794 0.500000 0.916301
O O12 0.237952 0.251037 0.874121
O O13 0.000000 0.334656 0.916452
O O14 0.500000 0.670547 0.248000
O O15 0.736219 0.500000 0.245713
O O16 0.749905 0.754981 0.209073
O O17 0.000000 0.169565 0.830940
O O18 0.235843 0.000000 0.833550
O O19 0.231031 0.500000 0.500000
O O20 0.000000 0.676706 0.500000
#
# Coordination Sequence:
#
# PCOD9385818 Si02
#       7
#     8   8   4   8   8   8   4
#     4  10  21  38  61  87 114 147 187 229 275 327
#     4  10  21  38  61  87 112 141 179 222 269 322
#     4   9  15  23  37  61  96 135 174 217 264 315
#     4   9  16  26  42  66  98 135 173 215 266 321
#     4  11  24  39  55  78 108 142 179 219 266 320
#     4  10  20  34  53  77 104 136 176 221 269 321
#     4  11  24  39  56  82 116 153 192 233 278 326
#
# _framework density 18.810504999999999
#
# number of rings (size 3 to 8) (size 9 to 14) (size 15 to 20)
#    0.000    2.000    0.000    3.750    0.000   11.667 
#    0.000    0.000    0.000    0.000    0.000    0.583 
#    0.000    4.667    0.000    0.000    0.000    0.000 
#
# Total GULP energy -268188.541966 kJ/mol
# GULP energy per Si atom -5587.261291 kJ/mol
# Density = 1.876769 g / cm^3
# Si number density = 18.810505 Si / 1000 Ang^3
#
#
#
# Elastic Constant Matrix: (Units=GPa)
#
#
# Indices 1 2 3 4 5 6 
#
# 1 17.7625 36.1186 36.0918 0.0000 0.0000 0.0000
# 2 36.1186 176.2657 135.3753 0.0000 0.0000 0.0000
# 3 36.0918 135.3753 217.9371 0.0000 0.0000 0.0000
# 4 0.0000 0.0000 0.0000 248.9533 0.0000 0.0000
# 5 0.0000 0.0000 0.0000 0.0000 -84.5334 0.0000
# 6 0.0000 0.0000 0.0000 0.0000 0.0000 20.9576
#
#
#
# Elastic Compliance Matrix: (Units=1/GPa)
#
#
# Indices 1 2 3 4 5 6 
#
# 1 0.102571 -0.015245 -0.007517 0.000000 0.000000 0.000000
# 2 -0.015245 0.013115 -0.005622 0.000000 0.000000 0.000000
# 3 -0.007517 -0.005622 0.009325 0.000000 0.000000 0.000000
# 4 0.000000 0.000000 0.000000 0.004017 0.000000 0.000000
# 5 0.000000 0.000000 0.000000 0.000000 -0.011830 0.000000
# 6 0.000000 0.000000 0.000000 0.000000 0.000000 0.047715
#
#
# Mechanical properties :
#
#
# Convention : Reuss Voigt Hill
#
# Bulk Modulus (GPa) = 14.65319 91.90409 53.27864
# Shear Modulus (GPa) = 20.45582 50.70079 35.57831
#
# Velocity S-wave (km/s) = 3.30126 5.19730 4.35375
# Velocity P-wave (km/s) = 4.72629 9.21845 7.32522
#
# Compressibility (1/GPa) = 0.06824450
#
# Stress axis : x y z
#
# Youngs Moduli (GPa) = 9.74930 76.25046 107.23404
#
# Poissons Ratio (x) = 1.16242 0.80608
# Poissons Ratio (y) = 0.14863 0.60284
# Poissons Ratio (z) = 0.07329 0.42866
#
# Static dielectric constant tensor:
#      x y z
#    x 1.635420 0.000000 0.000000 
#    y 0.000000 1.637570 0.000000 
#    z 0.000000 0.000000 1.609750 
# 
# From -- ./inp_files/13816.got.cif
#   From: 2010.05.17/outbox.cif.g08.bks.cpg/sg47_7_cif.got.tgz:13816.got - 2010.06.03 20:15:42.
