data_PCOD9385690
_publ_section_title
;
Structure prediction by ZEFSAII (Michael W. Deem and Ramdas Pophale) SiO2 
 PCOD9385690
Probable space group: P M M M
;
_chemical_formula_sum "Si O2"
_cell_formula_units_Z 64
_cell_length_a 8.178728
_cell_length_b 20.162243
_cell_length_c 19.796531
_cell_angle_alpha 90.000000
_cell_angle_beta 90.000000
_cell_angle_gamma 90.000000
_cell_volume 3264.477684
_symmetry_space_group_name_H-M "P M M M"
_symmetry_group_IT_number 47
_symmetry_cell_setting 'orthorhombic'
loop_
_space_group_symop_operation_xyz
x,y,z
-x,-y,z
x,-y,-z
-x,y,-z
-x,-y,-z
x,y,-z
-x,y,z
x,-y,z
loop_
_atom_site_type_symbol
_atom_site_label
_atom_site_fract_x
_atom_site_fract_y
_atom_site_fract_z
Si Si1 0.189466 0.597784 0.074592
Si Si2 0.691544 0.255300 0.925744
Si Si3 0.809853 0.919700 0.573367
Si Si4 0.690563 0.076507 0.718063
Si Si5 0.186946 0.680054 0.689575
Si Si6 0.808678 0.204875 0.215543
Si Si7 0.687703 0.426797 0.217575
Si Si8 0.800682 0.575984 0.578807
O O1 0.205331 0.677347 0.076698
O O2 0.291768 0.572839 0.137367
O O3 0.000000 0.578925 0.082766
O O4 0.245010 0.577072 0.000000
O O5 0.500000 0.273851 0.924227
O O6 0.728719 0.216187 0.857418
O O7 0.722241 0.223466 0.000000
O O8 0.750977 0.895600 0.500000
O O9 0.711832 0.902125 0.639880
O O10 0.000000 0.899947 0.581394
O O11 0.807169 0.000000 0.570675
O O12 0.500000 0.078448 0.735928
O O13 0.786039 0.129466 0.761955
O O14 0.747840 0.000000 0.724060
O O15 0.259090 0.746304 0.724800
O O16 0.195048 0.627438 0.750736
O O17 0.258393 0.635610 0.627806
O O18 0.000000 0.696248 0.670187
O O19 0.000000 0.221239 0.209027
O O20 0.500000 0.410485 0.234609
O O21 0.727248 0.500000 0.243457
O O22 0.759920 0.587718 0.500000
O O23 0.746886 0.500000 0.595618
O O24 0.000000 0.575457 0.584073
#
# Coordination Sequence:
#
# PCOD9385690 Si02
#       8
#     8   8   8   8   8   8   8   8
#     4  10  20  34  52  74 101 135 176 220 264 312
#     4  10  20  35  57  82 108 141 179 220 268 321
#     4   8  14  27  49  76 106 140 177 218 263 312
#     4  10  21  36  55  80 110 146 186 228 278 335
#     4  10  20  34  53  78 105 136 177 224 273 326
#     4  11  22  35  55  83 112 144 180 221 274 329
#     4  11  23  35  49  72 103 140 178 219 270 321
#     4   8  14  27  50  78 105 136 178 228 277 321
#
# _framework density 19.604973999999999
#
# number of rings (size 3 to 8) (size 9 to 14) (size 15 to 20)
#    0.000    2.250    1.250    3.000    0.000    4.750 
#    0.000    3.125    0.000    3.000    0.000    4.375 
#    0.000    0.000    0.000    0.000    0.000    0.000 
#
# Total GULP energy -356699.176004 kJ/mol
# GULP energy per Si atom -5573.424625 kJ/mol
# Density = 1.956035 g / cm^3
# Si number density = 19.604974 Si / 1000 Ang^3
#
#
#
# Elastic Constant Matrix: (Units=GPa)
#
#
# Indices 1 2 3 4 5 6 
#
# 1 25.1576 11.3176 7.1103 0.0000 0.0000 0.0000
# 2 11.3176 75.6167 49.2790 0.0000 0.0000 0.0000
# 3 7.1103 49.2790 119.0156 0.0000 0.0000 0.0000
# 4 0.0000 0.0000 0.0000 28.8400 0.0000 0.0000
# 5 0.0000 0.0000 0.0000 0.0000 19.2691 0.0000
# 6 0.0000 0.0000 0.0000 0.0000 0.0000 14.0721
#
#
#
# Elastic Compliance Matrix: (Units=1/GPa)
#
#
# Indices 1 2 3 4 5 6 
#
# 1 0.042620 -0.006464 0.000130 0.000000 0.000000 0.000000
# 2 -0.006464 0.019092 -0.007519 0.000000 0.000000 0.000000
# 3 0.000130 -0.007519 0.011508 0.000000 0.000000 0.000000
# 4 0.000000 0.000000 0.000000 0.034674 0.000000 0.000000
# 5 0.000000 0.000000 0.000000 0.000000 0.051897 0.000000
# 6 0.000000 0.000000 0.000000 0.000000 0.000000 0.071063
#
#
# Mechanical properties :
#
#
# Convention : Reuss Voigt Hill
#
# Bulk Modulus (GPa) = 21.97081 39.46708 30.71895
# Shear Modulus (GPa) = 18.26612 22.57510 20.42061
#
# Velocity S-wave (km/s) = 3.05570 3.39706 3.23089
# Velocity P-wave (km/s) = 4.86630 5.96335 5.44253
#
# Compressibility (1/GPa) = 0.04551493
#
# Stress axis : x y z
#
# Youngs Moduli (GPa) = 23.46290 52.37756 86.89777
#
# Poissons Ratio (x) = 0.33856 -0.01131
# Poissons Ratio (y) = 0.15166 0.65339
# Poissons Ratio (z) = -0.00305 0.39383
#
# Static dielectric constant tensor:
#      x y z
#    x 1.702590 0.000000 0.000000 
#    y 0.000000 1.686280 0.000000 
#    z 0.000000 0.000000 1.721010 
# 
# From -- ./inp_files/27039.got.cif
#   From: 2010.05.17/outbox.cif.g08.bks.cpg/sg47_14_cif.got.tgz:27039.got - 2010.06.03 20:15:42.
