data_PCOD9385502
_publ_section_title
;
Structure prediction by ZEFSAII (Michael W. Deem and Ramdas Pophale) SiO2 
 PCOD9385502
Probable space group: P M M M
;
_chemical_formula_sum "Si O2"
_cell_formula_units_Z 44
_cell_length_a 8.141544
_cell_length_b 9.411173
_cell_length_c 29.443743
_cell_angle_alpha 90.000000
_cell_angle_beta 90.000000
_cell_angle_gamma 90.000000
_cell_volume 2256.023138
_symmetry_space_group_name_H-M "P M M M"
_symmetry_group_IT_number 47
_symmetry_cell_setting 'orthorhombic'
loop_
_space_group_symop_operation_xyz
x,y,z
-x,-y,z
x,-y,-z
-x,y,-z
-x,-y,-z
x,y,-z
-x,y,z
x,-y,z
loop_
_atom_site_type_symbol
_atom_site_label
_atom_site_fract_x
_atom_site_fract_y
_atom_site_fract_z
Si Si1 0.696379 0.162129 0.686713
Si Si2 0.190018 0.327113 0.500000
Si Si3 0.199188 0.335706 0.401024
Si Si4 0.196067 0.661853 0.225470
Si Si5 0.301888 0.838575 0.137872
Si Si6 0.700409 0.664293 0.949019
O O1 0.500000 0.158099 0.688941
O O2 0.747031 0.236806 0.639900
O O3 0.757246 0.254317 0.729078
O O4 0.758774 0.000000 0.689180
O O5 0.187523 0.500000 0.500000
O O6 0.261476 0.287361 0.450941
O O7 0.000000 0.278694 0.500000
O O8 0.250743 0.500000 0.393315
O O9 0.000000 0.336579 0.402952
O O10 0.260273 0.500000 0.226465
O O11 0.258092 0.745580 0.181496
O O12 0.000000 0.655899 0.223039
O O13 0.500000 0.843848 0.135223
O O14 0.241650 0.763690 0.091701
O O15 0.241066 0.000000 0.142327
O O16 0.500000 0.666879 0.948783
O O17 0.748570 0.500000 0.941370
O O18 0.752205 0.706270 0.000000
#
# Coordination Sequence:
#
# PCOD9385502 Si02
#       6
#     8   4   8   8   8   8
#     4  11  24  39  54  76 107 140 173 211 259 313
#     4   7  12  26  50  79 108 136 170 215 258 297
#     4   9  17  32  56  83 108 137 176 218 259 304
#     4  11  24  40  58  79 101 130 172 218 263 313
#     4  10  20  33  52  80 111 141 173 211 258 310
#     4   8  14  26  46  73 105 141 179 216 254 298
#
# _framework density 19.503347000000002
#
# number of rings (size 3 to 8) (size 9 to 14) (size 15 to 20)
#    0.000    2.455    0.000    4.364    0.000    9.091 
#    0.000    2.727    0.000    4.909    0.000    3.818 
#    0.000    0.000    0.000    0.000    0.000    0.000 
#
# Total GULP energy -245529.942713 kJ/mol
# GULP energy per Si atom -5580.225971 kJ/mol
# Density = 1.945896 g / cm^3
# Si number density = 19.503347 Si / 1000 Ang^3
#
#
#
# Elastic Constant Matrix: (Units=GPa)
#
#
# Indices 1 2 3 4 5 6 
#
# 1 14.9570 13.5917 8.9678 0.0000 0.0000 0.0000
# 2 13.5917 161.7936 121.8245 0.0000 0.0000 0.0000
# 3 8.9678 121.8245 206.0185 0.0000 0.0000 0.0000
# 4 0.0000 0.0000 0.0000 -8.4089 0.0000 0.0000
# 5 0.0000 0.0000 0.0000 0.0000 25.0405 0.0000
# 6 0.0000 0.0000 0.0000 0.0000 0.0000 21.9495
#
#
#
# Elastic Compliance Matrix: (Units=1/GPa)
#
#
# Indices 1 2 3 4 5 6 
#
# 1 0.072458 -0.006691 0.000803 0.000000 0.000000 0.000000
# 2 -0.006691 0.011759 -0.006662 0.000000 0.000000 0.000000
# 3 0.000803 -0.006662 0.008759 0.000000 0.000000 0.000000
# 4 0.000000 0.000000 0.000000 -0.118922 0.000000 0.000000
# 5 0.000000 0.000000 0.000000 0.000000 0.039935 0.000000
# 6 0.000000 0.000000 0.000000 0.000000 0.000000 0.045559
#
#
# Mechanical properties :
#
#
# Convention : Reuss Voigt Hill
#
# Bulk Modulus (GPa) = 14.73323 74.61522 44.67423
# Shear Modulus (GPa) = 46.60918 23.60856 35.10887
#
# Velocity S-wave (km/s) = 4.89387 3.48298 4.24742
# Velocity P-wave (km/s) = 6.28521 7.38347 6.85636
#
# Compressibility (1/GPa) = 0.06787380
#
# Stress axis : x y z
#
# Youngs Moduli (GPa) = 13.80115 85.03894 114.17328
#
# Poissons Ratio (x) = 0.56902 -0.09165
# Poissons Ratio (y) = 0.09235 0.76066
# Poissons Ratio (z) = -0.01108 0.56656
#
# Static dielectric constant tensor:
#      x y z
#    x 1.703470 0.000000 0.000000 
#    y 0.000000 1.670560 0.000000 
#    z 0.000000 0.000000 1.674740 
# 
# From -- ./inp_files/33942.got.cif
#   From: 2010.05.17/outbox.cif.g08.bks.cpg/sg47_17_cif.got.tgz:33942.got - 2010.06.03 20:15:42.
