data_PCOD9385492
_publ_section_title
;
Structure prediction by ZEFSAII (Michael W. Deem and Ramdas Pophale) SiO2 
 PCOD9385492
Probable space group: P M M M
;
_chemical_formula_sum "Si O2"
_cell_formula_units_Z 48
_cell_length_a 17.531788
_cell_length_b 7.629324
_cell_length_c 16.244934
_cell_angle_alpha 90.000000
_cell_angle_beta 90.000000
_cell_angle_gamma 90.000000
_cell_volume 2172.852372
_symmetry_space_group_name_H-M "P M M M"
_symmetry_group_IT_number 47
_symmetry_cell_setting 'orthorhombic'
loop_
_space_group_symop_operation_xyz
x,y,z
-x,-y,z
x,-y,-z
-x,y,-z
-x,-y,-z
x,y,-z
-x,y,z
x,-y,z
loop_
_atom_site_type_symbol
_atom_site_label
_atom_site_fract_x
_atom_site_fract_y
_atom_site_fract_z
Si Si1 0.665932 0.710618 0.087672
Si Si2 0.685667 0.704947 0.590709
Si Si3 0.000000 0.243358 0.904643
Si Si4 0.164416 0.209986 0.132667
Si Si5 0.837016 0.208204 0.677092
Si Si6 0.411745 0.714818 0.255413
Si Si7 0.000000 0.297082 0.718387
O O1 0.658347 0.500000 0.088927
O O2 0.755616 0.752998 0.090623
O O3 0.625544 0.777199 0.170042
O O4 0.634436 0.774353 0.000000
O O5 0.673846 0.782382 0.500000
O O6 0.665221 0.500000 0.585841
O O7 0.773991 0.715419 0.617159
O O8 0.636296 0.778869 0.666039
O O9 0.911282 0.304426 0.901105
O O10 0.000000 0.188878 0.805068
O O11 0.000000 0.174883 0.000000
O O12 0.177803 0.260919 0.227950
O O13 0.147904 0.000000 0.126762
O O14 0.924737 0.259718 0.666240
O O15 0.830233 0.000000 0.672417
O O16 0.500000 0.763751 0.261079
O O17 0.408104 0.500000 0.254760
O O18 0.000000 0.500000 0.744913
#
# Coordination Sequence:
#
# PCOD9385492 Si02
#       7
#     8   8   4   8   8   8   4
#     4  10  20  33  52  79 110 146 188 231 276 328
#     4  10  20  35  59  88 114 143 181 226 280 340
#     4  10  21  33  47  76 113 149 191 236 280 328
#     4  10  20  34  53  75 105 149 193 232 275 323
#     4  10  20  36  57  81 112 150 190 229 275 331
#     4   9  18  34  56  82 114 147 179 225 281 334
#     4  10  21  36  57  81 111 152 193 238 283 323
#
# _framework density 22.090778
#
# number of rings (size 3 to 8) (size 9 to 14) (size 15 to 20)
#    0.000    2.167    1.667    1.500    0.000    7.500 
#    0.000    3.750    0.000    4.500    0.000    2.333 
#    0.000    0.000    0.000    0.000    0.000    0.000 
#
# Total GULP energy -267452.224361 kJ/mol
# GULP energy per Si atom -5571.921341 kJ/mol
# Density = 2.204050 g / cm^3
# Si number density = 22.090778 Si / 1000 Ang^3
#
#
#
# Elastic Constant Matrix: (Units=GPa)
#
#
# Indices 1 2 3 4 5 6 
#
# 1 144.7027 -8.0928 96.4317 0.0000 0.0000 0.0000
# 2 -8.0928 56.7683 17.4953 0.0000 0.0000 0.0000
# 3 96.4317 17.4953 184.7433 0.0000 0.0000 0.0000
# 4 0.0000 0.0000 0.0000 25.7087 0.0000 0.0000
# 5 0.0000 0.0000 0.0000 0.0000 1.1378 0.0000
# 6 0.0000 0.0000 0.0000 0.0000 0.0000 -2.2901
#
#
#
# Elastic Compliance Matrix: (Units=1/GPa)
#
#
# Indices 1 2 3 4 5 6 
#
# 1 0.011238 0.003512 -0.006199 0.000000 0.000000 0.000000
# 2 0.003512 0.019243 -0.003656 0.000000 0.000000 0.000000
# 3 -0.006199 -0.003656 0.008995 0.000000 0.000000 0.000000
# 4 0.000000 0.000000 0.000000 0.038897 0.000000 0.000000
# 5 0.000000 0.000000 0.000000 0.000000 0.878913 0.000000
# 6 0.000000 0.000000 0.000000 0.000000 0.000000 -0.436656
#
#
# Mechanical properties :
#
#
# Convention : Reuss Voigt Hill
#
# Bulk Modulus (GPa) = 37.32508 66.43143 51.87825
# Shear Modulus (GPa) = 9.22094 23.60328 16.41211
#
# Velocity S-wave (km/s) = 2.04528 3.27229 2.72865
# Velocity P-wave (km/s) = 4.74452 6.66442 5.78468
#
# Compressibility (1/GPa) = 0.02679164
#
# Stress axis : x y z
#
# Youngs Moduli (GPa) = 88.98401 51.96746 111.17743
#
# Poissons Ratio (x) = -0.18253 0.68914
# Poissons Ratio (y) = -0.31255 0.40643
# Poissons Ratio (z) = 0.55158 0.18998
#
# Static dielectric constant tensor:
#      x y z
#    x 1.775180 0.000000 0.000000 
#    y 0.000000 1.897980 0.000000 
#    z 0.000000 0.000000 1.833800 
# 
# From -- ./inp_files/24474.got.cif
#   From: 2010.05.17/outbox.cif.g08.bks.cpg/sg47_13_cif.got.tgz:24474.got - 2010.06.03 20:15:42.
