data_PCOD9385343
_publ_section_title
;
Structure prediction by ZEFSAII (Michael W. Deem and Ramdas Pophale) SiO2 
 PCOD9385343
Probable space group: P M M M
;
_chemical_formula_sum "Si O2"
_cell_formula_units_Z 56
_cell_length_a 21.611148
_cell_length_b 8.010347
_cell_length_c 14.864616
_cell_angle_alpha 90.000000
_cell_angle_beta 90.000000
_cell_angle_gamma 90.000000
_cell_volume 2573.255216
_symmetry_space_group_name_H-M "P M M M"
_symmetry_group_IT_number 47
_symmetry_cell_setting 'orthorhombic'
loop_
_space_group_symop_operation_xyz
x,y,z
-x,-y,z
x,-y,-z
-x,y,-z
-x,-y,-z
x,y,-z
-x,y,z
x,-y,z
loop_
_atom_site_type_symbol
_atom_site_label
_atom_site_fract_x
_atom_site_fract_y
_atom_site_fract_z
Si Si1 0.200193 0.688112 0.605742
Si Si2 0.376854 0.800255 0.792691
Si Si3 0.666386 0.702146 0.603652
Si Si4 0.748520 0.698509 0.105478
Si Si5 0.931885 0.307753 0.352937
Si Si6 0.500000 0.204235 0.895983
Si Si7 0.927035 0.310464 0.000000
Si Si8 0.876374 0.811452 0.182441
O O1 0.209155 0.668175 0.500000
O O2 0.195963 0.500000 0.646920
O O3 0.265093 0.767948 0.632921
O O4 0.133029 0.770690 0.615030
O O5 0.376361 0.749110 0.687466
O O6 0.316497 0.737866 0.846811
O O7 0.438395 0.740904 0.843904
O O8 0.375494 0.000000 0.796089
O O9 0.651706 0.755567 0.500000
O O10 0.670733 0.500000 0.601111
O O11 0.756267 0.500000 0.102542
O O12 0.804438 0.767045 0.167584
O O13 0.751144 0.758755 0.000000
O O14 0.932825 0.500000 0.385906
O O15 0.917851 0.303047 0.246993
O O16 0.000000 0.236467 0.373029
O O17 0.500000 0.000000 0.895937
O O18 0.500000 0.257601 0.000000
O O19 0.904448 0.211755 0.085354
O O20 0.900858 0.500000 0.000000
O O21 0.000000 0.322100 0.000000
O O22 0.882358 0.000000 0.215117
#
# Coordination Sequence:
#
# PCOD9385343 Si02
#       8
#     8   8   8   8   8   4   4   8
#     4   8  15  30  53  79 106 140 185 235 285 340
#     4  11  22  37  62  92 122 158 201 247 297 351
#     4   9  18  35  59  86 119 160 203 248 300 355
#     4  11  23  39  60  85 116 151 190 242 303 360
#     4  10  20  33  51  76 107 144 185 233 293 357
#     4   9  20  40  62  87 124 168 205 243 294 355
#     4  11  23  39  57  75 101 140 183 228 285 349
#     4  12  24  37  55  78 106 141 186 237 287 342
#
# _framework density 21.762318
#
# number of rings (size 3 to 8) (size 9 to 14) (size 15 to 20)
#    0.000    1.857    0.714    4.929    0.000    5.714 
#    0.000    3.214    0.000    6.000    0.000    1.000 
#    0.000    0.000    0.000    0.000    0.000    0.000 
#
# Total GULP energy -312325.375041 kJ/mol
# GULP energy per Si atom -5577.238840 kJ/mol
# Density = 2.171279 g / cm^3
# Si number density = 21.762318 Si / 1000 Ang^3
#
#
#
# Elastic Constant Matrix: (Units=GPa)
#
#
# Indices 1 2 3 4 5 6 
#
# 1 140.6563 10.3042 41.0843 0.0000 0.0000 0.0000
# 2 10.3042 52.0176 6.0990 0.0000 0.0000 0.0000
# 3 41.0843 6.0990 101.1844 0.0000 0.0000 0.0000
# 4 0.0000 0.0000 0.0000 15.6245 0.0000 0.0000
# 5 0.0000 0.0000 0.0000 0.0000 31.9578 0.0000
# 6 0.0000 0.0000 0.0000 0.0000 0.0000 17.7318
#
#
#
# Elastic Compliance Matrix: (Units=1/GPa)
#
#
# Indices 1 2 3 4 5 6 
#
# 1 0.008144 -0.001234 -0.003232 0.000000 0.000000 0.000000
# 2 -0.001234 0.019548 -0.000677 0.000000 0.000000 0.000000
# 3 -0.003232 -0.000677 0.011236 0.000000 0.000000 0.000000
# 4 0.000000 0.000000 0.000000 0.064002 0.000000 0.000000
# 5 0.000000 0.000000 0.000000 0.000000 0.031291 0.000000
# 6 0.000000 0.000000 0.000000 0.000000 0.000000 0.056396
#
#
# Mechanical properties :
#
#
# Convention : Reuss Voigt Hill
#
# Bulk Modulus (GPa) = 34.91509 45.42590 40.17050
# Shear Modulus (GPa) = 23.75836 28.82087 26.28962
#
# Velocity S-wave (km/s) = 3.30770 3.64311 3.47945
# Velocity P-wave (km/s) = 5.53774 6.21412 5.88565
#
# Compressibility (1/GPa) = 0.02864091
#
# Stress axis : x y z
#
# Youngs Moduli (GPa) = 122.78838 51.15574 88.99793
#
# Poissons Ratio (x) = 0.06314 0.28768
# Poissons Ratio (y) = 0.15155 0.06026
# Poissons Ratio (z) = 0.39690 0.03464
#
# Static dielectric constant tensor:
#      x y z
#    x 1.817300 0.000000 0.000000 
#    y 0.000000 1.839670 0.000000 
#    z 0.000000 0.000000 1.836050 
# 
# From -- ./inp_files/25198.got.cif
#   From: 2010.05.17/outbox.cif.g08.bks.cpg/sg47_13_cif.got.tgz:25198.got - 2010.06.03 20:15:42.
