data_PCOD9385985
_publ_section_title
;
Structure prediction by ZEFSAII (Michael W. Deem and Ramdas Pophale) SiO2 
 PCOD9385985
Probable space group: P M M M
;
_chemical_formula_sum "Si O2"
_cell_formula_units_Z 48
_cell_length_a 9.410890
_cell_length_b 8.013327
_cell_length_c 33.909680
_cell_angle_alpha 90.000000
_cell_angle_beta 90.000000
_cell_angle_gamma 90.000000
_cell_volume 2557.215063
_symmetry_space_group_name_H-M "P M M M"
_symmetry_group_IT_number 47
_symmetry_cell_setting 'orthorhombic'
loop_
_space_group_symop_operation_xyz
x,y,z
-x,-y,z
x,-y,-z
-x,y,-z
-x,-y,-z
x,y,-z
-x,y,z
x,-y,z
loop_
_atom_site_type_symbol
_atom_site_label
_atom_site_fract_x
_atom_site_fract_y
_atom_site_fract_z
Si Si1 0.163133 0.198532 0.084898
Si Si2 0.673506 0.500000 0.454528
Si Si3 0.662153 0.798952 0.311671
Si Si4 0.326923 0.807999 0.599499
Si Si5 0.839041 0.299361 0.764203
Si Si6 0.339143 0.700310 0.161012
Si Si7 0.836724 0.301010 0.000000
O O1 0.256153 0.263164 0.120842
O O2 0.000000 0.264911 0.087406
O O3 0.156634 0.000000 0.087626
O O4 0.224357 0.243840 0.041796
O O5 0.500000 0.500000 0.454042
O O6 0.718547 0.500000 0.500000
O O7 0.718888 0.667708 0.431510
O O8 0.500000 0.737037 0.305973
O O9 0.711897 0.755110 0.355870
O O10 0.761749 0.740027 0.276675
O O11 0.657212 0.000000 0.311000
O O12 0.500000 0.812073 0.599186
O O13 0.280310 0.000000 0.591966
O O14 0.845554 0.500000 0.767854
O O15 0.747944 0.234793 0.801245
O O16 0.000000 0.234546 0.765068
O O17 0.500000 0.765985 0.160220
O O18 0.346997 0.500000 0.164994
O O19 0.839835 0.500000 0.000000
O O20 0.000000 0.235101 0.000000
#
# Coordination Sequence:
#
# PCOD9385985 Si02
#       7
#     8   4   8   8   8   8   4
#     4  10  20  34  54  80 108 137 170 210 256 304
#     4   9  16  24  38  64  95 133 177 213 257 314
#     4   9  18  32  50  72  98 132 173 212 255 309
#     4   8  15  27  41  62  94 130 170 215 260 310
#     4  10  21  35  52  76 103 131 167 211 258 308
#     4  10  21  37  55  75 101 136 176 213 254 306
#     4   9  17  31  54  81 106 135 170 208 252 301
#
# _framework density 18.770420999999999
#
# number of rings (size 3 to 8) (size 9 to 14) (size 15 to 20)
#    0.000    2.667    0.000    2.750    1.167    5.333 
#    0.000    2.083    0.000    2.500    0.000    0.000 
#    0.000    1.333    0.000    3.667    0.000    3.667 
#
# Total GULP energy -267658.806081 kJ/mol
# GULP energy per Si atom -5576.225127 kJ/mol
# Density = 1.872770 g / cm^3
# Si number density = 18.770421 Si / 1000 Ang^3
#
#
#
# Elastic Constant Matrix: (Units=GPa)
#
#
# Indices 1 2 3 4 5 6 
#
# 1 83.7978 23.2965 77.5318 0.0000 0.0000 0.0000
# 2 23.2965 42.3861 46.9535 0.0000 0.0000 0.0000
# 3 77.5318 46.9535 195.8423 0.0000 0.0000 0.0000
# 4 0.0000 0.0000 0.0000 85.3039 0.0000 0.0000
# 5 0.0000 0.0000 0.0000 0.0000 95.1478 0.0000
# 6 0.0000 0.0000 0.0000 0.0000 0.0000 14.7632
#
#
#
# Elastic Compliance Matrix: (Units=1/GPa)
#
#
# Indices 1 2 3 4 5 6 
#
# 1 0.019087 -0.002887 -0.006864 0.000000 0.000000 0.000000
# 2 -0.002887 0.032561 -0.006664 0.000000 0.000000 0.000000
# 3 -0.006864 -0.006664 0.009421 0.000000 0.000000 0.000000
# 4 0.000000 0.000000 0.000000 0.011723 0.000000 0.000000
# 5 0.000000 0.000000 0.000000 0.000000 0.010510 0.000000
# 6 0.000000 0.000000 0.000000 0.000000 0.000000 0.067736
#
#
# Mechanical properties :
#
#
# Convention : Reuss Voigt Hill
#
# Bulk Modulus (GPa) = 35.41101 68.62108 52.01605
# Shear Modulus (GPa) = 25.86910 50.65929 38.26419
#
# Velocity S-wave (km/s) = 3.71642 5.20072 4.51991
# Velocity P-wave (km/s) = 6.10917 8.52647 7.41696
#
# Compressibility (1/GPa) = 0.02823980
#
# Stress axis : x y z
#
# Youngs Moduli (GPa) = 52.39179 30.71152 106.14323
#
# Poissons Ratio (x) = 0.08866 0.72859
# Poissons Ratio (y) = 0.15125 0.70731
# Poissons Ratio (z) = 0.35963 0.20465
#
# Static dielectric constant tensor:
#      x y z
#    x 1.652630 0.000000 0.000000 
#    y 0.000000 1.667630 0.000000 
#    z 0.000000 0.000000 1.640930 
# 
# From -- ./inp_files/34150.got.cif
#   From: 2010.05.17/outbox.cif.g08.bks.cpg/sg47_18_cif.got.tgz:34150.got - 2010.06.03 20:15:42.
