data_PCOD9385672
_publ_section_title
;
Structure prediction by ZEFSAII (Michael W. Deem and Ramdas Pophale) SiO2 
 PCOD9385672
Probable space group: P M M M
;
_chemical_formula_sum "Si O2"
_cell_formula_units_Z 44
_cell_length_a 32.520070
_cell_length_b 8.132734
_cell_length_c 9.008606
_cell_angle_alpha 90.000000
_cell_angle_beta 90.000000
_cell_angle_gamma 90.000000
_cell_volume 2382.569800
_symmetry_space_group_name_H-M "P M M M"
_symmetry_group_IT_number 47
_symmetry_cell_setting 'orthorhombic'
loop_
_space_group_symop_operation_xyz
x,y,z
-x,-y,z
x,-y,-z
-x,y,-z
-x,-y,-z
x,y,-z
-x,y,z
x,-y,z
loop_
_atom_site_type_symbol
_atom_site_label
_atom_site_fract_x
_atom_site_fract_y
_atom_site_fract_z
Si Si1 0.000000 0.803100 0.168599
Si Si2 0.917137 0.303837 0.670508
Si Si3 0.547700 0.685182 0.180711
Si Si4 0.305052 0.000000 0.818854
Si Si5 0.600073 0.000000 0.181610
Si Si6 0.171495 0.805975 0.675272
Si Si7 0.747008 0.682646 0.178958
O O1 0.041512 0.743811 0.246421
O O2 0.000000 0.000000 0.170532
O O3 0.000000 0.743524 0.000000
O O4 0.921023 0.245764 0.500000
O O5 0.913079 0.500000 0.670501
O O6 0.874499 0.231349 0.731498
O O7 0.500000 0.711935 0.223190
O O8 0.559941 0.500000 0.227663
O O9 0.576306 0.835010 0.230345
O O10 0.548625 0.685536 0.000000
O O11 0.281342 0.165248 0.770394
O O12 0.352471 0.000000 0.771984
O O13 0.304634 0.000000 0.000000
O O14 0.599453 0.000000 0.000000
O O15 0.172319 0.762130 0.500000
O O16 0.207321 0.710805 0.758985
O O17 0.179443 0.000000 0.689366
O O18 0.732177 0.500000 0.222058
O O19 0.748333 0.688778 0.000000
#
# Coordination Sequence:
#
# PCOD9385672 Si02
#       7
#     4   8   8   4   4   8   8
#     4  11  24  39  54  76 106 139 172 203 240 290
#     4  10  21  37  57  80 104 131 164 203 247 295
#     4   8  13  20  30  47  72 103 145 198 249 293
#     4   9  18  31  43  62  91 122 163 210 250 303
#     4   9  15  22  35  51  73 109 151 197 248 295
#     4  10  20  35  57  82 104 129 165 208 252 299
#     4  10  20  34  52  72  98 133 167 205 256 305
#
# _framework density 18.467455000000001
#
# number of rings (size 3 to 8) (size 9 to 14) (size 15 to 20)
#    0.000    2.455    0.909    2.455    0.000    6.545 
#    0.000    3.636    0.000    0.000    0.000    0.000 
#    0.000    0.000    0.000    0.000    0.000    7.273 
#
# Total GULP energy -245390.784267 kJ/mol
# GULP energy per Si atom -5577.063279 kJ/mol
# Density = 1.842542 g / cm^3
# Si number density = 18.467455 Si / 1000 Ang^3
#
#
#
# Elastic Constant Matrix: (Units=GPa)
#
#
# Indices 1 2 3 4 5 6 
#
# 1 141.0544 90.1864 19.4789 0.0000 0.0000 0.0000
# 2 90.1864 136.5326 20.7046 0.0000 0.0000 0.0000
# 3 19.4789 20.7046 9.7438 0.0000 0.0000 0.0000
# 4 0.0000 0.0000 0.0000 13.2862 0.0000 0.0000
# 5 0.0000 0.0000 0.0000 0.0000-1166.5843 0.0000
# 6 0.0000 0.0000 0.0000 0.0000 0.0000 10.2473
#
#
#
# Elastic Compliance Matrix: (Units=1/GPa)
#
#
# Indices 1 2 3 4 5 6 
#
# 1 0.013092 -0.006903 -0.011503 0.000000 0.000000 0.000000
# 2 -0.006903 0.014447 -0.016897 0.000000 0.000000 0.000000
# 3 -0.011503 -0.016897 0.161530 0.000000 0.000000 0.000000
# 4 0.000000 0.000000 0.000000 0.075266 0.000000 0.000000
# 5 0.000000 0.000000 0.000000 0.000000 -0.000857 0.000000
# 6 0.000000 0.000000 0.000000 0.000000 0.000000 0.097587
#
#
# Mechanical properties :
#
#
# Convention : Reuss Voigt Hill
#
# Bulk Modulus (GPa) = 8.44158 60.89672 34.66915
# Shear Modulus (GPa) = 10.61216 -218.14611 -103.76697
#
# Velocity S-wave (km/s) = 2.39977 -10.88031 -7.50407
# Velocity P-wave (km/s) = 3.50136 11.17115 7.50117
#
# Compressibility (1/GPa) = 0.11846124
#
# Stress axis : x y z
#
# Youngs Moduli (GPa) = 76.38361 69.22015 6.19082
#
# Poissons Ratio (x) = 0.47785 0.07121
# Poissons Ratio (y) = 0.52731 0.10461
# Poissons Ratio (z) = 0.87863 1.16962
#
# Static dielectric constant tensor:
#      x y z
#    x 1.618150 0.000000 0.000000 
#    y 0.000000 1.653500 0.000000 
#    z 0.000000 0.000000 1.626560 
# 
# From -- ./inp_files/13774.got.cif
#   From: 2010.05.17/outbox.cif.g08.bks.cpg/sg47_7_cif.got.tgz:13774.got - 2010.06.03 20:15:42.
