data_PCOD9385386
_publ_section_title
;
Structure prediction by ZEFSAII (Michael W. Deem and Ramdas Pophale) SiO2 
 PCOD9385386
Probable space group: P M M M
;
_chemical_formula_sum "Si O2"
_cell_formula_units_Z 33
_cell_length_a 24.663354
_cell_length_b 8.129684
_cell_length_c 8.025094
_cell_angle_alpha 90.000000
_cell_angle_beta 90.000000
_cell_angle_gamma 90.000000
_cell_volume 1609.073675
_symmetry_space_group_name_H-M "P M M M"
_symmetry_group_IT_number 47
_symmetry_cell_setting 'orthorhombic'
loop_
_space_group_symop_operation_xyz
x,y,z
-x,-y,z
x,-y,-z
-x,y,-z
-x,-y,-z
x,y,-z
-x,y,z
x,-y,z
loop_
_atom_site_type_symbol
_atom_site_label
_atom_site_fract_x
_atom_site_fract_y
_atom_site_fract_z
Si Si1 0.587076 0.500000 0.690349
Si Si2 0.000000 0.194438 0.808385
Si Si3 0.228866 0.803691 0.686947
Si Si4 0.500000 0.500000 0.000000
Si Si5 0.344801 0.808052 0.807179
Si Si6 0.113164 0.694407 0.812142
O O1 0.564932 0.500000 0.500000
O O2 0.622459 0.332546 0.711245
O O3 0.546563 0.500000 0.848622
O O4 0.942728 0.245294 0.730055
O O5 0.000000 0.000000 0.819203
O O6 0.000000 0.264633 0.000000
O O7 0.243728 0.753529 0.500000
O O8 0.280877 0.764072 0.798145
O O9 0.170470 0.733270 0.730797
O O10 0.222541 0.000000 0.693282
O O11 0.350564 0.000000 0.747193
O O12 0.362161 0.806232 0.000000
O O13 0.108407 0.500000 0.822777
O O14 0.115171 0.766844 0.000000
#
# Coordination Sequence:
#
# PCOD9385386 Si02
#       6
#     4   4   8   1   8   8
#     4  12  25  45  75 104 143 188 229 282 337 389
#     4   9  17  31  52  73  98 139 194 250 308 375
#     4  10  21  36  55  83 118 155 201 255 315 385
#     4  12  26  52  70 110 148 186 242 282 318 402
#     4  10  21  41  69 100 136 178 226 281 338 401
#     4  10  20  33  51  77 108 145 190 247 311 381
#
# _framework density 20.508696
#
# number of rings (size 3 to 8) (size 9 to 14) (size 15 to 20)
#    0.000    1.818    1.212    2.727    1.697    5.818 
#    0.000    1.818    0.000    5.091    0.000    0.000 
#    0.000    0.000    0.000    0.000    0.000    0.000 
#
# Total GULP energy -183728.320664 kJ/mol
# GULP energy per Si atom -5567.524869 kJ/mol
# Density = 2.046202 g / cm^3
# Si number density = 20.508696 Si / 1000 Ang^3
#
#
#
# Elastic Constant Matrix: (Units=GPa)
#
#
# Indices 1 2 3 4 5 6 
#
# 1 130.1367 58.8056 32.6125 0.0000 0.0000 0.0000
# 2 58.8056 74.7245 32.6243 0.0000 0.0000 0.0000
# 3 32.6125 32.6243 84.1320 0.0000 0.0000 0.0000
# 4 0.0000 0.0000 0.0000 14.7920 0.0000 0.0000
# 5 0.0000 0.0000 0.0000 0.0000 -12.5462 0.0000
# 6 0.0000 0.0000 0.0000 0.0000 0.0000 -23.5787
#
#
#
# Elastic Compliance Matrix: (Units=1/GPa)
#
#
# Indices 1 2 3 4 5 6 
#
# 1 0.012024 -0.008941 -0.001194 0.000000 0.000000 0.000000
# 2 -0.008941 0.022759 -0.005359 0.000000 0.000000 0.000000
# 3 -0.001194 -0.005359 0.014427 0.000000 0.000000 0.000000
# 4 0.000000 0.000000 0.000000 0.067604 0.000000 0.000000
# 5 0.000000 0.000000 0.000000 0.000000 -0.079705 0.000000
# 6 0.000000 0.000000 0.000000 0.000000 0.000000 -0.042411
#
#
# Mechanical properties :
#
#
# Convention : Reuss Voigt Hill
#
# Bulk Modulus (GPa) = 54.88131 59.67532 57.27831
# Shear Modulus (GPa) = 157.43839 6.73015 82.08427
#
# Velocity S-wave (km/s) = 8.77116 1.81349 6.33333
# Velocity P-wave (km/s) = 11.37523 5.79187 9.02612
#
# Compressibility (1/GPa) = 0.01822114
#
# Stress axis : x y z
#
# Youngs Moduli (GPa) = 83.16991 43.93939 69.31436
#
# Poissons Ratio (x) = 0.39286 0.08274
# Poissons Ratio (y) = 0.74362 0.37148
# Poissons Ratio (z) = 0.09928 0.23549
#
# Static dielectric constant tensor:
#      x y z
#    x 1.744570 0.000000 0.000000 
#    y 0.000000 1.711790 0.000000 
#    z 0.000000 0.000000 1.781570 
# 
# From -- ./inp_files/10478.got.cif
#   From: 2010.05.17/outbox.cif.g08.bks.cpg/sg47_6_cif.got.tgz:10478.got - 2010.06.03 20:15:42.
