data_PCOD9385038
_publ_section_title
;
Structure prediction by ZEFSAII (Michael W. Deem and Ramdas Pophale) SiO2 
 PCOD9385038
Probable space group: P M M M
;
_chemical_formula_sum "Si O2"
_cell_formula_units_Z 44
_cell_length_a 9.350158
_cell_length_b 7.341406
_cell_length_c 29.281728
_cell_angle_alpha 90.000000
_cell_angle_beta 90.000000
_cell_angle_gamma 90.000000
_cell_volume 2009.994617
_symmetry_space_group_name_H-M "P M M M"
_symmetry_group_IT_number 47
_symmetry_cell_setting 'orthorhombic'
loop_
_space_group_symop_operation_xyz
x,y,z
-x,-y,z
x,-y,-z
-x,y,-z
-x,-y,-z
x,y,-z
-x,y,z
x,-y,z
loop_
_atom_site_type_symbol
_atom_site_label
_atom_site_fract_x
_atom_site_fract_y
_atom_site_fract_z
Si Si1 0.164759 0.777485 0.230001
Si Si2 0.337626 0.782464 0.681264
Si Si3 0.837487 0.282638 0.588972
Si Si4 0.165440 0.221716 0.051086
Si Si5 0.334840 0.277190 0.500000
Si Si6 0.335842 0.222338 0.139933
O O1 0.252627 0.715533 0.274316
O O2 0.242904 0.721069 0.183512
O O3 0.000000 0.719718 0.231626
O O4 0.164382 0.000000 0.230304
O O5 0.500000 0.712289 0.678097
O O6 0.248414 0.749652 0.635451
O O7 0.347390 0.000000 0.686529
O O8 0.847366 0.500000 0.583489
O O9 0.748796 0.216120 0.545250
O O10 0.000000 0.212055 0.591023
O O11 0.264242 0.282178 0.092559
O O12 0.000000 0.275026 0.058312
O O13 0.167477 0.000000 0.051243
O O14 0.209122 0.278968 0.000000
O O15 0.335697 0.500000 0.500000
O O16 0.500000 0.219829 0.500000
O O17 0.500000 0.279695 0.143966
O O18 0.335115 0.000000 0.139745
#
# Coordination Sequence:
#
# PCOD9385038 Si02
#       6
#     8   8   8   8   4   8
#     4   9  16  26  40  56  76 105 140 177 218 265
#     4  10  20  33  49  70  96 124 155 193 235 276
#     4  10  20  34  53  76 100 126 157 191 227 271
#     4   8  13  20  28  38  55  82 118 161 208 256
#     4   9  17  31  52  75  98 125 156 190 228 269
#     4   9  15  21  30  45  65  90 124 167 212 258
#
# _framework density 21.890608
#
# number of rings (size 3 to 8) (size 9 to 14) (size 15 to 20)
#    0.000    2.818    0.000    3.000    0.000    8.000 
#    0.000    2.273    0.000    2.727    0.000    0.000 
#    0.000    0.000    0.000    0.000    0.000    0.909 
#
# Total GULP energy -245893.388575 kJ/mol
# GULP energy per Si atom -5588.486104 kJ/mol
# Density = 2.184078 g / cm^3
# Si number density = 21.890608 Si / 1000 Ang^3
#
#
#
# Elastic Constant Matrix: (Units=GPa)
#
#
# Indices 1 2 3 4 5 6 
#
# 1 251.5803 8.4839 165.8759 0.0000 0.0000 0.0000
# 2 8.4839 84.1052 2.6897 0.0000 0.0000 0.0000
# 3 165.8759 2.6897 246.1882 0.0000 0.0000 0.0000
# 4 0.0000 0.0000 0.0000 16.8796 0.0000 0.0000
# 5 0.0000 0.0000 0.0000 0.0000 46.8964 0.0000
# 6 0.0000 0.0000 0.0000 0.0000 0.0000 -3.0786
#
#
#
# Elastic Compliance Matrix: (Units=1/GPa)
#
#
# Indices 1 2 3 4 5 6 
#
# 1 0.007179 -0.000570 -0.004831 0.000000 0.000000 0.000000
# 2 -0.000570 0.011939 0.000253 0.000000 0.000000 0.000000
# 3 -0.004831 0.000253 0.007314 0.000000 0.000000 0.000000
# 4 0.000000 0.000000 0.000000 0.059243 0.000000 0.000000
# 5 0.000000 0.000000 0.000000 0.000000 0.021324 0.000000
# 6 0.000000 0.000000 0.000000 0.000000 0.000000 -0.324822
#
#
# Mechanical properties :
#
#
# Convention : Reuss Voigt Hill
#
# Bulk Modulus (GPa) = 61.96515 103.99699 82.98107
# Shear Modulus (GPa) = -24.73430 39.12777 7.19673
#
# Velocity S-wave (km/s) = -3.36505 4.23238 1.81514
# Velocity P-wave (km/s) = 3.64281 8.45546 6.51018
#
# Compressibility (1/GPa) = 0.01613810
#
# Stress axis : x y z
#
# Youngs Moduli (GPa) = 139.28756 83.75751 136.71965
#
# Poissons Ratio (x) = 0.04772 0.66050
# Poissons Ratio (y) = 0.07935 -0.03465
# Poissons Ratio (z) = 0.67291 -0.02123
#
# Static dielectric constant tensor:
#      x y z
#    x 1.704160 0.000000 0.000000 
#    y 0.000000 1.913250 0.000000 
#    z 0.000000 0.000000 1.739010 
# 
# From -- ./inp_files/2206.got.cif
#   From: 2010.05.17/outbox.cif.g08.bks.cpg/sg47_2_cif.got.tgz:2206.got - 2010.06.03 20:15:42.
