data_PCOD9385932
_publ_section_title
;
Structure prediction by ZEFSAII (Michael W. Deem and Ramdas Pophale) SiO2 
 PCOD9385932
Probable space group: P M M M
;
_chemical_formula_sum "Si O2"
_cell_formula_units_Z 52
_cell_length_a 24.132350
_cell_length_b 14.671837
_cell_length_c 8.636485
_cell_angle_alpha 90.000000
_cell_angle_beta 90.000000
_cell_angle_gamma 90.000000
_cell_volume 3057.884883
_symmetry_space_group_name_H-M "P M M M"
_symmetry_group_IT_number 47
_symmetry_cell_setting 'orthorhombic'
loop_
_space_group_symop_operation_xyz
x,y,z
-x,-y,z
x,-y,-z
-x,y,-z
-x,-y,-z
x,y,-z
-x,y,z
x,-y,z
loop_
_atom_site_type_symbol
_atom_site_label
_atom_site_fract_x
_atom_site_fract_y
_atom_site_fract_z
Si Si1 0.724656 0.218340 0.814120
Si Si2 0.102806 0.603268 0.185058
Si Si3 0.166599 0.104772 0.813232
Si Si4 0.378484 0.893474 0.687994
Si Si5 0.500000 0.889371 0.679147
Si Si6 0.226644 0.603893 0.315826
Si Si7 0.061240 0.211420 0.315189
O O1 0.778992 0.160674 0.763545
O O2 0.670162 0.168063 0.753756
O O3 0.732633 0.319244 0.746975
O O4 0.724164 0.221528 0.000000
O O5 0.086396 0.500000 0.229588
O O6 0.167074 0.615205 0.233360
O O7 0.069318 0.683858 0.264472
O O8 0.098083 0.611542 0.000000
O O9 0.111158 0.153533 0.755627
O O10 0.169431 0.000000 0.760636
O O11 0.166104 0.105426 0.000000
O O12 0.378607 0.889528 0.500000
O O13 0.439957 0.863908 0.745085
O O14 0.369868 0.000000 0.730345
O O15 0.500000 0.858936 0.500000
O O16 0.500000 0.000000 0.676905
O O17 0.218645 0.614792 0.500000
O O18 0.245270 0.500000 0.286561
O O19 0.064578 0.205689 0.500000
O O20 0.000000 0.179967 0.265274
#
# Coordination Sequence:
#
# PCOD9385932 Si02
#       7
#     8   8   8   8   4   8   8
#     4  11  21  33  52  79 109 139 172 210 255 309
#     4  10  20  35  56  80 104 131 163 201 252 313
#     4  10  22  39  56  74  99 134 173 212 256 306
#     4   9  17  30  50  76 107 145 185 221 257 298
#     4   7  12  26  47  71 102 141 184 223 255 294
#     4  10  20  34  54  79 105 133 167 208 254 305
#     4  11  24  39  55  76 101 131 170 214 259 309
#
# _framework density 17.005219
#
# number of rings (size 3 to 8) (size 9 to 14) (size 15 to 20)
#    0.000    2.077    1.538    3.231    0.000    5.538 
#    0.000    3.462    0.000    1.385    0.000    0.538 
#    0.000    4.308    0.000    0.000    0.000    0.000 
#
# Total GULP energy -290177.132534 kJ/mol
# GULP energy per Si atom -5580.329472 kJ/mol
# Density = 1.696651 g / cm^3
# Si number density = 17.005219 Si / 1000 Ang^3
#
#
#
# Elastic Constant Matrix: (Units=GPa)
#
#
# Indices 1 2 3 4 5 6 
#
# 1 130.2166 55.0166 17.1444 0.0000 0.0000 0.0000
# 2 55.0166 86.6984 16.3674 0.0000 0.0000 0.0000
# 3 17.1444 16.3674 14.7144 0.0000 0.0000 0.0000
# 4 0.0000 0.0000 0.0000 22.8993 0.0000 0.0000
# 5 0.0000 0.0000 0.0000 0.0000 62.9733 0.0000
# 6 0.0000 0.0000 0.0000 0.0000 0.0000 24.0191
#
#
#
# Elastic Compliance Matrix: (Units=1/GPa)
#
#
# Indices 1 2 3 4 5 6 
#
# 1 0.010944 -0.005744 -0.006362 0.000000 0.000000 0.000000
# 2 -0.005744 0.017614 -0.012901 0.000000 0.000000 0.000000
# 3 -0.006362 -0.012901 0.089724 0.000000 0.000000 0.000000
# 4 0.000000 0.000000 0.000000 0.043669 0.000000 0.000000
# 5 0.000000 0.000000 0.000000 0.000000 0.015880 0.000000
# 6 0.000000 0.000000 0.000000 0.000000 0.000000 0.041633
#
#
# Mechanical properties :
#
#
# Convention : Reuss Voigt Hill
#
# Bulk Modulus (GPa) = 14.64814 45.40958 30.02886
# Shear Modulus (GPa) = 17.10953 31.51844 24.31398
#
# Velocity S-wave (km/s) = 3.17540 4.30985 3.78537
# Velocity P-wave (km/s) = 4.69860 7.17828 6.06649
#
# Compressibility (1/GPa) = 0.06826805
#
# Stress axis : x y z
#
# Youngs Moduli (GPa) = 91.37557 56.77145 11.14531
#
# Poissons Ratio (x) = 0.32607 0.07091
# Poissons Ratio (y) = 0.52482 0.14379
# Poissons Ratio (z) = 0.58137 0.73241
#
# Static dielectric constant tensor:
#      x y z
#    x 1.575900 0.000000 0.000000 
#    y 0.000000 1.570160 0.000000 
#    z 0.000000 0.000000 1.575290 
# 
# From -- ./inp_files/12492.got.cif
#   From: 2010.05.17/outbox.cif.g08.bks.cpg/sg47_7_cif.got.tgz:12492.got - 2010.06.03 20:15:42.
