data_PCOD9385877
_publ_section_title
;
Structure prediction by ZEFSAII (Michael W. Deem and Ramdas Pophale) SiO2 
 PCOD9385877
Probable space group: P M M M
;
_chemical_formula_sum "Si O2"
_cell_formula_units_Z 52
_cell_length_a 8.934311
_cell_length_b 23.772028
_cell_length_c 14.489785
_cell_angle_alpha 90.000000
_cell_angle_beta 90.000000
_cell_angle_gamma 90.000000
_cell_volume 3077.437493
_symmetry_space_group_name_H-M "P M M M"
_symmetry_group_IT_number 47
_symmetry_cell_setting 'orthorhombic'
loop_
_space_group_symop_operation_xyz
x,y,z
-x,-y,z
x,-y,-z
-x,y,-z
-x,-y,-z
x,y,-z
-x,y,z
x,-y,z
loop_
_atom_site_type_symbol
_atom_site_label
_atom_site_fract_x
_atom_site_fract_y
_atom_site_fract_z
Si Si1 0.321624 0.777291 0.713798
Si Si2 0.177925 0.263978 0.894128
Si Si3 0.320116 0.563141 0.701952
Si Si4 0.821954 0.117468 0.389841
Si Si5 0.678491 0.386840 0.896784
Si Si6 0.327502 0.000000 0.612042
Si Si7 0.177125 0.671459 0.609682
O O1 0.500000 0.777632 0.711796
O O2 0.261727 0.772527 0.818045
O O3 0.256210 0.831855 0.663407
O O4 0.260813 0.721896 0.661529
O O5 0.234892 0.328236 0.884249
O O6 0.000000 0.262082 0.878808
O O7 0.208872 0.247195 0.000000
O O8 0.500000 0.568397 0.690032
O O9 0.275999 0.500000 0.674894
O O10 0.288036 0.573252 0.810687
O O11 0.239554 0.612157 0.645837
O O12 0.794924 0.123895 0.500000
O O13 0.000000 0.118958 0.375402
O O14 0.755964 0.057139 0.360270
O O15 0.500000 0.374931 0.893376
O O16 0.711682 0.408933 0.000000
O O17 0.500000 0.000000 0.642377
O O18 0.326789 0.000000 0.500000
O O19 0.199701 0.676337 0.500000
O O20 0.000000 0.675598 0.628864
#
# Coordination Sequence:
#
# PCOD9385877 Si02
#       7
#     8   8   8   8   8   4   8
#     4  12  23  35  55  82 110 140 176 220 270 320
#     4  10  20  34  54  79 107 138 171 211 261 317
#     4  10  21  36  54  77 103 134 172 213 262 320
#     4  10  20  34  53  79 113 152 190 226 266 313
#     4   9  17  31  52  77 104 133 165 204 255 316
#     4   9  17  31  51  77 112 151 190 229 267 309
#     4  11  24  40  56  74  99 134 176 221 270 321
#
# _framework density 16.897174
#
# number of rings (size 3 to 8) (size 9 to 14) (size 15 to 20)
#    0.000    1.769    1.538    3.462    0.000    6.769 
#    0.000    3.077    0.000    0.000    0.000    3.769 
#    0.000    4.308    0.000    0.000    0.000    0.000 
#
# Total GULP energy -290379.414342 kJ/mol
# GULP energy per Si atom -5584.219507 kJ/mol
# Density = 1.685872 g / cm^3
# Si number density = 16.897174 Si / 1000 Ang^3
#
#
#
# Elastic Constant Matrix: (Units=GPa)
#
#
# Indices 1 2 3 4 5 6 
#
# 1 97.1768 71.1111 64.1079 0.0000 0.0000 0.0000
# 2 71.1111 134.2603 60.1867 0.0000 0.0000 0.0000
# 3 64.1079 60.1867 78.3141 0.0000 0.0000 0.0000
# 4 0.0000 0.0000 0.0000 14.7118 0.0000 0.0000
# 5 0.0000 0.0000 0.0000 0.0000 26.2595 0.0000
# 6 0.0000 0.0000 0.0000 0.0000 0.0000 41.7221
#
#
#
# Elastic Compliance Matrix: (Units=1/GPa)
#
#
# Indices 1 2 3 4 5 6 
#
# 1 0.025460 -0.006319 -0.015985 0.000000 0.000000 0.000000
# 2 -0.006319 0.012931 -0.004765 0.000000 0.000000 0.000000
# 3 -0.015985 -0.004765 0.029517 0.000000 0.000000 0.000000
# 4 0.000000 0.000000 0.000000 0.067973 0.000000 0.000000
# 5 0.000000 0.000000 0.000000 0.000000 0.038081 0.000000
# 6 0.000000 0.000000 0.000000 0.000000 0.000000 0.023968
#
#
# Mechanical properties :
#
#
# Convention : Reuss Voigt Hill
#
# Bulk Modulus (GPa) = 72.62656 77.84029 75.23343
# Shear Modulus (GPa) = 19.48102 24.16171 21.82137
#
# Velocity S-wave (km/s) = 3.39915 3.78554 3.59753
# Velocity P-wave (km/s) = 7.64725 8.07924 7.86621
#
# Compressibility (1/GPa) = 0.01376907
#
# Stress axis : x y z
#
# Youngs Moduli (GPa) = 39.27690 77.33162 33.87878
#
# Poissons Ratio (x) = 0.48866 0.54157
# Poissons Ratio (y) = 0.24819 0.16144
# Poissons Ratio (z) = 0.62786 0.36851
#
# Static dielectric constant tensor:
#      x y z
#    x 1.562770 0.000000 0.000000 
#    y 0.000000 1.540250 0.000000 
#    z 0.000000 0.000000 1.578780 
# 
# From -- ./inp_files/21419.got.cif
#   From: 2010.05.17/outbox.cif.g08.bks.cpg/sg47_11_cif.got.tgz:21419.got - 2010.06.03 20:15:42.
