data_PCOD9385229
_publ_section_title
;
Structure prediction by ZEFSAII (Michael W. Deem and Ramdas Pophale) SiO2 
 PCOD9385229
Probable space group: P M M M
;
_chemical_formula_sum "Si O2"
_cell_formula_units_Z 48
_cell_length_a 9.049536
_cell_length_b 16.659331
_cell_length_c 18.788659
_cell_angle_alpha 90.000000
_cell_angle_beta 90.000000
_cell_angle_gamma 90.000000
_cell_volume 2832.563493
_symmetry_space_group_name_H-M "P M M M"
_symmetry_group_IT_number 47
_symmetry_cell_setting 'orthorhombic'
loop_
_space_group_symop_operation_xyz
x,y,z
-x,-y,z
x,-y,-z
-x,y,-z
-x,-y,-z
x,y,-z
-x,y,z
x,-y,z
loop_
_atom_site_type_symbol
_atom_site_label
_atom_site_fract_x
_atom_site_fract_y
_atom_site_fract_z
Si Si1 0.676553 0.409074 0.794745
Si Si2 0.823898 0.165128 0.417282
Si Si3 0.675869 0.251658 0.707728
Si Si4 0.322722 0.839243 0.852958
Si Si5 0.825690 0.316457 0.082256
Si Si6 0.332401 0.000000 0.413728
Si Si7 0.177661 0.000000 0.914864
O O1 0.500000 0.403029 0.807883
O O2 0.710087 0.500000 0.772880
O O3 0.712171 0.339959 0.737699
O O4 0.761850 0.384073 0.865881
O O5 0.782452 0.179717 0.500000
O O6 0.762540 0.230408 0.363187
O O7 0.000000 0.159504 0.413847
O O8 0.752532 0.080579 0.393896
O O9 0.500000 0.247536 0.694701
O O10 0.709409 0.188621 0.771621
O O11 0.500000 0.845073 0.860344
O O12 0.260276 0.765712 0.899783
O O13 0.246464 0.921065 0.878109
O O14 0.000000 0.304172 0.095624
O O15 0.805380 0.337329 0.000000
O O16 0.500000 0.000000 0.386497
O O17 0.337506 0.000000 0.500000
O O18 0.000000 0.000000 0.907177
O O19 0.210688 0.000000 0.000000
#
# Coordination Sequence:
#
# PCOD9385229 Si02
#       7
#     8   8   8   8   8   4   4
#     4   9  19  36  56  77 101 130 166 208 253 303
#     4  10  20  33  51  77 107 137 170 207 248 297
#     4   9  19  35  54  76 101 130 166 208 253 302
#     4  10  21  36  53  73  98 133 177 218 256 301
#     4  10  20  33  50  74 104 134 165 206 255 305
#     4   9  17  30  49  72  99 132 166 199 238 282
#     4  11  23  36  51  74 104 138 178 221 261 301
#
# _framework density 16.945781
#
# number of rings (size 3 to 8) (size 9 to 14) (size 15 to 20)
#    0.000    2.333    0.000    3.500    0.000   10.667 
#    0.000    2.500    0.000    0.500    0.000    3.500 
#    0.000    0.000    0.000    0.000    0.000    0.000 
#
# Total GULP energy -267800.711894 kJ/mol
# GULP energy per Si atom -5579.181498 kJ/mol
# Density = 1.690721 g / cm^3
# Si number density = 16.945781 Si / 1000 Ang^3
#
#
#
# Elastic Constant Matrix: (Units=GPa)
#
#
# Indices 1 2 3 4 5 6 
#
# 1 65.7459 54.2186 61.5744 0.0000 0.0000 0.0000
# 2 54.2186 125.4345 64.7619 0.0000 0.0000 0.0000
# 3 61.5744 64.7619 96.7281 0.0000 0.0000 0.0000
# 4 0.0000 0.0000 0.0000 9.5481 0.0000 0.0000
# 5 0.0000 0.0000 0.0000 0.0000 29.8459 0.0000
# 6 0.0000 0.0000 0.0000 0.0000 0.0000 8.9869
#
#
#
# Elastic Compliance Matrix: (Units=1/GPa)
#
#
# Indices 1 2 3 4 5 6 
#
# 1 0.040829 -0.006463 -0.021663 0.000000 0.000000 0.000000
# 2 -0.006463 0.013207 -0.004728 0.000000 0.000000 0.000000
# 3 -0.021663 -0.004728 0.027294 0.000000 0.000000 0.000000
# 4 0.000000 0.000000 0.000000 0.104733 0.000000 0.000000
# 5 0.000000 0.000000 0.000000 0.000000 0.033505 0.000000
# 6 0.000000 0.000000 0.000000 0.000000 0.000000 0.111272
#
#
# Mechanical properties :
#
#
# Convention : Reuss Voigt Hill
#
# Bulk Modulus (GPa) = 64.01738 72.11314 68.06526
# Shear Modulus (GPa) = 12.44534 16.83311 14.63922
#
# Velocity S-wave (km/s) = 2.71296 3.15517 2.94238
# Velocity P-wave (km/s) = 6.90459 7.47804 7.19703
#
# Compressibility (1/GPa) = 0.01562076
#
# Stress axis : x y z
#
# Youngs Moduli (GPa) = 24.49248 75.71623 36.63820
#
# Poissons Ratio (x) = 0.48939 0.79370
# Poissons Ratio (y) = 0.15831 0.17323
# Poissons Ratio (z) = 0.53058 0.35799
#
# Static dielectric constant tensor:
#      x y z
#    x 1.567260 0.000000 0.000000 
#    y 0.000000 1.564180 0.000000 
#    z 0.000000 0.000000 1.567730 
# 
# From -- ./inp_files/26564.got.cif
#   From: 2010.05.17/outbox.cif.g08.bks.cpg/sg47_14_cif.got.tgz:26564.got - 2010.06.03 20:15:42.
