data_PCOD9385504
_publ_section_title
;
Structure prediction by ZEFSAII (Michael W. Deem and Ramdas Pophale) SiO2 
 PCOD9385504
Probable space group: P M M M
;
_chemical_formula_sum "Si O2"
_cell_formula_units_Z 44
_cell_length_a 9.267967
_cell_length_b 29.215672
_cell_length_c 8.806727
_cell_angle_alpha 90.000000
_cell_angle_beta 90.000000
_cell_angle_gamma 90.000000
_cell_volume 2384.596448
_symmetry_space_group_name_H-M "P M M M"
_symmetry_group_IT_number 47
_symmetry_cell_setting 'orthorhombic'
loop_
_space_group_symop_operation_xyz
x,y,z
-x,-y,z
x,-y,-z
-x,y,-z
-x,-y,-z
x,y,-z
-x,y,z
x,-y,z
loop_
_atom_site_type_symbol
_atom_site_label
_atom_site_fract_x
_atom_site_fract_y
_atom_site_fract_z
Si Si1 0.330938 0.183430 0.181910
Si Si2 0.175355 0.000000 0.825024
Si Si3 0.832662 0.551095 0.815281
Si Si4 0.171134 0.903726 0.681213
Si Si5 0.168768 0.270954 0.317954
Si Si6 0.668135 0.641897 0.816193
O O1 0.500000 0.185067 0.222495
O O2 0.258864 0.137175 0.243260
O O3 0.249031 0.226786 0.251704
O O4 0.318975 0.184945 0.000000
O O5 0.219581 0.953247 0.742800
O O6 0.000000 0.000000 0.822221
O O7 0.221847 0.000000 0.000000
O O8 0.788065 0.500000 0.765357
O O9 0.734586 0.593260 0.765978
O O10 0.000000 0.558236 0.771301
O O11 0.829421 0.550763 0.000000
O O12 0.186653 0.902180 0.500000
O O13 0.000000 0.898382 0.716419
O O14 0.179042 0.270370 0.500000
O O15 0.242961 0.316482 0.253769
O O16 0.000000 0.269936 0.275635
O O17 0.500000 0.645291 0.775713
O O18 0.678858 0.644325 0.000000
#
# Coordination Sequence:
#
# PCOD9385504 Si02
#       6
#     8   4   8   8   8   8
#     4  11  24  40  58  82 111 142 178 221 270 324
#     4   9  17  31  54  83 114 149 188 230 274 317
#     4   8  14  26  46  73 105 141 180 221 265 313
#     4  10  20  35  57  85 115 147 185 227 271 321
#     4  11  24  40  58  80 105 137 179 223 268 321
#     4  10  20  33  52  80 111 142 177 218 267 322
#
# _framework density 18.451758999999999
#
# number of rings (size 3 to 8) (size 9 to 14) (size 15 to 20)
#    0.000    2.091    0.000    4.091    0.000   10.909 
#    0.000    2.273    0.000    3.273    0.000    3.818 
#    0.000    0.000    0.000    0.000    0.000    0.000 
#
# Total GULP energy -245725.630179 kJ/mol
# GULP energy per Si atom -5584.673413 kJ/mol
# Density = 1.840976 g / cm^3
# Si number density = 18.451759 Si / 1000 Ang^3
#
#
#
# Elastic Constant Matrix: (Units=GPa)
#
#
# Indices 1 2 3 4 5 6 
#
# 1 142.1772 119.3343 60.7813 0.0000 0.0000 0.0000
# 2 119.3343 209.5590 54.4208 0.0000 0.0000 0.0000
# 3 60.7813 54.4208 39.9213 0.0000 0.0000 0.0000
# 4 0.0000 0.0000 0.0000 -170.6419 0.0000 0.0000
# 5 0.0000 0.0000 0.0000 0.0000 22.2716 0.0000
# 6 0.0000 0.0000 0.0000 0.0000 0.0000 -38.1924
#
#
#
# Elastic Compliance Matrix: (Units=1/GPa)
#
#
# Indices 1 2 3 4 5 6 
#
# 1 0.025121 -0.006769 -0.029020 0.000000 0.000000 0.000000
# 2 -0.006769 0.009211 -0.002250 0.000000 0.000000 0.000000
# 3 -0.029020 -0.002250 0.072301 0.000000 0.000000 0.000000
# 4 0.000000 0.000000 0.000000 -0.005860 0.000000 0.000000
# 5 0.000000 0.000000 0.000000 0.000000 0.044900 0.000000
# 6 0.000000 0.000000 0.000000 0.000000 0.000000 -0.026183
#
#
# Mechanical properties :
#
#
# Convention : Reuss Voigt Hill
#
# Bulk Modulus (GPa) = 32.72893 95.63671 64.18282
# Shear Modulus (GPa) = 24.30088 -26.83780 -1.26846
#
# Velocity S-wave (km/s) = 3.63298 -3.81791 -0.83002
# Velocity P-wave (km/s) = 5.94762 5.70158 5.82589
#
# Compressibility (1/GPa) = 0.03055400
#
# Stress axis : x y z
#
# Youngs Moduli (GPa) = 39.80689 108.56568 13.83109
#
# Poissons Ratio (x) = 0.73489 0.40138
# Poissons Ratio (y) = 0.26946 0.03112
# Poissons Ratio (z) = 1.15520 0.24431
#
# Static dielectric constant tensor:
#      x y z
#    x 1.617270 0.000000 0.000000 
#    y 0.000000 1.610360 0.000000 
#    z 0.000000 0.000000 1.621280 
# 
# From -- ./inp_files/2284.got.cif
#   From: 2010.05.17/outbox.cif.g08.bks.cpg/sg47_2_cif.got.tgz:2284.got - 2010.06.03 20:15:42.
