data_PCOD9385262
_publ_section_title
;
Structure prediction by ZEFSAII (Michael W. Deem and Ramdas Pophale) SiO2 
 PCOD9385262
Probable space group: P M M M
;
_chemical_formula_sum "Si O2"
_cell_formula_units_Z 64
_cell_length_a 23.542203
_cell_length_b 9.163350
_cell_length_c 14.936746
_cell_angle_alpha 90.000000
_cell_angle_beta 90.000000
_cell_angle_gamma 90.000000
_cell_volume 3222.236191
_symmetry_space_group_name_H-M "P M M M"
_symmetry_group_IT_number 47
_symmetry_cell_setting 'orthorhombic'
loop_
_space_group_symop_operation_xyz
x,y,z
-x,-y,z
x,-y,-z
-x,y,-z
-x,-y,-z
x,y,-z
-x,y,z
x,-y,z
loop_
_atom_site_type_symbol
_atom_site_label
_atom_site_fract_x
_atom_site_fract_y
_atom_site_fract_z
Si Si1 0.682549 0.170999 0.602174
Si Si2 0.562118 0.834025 0.833410
Si Si3 0.249155 0.331813 0.753808
Si Si4 0.155105 0.323531 0.102980
Si Si5 0.068273 0.829989 0.219203
Si Si6 0.656713 0.659677 0.095044
Si Si7 0.930929 0.330282 0.400103
Si Si8 0.435782 0.325638 0.354010
O O1 0.702407 0.184352 0.500000
O O2 0.728183 0.241727 0.669510
O O3 0.620488 0.248524 0.607728
O O4 0.675125 0.000000 0.623985
O O5 0.500000 0.822884 0.875280
O O6 0.611532 0.786284 0.898094
O O7 0.564385 0.725737 0.749131
O O8 0.569455 0.000000 0.801192
O O9 0.236552 0.500000 0.727466
O O10 0.199112 0.275799 0.818840
O O11 0.302090 0.333783 0.821832
O O12 0.155439 0.500000 0.103994
O O13 0.095996 0.259725 0.138549
O O14 0.167130 0.278584 0.000000
O O15 0.087637 0.763584 0.315090
O O16 0.000000 0.818366 0.216361
O O17 0.083675 0.000000 0.213431
O O18 0.627980 0.500000 0.097946
O O19 0.688371 0.666889 0.000000
O O20 0.912253 0.282857 0.500000
O O21 0.914628 0.500000 0.387839
O O22 0.000000 0.326054 0.400991
O O23 0.500000 0.286822 0.388224
O O24 0.429867 0.500000 0.362381
#
# Coordination Sequence:
#
# PCOD9385262 Si02
#       8
#     8   8   8   8   8   8   8   8
#     4  11  24  40  60  88 121 156 193 237 293 354
#     4  10  20  33  50  75 110 149 188 233 285 341
#     4  10  21  40  64  87 112 145 188 241 291 341
#     4  10  22  41  65  91 118 152 197 247 297 351
#     4  10  21  36  56  87 127 166 202 244 296 354
#     4  10  20  34  55  82 109 141 183 231 286 345
#     4   8  14  27  50  80 114 154 199 242 282 329
#     4  10  20  35  57  84 114 151 196 244 295 351
#
# _framework density 19.861984
#
# number of rings (size 3 to 8) (size 9 to 14) (size 15 to 20)
#    0.000    2.125    1.250    2.250    0.000    6.750 
#    0.000    5.625    0.000    3.000    0.000    0.000 
#    0.000    0.000    0.000    0.000    0.000    0.000 
#
# Total GULP energy -356777.343433 kJ/mol
# GULP energy per Si atom -5574.645991 kJ/mol
# Density = 1.981678 g / cm^3
# Si number density = 19.861984 Si / 1000 Ang^3
#
#
#
# Elastic Constant Matrix: (Units=GPa)
#
#
# Indices 1 2 3 4 5 6 
#
# 1 40.5846 25.9312 34.8407 0.0000 0.0000 0.0000
# 2 25.9312 57.2469 40.1024 0.0000 0.0000 0.0000
# 3 34.8407 40.1024 112.5433 0.0000 0.0000 0.0000
# 4 0.0000 0.0000 0.0000 28.8854 0.0000 0.0000
# 5 0.0000 0.0000 0.0000 0.0000 -32.5419 0.0000
# 6 0.0000 0.0000 0.0000 0.0000 0.0000 16.6852
#
#
#
# Elastic Compliance Matrix: (Units=1/GPa)
#
#
# Indices 1 2 3 4 5 6 
#
# 1 0.039145 -0.012317 -0.007730 0.000000 0.000000 0.000000
# 2 -0.012317 0.027154 -0.005863 0.000000 0.000000 0.000000
# 3 -0.007730 -0.005863 0.013367 0.000000 0.000000 0.000000
# 4 0.000000 0.000000 0.000000 0.034620 0.000000 0.000000
# 5 0.000000 0.000000 0.000000 0.000000 -0.030730 0.000000
# 6 0.000000 0.000000 0.000000 0.000000 0.000000 0.059933
#
#
# Mechanical properties :
#
#
# Convention : Reuss Voigt Hill
#
# Bulk Modulus (GPa) = 35.90868 45.79148 40.85008
# Shear Modulus (GPa) = 24.43884 9.90577 17.17230
#
# Velocity S-wave (km/s) = 3.51156 2.23565 2.94357
# Velocity P-wave (km/s) = 5.87875 5.45610 5.67137
#
# Compressibility (1/GPa) = 0.02784842
#
# Stress axis : x y z
#
# Youngs Moduli (GPa) = 25.54579 36.82636 74.80846
#
# Poissons Ratio (x) = 0.45359 0.57824
# Poissons Ratio (y) = 0.31465 0.43859
# Poissons Ratio (z) = 0.19746 0.21591
#
# Static dielectric constant tensor:
#      x y z
#    x 1.736350 0.000000 0.000000 
#    y 0.000000 1.687420 0.000000 
#    z 0.000000 0.000000 1.710030 
# 
# From -- ./inp_files/25526.got.cif
#   From: 2010.05.17/outbox.cif.g08.bks.cpg/sg47_13_cif.got.tgz:25526.got - 2010.06.03 20:15:42.
