data_PCOD9385625
_publ_section_title
;
Structure prediction by ZEFSAII (Michael W. Deem and Ramdas Pophale) SiO2 
 PCOD9385625
Probable space group: P M M M
;
_chemical_formula_sum "Si O2"
_cell_formula_units_Z 52
_cell_length_a 15.439530
_cell_length_b 7.708703
_cell_length_c 20.881831
_cell_angle_alpha 90.000000
_cell_angle_beta 90.000000
_cell_angle_gamma 90.000000
_cell_volume 2485.329449
_symmetry_space_group_name_H-M "P M M M"
_symmetry_group_IT_number 47
_symmetry_cell_setting 'orthorhombic'
loop_
_space_group_symop_operation_xyz
x,y,z
-x,-y,z
x,-y,-z
-x,y,-z
-x,-y,-z
x,y,-z
-x,y,z
x,-y,z
loop_
_atom_site_type_symbol
_atom_site_label
_atom_site_fract_x
_atom_site_fract_y
_atom_site_fract_z
Si Si1 0.284169 0.798367 0.306734
Si Si2 0.901273 0.208240 0.000000
Si Si3 0.094412 0.292037 0.739473
Si Si4 0.822378 0.301071 0.866517
Si Si5 0.641253 0.197050 0.177225
Si Si6 0.805170 0.791500 0.573053
Si Si7 0.500000 0.212730 0.924684
Si Si8 0.000000 0.292997 0.426823
O O1 0.184190 0.790415 0.282965
O O2 0.343668 0.723828 0.249014
O O3 0.268314 0.723263 0.377986
O O4 0.309364 0.000000 0.313161
O O5 0.854113 0.273484 0.937258
O O6 0.000000 0.268754 0.000000
O O7 0.900253 0.000000 0.000000
O O8 0.098416 0.500000 0.726462
O O9 0.101600 0.265958 0.815990
O O10 0.000000 0.229535 0.717181
O O11 0.795681 0.500000 0.855703
O O12 0.737725 0.192468 0.850842
O O13 0.580759 0.269507 0.120544
O O14 0.610045 0.000000 0.187788
O O15 0.798516 0.725419 0.500000
O O16 0.903877 0.756269 0.597069
O O17 0.796684 0.000000 0.571346
O O18 0.500000 0.000000 0.928302
O O19 0.500000 0.269950 0.000000
O O20 0.000000 0.500000 0.427208
O O21 0.000000 0.223400 0.500000
#
# Coordination Sequence:
#
# PCOD9385625 Si02
#       8
#     8   4   8   8   8   8   4   4
#     4   9  18  30  45  66  91 122 160 202 242 282
#     4  11  23  35  49  70  95 128 169 207 242 279
#     4   9  18  31  45  62  87 122 161 198 238 284
#     4  10  20  34  51  70  96 127 159 198 245 292
#     4   9  18  34  53  75 100 124 156 196 241 298
#     4   9  17  29  43  60  87 125 166 205 246 289
#     4   9  18  32  55  83 104 126 153 188 242 308
#     4   9  17  27  39  59  89 123 162 209 252 286
#
# _framework density 20.922778999999998
#
# number of rings (size 3 to 8) (size 9 to 14) (size 15 to 20)
#    0.000    2.692    0.000    1.385    2.154    3.692 
#    0.000    0.385    0.000    0.462    0.000    0.538 
#    0.000    4.308    0.000    0.000    0.000   20.692 
#
# Total GULP energy -289518.438570 kJ/mol
# GULP energy per Si atom -5567.662280 kJ/mol
# Density = 2.087516 g / cm^3
# Si number density = 20.922779 Si / 1000 Ang^3
#
#
#
# Elastic Constant Matrix: (Units=GPa)
#
#
# Indices 1 2 3 4 5 6 
#
# 1 73.9430 5.1573 45.3964 0.0000 0.0000 0.0000
# 2 5.1573 38.1402 -1.5516 0.0000 0.0000 0.0000
# 3 45.3964 -1.5516 161.6669 0.0000 0.0000 0.0000
# 4 0.0000 0.0000 0.0000 4.0319 0.0000 0.0000
# 5 0.0000 0.0000 0.0000 0.0000 40.0206 0.0000
# 6 0.0000 0.0000 0.0000 0.0000 0.0000 34.3828
#
#
#
# Elastic Compliance Matrix: (Units=1/GPa)
#
#
# Indices 1 2 3 4 5 6 
#
# 1 0.016563 -0.002430 -0.004674 0.000000 0.000000 0.000000
# 2 -0.002430 0.026586 0.000937 0.000000 0.000000 0.000000
# 3 -0.004674 0.000937 0.007507 0.000000 0.000000 0.000000
# 4 0.000000 0.000000 0.000000 0.248023 0.000000 0.000000
# 5 0.000000 0.000000 0.000000 0.000000 0.024987 0.000000
# 6 0.000000 0.000000 0.000000 0.000000 0.000000 0.029084
#
#
# Mechanical properties :
#
#
# Convention : Reuss Voigt Hill
#
# Bulk Modulus (GPa) = 26.09419 41.30603 33.70011
# Shear Modulus (GPa) = 13.23249 30.67024 21.95136
#
# Velocity S-wave (km/s) = 2.51757 3.83283 3.24259
# Velocity P-wave (km/s) = 4.57708 6.27475 5.49191
#
# Compressibility (1/GPa) = 0.03832271
#
# Stress axis : x y z
#
# Youngs Moduli (GPa) = 60.37508 37.61409 133.20721
#
# Poissons Ratio (x) = 0.09140 0.62265
# Poissons Ratio (y) = 0.14670 -0.12488
# Poissons Ratio (z) = 0.28221 -0.03526
#
# Static dielectric constant tensor:
#      x y z
#    x 1.718130 0.000000 0.000000 
#    y 0.000000 1.784220 0.000000 
#    z 0.000000 0.000000 1.859820 
# 
# From -- ./inp_files/30928.got.cif
#   From: 2010.05.17/outbox.cif.g08.bks.cpg/sg47_16_cif.got.tgz:30928.got - 2010.06.03 20:15:42.
