data_PCOD9385295
_publ_section_title
;
Structure prediction by ZEFSAII (Michael W. Deem and Ramdas Pophale) SiO2 
 PCOD9385295
Probable space group: P M M M
;
_chemical_formula_sum "Si O2"
_cell_formula_units_Z 64
_cell_length_a 19.396735
_cell_length_b 20.839905
_cell_length_c 7.547268
_cell_angle_alpha 90.000000
_cell_angle_beta 90.000000
_cell_angle_gamma 90.000000
_cell_volume 3050.802820
_symmetry_space_group_name_H-M "P M M M"
_symmetry_group_IT_number 47
_symmetry_cell_setting 'orthorhombic'
loop_
_space_group_symop_operation_xyz
x,y,z
-x,-y,z
x,-y,-z
-x,y,-z
-x,-y,-z
x,y,-z
-x,y,z
x,-y,z
loop_
_atom_site_type_symbol
_atom_site_label
_atom_site_fract_x
_atom_site_fract_y
_atom_site_fract_z
Si Si1 0.577623 0.808842 0.789651
Si Si2 0.077600 0.806602 0.790190
Si Si3 0.169695 0.927136 0.286379
Si Si4 0.172512 0.690033 0.782319
Si Si5 0.578466 0.427118 0.713840
Si Si6 0.921465 0.572852 0.784130
Si Si7 0.671168 0.693864 0.209180
Si Si8 0.674556 0.072938 0.286390
O O1 0.500000 0.811098 0.716875
O O2 0.623385 0.750505 0.715143
O O3 0.618771 0.874946 0.767182
O O4 0.571567 0.797699 0.000000
O O5 0.114034 0.875032 0.767783
O O6 0.128168 0.751168 0.721492
O O7 0.000000 0.804920 0.716748
O O8 0.072074 0.794688 0.000000
O O9 0.170873 0.928061 0.500000
O O10 0.247575 0.909815 0.226560
O O11 0.155071 0.000000 0.226717
O O12 0.133029 0.625633 0.725996
O O13 0.251221 0.692734 0.719549
O O14 0.173307 0.689882 0.000000
O O15 0.577967 0.427475 0.500000
O O16 0.500000 0.411617 0.772245
O O17 0.594515 0.500000 0.772232
O O18 0.632200 0.373584 0.771297
O O19 0.906233 0.500000 0.727527
O O20 0.000000 0.588997 0.730681
O O21 0.921162 0.572870 0.000000
O O22 0.678358 0.706869 0.000000
O O23 0.675810 0.071885 0.500000
O O24 0.659814 0.000000 0.226724
#
# Coordination Sequence:
#
# PCOD9385295 Si02
#       8
#     8   8   8   8   8   8   8   8
#     4  10  21  35  50  72 104 137 167 203 252 309
#     4  10  20  33  51  75 102 133 169 208 248 292
#     4   9  19  36  55  74  99 131 164 201 249 301
#     4   9  17  29  45  68  99 130 161 201 246 287
#     4   9  19  36  55  74  99 132 168 206 250 300
#     4   8  13  22  38  61  91 127 161 191 229 280
#     4  10  20  33  51  75 102 132 166 206 250 295
#     4   9  19  36  56  77 100 128 167 212 253 298
#
# _framework density 20.978083999999999
#
# number of rings (size 3 to 8) (size 9 to 14) (size 15 to 20)
#    0.000    2.750    0.000    3.000    0.000    6.500 
#    0.000    6.250    0.000    0.000    0.000    0.000 
#    0.000    0.000    0.000    6.625    0.000    5.750 
#
# Total GULP energy -357313.813350 kJ/mol
# GULP energy per Si atom -5583.028334 kJ/mol
# Density = 2.093034 g / cm^3
# Si number density = 20.978084 Si / 1000 Ang^3
#
#
#
# Elastic Constant Matrix: (Units=GPa)
#
#
# Indices 1 2 3 4 5 6 
#
# 1 223.2681 139.9334 5.7170 0.0000 0.0000 0.0000
# 2 139.9334 142.8127 -4.2602 0.0000 0.0000 0.0000
# 3 5.7170 -4.2602 47.6829 0.0000 0.0000 0.0000
# 4 0.0000 0.0000 0.0000 17.8821 0.0000 0.0000
# 5 0.0000 0.0000 0.0000 0.0000 27.9898 0.0000
# 6 0.0000 0.0000 0.0000 0.0000 0.0000 36.1247
#
#
#
# Elastic Compliance Matrix: (Units=1/GPa)
#
#
# Indices 1 2 3 4 5 6 
#
# 1 0.011891 -0.011725 -0.002473 0.000000 0.000000 0.000000
# 2 -0.011725 0.018582 0.003066 0.000000 0.000000 0.000000
# 3 -0.002473 0.003066 0.021542 0.000000 0.000000 0.000000
# 4 0.000000 0.000000 0.000000 0.055922 0.000000 0.000000
# 5 0.000000 0.000000 0.000000 0.000000 0.035727 0.000000
# 6 0.000000 0.000000 0.000000 0.000000 0.000000 0.027682
#
#
# Mechanical properties :
#
#
# Convention : Reuss Voigt Hill
#
# Bulk Modulus (GPa) = 33.61221 77.39377 55.50299
# Shear Modulus (GPa) = 24.56670 34.55754 29.56212
#
# Velocity S-wave (km/s) = 3.42580 4.06312 3.75799
# Velocity P-wave (km/s) = 5.63076 7.68015 6.73387
#
# Compressibility (1/GPa) = 0.02975109
#
# Stress axis : x y z
#
# Youngs Moduli (GPa) = 84.09870 53.81531 46.42017
#
# Poissons Ratio (x) = 0.63098 0.11481
# Poissons Ratio (y) = 0.98604 -0.14232
# Poissons Ratio (z) = 0.20799 -0.16500
#
# Static dielectric constant tensor:
#      x y z
#    x 1.732610 0.000000 0.000000 
#    y 0.000000 1.719960 0.000000 
#    z 0.000000 0.000000 1.791180 
# 
# From -- ./inp_files/9960.got.cif
#   From: 2010.05.17/outbox.cif.g08.bks.cpg/sg47_5_cif.got.tgz:9960.got - 2010.06.03 20:15:42.
