data_PCOD9385178
_publ_section_title
;
Structure prediction by ZEFSAII (Michael W. Deem and Ramdas Pophale) SiO2 
 PCOD9385178
Probable space group: P M M M
;
_chemical_formula_sum "Si O2"
_cell_formula_units_Z 52
_cell_length_a 29.086964
_cell_length_b 8.160671
_cell_length_c 12.195576
_cell_angle_alpha 90.000000
_cell_angle_beta 90.000000
_cell_angle_gamma 90.000000
_cell_volume 2894.853431
_symmetry_space_group_name_H-M "P M M M"
_symmetry_group_IT_number 47
_symmetry_cell_setting 'orthorhombic'
loop_
_space_group_symop_operation_xyz
x,y,z
-x,-y,z
x,-y,-z
-x,y,-z
-x,-y,-z
x,y,-z
-x,y,z
x,-y,z
loop_
_atom_site_type_symbol
_atom_site_label
_atom_site_fract_x
_atom_site_fract_y
_atom_site_fract_z
Si Si1 0.720778 0.801724 0.500000
Si Si2 0.500000 0.311313 0.133111
Si Si3 0.052481 0.197658 0.875682
Si Si4 0.775593 0.802280 0.124702
Si Si5 0.137343 0.304555 0.734026
Si Si6 0.600312 0.301742 0.126137
Si Si7 0.172537 0.698267 0.500000
Si Si8 0.687677 0.198058 0.736022
O O1 0.774065 0.749261 0.500000
O O2 0.696101 0.745299 0.388524
O O3 0.720356 0.000000 0.500000
O O4 0.500000 0.500000 0.172544
O O5 0.549694 0.238586 0.162093
O O6 0.500000 0.316293 0.000000
O O7 0.089206 0.253357 0.786933
O O8 0.000000 0.251606 0.853995
O O9 0.052525 0.000000 0.876905
O O10 0.065050 0.251858 0.000000
O O11 0.821642 0.754776 0.187744
O O12 0.730976 0.744053 0.191273
O O13 0.773589 0.000000 0.121610
O O14 0.775493 0.741382 0.000000
O O15 0.138787 0.500000 0.730392
O O16 0.147995 0.242442 0.611217
O O17 0.597635 0.500000 0.123285
O O18 0.640782 0.251798 0.206807
O O19 0.609426 0.247488 0.000000
O O20 0.171207 0.500000 0.500000
O O21 0.688486 0.000000 0.735416
#
# Coordination Sequence:
#
# PCOD9385178 Si02
#       8
#     4   4   8   8   8   8   4   8
#     4  10  20  36  56  72  92 132 181 215 245 294
#     4   7  12  26  47  70  97 130 168 205 244 297
#     4   9  19  37  59  81 106 136 169 206 250 301
#     4  10  20  33  50  73 102 134 165 202 251 304
#     4  11  22  35  53  77 104 135 170 210 253 297
#     4   9  17  30  50  75 102 133 167 205 252 305
#     4  10  22  38  53  73 103 136 172 214 254 292
#     4  10  20  33  50  73 100 130 168 212 255 299
#
# _framework density 17.962913
#
# number of rings (size 3 to 8) (size 9 to 14) (size 15 to 20)
#    0.000    2.385    1.538    2.769    0.000    5.538 
#    0.000    1.538    0.000    4.154    0.000    3.231 
#    0.000    0.000    0.000    0.000    0.000    0.000 
#
# Total GULP energy -290031.734688 kJ/mol
# GULP energy per Si atom -5577.533359 kJ/mol
# Density = 1.792203 g / cm^3
# Si number density = 17.962913 Si / 1000 Ang^3
#
#
#
# Elastic Constant Matrix: (Units=GPa)
#
#
# Indices 1 2 3 4 5 6 
#
# 1 157.1835 7.5909 107.0965 0.0000 0.0000 0.0000
# 2 7.5909 6.4200 17.2491 0.0000 0.0000 0.0000
# 3 107.0965 17.2491 176.0635 0.0000 0.0000 0.0000
# 4 0.0000 0.0000 0.0000 20.2624 0.0000 0.0000
# 5 0.0000 0.0000 0.0000 0.0000 5.5059 0.0000
# 6 0.0000 0.0000 0.0000 0.0000 0.0000 27.0116
#
#
#
# Elastic Compliance Matrix: (Units=1/GPa)
#
#
# Indices 1 2 3 4 5 6 
#
# 1 0.011079 0.006796 -0.007405 0.000000 0.000000 0.000000
# 2 0.006796 0.215581 -0.025255 0.000000 0.000000 0.000000
# 3 -0.007405 -0.025255 0.012658 0.000000 0.000000 0.000000
# 4 0.000000 0.000000 0.000000 0.049353 0.000000 0.000000
# 5 0.000000 0.000000 0.000000 0.000000 0.181625 0.000000
# 6 0.000000 0.000000 0.000000 0.000000 0.000000 0.037021
#
#
# Mechanical properties :
#
#
# Convention : Reuss Voigt Hill
#
# Bulk Modulus (GPa) = 5.33074 67.06000 36.19537
# Shear Modulus (GPa) = 8.04408 24.40466 16.22437
#
# Velocity S-wave (km/s) = 2.11846 3.68994 3.00861
# Velocity P-wave (km/s) = 2.99298 7.45437 5.68004
#
# Compressibility (1/GPa) = 0.18759136
#
# Stress axis : x y z
#
# Youngs Moduli (GPa) = 90.25869 4.63863 78.99873
#
# Poissons Ratio (x) = -0.03152 0.58500
# Poissons Ratio (y) = -0.61341 1.99509
# Poissons Ratio (z) = 0.66838 0.11715
#
# Static dielectric constant tensor:
#      x y z
#    x 1.606330 0.000000 0.000000 
#    y 0.000000 1.641790 0.000000 
#    z 0.000000 0.000000 1.613940 
# 
# From -- ./inp_files/19917.got.cif
#   From: 2010.05.17/outbox.cif.g08.bks.cpg/sg47_10_cif.got.tgz:19917.got - 2010.06.03 20:15:42.
