data_PCOD9385900
_publ_section_title
;
Structure prediction by ZEFSAII (Michael W. Deem and Ramdas Pophale) SiO2 
 PCOD9385900
Probable space group: P M M M
;
_chemical_formula_sum "Si O2"
_cell_formula_units_Z 44
_cell_length_a 31.073192
_cell_length_b 7.846209
_cell_length_c 9.524954
_cell_angle_alpha 90.000000
_cell_angle_beta 90.000000
_cell_angle_gamma 90.000000
_cell_volume 2322.248162
_symmetry_space_group_name_H-M "P M M M"
_symmetry_group_IT_number 47
_symmetry_cell_setting 'orthorhombic'
loop_
_space_group_symop_operation_xyz
x,y,z
-x,-y,z
x,-y,-z
-x,y,-z
-x,-y,-z
x,y,-z
-x,y,z
x,-y,z
loop_
_atom_site_type_symbol
_atom_site_label
_atom_site_fract_x
_atom_site_fract_y
_atom_site_fract_z
Si Si1 0.707700 0.708123 0.161143
Si Si2 0.212160 0.703358 0.342084
Si Si3 0.048713 0.705890 0.660373
Si Si4 0.869603 0.798135 0.158420
Si Si5 0.388834 0.304466 0.828951
Si Si6 0.450513 0.000000 0.171458
O O1 0.708480 0.500000 0.158361
O O2 0.746272 0.770375 0.258635
O O3 0.659555 0.752164 0.210580
O O4 0.713772 0.765166 0.000000
O O5 0.208347 0.772276 0.500000
O O6 0.218171 0.500000 0.352511
O O7 0.169036 0.730391 0.253632
O O8 0.058363 0.761460 0.500000
O O9 0.048727 0.500000 0.659667
O O10 0.084969 0.763331 0.767336
O O11 0.000000 0.761882 0.695128
O O12 0.863907 0.000000 0.150513
O O13 0.868243 0.727428 0.000000
O O14 0.396406 0.500000 0.782915
O O15 0.424383 0.168473 0.784046
O O16 0.388639 0.307470 0.000000
O O17 0.500000 0.000000 0.217285
O O18 0.450528 0.000000 0.000000
#
# Coordination Sequence:
#
# PCOD9385900 Si02
#       6
#     8   8   8   8   8   4
#     4   8  14  27  47  68  93 127 164 201 246 302
#     4  10  20  34  54  78 102 130 166 210 259 309
#     4   9  19  37  60  83 104 129 166 210 255 304
#     4  11  24  38  51  73 106 140 173 208 249 300
#     4   8  14  25  40  59  87 125 165 205 253 306
#     4   9  16  24  36  60  93 127 165 207 252 305
#
# _framework density 18.947158000000002
#
# number of rings (size 3 to 8) (size 9 to 14) (size 15 to 20)
#    0.000    2.818    0.000    3.273    0.000    6.182 
#    1.636    4.545    0.000    0.000    0.000    0.000 
#    0.000    1.455    0.000    7.091    0.000    7.273 
#
# Total GULP energy -245380.235770 kJ/mol
# GULP energy per Si atom -5576.823540 kJ/mol
# Density = 1.890403 g / cm^3
# Si number density = 18.947158 Si / 1000 Ang^3
#
#
#
# Elastic Constant Matrix: (Units=GPa)
#
#
# Indices 1 2 3 4 5 6 
#
# 1 167.3660 33.6183 87.2310 0.0000 0.0000 0.0000
# 2 33.6183 44.2847 21.1593 0.0000 0.0000 0.0000
# 3 87.2310 21.1593 101.6587 0.0000 0.0000 0.0000
# 4 0.0000 0.0000 0.0000 279.2633 0.0000 0.0000
# 5 0.0000 0.0000 0.0000 0.0000 -171.9204 0.0000
# 6 0.0000 0.0000 0.0000 0.0000 0.0000 66.1754
#
#
#
# Elastic Compliance Matrix: (Units=1/GPa)
#
#
# Indices 1 2 3 4 5 6 
#
# 1 0.011558 -0.004481 -0.008985 0.000000 0.000000 0.000000
# 2 -0.004481 0.026812 -0.001736 0.000000 0.000000 0.000000
# 3 -0.008985 -0.001736 0.017908 0.000000 0.000000 0.000000
# 4 0.000000 0.000000 0.000000 0.003581 0.000000 0.000000
# 5 0.000000 0.000000 0.000000 0.000000 -0.005817 0.000000
# 6 0.000000 0.000000 0.000000 0.000000 0.000000 0.015111
#
#
# Mechanical properties :
#
#
# Convention : Reuss Voigt Hill
#
# Bulk Modulus (GPa) = 38.64759 66.36961 52.50860
# Shear Modulus (GPa) = 46.21851 46.12373 46.17112
#
# Velocity S-wave (km/s) = 4.94432 4.93925 4.94179
# Velocity P-wave (km/s) = 7.28265 8.22393 7.76756
#
# Compressibility (1/GPa) = 0.02587483
#
# Stress axis : x y z
#
# Youngs Moduli (GPa) = 86.52037 37.29640 55.84146
#
# Poissons Ratio (x) = 0.16713 0.50173
# Poissons Ratio (y) = 0.38771 0.09692
# Poissons Ratio (z) = 0.77738 0.06473
#
# Static dielectric constant tensor:
#      x y z
#    x 1.643040 0.000000 0.000000 
#    y 0.000000 1.684260 0.000000 
#    z 0.000000 0.000000 1.653270 
# 
# From -- ./inp_files/13600.got.cif
#   From: 2010.05.17/outbox.cif.g08.bks.cpg/sg47_7_cif.got.tgz:13600.got - 2010.06.03 20:15:42.
