data_PCOD9385896
_publ_section_title
;
Structure prediction by ZEFSAII (Michael W. Deem and Ramdas Pophale) SiO2 
 PCOD9385896
Probable space group: P M M M
;
_chemical_formula_sum "Si O2"
_cell_formula_units_Z 64
_cell_length_a 32.257901
_cell_length_b 9.092814
_cell_length_c 14.490794
_cell_angle_alpha 90.000000
_cell_angle_beta 90.000000
_cell_angle_gamma 90.000000
_cell_volume 4250.368602
_symmetry_space_group_name_H-M "P M M M"
_symmetry_group_IT_number 47
_symmetry_cell_setting 'orthorhombic'
loop_
_space_group_symop_operation_xyz
x,y,z
-x,-y,z
x,-y,-z
-x,y,-z
-x,-y,-z
x,y,-z
-x,y,z
x,-y,z
loop_
_atom_site_type_symbol
_atom_site_label
_atom_site_fract_x
_atom_site_fract_y
_atom_site_fract_z
Si Si1 0.720593 0.177590 0.390588
Si Si2 0.545159 0.326625 0.611695
Si Si3 0.953571 0.175055 0.283455
Si Si4 0.628149 0.829250 0.387886
Si Si5 0.120992 0.324327 0.608018
Si Si6 0.078985 0.324619 0.105550
Si Si7 0.830762 0.825763 0.893641
Si Si8 0.205074 0.676245 0.720455
O O1 0.725425 0.208853 0.500000
O O2 0.674019 0.224253 0.360964
O O3 0.755853 0.257930 0.333209
O O4 0.723297 0.000000 0.380180
O O5 0.545287 0.310438 0.500000
O O6 0.500000 0.269138 0.643621
O O7 0.546660 0.500000 0.630843
O O8 0.587211 0.252726 0.646402
O O9 0.917740 0.241405 0.347292
O O10 0.948571 0.249436 0.183295
O O11 0.000000 0.204361 0.319248
O O12 0.948210 0.000000 0.275022
O O13 0.628056 0.821724 0.500000
O O14 0.624940 0.000000 0.362779
O O15 0.125474 0.289122 0.500000
O O16 0.114317 0.500000 0.616867
O O17 0.163211 0.289012 0.662554
O O18 0.081415 0.500000 0.120563
O O19 0.124709 0.254137 0.114975
O O20 0.064948 0.299209 0.000000
O O21 0.800799 0.751486 0.819696
O O22 0.835508 0.000000 0.875432
O O23 0.817218 0.807896 0.000000
O O24 0.208062 0.500000 0.728351
#
# Coordination Sequence:
#
# PCOD9385896 Si02
#       8
#     8   8   8   8   8   8   8   8
#     4   9  18  31  45  63  90 124 159 195 236 277
#     4   8  13  20  30  46  69  99 138 185 235 281
#     4  11  24  39  55  76 100 126 156 187 222 267
#     4   8  14  24  36  51  74 106 146 190 232 273
#     4  10  22  39  56  74  96 123 155 190 227 266
#     4  10  20  35  56  80 103 126 151 179 216 263
#     4  10  20  34  54  78 101 124 149 178 216 263
#     4  11  21  33  52  76  98 121 152 187 224 270
#
# _framework density 15.057517000000001
#
# number of rings (size 3 to 8) (size 9 to 14) (size 15 to 20)
#    0.000    2.375    1.250    3.000    0.000    5.250 
#    0.000    5.000    0.000    0.000    0.000    0.000 
#    0.000    0.000    0.000    0.000    0.000    0.625 
#
# Total GULP energy -356773.568803 kJ/mol
# GULP energy per Si atom -5574.587013 kJ/mol
# Density = 1.502325 g / cm^3
# Si number density = 15.057517 Si / 1000 Ang^3
#
#
#
# Elastic Constant Matrix: (Units=GPa)
#
#
# Indices 1 2 3 4 5 6 
#
# 1 135.7566 58.8082 45.4992 0.0000 0.0000 0.0000
# 2 58.8082 52.7721 34.4420 0.0000 0.0000 0.0000
# 3 45.4992 34.4420 58.1014 0.0000 0.0000 0.0000
# 4 0.0000 0.0000 0.0000 19.8615 0.0000 0.0000
# 5 0.0000 0.0000 0.0000 0.0000 2.8248 0.0000
# 6 0.0000 0.0000 0.0000 0.0000 0.0000 35.2907
#
#
#
# Elastic Compliance Matrix: (Units=1/GPa)
#
#
# Indices 1 2 3 4 5 6 
#
# 1 0.014535 -0.014302 -0.002904 0.000000 0.000000 0.000000
# 2 -0.014302 0.044980 -0.015464 0.000000 0.000000 0.000000
# 3 -0.002904 -0.015464 0.028652 0.000000 0.000000 0.000000
# 4 0.000000 0.000000 0.000000 0.050349 0.000000 0.000000
# 5 0.000000 0.000000 0.000000 0.000000 0.354010 0.000000
# 6 0.000000 0.000000 0.000000 0.000000 0.000000 0.028336
#
#
# Mechanical properties :
#
#
# Convention : Reuss Voigt Hill
#
# Bulk Modulus (GPa) = 43.80742 58.23655 51.02199
# Shear Modulus (GPa) = 8.42019 18.78743 13.60381
#
# Velocity S-wave (km/s) = 2.36731 3.53613 3.00902
# Velocity P-wave (km/s) = 6.05217 7.44529 6.78458
#
# Compressibility (1/GPa) = 0.02282718
#
# Stress axis : x y z
#
# Youngs Moduli (GPa) = 68.79973 22.23223 34.90117
#
# Poissons Ratio (x) = 0.31797 0.10136
# Poissons Ratio (y) = 0.98397 0.53970
# Poissons Ratio (z) = 0.19981 0.34379
#
# Static dielectric constant tensor:
#      x y z
#    x 1.509920 0.000000 0.000000 
#    y 0.000000 1.500670 0.000000 
#    z 0.000000 0.000000 1.487430 
# 
# From -- ./inp_files/14288.got.cif
#   From: 2010.05.17/outbox.cif.g08.bks.cpg/sg47_8_cif.got.tgz:14288.got - 2010.06.03 20:15:42.
