data_PCOD9385024
_publ_section_title
;
Structure prediction by ZEFSAII (Michael W. Deem and Ramdas Pophale) SiO2 
 PCOD9385024
Probable space group: P M M M
;
_chemical_formula_sum "Si O2"
_cell_formula_units_Z 52
_cell_length_a 15.075108
_cell_length_b 21.972157
_cell_length_c 9.077750
_cell_angle_alpha 90.000000
_cell_angle_beta 90.000000
_cell_angle_gamma 90.000000
_cell_volume 3006.847096
_symmetry_space_group_name_H-M "P M M M"
_symmetry_group_IT_number 47
_symmetry_cell_setting 'orthorhombic'
loop_
_space_group_symop_operation_xyz
x,y,z
-x,-y,z
x,-y,-z
-x,y,-z
-x,-y,-z
x,y,-z
-x,y,z
x,-y,z
loop_
_atom_site_type_symbol
_atom_site_label
_atom_site_fract_x
_atom_site_fract_y
_atom_site_fract_z
Si Si1 0.405592 0.330934 0.837410
Si Si2 0.396028 0.127195 0.821597
Si Si3 0.667797 0.433310 0.332761
Si Si4 0.744145 0.769976 0.170899
Si Si5 0.101220 0.303296 0.673948
Si Si6 0.393186 0.000000 0.332204
Si Si7 0.854309 0.568772 0.824241
O O1 0.500000 0.297658 0.828338
O O2 0.397698 0.380828 0.713134
O O3 0.324219 0.286099 0.827282
O O4 0.402017 0.360288 0.000000
O O5 0.500000 0.141051 0.779021
O O6 0.319019 0.174752 0.775326
O O7 0.371434 0.061557 0.755129
O O8 0.395567 0.125904 0.000000
O O9 0.700396 0.425440 0.500000
O O10 0.626940 0.500000 0.321277
O O11 0.751354 0.430373 0.223687
O O12 0.829111 0.744854 0.258287
O O13 0.768966 0.781932 0.000000
O O14 0.119149 0.310175 0.500000
O O15 0.107997 0.370525 0.748082
O O16 0.000000 0.282085 0.693957
O O17 0.500000 0.000000 0.340823
O O18 0.358633 0.000000 0.500000
O O19 0.887169 0.500000 0.782023
O O20 0.864400 0.574173 0.000000
#
# Coordination Sequence:
#
# PCOD9385024 Si02
#       7
#     8   8   8   8   8   4   8
#     4  10  20  33  50  73 100 131 169 211 255 305
#     4   9  17  31  53  81 114 150 184 217 255 298
#     4  10  20  33  49  69  95 128 166 209 258 311
#     4  10  20  35  55  78 104 138 177 217 258 306
#     4  11  24  39  55  77 105 136 170 213 268 326
#     4   9  17  29  47  77 116 153 188 221 251 290
#     4  10  20  35  56  78  98 124 163 214 272 329
#
# _framework density 17.293863000000002
#
# number of rings (size 3 to 8) (size 9 to 14) (size 15 to 20)
#    0.000    2.077    1.538    2.077    0.000    7.385 
#    0.000    3.077    0.000    2.769    0.000    0.538 
#    0.000    4.308    0.000    0.000    0.000    0.000 
#
# Total GULP energy -289652.516639 kJ/mol
# GULP energy per Si atom -5570.240705 kJ/mol
# Density = 1.725450 g / cm^3
# Si number density = 17.293863 Si / 1000 Ang^3
#
#
#
# Elastic Constant Matrix: (Units=GPa)
#
#
# Indices 1 2 3 4 5 6 
#
# 1 92.0990 48.4959 38.9534 0.0000 0.0000 0.0000
# 2 48.4959 107.8940 45.2081 0.0000 0.0000 0.0000
# 3 38.9534 45.2081 58.3862 0.0000 0.0000 0.0000
# 4 0.0000 0.0000 0.0000 8.9239 0.0000 0.0000
# 5 0.0000 0.0000 0.0000 0.0000 16.0266 0.0000
# 6 0.0000 0.0000 0.0000 0.0000 0.0000 17.2371
#
#
#
# Elastic Compliance Matrix: (Units=1/GPa)
#
#
# Indices 1 2 3 4 5 6 
#
# 1 0.016260 -0.004090 -0.007681 0.000000 0.000000 0.000000
# 2 -0.004090 0.014748 -0.008691 0.000000 0.000000 0.000000
# 3 -0.007681 -0.008691 0.028981 0.000000 0.000000 0.000000
# 4 0.000000 0.000000 0.000000 0.112058 0.000000 0.000000
# 5 0.000000 0.000000 0.000000 0.000000 0.062396 0.000000
# 6 0.000000 0.000000 0.000000 0.000000 0.000000 0.058015
#
#
# Mechanical properties :
#
#
# Convention : Reuss Voigt Hill
#
# Bulk Modulus (GPa) = 52.45095 58.18822 55.31958
# Shear Modulus (GPa) = 14.71718 16.81897 15.76807
#
# Velocity S-wave (km/s) = 2.92037 3.12194 3.02283
# Velocity P-wave (km/s) = 6.46270 6.83485 6.65138
#
# Compressibility (1/GPa) = 0.01906543
#
# Stress axis : x y z
#
# Youngs Moduli (GPa) = 61.49878 67.80489 34.50503
#
# Poissons Ratio (x) = 0.27733 0.26505
# Poissons Ratio (y) = 0.25154 0.29987
# Poissons Ratio (z) = 0.47240 0.58927
#
# Static dielectric constant tensor:
#      x y z
#    x 1.598140 0.000000 0.000000 
#    y 0.000000 1.597680 0.000000 
#    z 0.000000 0.000000 1.604410 
# 
# From -- ./inp_files/6978.got.cif
#   From: 2010.05.17/outbox.cif.g08.bks.cpg/sg47_4_cif.got.tgz:6978.got - 2010.06.03 20:15:42.
