data_PCOD9385764
_publ_section_title
;
Structure prediction by ZEFSAII (Michael W. Deem and Ramdas Pophale) SiO2 
 PCOD9385764
Probable space group: P M M M
;
_chemical_formula_sum "Si O2"
_cell_formula_units_Z 40
_cell_length_a 28.090443
_cell_length_b 8.633162
_cell_length_c 7.800557
_cell_angle_alpha 90.000000
_cell_angle_beta 90.000000
_cell_angle_gamma 90.000000
_cell_volume 1891.707969
_symmetry_space_group_name_H-M "P M M M"
_symmetry_group_IT_number 47
_symmetry_cell_setting 'orthorhombic'
loop_
_space_group_symop_operation_xyz
x,y,z
-x,-y,z
x,-y,-z
-x,y,-z
-x,-y,-z
x,y,-z
-x,y,z
x,-y,z
loop_
_atom_site_type_symbol
_atom_site_label
_atom_site_fract_x
_atom_site_fract_y
_atom_site_fract_z
Si Si1 0.805414 0.828595 0.295764
Si Si2 0.000000 0.816285 0.200806
Si Si3 0.556105 0.000000 0.207960
Si Si4 0.398575 0.677020 0.199647
Si Si5 0.903105 0.317248 0.197896
Si Si6 0.709010 0.681860 0.298882
O O1 0.798455 0.835464 0.500000
O O2 0.851665 0.724945 0.269352
O O3 0.754969 0.768894 0.226155
O O4 0.816027 0.000000 0.229764
O O5 0.049746 0.758365 0.278171
O O6 0.000000 0.000000 0.201302
O O7 0.000000 0.761002 0.000000
O O8 0.577592 0.834788 0.271784
O O9 0.500000 0.000000 0.241204
O O10 0.563668 0.000000 0.000000
O O11 0.407389 0.500000 0.271175
O O12 0.341784 0.703953 0.211023
O O13 0.412897 0.668865 0.000000
O O14 0.909888 0.500000 0.204236
O O15 0.901187 0.264835 0.000000
O O16 0.702082 0.722493 0.500000
O O17 0.720536 0.500000 0.290944
#
# Coordination Sequence:
#
# PCOD9385764 Si02
#       6
#     8   4   4   8   8   8
#     4  10  21  35  51  74 103 134 169 209 254 306
#     4   9  17  31  52  75 100 129 162 204 254 305
#     4   9  18  32  51  77 107 137 171 212 259 304
#     4   9  18  32  51  76 104 134 172 215 255 301
#     4  10  20  34  53  76 101 131 168 208 251 302
#     4   9  18  33  52  73  99 133 168 204 252 306
#
# _framework density 21.144912000000001
#
# number of rings (size 3 to 8) (size 9 to 14) (size 15 to 20)
#    0.000    2.600    0.000    1.500    1.400    4.800 
#    0.000    4.500    0.000    4.200    0.000    2.800 
#    0.000    0.000    0.000    0.000    0.000    0.000 
#
# Total GULP energy -222916.897228 kJ/mol
# GULP energy per Si atom -5572.922431 kJ/mol
# Density = 2.109679 g / cm^3
# Si number density = 21.144912 Si / 1000 Ang^3
#
#
#
# Elastic Constant Matrix: (Units=GPa)
#
#
# Indices 1 2 3 4 5 6 
#
# 1 104.0029 70.0027 -0.2328 0.0000 0.0000 0.0000
# 2 70.0027 91.2467 13.1679 0.0000 0.0000 0.0000
# 3 -0.2328 13.1679 23.7409 0.0000 0.0000 0.0000
# 4 0.0000 0.0000 0.0000 9.8568 0.0000 0.0000
# 5 0.0000 0.0000 0.0000 0.0000 24.9302 0.0000
# 6 0.0000 0.0000 0.0000 0.0000 0.0000 45.0649
#
#
#
# Elastic Compliance Matrix: (Units=1/GPa)
#
#
# Indices 1 2 3 4 5 6 
#
# 1 0.022023 -0.018399 0.010421 0.000000 0.000000 0.000000
# 2 -0.018399 0.027285 -0.015314 0.000000 0.000000 0.000000
# 3 0.010421 -0.015314 0.050717 0.000000 0.000000 0.000000
# 4 0.000000 0.000000 0.000000 0.101453 0.000000 0.000000
# 5 0.000000 0.000000 0.000000 0.000000 0.040112 0.000000
# 6 0.000000 0.000000 0.000000 0.000000 0.000000 0.022190
#
#
# Mechanical properties :
#
#
# Convention : Reuss Voigt Hill
#
# Bulk Modulus (GPa) = 18.71230 42.76290 30.73760
# Shear Modulus (GPa) = 15.23562 25.04055 20.13808
#
# Velocity S-wave (km/s) = 2.68719 3.44501 3.08942
# Velocity P-wave (km/s) = 4.30078 6.00764 5.22439
#
# Compressibility (1/GPa) = 0.05344077
#
# Stress axis : x y z
#
# Youngs Moduli (GPa) = 45.40766 36.65037 19.71707
#
# Poissons Ratio (x) = 0.67434 -0.20547
# Poissons Ratio (y) = 0.83547 0.30195
# Poissons Ratio (z) = -0.47320 0.56126
#
# Static dielectric constant tensor:
#      x y z
#    x 1.749160 0.000000 0.000000 
#    y 0.000000 1.773780 0.000000 
#    z 0.000000 0.000000 1.813500 
# 
# From -- ./inp_files/1772.got.cif
#   From: 2010.05.17/outbox.cif.g08.bks.cpg/sg47_1_cif.got.tgz:1772.got - 2010.06.03 20:15:42.
