data_PCOD9385636
_publ_section_title
;
Structure prediction by ZEFSAII (Michael W. Deem and Ramdas Pophale) SiO2 
 PCOD9385636
Probable space group: P M M M
;
_chemical_formula_sum "Si O2"
_cell_formula_units_Z 52
_cell_length_a 20.905826
_cell_length_b 7.774113
_cell_length_c 15.343049
_cell_angle_alpha 90.000000
_cell_angle_beta 90.000000
_cell_angle_gamma 90.000000
_cell_volume 2493.617588
_symmetry_space_group_name_H-M "P M M M"
_symmetry_group_IT_number 47
_symmetry_cell_setting 'orthorhombic'
loop_
_space_group_symop_operation_xyz
x,y,z
-x,-y,z
x,-y,-z
-x,y,-z
-x,-y,-z
x,y,-z
-x,y,z
x,-y,z
loop_
_atom_site_type_symbol
_atom_site_label
_atom_site_fract_x
_atom_site_fract_y
_atom_site_fract_z
Si Si1 0.737433 0.296082 0.599555
Si Si2 0.868659 0.697593 0.676663
Si Si3 0.071320 0.800391 0.147856
Si Si4 0.209572 0.789429 0.095693
Si Si5 0.573534 0.707683 0.902248
Si Si6 0.924977 0.805464 0.500000
Si Si7 0.315914 0.202546 0.229984
O O1 0.729448 0.230681 0.500000
O O2 0.749166 0.500000 0.591315
O O3 0.799849 0.224412 0.650155
O O4 0.682464 0.272487 0.671484
O O5 0.861550 0.500000 0.705819
O O6 0.909508 0.792021 0.750178
O O7 0.904486 0.706491 0.585572
O O8 0.136113 0.728475 0.104791
O O9 0.000000 0.725698 0.133487
O O10 0.067684 0.000000 0.120879
O O11 0.256275 0.726640 0.172099
O O12 0.208278 0.000000 0.100653
O O13 0.234340 0.742446 0.000000
O O14 0.500000 0.762096 0.887730
O O15 0.574249 0.500000 0.902977
O O16 0.621541 0.766406 0.827827
O O17 0.592684 0.766335 0.000000
O O18 0.000000 0.821178 0.500000
O O19 0.897193 0.000000 0.500000
O O20 0.306474 0.000000 0.238143
#
# Coordination Sequence:
#
# PCOD9385636 Si02
#       7
#     8   8   8   8   8   4   8
#     4  10  21  38  57  78 106 143 188 234 280 338
#     4  11  21  35  53  73  99 132 175 229 285 340
#     4  10  20  34  51  71  99 138 184 231 281 337
#     4   9  18  32  50  76 108 141 182 230 278 329
#     4   9  19  37  61  90 125 163 197 226 263 319
#     4  11  23  35  49  71  99 131 170 221 284 353
#     4  11  21  34  57  87 119 151 183 231 286 333
#
# _framework density 20.853238000000001
#
# number of rings (size 3 to 8) (size 9 to 14) (size 15 to 20)
#    0.000    1.923    2.308    2.538    0.000    5.231 
#    0.000    2.308    0.000    1.846    0.000    4.308 
#    0.000    0.000    0.000    0.000    0.000    0.000 
#
# Total GULP energy -290098.259492 kJ/mol
# GULP energy per Si atom -5578.812683 kJ/mol
# Density = 2.080578 g / cm^3
# Si number density = 20.853238 Si / 1000 Ang^3
#
#
#
# Elastic Constant Matrix: (Units=GPa)
#
#
# Indices 1 2 3 4 5 6 
#
# 1 93.7736 4.2521 49.2059 0.0000 0.0000 0.0000
# 2 4.2521 42.7166 -0.0172 0.0000 0.0000 0.0000
# 3 49.2059 -0.0172 117.7204 0.0000 0.0000 0.0000
# 4 0.0000 0.0000 0.0000 21.6690 0.0000 0.0000
# 5 0.0000 0.0000 0.0000 0.0000 29.6518 0.0000
# 6 0.0000 0.0000 0.0000 0.0000 0.0000 16.4051
#
#
#
# Elastic Compliance Matrix: (Units=1/GPa)
#
#
# Indices 1 2 3 4 5 6 
#
# 1 0.013740 -0.001370 -0.005743 0.000000 0.000000 0.000000
# 2 -0.001370 0.023547 0.000576 0.000000 0.000000 0.000000
# 3 -0.005743 0.000576 0.010895 0.000000 0.000000 0.000000
# 4 0.000000 0.000000 0.000000 0.046149 0.000000 0.000000
# 5 0.000000 0.000000 0.000000 0.000000 0.033725 0.000000
# 6 0.000000 0.000000 0.000000 0.000000 0.000000 0.060957
#
#
# Mechanical properties :
#
#
# Convention : Reuss Voigt Hill
#
# Bulk Modulus (GPa) = 28.48393 40.12137 34.30265
# Shear Modulus (GPa) = 23.38754 26.92983 25.15868
#
# Velocity S-wave (km/s) = 3.35256 3.59750 3.47719
# Velocity P-wave (km/s) = 5.35491 6.04464 5.71020
#
# Compressibility (1/GPa) = 0.03510751
#
# Stress axis : x y z
#
# Youngs Moduli (GPa) = 72.78128 42.46875 91.78164
#
# Poissons Ratio (x) = 0.05818 0.52713
# Poissons Ratio (y) = 0.09971 -0.05287
# Poissons Ratio (z) = 0.41800 -0.02447
#
# Static dielectric constant tensor:
#      x y z
#    x 1.770400 0.000000 0.000000 
#    y 0.000000 1.805420 0.000000 
#    z 0.000000 0.000000 1.759300 
# 
# From -- ./inp_files/25039.got.cif
#   From: 2010.05.17/outbox.cif.g08.bks.cpg/sg47_13_cif.got.tgz:25039.got - 2010.06.03 20:15:42.
