data_PCOD9385277
_publ_section_title
;
Structure prediction by ZEFSAII (Michael W. Deem and Ramdas Pophale) SiO2 
 PCOD9385277
Probable space group: P M M M
;
_chemical_formula_sum "Si O2"
_cell_formula_units_Z 56
_cell_length_a 7.459348
_cell_length_b 15.774779
_cell_length_c 21.340694
_cell_angle_alpha 90.000000
_cell_angle_beta 90.000000
_cell_angle_gamma 90.000000
_cell_volume 2511.150205
_symmetry_space_group_name_H-M "P M M M"
_symmetry_group_IT_number 47
_symmetry_cell_setting 'orthorhombic'
loop_
_space_group_symop_operation_xyz
x,y,z
-x,-y,z
x,-y,-z
-x,y,-z
-x,-y,-z
x,y,-z
-x,y,z
x,-y,z
loop_
_atom_site_type_symbol
_atom_site_label
_atom_site_fract_x
_atom_site_fract_y
_atom_site_fract_z
Si Si1 0.783728 0.091072 0.896948
Si Si2 0.288827 0.282019 0.932384
Si Si3 0.783060 0.854539 0.760146
Si Si4 0.783581 0.907551 0.622371
Si Si5 0.706668 0.334437 0.201059
Si Si6 0.719310 0.405885 0.672449
Si Si7 0.288438 0.274718 0.431067
O O1 0.723590 0.179794 0.925998
O O2 0.734112 0.096418 0.823398
O O3 0.000000 0.092028 0.901383
O O4 0.721949 0.000000 0.922378
O O5 0.500000 0.301943 0.932992
O O6 0.212991 0.323132 0.868530
O O7 0.212392 0.306913 0.000000
O O8 0.725124 0.894041 0.694585
O O9 0.711113 0.759898 0.769342
O O10 0.000000 0.850024 0.759063
O O11 0.729872 0.824490 0.584516
O O12 0.000000 0.908537 0.622257
O O13 0.722299 0.000000 0.599671
O O14 0.500000 0.360808 0.192463
O O15 0.784737 0.391258 0.256433
O O16 0.500000 0.400697 0.675255
O O17 0.765820 0.500000 0.650375
O O18 0.783632 0.332960 0.625168
O O19 0.212775 0.292603 0.500000
O O20 0.500000 0.293200 0.433513
#
# Coordination Sequence:
#
# PCOD9385277 Si02
#       7
#     8   8   8   8   8   8   8
#     4   9  17  28  42  62  89 120 158 204 247 286
#     4   9  18  30  43  62  90 125 160 194 238 289
#     4   9  16  28  47  69  94 124 160 203 248 287
#     4  10  20  33  51  74 101 136 174 208 246 293
#     4   9  16  29  50  71  94 124 159 198 240 287
#     4   9  17  31  54  81 103 125 159 203 250 300
#     4  10  21  36  53  75 104 134 165 205 249 291
#
# _framework density 22.300536999999998
#
# number of rings (size 3 to 8) (size 9 to 14) (size 15 to 20)
#    0.000    2.714    1.429    0.429    0.000    3.714 
#    0.000    4.286    0.000    4.714    0.000    4.000 
#    0.000    0.000    0.000    7.143    0.000    7.429 
#
# Total GULP energy -312421.861456 kJ/mol
# GULP energy per Si atom -5578.961812 kJ/mol
# Density = 2.224978 g / cm^3
# Si number density = 22.300537 Si / 1000 Ang^3
#
#
#
# Elastic Constant Matrix: (Units=GPa)
#
#
# Indices 1 2 3 4 5 6 
#
# 1 64.3578 -3.3853 8.6729 0.0000 0.0000 0.0000
# 2 -3.3853 82.5933 53.7424 0.0000 0.0000 0.0000
# 3 8.6729 53.7424 161.4379 0.0000 0.0000 0.0000
# 4 0.0000 0.0000 0.0000 -18.6572 0.0000 0.0000
# 5 0.0000 0.0000 0.0000 0.0000 0.4570 0.0000
# 6 0.0000 0.0000 0.0000 0.0000 0.0000 15.6578
#
#
#
# Elastic Compliance Matrix: (Units=1/GPa)
#
#
# Indices 1 2 3 4 5 6 
#
# 1 0.015802 0.001532 -0.001359 0.000000 0.000000 0.000000
# 2 0.001532 0.015604 -0.005277 0.000000 0.000000 0.000000
# 3 -0.001359 -0.005277 0.008024 0.000000 0.000000 0.000000
# 4 0.000000 0.000000 0.000000 -0.053598 0.000000 0.000000
# 5 0.000000 0.000000 0.000000 0.000000 2.188088 0.000000
# 6 0.000000 0.000000 0.000000 0.000000 0.000000 0.063866
#
#
# Mechanical properties :
#
#
# Convention : Reuss Voigt Hill
#
# Bulk Modulus (GPa) = 34.22072 47.38325 40.80198
# Shear Modulus (GPa) = 2.21461 16.11544 9.16503
#
# Velocity S-wave (km/s) = 0.99761 2.69113 2.02946
# Velocity P-wave (km/s) = 4.08724 5.56327 4.88137
#
# Compressibility (1/GPa) = 0.02922207
#
# Stress axis : x y z
#
# Youngs Moduli (GPa) = 63.28381 64.08674 124.62656
#
# Poissons Ratio (x) = -0.09817 0.16935
# Poissons Ratio (y) = -0.09694 0.65763
# Poissons Ratio (z) = 0.08600 0.33817
#
# Static dielectric constant tensor:
#      x y z
#    x 1.877920 0.000000 0.000000 
#    y 0.000000 1.791130 0.000000 
#    z 0.000000 0.000000 1.848740 
# 
# From -- ./inp_files/7316.got.cif
#   From: 2010.05.17/outbox.cif.g08.bks.cpg/sg47_4_cif.got.tgz:7316.got - 2010.06.03 20:15:42.
