data_PCOD9385003
_publ_section_title
;
Structure prediction by ZEFSAII (Michael W. Deem and Ramdas Pophale) SiO2 
 PCOD9385003
Probable space group: P M M M
;
_chemical_formula_sum "Si O2"
_cell_formula_units_Z 52
_cell_length_a 14.731042
_cell_length_b 24.494682
_cell_length_c 7.815288
_cell_angle_alpha 90.000000
_cell_angle_beta 90.000000
_cell_angle_gamma 90.000000
_cell_volume 2820.007479
_symmetry_space_group_name_H-M "P M M M"
_symmetry_group_IT_number 47
_symmetry_cell_setting 'orthorhombic'
loop_
_space_group_symop_operation_xyz
x,y,z
-x,-y,z
x,-y,-z
-x,y,-z
-x,-y,-z
x,y,-z
-x,y,z
x,-y,z
loop_
_atom_site_type_symbol
_atom_site_label
_atom_site_fract_x
_atom_site_fract_y
_atom_site_fract_z
Si Si1 0.706764 0.940664 0.797092
Si Si2 0.605390 0.167572 0.209674
Si Si3 0.397240 0.381998 0.295368
Si Si4 0.709846 0.275035 0.798527
Si Si5 0.899036 0.770328 0.293723
Si Si6 0.389505 0.500000 0.697306
Si Si7 0.101761 0.103232 0.292977
O O1 0.654368 0.887654 0.728455
O O2 0.814050 0.931143 0.772852
O O3 0.680970 0.000000 0.725235
O O4 0.688257 0.941941 0.000000
O O5 0.500000 0.168933 0.257685
O O6 0.657575 0.221603 0.272082
O O7 0.609593 0.167476 0.000000
O O8 0.404172 0.388982 0.500000
O O9 0.500000 0.370390 0.231394
O O10 0.331982 0.331331 0.265447
O O11 0.365003 0.441063 0.225525
O O12 0.816027 0.266384 0.764725
O O13 0.694623 0.274742 0.000000
O O14 0.899193 0.770749 0.500000
O O15 0.884764 0.833450 0.238855
O O16 0.000000 0.753674 0.236211
O O17 0.500000 0.500000 0.694321
O O18 0.356890 0.500000 0.500000
O O19 0.103701 0.101738 0.500000
O O20 0.000000 0.086340 0.239530
#
# Coordination Sequence:
#
# PCOD9385003 Si02
#       7
#     8   8   8   8   8   4   8
#     4  10  20  33  49  69  91 119 159 201 239 283
#     4   9  18  32  47  65  92 124 157 195 237 280
#     4   9  17  30  49  73 102 137 174 207 238 276
#     4  11  20  30  48  74 103 131 158 196 246 296
#     4   9  18  33  52  72  94 122 158 199 241 290
#     4   7  12  26  47  69  96 133 174 209 237 270
#     4   9  18  33  52  71  92 119 149 187 240 297
#
# _framework density 18.439667
#
# number of rings (size 3 to 8) (size 9 to 14) (size 15 to 20)
#    0.000    2.692    1.538    2.769    0.000    2.462 
#    0.000    5.000    0.000    2.769    0.000    1.615 
#    0.000    4.308    0.000    0.000    0.000    0.000 
#
# Total GULP energy -289935.861628 kJ/mol
# GULP energy per Si atom -5575.689647 kJ/mol
# Density = 1.839770 g / cm^3
# Si number density = 18.439667 Si / 1000 Ang^3
#
#
#
# Elastic Constant Matrix: (Units=GPa)
#
#
# Indices 1 2 3 4 5 6 
#
# 1 94.8187 75.6212 -3.2871 0.0000 0.0000 0.0000
# 2 75.6212 164.9924 9.7853 0.0000 0.0000 0.0000
# 3 -3.2871 9.7853 20.9396 0.0000 0.0000 0.0000
# 4 0.0000 0.0000 0.0000 4.0186 0.0000 0.0000
# 5 0.0000 0.0000 0.0000 0.0000 11.6033 0.0000
# 6 0.0000 0.0000 0.0000 0.0000 0.0000 20.7636
#
#
#
# Elastic Compliance Matrix: (Units=1/GPa)
#
#
# Indices 1 2 3 4 5 6 
#
# 1 0.017485 -0.008410 0.006675 0.000000 0.000000 0.000000
# 2 -0.008410 0.010279 -0.006123 0.000000 0.000000 0.000000
# 3 0.006675 -0.006123 0.051666 0.000000 0.000000 0.000000
# 4 0.000000 0.000000 0.000000 0.248841 0.000000 0.000000
# 5 0.000000 0.000000 0.000000 0.000000 0.086183 0.000000
# 6 0.000000 0.000000 0.000000 0.000000 0.000000 0.048161
#
#
# Mechanical properties :
#
#
# Convention : Reuss Voigt Hill
#
# Bulk Modulus (GPa) = 15.69551 49.44328 32.56940
# Shear Modulus (GPa) = 10.00863 20.51919 15.26391
#
# Velocity S-wave (km/s) = 2.33229 3.33945 2.88023
# Velocity P-wave (km/s) = 3.97279 6.46072 5.36302
#
# Compressibility (1/GPa) = 0.06371247
#
# Stress axis : x y z
#
# Youngs Moduli (GPa) = 57.19218 97.29034 19.35513
#
# Poissons Ratio (x) = 0.81819 -0.12919
# Poissons Ratio (y) = 0.48097 0.11852
# Poissons Ratio (z) = -0.38175 0.59575
#
# Static dielectric constant tensor:
#      x y z
#    x 1.621560 0.000000 0.000000 
#    y 0.000000 1.668490 0.000000 
#    z 0.000000 0.000000 1.684250 
# 
# From -- ./inp_files/7643.got.cif
#   From: 2010.05.17/outbox.cif.g08.bks.cpg/sg47_4_cif.got.tgz:7643.got - 2010.06.03 20:15:42.
