data_PCOD9385619
_publ_section_title
;
Structure prediction by ZEFSAII (Michael W. Deem and Ramdas Pophale) SiO2 
 PCOD9385619
Probable space group: P M M M
;
_chemical_formula_sum "Si O2"
_cell_formula_units_Z 52
_cell_length_a 8.981589
_cell_length_b 14.001186
_cell_length_c 24.334675
_cell_angle_alpha 90.000000
_cell_angle_beta 90.000000
_cell_angle_gamma 90.000000
_cell_volume 3060.155907
_symmetry_space_group_name_H-M "P M M M"
_symmetry_group_IT_number 47
_symmetry_cell_setting 'orthorhombic'
loop_
_space_group_symop_operation_xyz
x,y,z
-x,-y,z
x,-y,-z
-x,y,-z
-x,-y,-z
x,y,-z
-x,y,z
x,-y,z
loop_
_atom_site_type_symbol
_atom_site_label
_atom_site_fract_x
_atom_site_fract_y
_atom_site_fract_z
Si Si1 0.679242 0.390074 0.562707
Si Si2 0.323632 0.215314 0.835457
Si Si3 0.824248 0.609704 0.774781
Si Si4 0.330206 0.500000 0.066505
Si Si5 0.821117 0.109149 0.263067
Si Si6 0.177460 0.299093 0.935442
Si Si7 0.175473 0.714213 0.337523
O O1 0.724807 0.367252 0.500000
O O2 0.500000 0.388277 0.564441
O O3 0.726064 0.500000 0.574205
O O4 0.742152 0.319285 0.608151
O O5 0.500000 0.206686 0.838920
O O6 0.275367 0.315286 0.807154
O O7 0.255204 0.137067 0.794393
O O8 0.250749 0.221512 0.895566
O O9 0.788246 0.500000 0.786009
O O10 0.806294 0.635067 0.710459
O O11 0.000000 0.626063 0.787902
O O12 0.500000 0.500000 0.087672
O O13 0.243290 0.596804 0.080453
O O14 0.338076 0.500000 0.000000
O O15 0.774433 0.186530 0.309042
O O16 0.000000 0.120269 0.256404
O O17 0.789333 0.000000 0.278140
O O18 0.000000 0.300640 0.928537
O O19 0.210567 0.283499 0.000000
O O20 0.000000 0.722603 0.349189
#
# Coordination Sequence:
#
# PCOD9385619 Si02
#       7
#     8   8   8   4   8   8   8
#     4   9  18  31  46  68 103 146 182 207 238 286
#     4  11  22  33  49  75 104 129 160 206 255 302
#     4   9  18  32  48  67  97 135 170 205 246 297
#     4   9  17  29  45  67  95 127 165 207 246 283
#     4   9  19  38  60  77  97 127 163 205 256 314
#     4  10  20  34  51  69  94 133 175 207 242 296
#     4   9  17  30  50  76  99 123 164 212 255 294
#
# _framework density 16.992598000000001
#
# number of rings (size 3 to 8) (size 9 to 14) (size 15 to 20)
#    0.000    2.538    0.000    3.923    1.077    6.154 
#    0.000    0.769    0.000    0.923    0.000    6.462 
#    0.000    0.000    0.000    0.000    0.000    0.000 
#
# Total GULP energy -290049.060577 kJ/mol
# GULP energy per Si atom -5577.866550 kJ/mol
# Density = 1.695392 g / cm^3
# Si number density = 16.992598 Si / 1000 Ang^3
#
#
#
# Elastic Constant Matrix: (Units=GPa)
#
#
# Indices 1 2 3 4 5 6 
#
# 1 52.7314 22.6448 40.8736 0.0000 0.0000 0.0000
# 2 22.6448 71.0120 40.7087 0.0000 0.0000 0.0000
# 3 40.8736 40.7087 110.0438 0.0000 0.0000 0.0000
# 4 0.0000 0.0000 0.0000 19.0125 0.0000 0.0000
# 5 0.0000 0.0000 0.0000 0.0000 23.7660 0.0000
# 6 0.0000 0.0000 0.0000 0.0000 0.0000 12.4314
#
#
#
# Elastic Compliance Matrix: (Units=1/GPa)
#
#
# Indices 1 2 3 4 5 6 
#
# 1 0.027369 -0.003680 -0.008804 0.000000 0.000000 0.000000
# 2 -0.003680 0.018367 -0.005428 0.000000 0.000000 0.000000
# 3 -0.008804 -0.005428 0.014365 0.000000 0.000000 0.000000
# 4 0.000000 0.000000 0.000000 0.052597 0.000000 0.000000
# 5 0.000000 0.000000 0.000000 0.000000 0.042077 0.000000
# 6 0.000000 0.000000 0.000000 0.000000 0.000000 0.080442
#
#
# Mechanical properties :
#
#
# Convention : Reuss Voigt Hill
#
# Bulk Modulus (GPa) = 41.19123 49.13793 45.16458
# Shear Modulus (GPa) = 17.91259 19.67933 18.79596
#
# Velocity S-wave (km/s) = 3.25028 3.40680 3.32946
# Velocity P-wave (km/s) = 6.19508 6.66746 6.43561
#
# Compressibility (1/GPa) = 0.02427701
#
# Stress axis : x y z
#
# Youngs Moduli (GPa) = 36.53784 54.44485 69.61253
#
# Poissons Ratio (x) = 0.20038 0.61288
# Poissons Ratio (y) = 0.13448 0.37783
# Poissons Ratio (z) = 0.32168 0.29550
#
# Static dielectric constant tensor:
#      x y z
#    x 1.572400 0.000000 0.000000 
#    y 0.000000 1.565970 0.000000 
#    z 0.000000 0.000000 1.590310 
# 
# From -- ./inp_files/31960.got.cif
#   From: 2010.05.17/outbox.cif.g08.bks.cpg/sg47_16_cif.got.tgz:31960.got - 2010.06.03 20:15:42.
