data_PCOD9385085
_publ_section_title
;
Structure prediction by ZEFSAII (Michael W. Deem and Ramdas Pophale) SiO2 
 PCOD9385085
Probable space group: P M M M
;
_chemical_formula_sum "Si O2"
_cell_formula_units_Z 44
_cell_length_a 13.818538
_cell_length_b 9.962538
_cell_length_c 19.920145
_cell_angle_alpha 90.000000
_cell_angle_beta 90.000000
_cell_angle_gamma 90.000000
_cell_volume 2742.360744
_symmetry_space_group_name_H-M "P M M M"
_symmetry_group_IT_number 47
_symmetry_cell_setting 'orthorhombic'
loop_
_space_group_symop_operation_xyz
x,y,z
-x,-y,z
x,-y,-z
-x,y,-z
-x,-y,-z
x,y,-z
-x,y,z
x,-y,z
loop_
_atom_site_type_symbol
_atom_site_label
_atom_site_fract_x
_atom_site_fract_y
_atom_site_fract_z
Si Si1 0.115898 0.845984 0.500000
Si Si2 0.307531 0.748584 0.663359
Si Si3 0.383641 0.845950 0.804296
Si Si4 0.382254 0.654101 0.923561
Si Si5 0.886972 0.659945 0.372188
Si Si6 0.384103 0.500000 0.577497
Si Si7 0.383799 0.000000 0.580931
O O1 0.137390 0.752625 0.563608
O O2 0.000000 0.859830 0.500000
O O3 0.154487 0.000000 0.500000
O O4 0.357231 0.776169 0.734321
O O5 0.195356 0.712071 0.677736
O O6 0.349016 0.626367 0.619972
O O7 0.332066 0.874621 0.615954
O O8 0.500000 0.850905 0.808452
O O9 0.348521 0.758419 0.867477
O O10 0.348108 0.000000 0.804761
O O11 0.500000 0.655917 0.922896
O O12 0.353599 0.500000 0.908794
O O13 0.352738 0.687057 0.000000
O O14 0.875917 0.500000 0.385555
O O15 0.000000 0.681187 0.354444
O O16 0.500000 0.500000 0.574685
O O17 0.348404 0.500000 0.500000
O O18 0.500000 0.000000 0.596433
O O19 0.376083 0.000000 0.500000
#
# Coordination Sequence:
#
# PCOD9385085 Si02
#       7
#     4   8   8   8   8   4   4
#     4   9  19  33  53  75  92 115 154 205 262 321
#     4  12  23  36  55  75  97 134 175 219 267 316
#     4  10  20  33  49  72 104 138 170 206 251 306
#     4   8  15  28  47  72 101 134 171 207 242 285
#     4  10  22  38  53  72  99 128 163 213 270 323
#     4  11  24  38  51  71  98 130 179 226 259 307
#     4  11  24  40  55  71 100 138 175 218 267 309
#
# _framework density 16.04457
#
# number of rings (size 3 to 8) (size 9 to 14) (size 15 to 20)
#    0.000    1.909    1.818    3.000    5.091    2.909 
#    0.000    1.818    0.000    0.000    0.000    0.000 
#    0.000    0.727    0.000    5.636    0.000    1.818 
#
# Total GULP energy -245180.735775 kJ/mol
# GULP energy per Si atom -5572.289449 kJ/mol
# Density = 1.600805 g / cm^3
# Si number density = 16.044570 Si / 1000 Ang^3
#
#
#
# Elastic Constant Matrix: (Units=GPa)
#
#
# Indices 1 2 3 4 5 6 
#
# 1 63.5591 28.4207 12.4433 0.0000 0.0000 0.0000
# 2 28.4207 140.4696 69.3160 0.0000 0.0000 0.0000
# 3 12.4433 69.3160 111.9668 0.0000 0.0000 0.0000
# 4 0.0000 0.0000 0.0000 19.5679 0.0000 0.0000
# 5 0.0000 0.0000 0.0000 0.0000 2.5455 0.0000
# 6 0.0000 0.0000 0.0000 0.0000 0.0000 20.6259
#
#
#
# Elastic Compliance Matrix: (Units=1/GPa)
#
#
# Indices 1 2 3 4 5 6 
#
# 1 0.017308 -0.003676 0.000352 0.000000 0.000000 0.000000
# 2 -0.003676 0.011031 -0.006420 0.000000 0.000000 0.000000
# 3 0.000352 -0.006420 0.012867 0.000000 0.000000 0.000000
# 4 0.000000 0.000000 0.000000 0.051104 0.000000 0.000000
# 5 0.000000 0.000000 0.000000 0.000000 0.392851 0.000000
# 6 0.000000 0.000000 0.000000 0.000000 0.000000 0.048483
#
#
# Mechanical properties :
#
#
# Convention : Reuss Voigt Hill
#
# Bulk Modulus (GPa) = 46.04560 59.59506 52.82033
# Shear Modulus (GPa) = 8.92265 22.26890 15.59578
#
# Velocity S-wave (km/s) = 2.36077 3.72955 3.12112
# Velocity P-wave (km/s) = 6.01597 7.46794 6.78093
#
# Compressibility (1/GPa) = 0.02171760
#
# Stress axis : x y z
#
# Youngs Moduli (GPa) = 57.77670 90.65461 77.71899
#
# Poissons Ratio (x) = 0.33320 -0.02735
# Poissons Ratio (y) = 0.21236 0.49899
# Poissons Ratio (z) = -0.02033 0.58205
#
# Static dielectric constant tensor:
#      x y z
#    x 1.567010 0.000000 0.000000 
#    y 0.000000 2.004320 0.000000 
#    z 0.000000 0.000000 1.532190 
# 
# From -- ./inp_files/24361.got.cif
#   From: 2010.05.17/outbox.cif.g08.bks.cpg/sg47_13_cif.got.tgz:24361.got - 2010.06.03 20:15:42.
