data_PCOD9385162
_publ_section_title
;
Structure prediction by ZEFSAII (Michael W. Deem and Ramdas Pophale) SiO2 
 PCOD9385162
Probable space group: P M M M
;
_chemical_formula_sum "Si O2"
_cell_formula_units_Z 44
_cell_length_a 9.364413
_cell_length_b 30.989683
_cell_length_c 7.718357
_cell_angle_alpha 90.000000
_cell_angle_beta 90.000000
_cell_angle_gamma 90.000000
_cell_volume 2239.868671
_symmetry_space_group_name_H-M "P M M M"
_symmetry_group_IT_number 47
_symmetry_cell_setting 'orthorhombic'
loop_
_space_group_symop_operation_xyz
x,y,z
-x,-y,z
x,-y,-z
-x,y,-z
-x,-y,-z
x,y,-z
-x,y,z
x,-y,z
loop_
_atom_site_type_symbol
_atom_site_label
_atom_site_fract_x
_atom_site_fract_y
_atom_site_fract_z
Si Si1 0.826266 0.549129 0.500000
Si Si2 0.163179 0.783580 0.209325
Si Si3 0.336540 0.697396 0.293953
Si Si4 0.335994 0.132137 0.212164
Si Si5 0.832155 0.387309 0.804497
Si Si6 0.165265 0.048278 0.788659
O O1 0.774011 0.500000 0.500000
O O2 0.784116 0.576919 0.332645
O O3 0.000000 0.547289 0.500000
O O4 0.250719 0.741112 0.258039
O O5 0.244022 0.826696 0.269142
O O6 0.000000 0.781728 0.272027
O O7 0.158758 0.785345 0.000000
O O8 0.338454 0.690459 0.500000
O O9 0.500000 0.701110 0.232247
O O10 0.256558 0.656475 0.213794
O O11 0.500000 0.135684 0.267005
O O12 0.264027 0.087424 0.269591
O O13 0.334728 0.132057 0.000000
O O14 0.000000 0.377435 0.770388
O O15 0.820907 0.403786 0.000000
O O16 0.000000 0.055222 0.738181
O O17 0.208514 0.000000 0.733311
O O18 0.167717 0.048379 0.000000
#
# Coordination Sequence:
#
# PCOD9385162 Si02
#       6
#     4   8   8   8   8   8
#     4   9  18  34  57  87 123 157 191 239 288 327
#     4  10  20  33  50  72  98 131 171 213 262 322
#     4  11  23  37  54  77 106 140 178 222 274 329
#     4   9  16  25  38  58  87 122 160 206 259 316
#     4  10  20  35  58  86 115 151 193 234 281 336
#     4   8  13  21  33  50  76 114 159 205 255 313
#
# _framework density 19.644007999999999
#
# number of rings (size 3 to 8) (size 9 to 14) (size 15 to 20)
#    0.000    2.455    0.909    2.727    0.000    7.636 
#    0.000    3.636    0.000    1.091    0.000    1.273 
#    0.000    0.727    0.000    7.636    0.000   10.545 
#
# Total GULP energy -245693.061455 kJ/mol
# GULP energy per Si atom -5583.933215 kJ/mol
# Density = 1.959930 g / cm^3
# Si number density = 19.644008 Si / 1000 Ang^3
#
#
#
# Elastic Constant Matrix: (Units=GPa)
#
#
# Indices 1 2 3 4 5 6 
#
# 1 131.1862 94.7221 32.6868 0.0000 0.0000 0.0000
# 2 94.7221 184.2246 39.2670 0.0000 0.0000 0.0000
# 3 32.6868 39.2670 56.6494 0.0000 0.0000 0.0000
# 4 0.0000 0.0000 0.0000 22.0304 0.0000 0.0000
# 5 0.0000 0.0000 0.0000 0.0000 11.3479 0.0000
# 6 0.0000 0.0000 0.0000 0.0000 0.0000 -16.1229
#
#
#
# Elastic Compliance Matrix: (Units=1/GPa)
#
#
# Indices 1 2 3 4 5 6 
#
# 1 0.012619 -0.005792 -0.003266 0.000000 0.000000 0.000000
# 2 -0.005792 0.009028 -0.002916 0.000000 0.000000 0.000000
# 3 -0.003266 -0.002916 0.021558 0.000000 0.000000 0.000000
# 4 0.000000 0.000000 0.000000 0.045392 0.000000 0.000000
# 5 0.000000 0.000000 0.000000 0.000000 0.088122 0.000000
# 6 0.000000 0.000000 0.000000 0.000000 0.000000 -0.062024
#
#
# Mechanical properties :
#
#
# Convention : Reuss Voigt Hill
#
# Bulk Modulus (GPa) = 51.92995 78.37914 65.15454
# Shear Modulus (GPa) = 34.46829 17.14337 25.80583
#
# Velocity S-wave (km/s) = 4.19339 2.95736 3.62840
# Velocity P-wave (km/s) = 7.06675 7.18663 7.12694
#
# Compressibility (1/GPa) = 0.01925671
#
# Stress axis : x y z
#
# Youngs Moduli (GPa) = 79.24844 110.77158 46.38634
#
# Poissons Ratio (x) = 0.64157 0.15151
# Poissons Ratio (y) = 0.45899 0.13525
# Poissons Ratio (z) = 0.25885 0.32297
#
# Static dielectric constant tensor:
#      x y z
#    x 1.666450 0.000000 0.000000 
#    y 0.000000 1.643700 0.000000 
#    z 0.000000 0.000000 1.748590 
# 
# From -- ./inp_files/2113.got.cif
#   From: 2010.05.17/outbox.cif.g08.bks.cpg/sg47_2_cif.got.tgz:2113.got - 2010.06.03 20:15:42.
