data_PCOD9385384
_publ_section_title
;
Structure prediction by ZEFSAII (Michael W. Deem and Ramdas Pophale) SiO2 
 PCOD9385384
Probable space group: P M M M
;
_chemical_formula_sum "Si O2"
_cell_formula_units_Z 44
_cell_length_a 17.765239
_cell_length_b 14.020916
_cell_length_c 8.358850
_cell_angle_alpha 90.000000
_cell_angle_beta 90.000000
_cell_angle_gamma 90.000000
_cell_volume 2082.063515
_symmetry_space_group_name_H-M "P M M M"
_symmetry_group_IT_number 47
_symmetry_cell_setting 'orthorhombic'
loop_
_space_group_symop_operation_xyz
x,y,z
-x,-y,z
x,-y,-z
-x,y,-z
-x,-y,-z
x,y,-z
-x,y,z
x,-y,z
loop_
_atom_site_type_symbol
_atom_site_label
_atom_site_fract_x
_atom_site_fract_y
_atom_site_fract_z
Si Si1 0.856104 0.231638 0.181079
Si Si2 0.582181 0.884252 0.184069
Si Si3 0.000000 0.887903 0.196348
Si Si4 0.417750 0.615849 0.687550
Si Si5 0.735786 0.113939 0.675160
Si Si6 0.748068 0.609167 0.692590
O O1 0.927471 0.173741 0.249288
O O2 0.789024 0.154949 0.190464
O O3 0.817288 0.323072 0.261544
O O4 0.875221 0.257744 0.000000
O O5 0.500000 0.855925 0.243006
O O6 0.650525 0.855361 0.294429
O O7 0.583150 0.000000 0.179911
O O8 0.591880 0.852923 0.000000
O O9 0.000000 0.000000 0.247625
O O10 0.000000 0.891021 0.000000
O O11 0.419184 0.643833 0.500000
O O12 0.500000 0.643293 0.758652
O O13 0.416195 0.500000 0.690547
O O14 0.334986 0.642724 0.754634
O O15 0.761246 0.147778 0.500000
O O16 0.738542 0.000000 0.677159
O O17 0.742103 0.607983 0.500000
O O18 0.760196 0.500000 0.746363
#
# Coordination Sequence:
#
# PCOD9385384 Si02
#       6
#     8   8   4   8   8   8
#     4  11  22  37  59  83 107 138 178 227 281 338
#     4   8  14  26  45  69  99 138 182 224 267 316
#     4   9  20  40  64  87 108 134 175 227 282 341
#     4   7  10  20  43  74 104 138 183 228 265 302
#     4  10  20  33  51  77 108 140 176 220 271 331
#     4   9  18  34  56  82 115 152 187 228 277 327
#
# _framework density 21.13288
#
# number of rings (size 3 to 8) (size 9 to 14) (size 15 to 20)
#    0.000    3.000    0.000    3.818    0.000    2.545 
#    0.000    5.000    0.000    9.818    0.000    2.545 
#    0.000    0.000    0.000    0.000    0.000    0.000 
#
# Total GULP energy -245141.817442 kJ/mol
# GULP energy per Si atom -5571.404942 kJ/mol
# Density = 2.108478 g / cm^3
# Si number density = 21.132880 Si / 1000 Ang^3
#
#
#
# Elastic Constant Matrix: (Units=GPa)
#
#
# Indices 1 2 3 4 5 6 
#
# 1 152.5913 57.2259 13.3595 0.0000 0.0000 0.0000
# 2 57.2259 127.5544 11.0958 0.0000 0.0000 0.0000
# 3 13.3595 11.0958 14.2723 0.0000 0.0000 0.0000
# 4 0.0000 0.0000 0.0000 21.0989 0.0000 0.0000
# 5 0.0000 0.0000 0.0000 0.0000 -11.2660 0.0000
# 6 0.0000 0.0000 0.0000 0.0000 0.0000 48.5940
#
#
#
# Elastic Compliance Matrix: (Units=1/GPa)
#
#
# Indices 1 2 3 4 5 6 
#
# 1 0.008221 -0.003238 -0.005178 0.000000 0.000000 0.000000
# 2 -0.003238 0.009684 -0.004498 0.000000 0.000000 0.000000
# 3 -0.005178 -0.004498 0.078409 0.000000 0.000000 0.000000
# 4 0.000000 0.000000 0.000000 0.047396 0.000000 0.000000
# 5 0.000000 0.000000 0.000000 0.000000 -0.088763 0.000000
# 6 0.000000 0.000000 0.000000 0.000000 0.000000 0.020579
#
#
# Mechanical properties :
#
#
# Convention : Reuss Voigt Hill
#
# Bulk Modulus (GPa) = 14.18703 50.86448 32.52576
# Shear Modulus (GPa) = 40.04858 25.86785 32.95821
#
# Velocity S-wave (km/s) = 4.35798 3.50245 3.95342
# Velocity P-wave (km/s) = 5.66131 6.36218 6.02195
#
# Compressibility (1/GPa) = 0.07048691
#
# Stress axis : x y z
#
# Youngs Moduli (GPa) = 121.63843 103.26661 12.75359
#
# Poissons Ratio (x) = 0.33436 0.06604
# Poissons Ratio (y) = 0.39385 0.05736
# Poissons Ratio (z) = 0.62985 0.46446
#
# Static dielectric constant tensor:
#      x y z
#    x 1.770740 0.000000 0.000000 
#    y 0.000000 1.822190 0.000000 
#    z 0.000000 0.000000 1.796130 
# 
# From -- ./inp_files/8972.got.cif
#   From: 2010.05.17/outbox.cif.g08.bks.cpg/sg47_5_cif.got.tgz:8972.got - 2010.06.03 20:15:42.
