data_PCOD9385840
_publ_section_title
;
Structure prediction by ZEFSAII (Michael W. Deem and Ramdas Pophale) SiO2 
 PCOD9385840
Probable space group: P M M M
;
_chemical_formula_sum "Si O2"
_cell_formula_units_Z 64
_cell_length_a 20.005168
_cell_length_b 20.029186
_cell_length_c 7.855510
_cell_angle_alpha 90.000000
_cell_angle_beta 90.000000
_cell_angle_gamma 90.000000
_cell_volume 3147.602549
_symmetry_space_group_name_H-M "P M M M"
_symmetry_group_IT_number 47
_symmetry_cell_setting 'orthorhombic'
loop_
_space_group_symop_operation_xyz
x,y,z
-x,-y,z
x,-y,-z
-x,y,-z
-x,-y,-z
x,y,-z
-x,y,z
x,-y,z
loop_
_atom_site_type_symbol
_atom_site_label
_atom_site_fract_x
_atom_site_fract_y
_atom_site_fract_z
Si Si1 0.816262 0.812948 0.304049
Si Si2 0.073017 0.423164 0.707554
Si Si3 0.197470 0.662477 0.293413
Si Si4 0.578350 0.075100 0.295831
Si Si5 0.329134 0.808964 0.805349
Si Si6 0.075929 0.924203 0.203758
Si Si7 0.672281 0.576017 0.204142
Si Si8 0.423416 0.310896 0.208430
O O1 0.834817 0.805143 0.500000
O O2 0.813751 0.737812 0.228644
O O3 0.738205 0.831450 0.287940
O O4 0.867879 0.868491 0.238890
O O5 0.074030 0.422561 0.500000
O O6 0.079804 0.500000 0.760001
O O7 0.134615 0.380310 0.767019
O O8 0.000000 0.398319 0.760953
O O9 0.198360 0.664872 0.500000
O O10 0.264344 0.623186 0.243113
O O11 0.586186 0.083336 0.500000
O O12 0.500000 0.081944 0.258003
O O13 0.620049 0.130200 0.201456
O O14 0.599182 0.000000 0.251715
O O15 0.370507 0.745688 0.733580
O O16 0.310834 0.793141 0.000000
O O17 0.000000 0.907445 0.265016
O O18 0.092282 0.000000 0.265774
O O19 0.072098 0.928148 0.000000
O O20 0.678485 0.500000 0.271127
O O21 0.606979 0.617615 0.260553
O O22 0.668294 0.571275 0.000000
O O23 0.500000 0.299951 0.264271
O O24 0.423895 0.307773 0.000000
#
# Coordination Sequence:
#
# PCOD9385840 Si02
#       8
#     8   8   8   8   8   8   8   8
#     4  11  23  36  55  84 115 148 188 232 280 331
#     4   8  14  26  46  72 100 132 172 215 258 306
#     4  10  20  34  53  77 108 145 183 226 273 327
#     4   9  19  36  56  79 110 145 178 219 275 336
#     4  11  21  35  56  79 109 148 187 235 283 330
#     4   9  20  41  66  89 115 150 191 232 277 331
#     4  10  20  34  54  79 107 142 182 228 285 343
#     4   9  18  33  53  78 106 138 180 230 284 338
#
# _framework density 20.332937000000001
#
# number of rings (size 3 to 8) (size 9 to 14) (size 15 to 20)
#    0.000    2.375    1.250    2.625    0.000    4.000 
#    0.000    3.750    0.000    1.500    0.000    2.625 
#    0.000    0.000    0.000    0.000    0.000    0.000 
#
# Total GULP energy -356864.791972 kJ/mol
# GULP energy per Si atom -5576.012375 kJ/mol
# Density = 2.028666 g / cm^3
# Si number density = 20.332937 Si / 1000 Ang^3
#
#
#
# Elastic Constant Matrix: (Units=GPa)
#
#
# Indices 1 2 3 4 5 6 
#
# 1 118.2790 83.7831 12.1788 0.0000 0.0000 0.0000
# 2 83.7831 134.4969 15.1801 0.0000 0.0000 0.0000
# 3 12.1788 15.1801 18.4781 0.0000 0.0000 0.0000
# 4 0.0000 0.0000 0.0000 13.0496 0.0000 0.0000
# 5 0.0000 0.0000 0.0000 0.0000 0.3298 0.0000
# 6 0.0000 0.0000 0.0000 0.0000 0.0000 44.0160
#
#
#
# Elastic Compliance Matrix: (Units=1/GPa)
#
#
# Indices 1 2 3 4 5 6 
#
# 1 0.015233 -0.009210 -0.002474 0.000000 0.000000 0.000000
# 2 -0.009210 0.013764 -0.005237 0.000000 0.000000 0.000000
# 3 -0.002474 -0.005237 0.060051 0.000000 0.000000 0.000000
# 4 0.000000 0.000000 0.000000 0.076631 0.000000 0.000000
# 5 0.000000 0.000000 0.000000 0.000000 3.032387 0.000000
# 6 0.000000 0.000000 0.000000 0.000000 0.000000 0.022719
#
#
# Mechanical properties :
#
#
# Convention : Reuss Voigt Hill
#
# Bulk Modulus (GPa) = 18.11392 54.83755 36.47573
# Shear Modulus (GPa) = 1.52764 22.15321 11.84042
#
# Velocity S-wave (km/s) = 0.86772 3.30437 2.41576
# Velocity P-wave (km/s) = 3.15150 6.44879 5.07537
#
# Compressibility (1/GPa) = 0.05520617
#
# Stress axis : x y z
#
# Youngs Moduli (GPa) = 65.64535 72.65575 16.65262
#
# Poissons Ratio (x) = 0.66918 0.04120
# Poissons Ratio (y) = 0.60461 0.08720
# Poissons Ratio (z) = 0.16239 0.38047
#
# Static dielectric constant tensor:
#      x y z
#    x 1.711760 0.000000 0.000000 
#    y 0.000000 1.732490 0.000000 
#    z 0.000000 0.000000 1.764360 
# 
# From -- ./inp_files/9944.got.cif
#   From: 2010.05.17/outbox.cif.g08.bks.cpg/sg47_5_cif.got.tgz:9944.got - 2010.06.03 20:15:42.
