data_PCOD9385942
_publ_section_title
;
Structure prediction by ZEFSAII (Michael W. Deem and Ramdas Pophale) SiO2 
 PCOD9385942
Probable space group: P M M M
;
_chemical_formula_sum "Si O2"
_cell_formula_units_Z 40
_cell_length_a 7.736848
_cell_length_b 26.645718
_cell_length_c 9.463770
_cell_angle_alpha 90.000000
_cell_angle_beta 90.000000
_cell_angle_gamma 90.000000
_cell_volume 1950.992810
_symmetry_space_group_name_H-M "P M M M"
_symmetry_group_IT_number 47
_symmetry_cell_setting 'orthorhombic'
loop_
_space_group_symop_operation_xyz
x,y,z
-x,-y,z
x,-y,-z
-x,y,-z
-x,-y,-z
x,y,-z
-x,y,z
x,-y,z
loop_
_atom_site_type_symbol
_atom_site_label
_atom_site_fract_x
_atom_site_fract_y
_atom_site_fract_z
Si Si1 0.789213 0.708275 0.336073
Si Si2 0.788107 0.804886 0.162702
Si Si3 0.293899 0.000000 0.161130
Si Si4 0.207154 0.901232 0.660837
Si Si5 0.295220 0.500000 0.156961
Si Si6 0.792531 0.596502 0.340047
O O1 0.739752 0.716685 0.500000
O O2 0.731197 0.753079 0.235552
O O3 0.732122 0.652054 0.294486
O O4 0.000000 0.708820 0.333118
O O5 0.729119 0.852207 0.255661
O O6 0.000000 0.805128 0.163127
O O7 0.733537 0.808927 0.000000
O O8 0.241514 0.049233 0.248084
O O9 0.500000 0.000000 0.152353
O O10 0.224481 0.000000 0.000000
O O11 0.274131 0.904933 0.500000
O O12 0.000000 0.896051 0.651036
O O13 0.500000 0.500000 0.145515
O O14 0.248330 0.449757 0.240686
O O15 0.217974 0.500000 0.000000
O O16 0.728549 0.587299 0.500000
O O17 0.000000 0.599508 0.347460
#
# Coordination Sequence:
#
# PCOD9385942 Si02
#       6
#     8   8   4   8   4   8
#     4   8  14  26  45  71 102 130 157 197 248 298
#     4   9  16  26  44  73 106 136 165 200 245 295
#     4  11  24  39  54  74 102 135 170 211 260 308
#     4  10  20  34  54  79 105 135 172 211 250 295
#     4  11  24  37  48  68 100 135 170 209 254 302
#     4   9  18  33  54  78 101 128 166 209 251 298
#
# _framework density 20.502382999999998
#
# number of rings (size 3 to 8) (size 9 to 14) (size 15 to 20)
#    0.000    2.600    0.000    3.600    0.000    8.800 
#    0.000    2.000    0.000    1.200    0.000    5.600 
#    0.000    0.000    0.000    0.000    0.000    0.000 
#
# Total GULP energy -223285.354854 kJ/mol
# GULP energy per Si atom -5582.133871 kJ/mol
# Density = 2.045572 g / cm^3
# Si number density = 20.502383 Si / 1000 Ang^3
#
#
#
# Elastic Constant Matrix: (Units=GPa)
#
#
# Indices 1 2 3 4 5 6 
#
# 1 29.6480 5.7488 8.2814 0.0000 0.0000 0.0000
# 2 5.7488 228.4039 153.9171 0.0000 0.0000 0.0000
# 3 8.2814 153.9171 200.0705 0.0000 0.0000 0.0000
# 4 0.0000 0.0000 0.0000 -12.8225 0.0000 0.0000
# 5 0.0000 0.0000 0.0000 0.0000 19.8218 0.0000
# 6 0.0000 0.0000 0.0000 0.0000 0.0000 -51.7738
#
#
#
# Elastic Compliance Matrix: (Units=1/GPa)
#
#
# Indices 1 2 3 4 5 6 
#
# 1 0.034128 0.000193 -0.001561 0.000000 0.000000 0.000000
# 2 0.000193 0.009093 -0.007003 0.000000 0.000000 0.000000
# 3 -0.001561 -0.007003 0.010450 0.000000 0.000000 0.000000
# 4 0.000000 0.000000 0.000000 -0.077988 0.000000 0.000000
# 5 0.000000 0.000000 0.000000 0.000000 0.050449 0.000000
# 6 0.000000 0.000000 0.000000 0.000000 0.000000 -0.019315
#
#
# Mechanical properties :
#
#
# Convention : Reuss Voigt Hill
#
# Bulk Modulus (GPa) = 27.07942 88.22411 57.65177
# Shear Modulus (GPa) = 139.39584 10.39012 74.89298
#
# Velocity S-wave (km/s) = 8.25455 2.25361 6.05047
# Velocity P-wave (km/s) = 10.20230 7.06373 8.77448
#
# Compressibility (1/GPa) = 0.03692841
#
# Stress axis : x y z
#
# Youngs Moduli (GPa) = 29.30171 109.98008 95.69031
#
# Poissons Ratio (x) = -0.02123 0.14938
# Poissons Ratio (y) = -0.00566 0.67012
# Poissons Ratio (z) = 0.04574 0.77019
#
# Static dielectric constant tensor:
#      x y z
#    x 1.755350 0.000000 0.000000 
#    y 0.000000 1.714020 0.000000 
#    z 0.000000 0.000000 1.722560 
# 
# From -- ./inp_files/1760.got.cif
#   From: 2010.05.17/outbox.cif.g08.bks.cpg/sg47_1_cif.got.tgz:1760.got - 2010.06.03 20:15:42.
