data_PCOD9385398
_publ_section_title
;
Structure prediction by ZEFSAII (Michael W. Deem and Ramdas Pophale) SiO2 
 PCOD9385398
Probable space group: P M M M
;
_chemical_formula_sum "Si O2"
_cell_formula_units_Z 44
_cell_length_a 8.618486
_cell_length_b 29.267223
_cell_length_c 9.390488
_cell_angle_alpha 90.000000
_cell_angle_beta 90.000000
_cell_angle_gamma 90.000000
_cell_volume 2368.648727
_symmetry_space_group_name_H-M "P M M M"
_symmetry_group_IT_number 47
_symmetry_cell_setting 'orthorhombic'
loop_
_space_group_symop_operation_xyz
x,y,z
-x,-y,z
x,-y,-z
-x,y,-z
-x,-y,-z
x,y,-z
-x,y,z
x,-y,z
loop_
_atom_site_type_symbol
_atom_site_label
_atom_site_fract_x
_atom_site_fract_y
_atom_site_fract_z
Si Si1 0.814577 0.096966 0.665835
Si Si2 0.687623 0.816834 0.164443
Si Si3 0.687411 0.637162 0.163609
Si Si4 0.679357 0.000000 0.327153
Si Si5 0.812874 0.551859 0.665253
Si Si6 0.689464 0.726752 0.335975
O O1 0.764123 0.102471 0.500000
O O2 0.747078 0.137728 0.759149
O O3 0.758783 0.047195 0.717854
O O4 0.000000 0.098278 0.668776
O O5 0.500000 0.817338 0.166453
O O6 0.738995 0.771999 0.251427
O O7 0.737545 0.814504 0.000000
O O8 0.500000 0.637490 0.164346
O O9 0.743925 0.590618 0.235361
O O10 0.740108 0.680905 0.255112
O O11 0.739139 0.640789 0.000000
O O12 0.500000 0.000000 0.284930
O O13 0.687771 0.000000 0.500000
O O14 0.768031 0.559784 0.500000
O O15 0.765587 0.500000 0.703612
O O16 0.000000 0.553627 0.671830
O O17 0.740369 0.727437 0.500000
O O18 0.500000 0.726658 0.336051
#
# Coordination Sequence:
#
# PCOD9385398 Si02
#       6
#     8   8   8   4   8   8
#     4  10  20  34  53  78 108 140 174 214 260 307
#     4  10  20  34  53  77 105 137 173 213 257 306
#     4  10  20  33  51  78 110 139 169 210 260 312
#     4   9  17  31  54  81 106 135 174 218 260 305
#     4   9  19  36  55  74  99 134 176 219 261 307
#     4   9  17  31  53  78 103 134 172 213 257 305
#
# _framework density 18.575991999999999
#
# number of rings (size 3 to 8) (size 9 to 14) (size 15 to 20)
#    0.000    2.455    0.000    3.000    0.000    7.636 
#    0.000    4.091    0.000    8.182    0.000    0.000 
#    0.000    0.000    0.000    0.000    0.000    0.000 
#
# Total GULP energy -245573.733222 kJ/mol
# GULP energy per Si atom -5581.221210 kJ/mol
# Density = 1.853371 g / cm^3
# Si number density = 18.575992 Si / 1000 Ang^3
#
#
#
# Elastic Constant Matrix: (Units=GPa)
#
#
# Indices 1 2 3 4 5 6 
#
# 1 9.1735 26.8276 27.3224 0.0000 0.0000 0.0000
# 2 26.8276 199.6440 126.2783 0.0000 0.0000 0.0000
# 3 27.3224 126.2783 158.1742 0.0000 0.0000 0.0000
# 4 0.0000 0.0000 0.0000 -13.1557 0.0000 0.0000
# 5 0.0000 0.0000 0.0000 0.0000 20.1099 0.0000
# 6 0.0000 0.0000 0.0000 0.0000 0.0000 -406.5017
#
#
#
# Elastic Compliance Matrix: (Units=1/GPa)
#
#
# Indices 1 2 3 4 5 6 
#
# 1 0.238123 -0.012083 -0.031486 0.000000 0.000000 0.000000
# 2 -0.012083 0.010731 -0.006480 0.000000 0.000000 0.000000
# 3 -0.031486 -0.006480 0.016935 0.000000 0.000000 0.000000
# 4 0.000000 0.000000 0.000000 -0.076013 0.000000 0.000000
# 5 0.000000 0.000000 0.000000 0.000000 0.049727 0.000000
# 6 0.000000 0.000000 0.000000 0.000000 0.000000 -0.002460
#
#
# Mechanical properties :
#
#
# Convention : Reuss Voigt Hill
#
# Bulk Modulus (GPa) = 6.03535 80.87201 43.45368
# Shear Modulus (GPa) = 12.74303 -67.47193 -27.36445
#
# Velocity S-wave (km/s) = 2.62199 -6.03332 -3.84227
# Velocity P-wave (km/s) = 3.52456 2.21457 1.93884
#
# Compressibility (1/GPa) = 0.16569040
#
# Stress axis : x y z
#
# Youngs Moduli (GPa) = 4.19951 93.18362 59.05093
#
# Poissons Ratio (x) = 1.12591 1.85929
# Poissons Ratio (y) = 0.05074 0.38267
# Poissons Ratio (z) = 0.13223 0.60386
#
# Static dielectric constant tensor:
#      x y z
#    x 1.631990 0.000000 0.000000 
#    y 0.000000 1.612750 0.000000 
#    z 0.000000 0.000000 1.628170 
# 
# From -- ./inp_files/2195.got.cif
#   From: 2010.05.17/outbox.cif.g08.bks.cpg/sg47_2_cif.got.tgz:2195.got - 2010.06.03 20:15:42.
