data_PCOD9385301
_publ_section_title
;
Structure prediction by ZEFSAII (Michael W. Deem and Ramdas Pophale) SiO2 
 PCOD9385301
Probable space group: P M M M
;
_chemical_formula_sum "Si O2"
_cell_formula_units_Z 64
_cell_length_a 20.832247
_cell_length_b 7.747277
_cell_length_c 19.369725
_cell_angle_alpha 90.000000
_cell_angle_beta 90.000000
_cell_angle_gamma 90.000000
_cell_volume 3126.141669
_symmetry_space_group_name_H-M "P M M M"
_symmetry_group_IT_number 47
_symmetry_cell_setting 'orthorhombic'
loop_
_space_group_symop_operation_xyz
x,y,z
-x,-y,z
x,-y,-z
-x,y,-z
-x,-y,-z
x,y,-z
-x,y,z
x,-y,z
loop_
_atom_site_type_symbol
_atom_site_label
_atom_site_fract_x
_atom_site_fract_y
_atom_site_fract_z
Si Si1 0.191928 0.294287 0.422200
Si Si2 0.426992 0.208278 0.077966
Si Si3 0.072478 0.293032 0.827751
Si Si4 0.426967 0.791611 0.578414
Si Si5 0.810240 0.288134 0.920629
Si Si6 0.072817 0.206042 0.670928
Si Si7 0.307392 0.706139 0.672208
Si Si8 0.308376 0.705762 0.171905
O O1 0.192561 0.223579 0.500000
O O2 0.201984 0.500000 0.427238
O O3 0.124466 0.267694 0.384103
O O4 0.249313 0.223271 0.374576
O O5 0.500000 0.265908 0.092261
O O6 0.375513 0.264571 0.133739
O O7 0.427539 0.000000 0.077157
O O8 0.409561 0.266364 0.000000
O O9 0.069612 0.500000 0.834942
O O10 0.125072 0.230494 0.881909
O O11 0.092283 0.256168 0.748854
O O12 0.000000 0.224629 0.837456
O O13 0.410817 0.734253 0.500000
O O14 0.500000 0.734603 0.593818
O O15 0.374200 0.734727 0.632917
O O16 0.427359 0.000000 0.577885
O O17 0.810062 0.500000 0.920731
O O18 0.749183 0.228117 0.876294
O O19 0.807044 0.232872 0.000000
O O20 0.000000 0.272368 0.659675
O O21 0.070789 0.000000 0.667552
O O22 0.297999 0.500000 0.677381
O O23 0.307362 0.775930 0.750199
O O24 0.298978 0.500000 0.176560
#
# Coordination Sequence:
#
# PCOD9385301 Si02
#       8
#     8   8   8   8   8   8   8   8
#     4  10  21  37  57  79 103 134 173 215 258 306
#     4   9  19  36  55  74  99 132 169 210 255 301
#     4   9  17  31  53  78 104 136 172 210 252 299
#     4   9  19  36  56  78 105 137 173 212 255 306
#     4   9  17  30  50  76 104 133 168 212 258 300
#     4  10  21  36  54  77 106 139 173 210 254 306
#     4  10  21  36  54  78 107 137 172 214 258 306
#     4  10  20  33  51  75 103 135 169 207 252 302
#
# _framework density 20.472519999999999
#
# number of rings (size 3 to 8) (size 9 to 14) (size 15 to 20)
#    0.000    2.500    0.000    2.625    0.000    7.000 
#    0.000    8.125    0.000    1.125    0.000    1.750 
#    0.000    0.000    0.000    0.000    0.000    0.000 
#
# Total GULP energy -357333.137929 kJ/mol
# GULP energy per Si atom -5583.330280 kJ/mol
# Density = 2.042592 g / cm^3
# Si number density = 20.472520 Si / 1000 Ang^3
#
#
#
# Elastic Constant Matrix: (Units=GPa)
#
#
# Indices 1 2 3 4 5 6 
#
# 1 131.1018 0.3655 135.5702 0.0000 0.0000 0.0000
# 2 0.3655 28.2450 6.8389 0.0000 0.0000 0.0000
# 3 135.5702 6.8389 223.5908 0.0000 0.0000 0.0000
# 4 0.0000 0.0000 0.0000 8.0690 0.0000 0.0000
# 5 0.0000 0.0000 0.0000 0.0000 38.9269 0.0000
# 6 0.0000 0.0000 0.0000 0.0000 0.0000 236.4441
#
#
#
# Elastic Compliance Matrix: (Units=1/GPa)
#
#
# Indices 1 2 3 4 5 6 
#
# 1 0.020665 0.002787 -0.012615 0.000000 0.000000 0.000000
# 2 0.002787 0.036044 -0.002792 0.000000 0.000000 0.000000
# 3 -0.012615 -0.002792 0.012207 0.000000 0.000000 0.000000
# 4 0.000000 0.000000 0.000000 0.123931 0.000000 0.000000
# 5 0.000000 0.000000 0.000000 0.000000 0.025689 0.000000
# 6 0.000000 0.000000 0.000000 0.000000 0.000000 0.004229
#
#
# Mechanical properties :
#
#
# Convention : Reuss Voigt Hill
#
# Bulk Modulus (GPa) = 22.89617 74.27631 48.58624
# Shear Modulus (GPa) = 19.04295 72.69886 45.87090
#
# Velocity S-wave (km/s) = 3.05318 5.96553 4.73864
# Velocity P-wave (km/s) = 4.86182 9.15477 7.32964
#
# Compressibility (1/GPa) = 0.04367543
#
# Stress axis : x y z
#
# Youngs Moduli (GPa) = 48.39132 27.74350 81.92193
#
# Poissons Ratio (x) = -0.07732 1.03345
# Poissons Ratio (y) = -0.13487 0.22875
# Poissons Ratio (z) = 0.61046 0.07747
#
# Static dielectric constant tensor:
#      x y z
#    x 1.704080 0.000000 0.000000 
#    y 0.000000 1.754490 0.000000 
#    z 0.000000 0.000000 1.704930 
# 
# From -- ./inp_files/11570.got.cif
#   From: 2010.05.17/outbox.cif.g08.bks.cpg/sg47_6_cif.got.tgz:11570.got - 2010.06.03 20:15:42.
