data_PCOD9385028
_publ_section_title
;
Structure prediction by ZEFSAII (Michael W. Deem and Ramdas Pophale) SiO2 
 PCOD9385028
Probable space group: P M M M
;
_chemical_formula_sum "Si O2"
_cell_formula_units_Z 40
_cell_length_a 16.667296
_cell_length_b 7.768594
_cell_length_c 15.542860
_cell_angle_alpha 90.000000
_cell_angle_beta 90.000000
_cell_angle_gamma 90.000000
_cell_volume 2012.512139
_symmetry_space_group_name_H-M "P M M M"
_symmetry_group_IT_number 47
_symmetry_cell_setting 'orthorhombic'
loop_
_space_group_symop_operation_xyz
x,y,z
-x,-y,z
x,-y,-z
-x,y,-z
-x,-y,-z
x,y,-z
-x,y,z
x,-y,z
loop_
_atom_site_type_symbol
_atom_site_label
_atom_site_fract_x
_atom_site_fract_y
_atom_site_fract_z
Si Si1 0.320514 0.793148 0.403840
Si Si2 0.327554 0.202766 0.910503
Si Si3 0.222671 0.206993 0.759791
Si Si4 0.092904 0.292746 0.097171
Si Si5 0.500000 0.706998 0.858578
Si Si6 0.500000 0.705592 0.660581
O O1 0.305971 0.725145 0.500000
O O2 0.254843 0.729676 0.333294
O O3 0.414256 0.760255 0.379488
O O4 0.312867 0.000000 0.406298
O O5 0.289577 0.277723 0.825456
O O6 0.421509 0.224018 0.903487
O O7 0.307835 0.000000 0.910934
O O8 0.298857 0.281150 0.000000
O O9 0.143356 0.242242 0.817679
O O10 0.225629 0.000000 0.752425
O O11 0.095601 0.500000 0.093960
O O12 0.000000 0.239849 0.107101
O O13 0.118543 0.230979 0.000000
O O14 0.500000 0.500000 0.861603
O O15 0.500000 0.765322 0.759514
O O16 0.500000 0.500000 0.658877
#
# Coordination Sequence:
#
# PCOD9385028 Si02
#       6
#     8   8   8   8   4   4
#     4  10  21  37  57  78 102 137 179 222 269 318
#     4  10  20  33  49  69  96 133 173 211 256 307
#     4  10  20  34  54  79 106 133 170 218 262 308
#     4   9  19  36  57  82 112 143 172 204 249 308
#     4  11  22  33  46  67  97 134 175 214 253 303
#     4  11  22  35  52  75 103 136 179 228 271 310
#
# _framework density 19.875657
#
# number of rings (size 3 to 8) (size 9 to 14) (size 15 to 20)
#    0.000    2.000    2.000    2.400    0.000    7.200 
#    0.000    1.000    0.000    0.600    0.000    4.200 
#    0.000    0.000    0.000    0.000    0.000    0.000 
#
# Total GULP energy -222778.942822 kJ/mol
# GULP energy per Si atom -5569.473571 kJ/mol
# Density = 1.983042 g / cm^3
# Si number density = 19.875657 Si / 1000 Ang^3
#
#
#
# Elastic Constant Matrix: (Units=GPa)
#
#
# Indices 1 2 3 4 5 6 
#
# 1 124.5172 -6.3737 77.3720 0.0000 0.0000 0.0000
# 2 -6.3737 32.4903 17.1725 0.0000 0.0000 0.0000
# 3 77.3720 17.1725 212.4866 0.0000 0.0000 0.0000
# 4 0.0000 0.0000 0.0000 7.7684 0.0000 0.0000
# 5 0.0000 0.0000 0.0000 0.0000 13.5413 0.0000
# 6 0.0000 0.0000 0.0000 0.0000 0.0000 28.1791
#
#
#
# Elastic Compliance Matrix: (Units=1/GPa)
#
#
# Indices 1 2 3 4 5 6 
#
# 1 0.010963 0.004451 -0.004352 0.000000 0.000000 0.000000
# 2 0.004451 0.033959 -0.004365 0.000000 0.000000 0.000000
# 3 -0.004352 -0.004365 0.006643 0.000000 0.000000 0.000000
# 4 0.000000 0.000000 0.000000 0.128726 0.000000 0.000000
# 5 0.000000 0.000000 0.000000 0.000000 0.073848 0.000000
# 6 0.000000 0.000000 0.000000 0.000000 0.000000 0.035487
#
#
# Mechanical properties :
#
#
# Convention : Reuss Voigt Hill
#
# Bulk Modulus (GPa) = 23.23808 60.64842 41.94325
# Shear Modulus (GPa) = 15.99988 28.65266 22.32627
#
# Velocity S-wave (km/s) = 2.84033 3.80095 3.35520
# Velocity P-wave (km/s) = 4.74065 7.05997 6.01319
#
# Compressibility (1/GPa) = 0.04303282
#
# Stress axis : x y z
#
# Youngs Moduli (GPa) = 91.21802 29.44769 150.52444
#
# Poissons Ratio (x) = -0.13106 0.65501
# Poissons Ratio (y) = -0.40597 0.65704
# Poissons Ratio (z) = 0.39694 0.12854
#
# Static dielectric constant tensor:
#      x y z
#    x 1.049730 0.000000 0.000000 
#    y 0.000000 1.715690 0.000000 
#    z 0.000000 0.000000 1.764730 
# 
# From -- ./inp_files/5787.got.cif
#   From: 2010.05.17/outbox.cif.g08.bks.cpg/sg47_3_cif.got.tgz:5787.got - 2010.06.03 20:15:42.
