data_PCOD9385329
_publ_section_title
;
Structure prediction by ZEFSAII (Michael W. Deem and Ramdas Pophale) SiO2 
 PCOD9385329
Probable space group: P M M M
;
_chemical_formula_sum "Si O2"
_cell_formula_units_Z 56
_cell_length_a 20.377750
_cell_length_b 7.456160
_cell_length_c 16.338097
_cell_angle_alpha 90.000000
_cell_angle_beta 90.000000
_cell_angle_gamma 90.000000
_cell_volume 2482.406610
_symmetry_space_group_name_H-M "P M M M"
_symmetry_group_IT_number 47
_symmetry_cell_setting 'orthorhombic'
loop_
_space_group_symop_operation_xyz
x,y,z
-x,-y,z
x,-y,-z
-x,y,-z
-x,-y,-z
x,y,-z
-x,y,z
x,-y,z
loop_
_atom_site_type_symbol
_atom_site_label
_atom_site_fract_x
_atom_site_fract_y
_atom_site_fract_z
Si Si1 0.573387 0.790047 0.145438
Si Si2 0.283451 0.219187 0.091462
Si Si3 0.572663 0.715236 0.662431
Si Si4 0.078937 0.293958 0.913658
Si Si5 0.294250 0.207988 0.588260
Si Si6 0.073375 0.798661 0.732960
Si Si7 0.786763 0.220679 0.741239
O O1 0.500000 0.715154 0.126574
O O2 0.640899 0.720287 0.106163
O O3 0.582582 0.776130 0.243542
O O4 0.570806 0.000000 0.123208
O O5 0.238139 0.276648 0.168330
O O6 0.283546 0.000000 0.093516
O O7 0.262394 0.274017 0.000000
O O8 0.500000 0.772570 0.637863
O O9 0.575292 0.500000 0.662854
O O10 0.628388 0.784192 0.603150
O O11 0.101053 0.500000 0.904807
O O12 0.088372 0.191126 0.830347
O O13 0.000000 0.300369 0.919849
O O14 0.104044 0.219840 0.000000
O O15 0.277115 0.288250 0.500000
O O16 0.263630 0.281615 0.671682
O O17 0.273788 0.000000 0.585796
O O18 0.142148 0.714108 0.708343
O O19 0.000000 0.718212 0.722885
O O20 0.069832 0.000000 0.699335
O O21 0.788622 0.000000 0.743689
#
# Coordination Sequence:
#
# PCOD9385329 Si02
#       7
#     8   8   8   8   8   8   8
#     4   9  16  28  48  71  96 128 169 211 244 281
#     4   9  16  26  44  70  97 127 163 204 249 287
#     4  10  20  33  51  76 106 136 163 196 244 294
#     4   8  14  25  40  59  87 121 154 191 234 279
#     4  10  20  35  56  77  96 126 167 204 242 291
#     4   9  17  28  45  68  91 120 158 198 243 296
#     4   9  17  31  48  70 101 127 155 203 252 292
#
# _framework density 22.558754
#
# number of rings (size 3 to 8) (size 9 to 14) (size 15 to 20)
#    0.000    2.857    1.429    0.857    0.000    2.571 
#    0.000    6.429    0.000    0.857    0.000    5.000 
#    0.000    0.000    0.000    4.857    0.000    5.143 
#
# Total GULP energy -312023.703362 kJ/mol
# GULP energy per Si atom -5571.851846 kJ/mol
# Density = 2.250741 g / cm^3
# Si number density = 22.558754 Si / 1000 Ang^3
#
#
#
# Elastic Constant Matrix: (Units=GPa)
#
#
# Indices 1 2 3 4 5 6 
#
# 1 149.1595 -1.8690 51.6342 0.0000 0.0000 0.0000
# 2 -1.8690 67.5166 -1.0796 0.0000 0.0000 0.0000
# 3 51.6342 -1.0796 101.1792 0.0000 0.0000 0.0000
# 4 0.0000 0.0000 0.0000 -22.9026 0.0000 0.0000
# 5 0.0000 0.0000 0.0000 0.0000 4.9322 0.0000
# 6 0.0000 0.0000 0.0000 0.0000 0.0000 -171.4038
#
#
#
# Elastic Compliance Matrix: (Units=1/GPa)
#
#
# Indices 1 2 3 4 5 6 
#
# 1 0.008144 0.000159 -0.004155 0.000000 0.000000 0.000000
# 2 0.000159 0.014817 0.000077 0.000000 0.000000 0.000000
# 3 -0.004155 0.000077 0.012004 0.000000 0.000000 0.000000
# 4 0.000000 0.000000 0.000000 -0.043663 0.000000 0.000000
# 5 0.000000 0.000000 0.000000 0.000000 0.202751 0.000000
# 6 0.000000 0.000000 0.000000 0.000000 0.000000 -0.005834
#
#
# Mechanical properties :
#
#
# Convention : Reuss Voigt Hill
#
# Bulk Modulus (GPa) = 36.86167 46.13625 41.49896
# Shear Modulus (GPa) = 24.37842 -19.93020 2.22411
#
# Velocity S-wave (km/s) = 3.29091 -2.97556 0.99401
# Velocity P-wave (km/s) = 5.55121 2.94800 4.44447
#
# Compressibility (1/GPa) = 0.02712845
#
# Stress axis : x y z
#
# Youngs Moduli (GPa) = 122.78355 67.49089 83.30232
#
# Poissons Ratio (x) = -0.01073 0.34609
# Poissons Ratio (y) = -0.01952 -0.00641
# Poissons Ratio (z) = 0.51012 -0.00519
#
# Static dielectric constant tensor:
#      x y z
#    x 1.891740 0.000000 0.000000 
#    y 0.000000 1.854450 0.000000 
#    z 0.000000 0.000000 1.839270 
# 
# From -- ./inp_files/7354.got.cif
#   From: 2010.05.17/outbox.cif.g08.bks.cpg/sg47_4_cif.got.tgz:7354.got - 2010.06.03 20:15:42.
