data_PCOD9385524
_publ_section_title
;
Structure prediction by ZEFSAII (Michael W. Deem and Ramdas Pophale) SiO2 
 PCOD9385524
Probable space group: P M M M
;
_chemical_formula_sum "Si O2"
_cell_formula_units_Z 44
_cell_length_a 8.872120
_cell_length_b 19.386059
_cell_length_c 13.797191
_cell_angle_alpha 90.000000
_cell_angle_beta 90.000000
_cell_angle_gamma 90.000000
_cell_volume 2373.053961
_symmetry_space_group_name_H-M "P M M M"
_symmetry_group_IT_number 47
_symmetry_cell_setting 'orthorhombic'
loop_
_space_group_symop_operation_xyz
x,y,z
-x,-y,z
x,-y,-z
-x,y,-z
-x,-y,-z
x,y,-z
-x,y,z
x,-y,z
loop_
_atom_site_type_symbol
_atom_site_label
_atom_site_fract_x
_atom_site_fract_y
_atom_site_fract_z
Si Si1 0.826500 0.793983 0.113482
Si Si2 0.679361 0.339838 0.806420
Si Si3 0.820362 0.679266 0.391308
Si Si4 0.316312 0.420215 0.000000
Si Si5 0.322741 0.170128 0.608866
Si Si6 0.319157 0.920266 0.205789
O O1 0.725157 0.738855 0.169634
O O2 0.765164 0.870426 0.131592
O O3 0.000000 0.788001 0.145811
O O4 0.818954 0.777730 0.000000
O O5 0.500000 0.345827 0.800152
O O6 0.749477 0.357818 0.702154
O O7 0.733194 0.383322 0.900248
O O8 0.771876 0.656300 0.500000
O O9 0.771276 0.759588 0.383566
O O10 0.000000 0.674254 0.386124
O O11 0.271986 0.500000 0.000000
O O12 0.500000 0.416659 0.000000
O O13 0.303036 0.142492 0.500000
O O14 0.500000 0.188652 0.620656
O O15 0.285707 0.113945 0.689707
O O16 0.500000 0.916267 0.190827
O O17 0.274821 0.000000 0.200609
#
# Coordination Sequence:
#
# PCOD9385524 Si02
#       6
#     8   8   8   4   8   8
#     4  11  23  37  54  76 104 140 184 230 279 338
#     4  11  20  34  60  88 115 148 186 227 274 332
#     4  10  20  33  52  81 116 150 187 233 280 326
#     4   9  20  38  61  93 126 151 178 221 277 330
#     4   9  17  30  49  73 102 136 177 225 276 331
#     4  10  21  35  51  73 102 139 184 233 285 337
#
# _framework density 18.541506999999999
#
# number of rings (size 3 to 8) (size 9 to 14) (size 15 to 20)
#    0.000    1.909    2.727    1.636    0.000    3.273 
#    0.000    3.636    0.000    4.909    0.000    7.636 
#    0.000    0.000    0.000    0.000    0.000    0.000 
#
# Total GULP energy -245483.449385 kJ/mol
# GULP energy per Si atom -5579.169304 kJ/mol
# Density = 1.849931 g / cm^3
# Si number density = 18.541507 Si / 1000 Ang^3
#
#
#
# Elastic Constant Matrix: (Units=GPa)
#
#
# Indices 1 2 3 4 5 6 
#
# 1 37.2471 11.8739 42.5306 0.0000 0.0000 0.0000
# 2 11.8739 55.9832 42.4408 0.0000 0.0000 0.0000
# 3 42.5306 42.4408 137.2308 0.0000 0.0000 0.0000
# 4 0.0000 0.0000 0.0000 16.8651 0.0000 0.0000
# 5 0.0000 0.0000 0.0000 0.0000 29.8052 0.0000
# 6 0.0000 0.0000 0.0000 0.0000 0.0000 -28.6655
#
#
#
# Elastic Compliance Matrix: (Units=1/GPa)
#
#
# Indices 1 2 3 4 5 6 
#
# 1 0.041618 0.001242 -0.013283 0.000000 0.000000 0.000000
# 2 0.001242 0.023370 -0.007613 0.000000 0.000000 0.000000
# 3 -0.013283 -0.007613 0.013758 0.000000 0.000000 0.000000
# 4 0.000000 0.000000 0.000000 0.059294 0.000000 0.000000
# 5 0.000000 0.000000 0.000000 0.000000 0.033551 0.000000
# 6 0.000000 0.000000 0.000000 0.000000 0.000000 -0.034885
#
#
# Mechanical properties :
#
#
# Convention : Reuss Voigt Hill
#
# Bulk Modulus (GPa) = 25.35452 47.12795 36.24124
# Shear Modulus (GPa) = 26.43275 12.50867 19.47071
#
# Velocity S-wave (km/s) = 3.77981 2.60018 3.24406
# Velocity P-wave (km/s) = 5.72306 5.87259 5.79831
#
# Compressibility (1/GPa) = 0.03944070
#
# Stress axis : x y z
#
# Youngs Moduli (GPa) = 24.02781 42.78968 72.68564
#
# Poissons Ratio (x) = -0.05316 0.96546
# Poissons Ratio (y) = -0.02985 0.55333
# Poissons Ratio (z) = 0.31915 0.32574
#
# Static dielectric constant tensor:
#      x y z
#    x 1.634800 0.000000 0.000000 
#    y 0.000000 1.600410 0.000000 
#    z 0.000000 0.000000 1.688290 
# 
# From -- ./inp_files/20922.got.cif
#   From: 2010.05.17/outbox.cif.g08.bks.cpg/sg47_11_cif.got.tgz:20922.got - 2010.06.03 20:15:42.
