data_PCOD9385324
_publ_section_title
;
Structure prediction by ZEFSAII (Michael W. Deem and Ramdas Pophale) SiO2 
 PCOD9385324
Probable space group: P M M M
;
_chemical_formula_sum "Si O2"
_cell_formula_units_Z 44
_cell_length_a 9.359329
_cell_length_b 7.720746
_cell_length_c 31.163863
_cell_angle_alpha 90.000000
_cell_angle_beta 90.000000
_cell_angle_gamma 90.000000
_cell_volume 2251.931965
_symmetry_space_group_name_H-M "P M M M"
_symmetry_group_IT_number 47
_symmetry_cell_setting 'orthorhombic'
loop_
_space_group_symop_operation_xyz
x,y,z
-x,-y,z
x,-y,-z
-x,y,-z
-x,-y,-z
x,y,-z
-x,y,z
x,-y,z
loop_
_atom_site_type_symbol
_atom_site_label
_atom_site_fract_x
_atom_site_fract_y
_atom_site_fract_z
Si Si1 0.839178 0.207349 0.870093
Si Si2 0.671112 0.795394 0.384988
Si Si3 0.162185 0.207789 0.700486
Si Si4 0.673441 0.500000 0.548791
Si Si5 0.334694 0.788480 0.951973
Si Si6 0.338625 0.706040 0.214396
O O1 0.762826 0.274423 0.913113
O O2 0.744261 0.238518 0.828254
O O3 0.000000 0.275411 0.864692
O O4 0.848820 0.000000 0.874982
O O5 0.500000 0.778292 0.378139
O O6 0.753357 0.736866 0.342134
O O7 0.713193 0.670999 0.424211
O O8 0.699605 0.000000 0.392978
O O9 0.249758 0.248121 0.743282
O O10 0.000000 0.275794 0.702307
O O11 0.154138 0.000000 0.697818
O O12 0.500000 0.500000 0.546948
O O13 0.726847 0.500000 0.500000
O O14 0.500000 0.737525 0.945424
O O15 0.332492 0.000000 0.951590
O O16 0.290369 0.734726 0.000000
O O17 0.500000 0.778201 0.215938
O O18 0.348499 0.500000 0.212986
#
# Coordination Sequence:
#
# PCOD9385324 Si02
#       6
#     8   8   8   4   8   8
#     4  10  20  33  51  76 105 136 170 211 261 316
#     4   9  18  33  54  80 111 147 186 231 281 331
#     4  10  21  37  57  81 108 138 175 220 270 323
#     4   9  18  32  53  83 115 147 189 239 282 327
#     4   8  14  26  46  72 100 131 169 212 258 309
#     4  11  24  38  53  75 103 137 176 217 262 315
#
# _framework density 19.538779999999999
#
# number of rings (size 3 to 8) (size 9 to 14) (size 15 to 20)
#    0.000    2.455    0.000    2.727    1.273    6.545 
#    0.000    3.636    0.000    1.636    0.000    6.364 
#    0.000    0.000    0.000    0.000    0.000    0.000 
#
# Total GULP energy -245574.102099 kJ/mol
# GULP energy per Si atom -5581.229593 kJ/mol
# Density = 1.949431 g / cm^3
# Si number density = 19.538780 Si / 1000 Ang^3
#
#
#
# Elastic Constant Matrix: (Units=GPa)
#
#
# Indices 1 2 3 4 5 6 
#
# 1 130.0177 29.6619 108.0726 0.0000 0.0000 0.0000
# 2 29.6619 47.7896 38.5298 0.0000 0.0000 0.0000
# 3 108.0726 38.5298 214.4964 0.0000 0.0000 0.0000
# 4 0.0000 0.0000 0.0000 64.6089 0.0000 0.0000
# 5 0.0000 0.0000 0.0000 0.0000 -3.8116 0.0000
# 6 0.0000 0.0000 0.0000 0.0000 0.0000 7.7239
#
#
#
# Elastic Compliance Matrix: (Units=1/GPa)
#
#
# Indices 1 2 3 4 5 6 
#
# 1 0.013699 -0.003436 -0.006285 0.000000 0.000000 0.000000
# 2 -0.003436 0.025330 -0.002819 0.000000 0.000000 0.000000
# 3 -0.006285 -0.002819 0.008335 0.000000 0.000000 0.000000
# 4 0.000000 0.000000 0.000000 0.015478 0.000000 0.000000
# 5 0.000000 0.000000 0.000000 0.000000 -0.262354 0.000000
# 6 0.000000 0.000000 0.000000 0.000000 0.000000 0.129468
#
#
# Mechanical properties :
#
#
# Convention : Reuss Voigt Hill
#
# Bulk Modulus (GPa) = 44.87279 82.75913 63.81596
# Shear Modulus (GPa) = -133.20797 28.10685 -52.55056
#
# Velocity S-wave (km/s) = -8.26585 3.79689 -5.19171
# Velocity P-wave (km/s) = 8.25125 7.85303 1.79066
#
# Compressibility (1/GPa) = 0.02228522
#
# Stress axis : x y z
#
# Youngs Moduli (GPa) = 72.99580 39.47854 119.97235
#
# Poissons Ratio (x) = 0.13563 0.75406
# Poissons Ratio (y) = 0.25078 0.33821
# Poissons Ratio (z) = 0.45880 0.11129
#
# Static dielectric constant tensor:
#      x y z
#    x 1.686600 0.000000 0.000000 
#    y 0.000000 1.715530 0.000000 
#    z 0.000000 0.000000 1.657760 
# 
# From -- ./inp_files/33892.got.cif
#   From: 2010.05.17/outbox.cif.g08.bks.cpg/sg47_17_cif.got.tgz:33892.got - 2010.06.03 20:15:42.
