data_PCOD9385685
_publ_section_title
;
Structure prediction by ZEFSAII (Michael W. Deem and Ramdas Pophale) SiO2 
 PCOD9385685
Probable space group: P M M M
;
_chemical_formula_sum "Si O2"
_cell_formula_units_Z 64
_cell_length_a 19.435645
_cell_length_b 7.404187
_cell_length_c 19.488122
_cell_angle_alpha 90.000000
_cell_angle_beta 90.000000
_cell_angle_gamma 90.000000
_cell_volume 2804.441121
_symmetry_space_group_name_H-M "P M M M"
_symmetry_group_IT_number 47
_symmetry_cell_setting 'orthorhombic'
loop_
_space_group_symop_operation_xyz
x,y,z
-x,-y,z
x,-y,-z
-x,y,-z
-x,-y,-z
x,y,-z
-x,y,z
x,-y,z
loop_
_atom_site_type_symbol
_atom_site_label
_atom_site_fract_x
_atom_site_fract_y
_atom_site_fract_z
Si Si1 0.185169 0.799710 0.811678
Si Si2 0.578642 0.715946 0.687936
Si Si3 0.577028 0.784266 0.154489
Si Si4 0.708673 0.778685 0.922601
Si Si5 0.076408 0.788753 0.710960
Si Si6 0.691989 0.279767 0.420722
Si Si7 0.080041 0.282645 0.923774
Si Si8 0.151863 0.717843 0.577804
O O1 0.244305 0.714907 0.858895
O O2 0.143795 0.709414 0.749245
O O3 0.124296 0.810495 0.867049
O O4 0.209510 0.000000 0.789942
O O5 0.500000 0.784592 0.678747
O O6 0.575607 0.500000 0.679354
O O7 0.599374 0.750107 0.766848
O O8 0.634555 0.783272 0.633160
O O9 0.500000 0.710814 0.146597
O O10 0.632004 0.723025 0.098746
O O11 0.573548 0.000000 0.147131
O O12 0.713459 0.000000 0.922443
O O13 0.726899 0.720408 0.000000
O O14 0.094771 0.778073 0.631260
O O15 0.000000 0.713978 0.726254
O O16 0.074781 0.000000 0.730607
O O17 0.677915 0.227582 0.500000
O O18 0.691687 0.500000 0.419471
O O19 0.770170 0.223519 0.403185
O O20 0.086624 0.500000 0.917285
O O21 0.000000 0.239236 0.917095
O O22 0.102989 0.231638 0.000000
O O23 0.138933 0.777122 0.500000
O O24 0.152046 0.500000 0.578189
#
# Coordination Sequence:
#
# PCOD9385685 Si02
#       8
#     8   8   8   8   8   8   8   8
#     4  10  20  34  52  74 100 130 165 207 251 300
#     4   9  17  29  48  75 105 137 172 208 247 294
#     4   9  18  32  50  73 101 134 170 208 251 296
#     4   9  18  32  51  76 102 129 166 211 253 293
#     4  10  22  37  52  75 105 134 166 206 254 308
#     4   8  15  29  49  74 104 135 169 211 252 291
#     4   9  18  32  49  70  98 131 164 200 245 296
#     4   9  19  36  56  77 101 132 172 214 254 299
#
# _framework density 22.820948000000001
#
# number of rings (size 3 to 8) (size 9 to 14) (size 15 to 20)
#    0.000    2.875    0.000    1.875    1.750    3.250 
#    0.000    5.000    0.000    2.250    0.000    3.500 
#    0.000    0.000    0.000    0.000    0.000    0.000 
#
# Total GULP energy -357122.950503 kJ/mol
# GULP energy per Si atom -5580.046102 kJ/mol
# Density = 2.276901 g / cm^3
# Si number density = 22.820948 Si / 1000 Ang^3
#
#
#
# Elastic Constant Matrix: (Units=GPa)
#
#
# Indices 1 2 3 4 5 6 
#
# 1 93.8748 2.8453 65.8498 0.0000 0.0000 0.0000
# 2 2.8453 74.3432 -3.6801 0.0000 0.0000 0.0000
# 3 65.8498 -3.6801 74.7056 0.0000 0.0000 0.0000
# 4 0.0000 0.0000 0.0000 17.3229 0.0000 0.0000
# 5 0.0000 0.0000 0.0000 0.0000 37.6765 0.0000
# 6 0.0000 0.0000 0.0000 0.0000 0.0000 -5.3558
#
#
#
# Elastic Compliance Matrix: (Units=1/GPa)
#
#
# Indices 1 2 3 4 5 6 
#
# 1 0.028304 -0.002324 -0.025063 0.000000 0.000000 0.000000
# 2 -0.002324 0.013675 0.002722 0.000000 0.000000 0.000000
# 3 -0.025063 0.002722 0.035612 0.000000 0.000000 0.000000
# 4 0.000000 0.000000 0.000000 0.057727 0.000000 0.000000
# 5 0.000000 0.000000 0.000000 0.000000 0.026542 0.000000
# 6 0.000000 0.000000 0.000000 0.000000 0.000000 -0.186713
#
#
# Mechanical properties :
#
#
# Convention : Reuss Voigt Hill
#
# Bulk Modulus (GPa) = 35.38472 41.43930 38.41201
# Shear Modulus (GPa) = 147.50597 21.78927 84.64762
#
# Velocity S-wave (km/s) = 8.04839 3.09332 6.09693
# Velocity P-wave (km/s) = 10.09494 5.56382 8.15058
#
# Compressibility (1/GPa) = 0.02826078
#
# Stress axis : x y z
#
# Youngs Moduli (GPa) = 35.33103 73.12711 28.08044
#
# Poissons Ratio (x) = 0.16994 0.70378
# Poissons Ratio (y) = 0.08211 -0.07644
# Poissons Ratio (z) = 0.88550 -0.19906
#
# Static dielectric constant tensor:
#      x y z
#    x 1.865770 0.000000 0.000000 
#    y 0.000000 1.852220 0.000000 
#    z 0.000000 0.000000 1.834660 
# 
# From -- ./inp_files/31368.got.cif
#   From: 2010.05.17/outbox.cif.g08.bks.cpg/sg47_16_cif.got.tgz:31368.got - 2010.06.03 20:15:42.
