data_PCOD9385327
_publ_section_title
;
Structure prediction by ZEFSAII (Michael W. Deem and Ramdas Pophale) SiO2 
 PCOD9385327
Probable space group: P M M M
;
_chemical_formula_sum "Si O2"
_cell_formula_units_Z 64
_cell_length_a 24.617968
_cell_length_b 14.027346
_cell_length_c 9.233762
_cell_angle_alpha 90.000000
_cell_angle_beta 90.000000
_cell_angle_gamma 90.000000
_cell_volume 3188.646600
_symmetry_space_group_name_H-M "P M M M"
_symmetry_group_IT_number 47
_symmetry_cell_setting 'orthorhombic'
loop_
_space_group_symop_operation_xyz
x,y,z
-x,-y,z
x,-y,-z
-x,y,-z
-x,-y,-z
x,y,-z
-x,y,z
x,-y,z
loop_
_atom_site_type_symbol
_atom_site_label
_atom_site_fract_x
_atom_site_fract_y
_atom_site_fract_z
Si Si1 0.439511 0.884023 0.168316
Si Si2 0.065938 0.893236 0.833280
Si Si3 0.749877 0.723423 0.328528
Si Si4 0.671110 0.110592 0.326377
Si Si5 0.841546 0.608509 0.827348
Si Si6 0.661999 0.614278 0.160838
Si Si7 0.064765 0.297727 0.670262
Si Si8 0.437976 0.615798 0.339018
O O1 0.500000 0.854712 0.220909
O O2 0.385851 0.856167 0.256679
O O3 0.439750 0.000000 0.172360
O O4 0.434373 0.855944 0.000000
O O5 0.081221 0.807258 0.728575
O O6 0.000000 0.895631 0.833177
O O7 0.084401 0.000000 0.792110
O O8 0.082594 0.874331 0.000000
O O9 0.759963 0.723058 0.500000
O O10 0.722397 0.823963 0.285378
O O11 0.802361 0.686704 0.244061
O O12 0.703225 0.649478 0.281713
O O13 0.665595 0.116686 0.500000
O O14 0.679778 0.000000 0.286749
O O15 0.823373 0.500000 0.793434
O O16 0.900816 0.627105 0.761356
O O17 0.841805 0.618653 0.000000
O O18 0.663795 0.500000 0.155537
O O19 0.602190 0.643934 0.211911
O O20 0.675879 0.650509 0.000000
O O21 0.076200 0.306395 0.500000
O O22 0.000000 0.308285 0.691752
O O23 0.420356 0.648355 0.500000
O O24 0.500000 0.644088 0.316109
O O25 0.437211 0.500000 0.342769
#
# Coordination Sequence:
#
# PCOD9385327 Si02
#       8
#     8   8   8   8   8   8   8   8
#     4   8  14  26  47  77 111 146 185 229 279 335
#     4   8  14  27  50  81 119 163 205 241 277 319
#     4  11  23  39  60  83 108 142 183 228 280 336
#     4   9  19  36  57  82 112 146 186 233 285 340
#     4  11  25  44  65  88 115 149 190 238 291 347
#     4  10  20  33  51  76 105 137 175 221 271 323
#     4  10  21  37  60  92 127 161 197 238 287 346
#     4   8  14  26  45  69  98 133 173 218 269 323
#
# _framework density 20.071210000000001
#
# number of rings (size 3 to 8) (size 9 to 14) (size 15 to 20)
#    0.000    2.625    0.000    3.000    0.000    6.000 
#    0.000    6.250    0.000    3.000    0.000    0.000 
#    0.000    0.000    0.000    0.000    0.000    0.000 
#
# Total GULP energy -357058.279660 kJ/mol
# GULP energy per Si atom -5579.035620 kJ/mol
# Density = 2.002553 g / cm^3
# Si number density = 20.071210 Si / 1000 Ang^3
#
#
#
# Elastic Constant Matrix: (Units=GPa)
#
#
# Indices 1 2 3 4 5 6 
#
# 1 72.5650 36.1144 42.0012 0.0000 0.0000 0.0000
# 2 36.1144 94.3719 42.2601 0.0000 0.0000 0.0000
# 3 42.0012 42.2601 58.0189 0.0000 0.0000 0.0000
# 4 0.0000 0.0000 0.0000 22.5922 0.0000 0.0000
# 5 0.0000 0.0000 0.0000 0.0000 29.1324 0.0000
# 6 0.0000 0.0000 0.0000 0.0000 0.0000 34.8343
#
#
#
# Elastic Compliance Matrix: (Units=1/GPa)
#
#
# Indices 1 2 3 4 5 6 
#
# 1 0.023992 -0.002083 -0.015851 0.000000 0.000000 0.000000
# 2 -0.002083 0.015907 -0.010078 0.000000 0.000000 0.000000
# 3 -0.015851 -0.010078 0.036051 0.000000 0.000000 0.000000
# 4 0.000000 0.000000 0.000000 0.044263 0.000000 0.000000
# 5 0.000000 0.000000 0.000000 0.000000 0.034326 0.000000
# 6 0.000000 0.000000 0.000000 0.000000 0.000000 0.028707
#
#
# Mechanical properties :
#
#
# Convention : Reuss Voigt Hill
#
# Bulk Modulus (GPa) = 50.18692 51.74524 50.96608
# Shear Modulus (GPa) = 20.33237 24.28381 22.30809
#
# Velocity S-wave (km/s) = 3.18624 3.48211 3.33745
# Velocity P-wave (km/s) = 6.21248 6.48102 6.34817
#
# Compressibility (1/GPa) = 0.01992551
#
# Stress axis : x y z
#
# Youngs Moduli (GPa) = 41.68000 62.86713 27.73813
#
# Poissons Ratio (x) = 0.13097 0.43968
# Poissons Ratio (y) = 0.08683 0.27955
# Poissons Ratio (z) = 0.66068 0.63358
#
# Static dielectric constant tensor:
#      x y z
#    x 1.720590 0.000000 0.000000 
#    y 0.000000 1.764980 0.000000 
#    z 0.000000 0.000000 1.685350 
# 
# From -- ./inp_files/12702.got.cif
#   From: 2010.05.17/outbox.cif.g08.bks.cpg/sg47_7_cif.got.tgz:12702.got - 2010.06.03 20:15:42.
