data_PCOD9385772
_publ_section_title
;
Structure prediction by ZEFSAII (Michael W. Deem and Ramdas Pophale) SiO2 
 PCOD9385772
Probable space group: P M M M
;
_chemical_formula_sum "Si O2"
_cell_formula_units_Z 36
_cell_length_a 9.353370
_cell_length_b 23.938020
_cell_length_c 7.788634
_cell_angle_alpha 90.000000
_cell_angle_beta 90.000000
_cell_angle_gamma 90.000000
_cell_volume 1743.884173
_symmetry_space_group_name_H-M "P M M M"
_symmetry_group_IT_number 47
_symmetry_cell_setting 'orthorhombic'
loop_
_space_group_symop_operation_xyz
x,y,z
-x,-y,z
x,-y,-z
-x,y,-z
-x,-y,-z
x,y,-z
-x,y,z
x,-y,z
loop_
_atom_site_type_symbol
_atom_site_label
_atom_site_fract_x
_atom_site_fract_y
_atom_site_fract_z
Si Si1 0.834524 0.562464 0.290597
Si Si2 0.664239 0.328727 0.289448
Si Si3 0.337760 0.889148 0.795862
Si Si4 0.162595 0.000000 0.704601
Si Si5 0.161618 0.779155 0.294813
O O1 0.832051 0.562549 0.500000
O O2 0.790975 0.500000 0.235545
O O3 0.736020 0.613281 0.233155
O O4 0.000000 0.571382 0.240528
O O5 0.665525 0.328561 0.500000
O O6 0.500000 0.324201 0.235583
O O7 0.755898 0.275595 0.229812
O O8 0.500000 0.891348 0.725518
O O9 0.252500 0.834775 0.735407
O O10 0.249635 0.944896 0.755028
O O11 0.347666 0.885316 0.000000
O O12 0.152414 0.000000 0.500000
O O13 0.000000 0.000000 0.774589
O O14 0.150914 0.772307 0.500000
O O15 0.000000 0.783998 0.226388
#
# Coordination Sequence:
#
# PCOD9385772 Si02
#       5
#     8   8   8   4   8
#     4   8  13  21  33  51  80 120 163 206 254 308
#     4   9  16  25  39  61  90 125 165 210 259 309
#     4  11  24  40  58  82 111 141 174 213 258 306
#     4  11  24  41  62  88 114 141 176 213 250 298
#     4  10  20  34  53  76 102 135 176 218 260 310
#
# _framework density 20.643573
#
# number of rings (size 3 to 8) (size 9 to 14) (size 15 to 20)
#    0.000    2.333    0.000    4.000    0.000   11.111 
#    0.000    2.222    0.000    0.000    0.000    0.000 
#    0.000    0.889    0.000    9.333    0.000   12.889 
#
# Total GULP energy -201072.096222 kJ/mol
# GULP energy per Si atom -5585.336006 kJ/mol
# Density = 2.059659 g / cm^3
# Si number density = 20.643573 Si / 1000 Ang^3
#
#
#
# Elastic Constant Matrix: (Units=GPa)
#
#
# Indices 1 2 3 4 5 6 
#
# 1 219.6064 143.6283 8.4009 0.0000 0.0000 0.0000
# 2 143.6283 217.0296 -0.1023 0.0000 0.0000 0.0000
# 3 8.4009 -0.1023 27.7404 0.0000 0.0000 0.0000
# 4 0.0000 0.0000 0.0000 -67.6911 0.0000 0.0000
# 5 0.0000 0.0000 0.0000 0.0000 364.0317 0.0000
# 6 0.0000 0.0000 0.0000 0.0000 0.0000 136.5741
#
#
#
# Elastic Compliance Matrix: (Units=1/GPa)
#
#
# Indices 1 2 3 4 5 6 
#
# 1 0.008199 -0.005427 -0.002503 0.000000 0.000000 0.000000
# 2 -0.005427 0.008200 0.001674 0.000000 0.000000 0.000000
# 3 -0.002503 0.001674 0.036813 0.000000 0.000000 0.000000
# 4 0.000000 0.000000 0.000000 -0.014773 0.000000 0.000000
# 5 0.000000 0.000000 0.000000 0.000000 0.002747 0.000000
# 6 0.000000 0.000000 0.000000 0.000000 0.000000 0.007322
#
#
# Mechanical properties :
#
#
# Convention : Reuss Voigt Hill
#
# Bulk Modulus (GPa) = 24.57060 85.35892 54.96476
# Shear Modulus (GPa) = 67.03636 107.41292 87.22464
#
# Velocity S-wave (km/s) = 5.70471 7.22116 6.50726
# Velocity P-wave (km/s) = 7.43773 10.53401 9.11826
#
# Compressibility (1/GPa) = 0.04069904
#
# Stress axis : x y z
#
# Youngs Moduli (GPa) = 121.96917 121.95065 27.16455
#
# Poissons Ratio (x) = 0.66183 0.06799
# Poissons Ratio (y) = 0.66193 -0.04547
# Poissons Ratio (z) = 0.30528 -0.20412
#
# Static dielectric constant tensor:
#      x y z
#    x 1.730620 0.000000 0.000000 
#    y 0.000000 1.655260 0.000000 
#    z 0.000000 0.000000 1.764240 
# 
# From -- ./inp_files/1404.got.cif
#   From: 2010.05.17/outbox.cif.g08.bks.cpg/sg47_1_cif.got.tgz:1404.got - 2010.06.03 20:15:42.
