data_PCOD9385310
_publ_section_title
;
Structure prediction by ZEFSAII (Michael W. Deem and Ramdas Pophale) SiO2 
 PCOD9385310
Probable space group: P M M M
;
_chemical_formula_sum "Si O2"
_cell_formula_units_Z 48
_cell_length_a 7.762178
_cell_length_b 34.075874
_cell_length_c 9.581712
_cell_angle_alpha 90.000000
_cell_angle_beta 90.000000
_cell_angle_gamma 90.000000
_cell_volume 2534.391564
_symmetry_space_group_name_H-M "P M M M"
_symmetry_group_IT_number 47
_symmetry_cell_setting 'orthorhombic'
loop_
_space_group_symop_operation_xyz
x,y,z
-x,-y,z
x,-y,-z
-x,y,-z
-x,-y,-z
x,y,-z
-x,y,z
x,-y,z
loop_
_atom_site_type_symbol
_atom_site_label
_atom_site_fract_x
_atom_site_fract_y
_atom_site_fract_z
Si Si1 0.698597 0.897047 0.170363
Si Si2 0.792013 0.350956 0.339236
Si Si3 0.705526 0.425952 0.841770
Si Si4 0.711373 0.500000 0.661071
Si Si5 0.792675 0.263448 0.658525
Si Si6 0.000000 0.954975 0.170291
Si Si7 0.706213 0.188928 0.842980
O O1 0.500000 0.903492 0.214230
O O2 0.762666 0.853595 0.214168
O O3 0.830513 0.930757 0.213685
O O4 0.697623 0.895844 0.000000
O O5 0.735041 0.358082 0.500000
O O6 0.735813 0.384898 0.235488
O O7 0.733922 0.307052 0.296800
O O8 0.000000 0.350970 0.340969
O O9 0.500000 0.431478 0.851528
O O10 0.770090 0.461473 0.744963
O O11 0.774729 0.426628 0.000000
O O12 0.500000 0.500000 0.659115
O O13 0.767256 0.500000 0.500000
O O14 0.731400 0.257374 0.500000
O O15 0.743923 0.226999 0.753093
O O16 0.000000 0.264916 0.655449
O O17 0.000000 0.000000 0.217081
O O18 0.000000 0.955325 0.000000
O O19 0.500000 0.185142 0.852158
O O20 0.775356 0.194048 0.000000
#
# Coordination Sequence:
#
# PCOD9385310 Si02
#       7
#     8   8   8   4   8   4   8
#     4   8  15  27  40  59  91 125 159 205 254 300
#     4   9  19  36  53  69  95 130 164 199 241 290
#     4  10  20  33  51  76 103 128 157 199 247 292
#     4   9  17  31  52  75  98 127 164 202 242 293
#     4   9  19  34  50  70  96 126 162 203 245 290
#     4   9  16  24  38  62  89 125 171 207 247 308
#     4   9  18  31  47  69  96 127 163 201 244 296
#
# _framework density 18.939457000000001
#
# number of rings (size 3 to 8) (size 9 to 14) (size 15 to 20)
#    0.000    3.000    0.000    2.750    1.167    4.667 
#    0.000    7.083    0.000    2.500    0.000    0.000 
#    0.000    1.333    0.000    3.667    0.000    3.667 
#
# Total GULP energy -267547.729293 kJ/mol
# GULP energy per Si atom -5573.911027 kJ/mol
# Density = 1.889635 g / cm^3
# Si number density = 18.939457 Si / 1000 Ang^3
#
#
#
# Elastic Constant Matrix: (Units=GPa)
#
#
# Indices 1 2 3 4 5 6 
#
# 1 43.0105 38.1349 20.2059 0.0000 0.0000 0.0000
# 2 38.1349 212.2602 93.7417 0.0000 0.0000 0.0000
# 3 20.2059 93.7417 86.1960 0.0000 0.0000 0.0000
# 4 0.0000 0.0000 0.0000 1573.8299 0.0000 0.0000
# 5 0.0000 0.0000 0.0000 0.0000 15.8492 0.0000
# 6 0.0000 0.0000 0.0000 0.0000 0.0000 29.1155
#
#
#
# Elastic Compliance Matrix: (Units=1/GPa)
#
#
# Indices 1 2 3 4 5 6 
#
# 1 0.027850 -0.004080 -0.002092 0.000000 0.000000 0.000000
# 2 -0.004080 0.009663 -0.009552 0.000000 0.000000 0.000000
# 3 -0.002092 -0.009552 0.022480 0.000000 0.000000 0.000000
# 4 0.000000 0.000000 0.000000 0.000635 0.000000 0.000000
# 5 0.000000 0.000000 0.000000 0.000000 0.063095 0.000000
# 6 0.000000 0.000000 0.000000 0.000000 0.000000 0.034346
#
#
# Mechanical properties :
#
#
# Convention : Reuss Voigt Hill
#
# Bulk Modulus (GPa) = 35.03144 71.73687 53.38415
# Shear Modulus (GPa) = 25.12157 336.38453 180.75305
#
# Velocity S-wave (km/s) = 3.64595 13.34151 9.77980
# Velocity P-wave (km/s) = 6.02168 16.59178 12.48094
#
# Compressibility (1/GPa) = 0.02854579
#
# Stress axis : x y z
#
# Youngs Moduli (GPa) = 35.90649 103.48895 44.48327
#
# Poissons Ratio (x) = 0.42222 0.09304
# Poissons Ratio (y) = 0.14649 0.42492
# Poissons Ratio (z) = 0.07510 0.98856
#
# Static dielectric constant tensor:
#      x y z
#    x 1.692760 0.000000 0.000000 
#    y 0.000000 1.661960 0.000000 
#    z 0.000000 0.000000 1.644720 
# 
# From -- ./inp_files/2571.got.cif
#   From: 2010.05.17/outbox.cif.g08.bks.cpg/sg47_2_cif.got.tgz:2571.got - 2010.06.03 20:15:42.
