data_PCOD9385930
_publ_section_title
;
Structure prediction by ZEFSAII (Michael W. Deem and Ramdas Pophale) SiO2 
 PCOD9385930
Probable space group: P M M M
;
_chemical_formula_sum "Si O2"
_cell_formula_units_Z 48
_cell_length_a 33.608371
_cell_length_b 8.378922
_cell_length_c 9.692812
_cell_angle_alpha 90.000000
_cell_angle_beta 90.000000
_cell_angle_gamma 90.000000
_cell_volume 2729.514461
_symmetry_space_group_name_H-M "P M M M"
_symmetry_group_IT_number 47
_symmetry_cell_setting 'orthorhombic'
loop_
_space_group_symop_operation_xyz
x,y,z
-x,-y,z
x,-y,-z
-x,y,-z
-x,-y,-z
x,y,-z
-x,y,z
x,-y,z
loop_
_atom_site_type_symbol
_atom_site_label
_atom_site_fract_x
_atom_site_fract_y
_atom_site_fract_z
Si Si1 0.500000 0.690300 0.660340
Si Si2 0.814543 0.308733 0.657603
Si Si3 0.094399 0.315987 0.667993
Si Si4 0.742604 0.809812 0.158036
Si Si5 0.656935 0.309547 0.841145
Si Si6 0.584187 0.190330 0.341241
Si Si7 0.046169 0.000000 0.668112
O O1 0.500000 0.500000 0.662480
O O2 0.500000 0.746778 0.500000
O O3 0.541862 0.750741 0.718430
O O4 0.810881 0.249294 0.500000
O O5 0.810227 0.500000 0.654888
O O6 0.859772 0.278846 0.706070
O O7 0.780268 0.239011 0.752128
O O8 0.093260 0.320060 0.500000
O O9 0.084490 0.500000 0.712059
O O10 0.067302 0.166155 0.712611
O O11 0.700600 0.741489 0.210280
O O12 0.739391 0.000000 0.156493
O O13 0.747703 0.752124 0.000000
O O14 0.654945 0.500000 0.842474
O O15 0.621409 0.245213 0.748232
O O16 0.653297 0.251102 0.000000
O O17 0.587834 0.250596 0.500000
O O18 0.583304 0.000000 0.345378
O O19 0.047867 0.000000 0.500000
O O20 0.000000 0.000000 0.708732
#
# Coordination Sequence:
#
# PCOD9385930 Si02
#       7
#     4   8   8   8   8   8   4
#     4   9  17  31  52  77 104 133 164 200 244 289
#     4   9  18  32  50  72  97 129 168 207 250 299
#     4   8  15  27  41  61  92 126 162 206 252 298
#     4  10  21  35  51  73 100 130 165 205 250 301
#     4  10  21  37  55  73  97 132 168 203 248 297
#     4  10  20  34  54  79 105 132 164 203 246 293
#     4   9  16  24  38  62  91 129 171 203 245 304
#
# _framework density 17.585545
#
# number of rings (size 3 to 8) (size 9 to 14) (size 15 to 20)
#    0.000    2.667    0.000    2.750    1.167    5.333 
#    0.000    2.083    0.000    2.500    0.000    0.000 
#    0.000    1.333    0.000    3.667    0.000    3.667 
#
# Total GULP energy -267485.902686 kJ/mol
# GULP energy per Si atom -5572.622973 kJ/mol
# Density = 1.754552 g / cm^3
# Si number density = 17.585545 Si / 1000 Ang^3
#
#
#
# Elastic Constant Matrix: (Units=GPa)
#
#
# Indices 1 2 3 4 5 6 
#
# 1 163.8897 78.5294 46.4380 0.0000 0.0000 0.0000
# 2 78.5294 76.4261 22.1440 0.0000 0.0000 0.0000
# 3 46.4380 22.1440 27.9592 0.0000 0.0000 0.0000
# 4 0.0000 0.0000 0.0000 17.8945 0.0000 0.0000
# 5 0.0000 0.0000 0.0000 0.0000 -19.0072 0.0000
# 6 0.0000 0.0000 0.0000 0.0000 0.0000 40.2511
#
#
#
# Elastic Compliance Matrix: (Units=1/GPa)
#
#
# Indices 1 2 3 4 5 6 
#
# 1 0.017495 -0.012403 -0.019234 0.000000 0.000000 0.000000
# 2 -0.012403 0.025775 0.000187 0.000000 0.000000 0.000000
# 3 -0.019234 0.000187 0.067564 0.000000 0.000000 0.000000
# 4 0.000000 0.000000 0.000000 0.055883 0.000000 0.000000
# 5 0.000000 0.000000 0.000000 0.000000 -0.052612 0.000000
# 6 0.000000 0.000000 0.000000 0.000000 0.000000 0.024844
#
#
# Mechanical properties :
#
#
# Convention : Reuss Voigt Hill
#
# Bulk Modulus (GPa) = 20.86225 62.49975 41.68100
# Shear Modulus (GPa) = 22.95388 15.90525 19.42957
#
# Velocity S-wave (km/s) = 3.61677 3.01067 3.32755
# Velocity P-wave (km/s) = 5.41576 6.90674 6.20619
#
# Compressibility (1/GPa) = 0.04793347
#
# Stress axis : x y z
#
# Youngs Moduli (GPa) = 57.16019 38.79717 14.80070
#
# Poissons Ratio (x) = 0.48121 0.28467
# Poissons Ratio (y) = 0.70897 -0.00276
# Poissons Ratio (z) = 1.09941 -0.00724
#
# Static dielectric constant tensor:
#      x y z
#    x 1.590260 0.000000 0.000000 
#    y 0.000000 1.603440 0.000000 
#    z 0.000000 0.000000 1.599720 
# 
# From -- ./inp_files/13960.got.cif
#   From: 2010.05.17/outbox.cif.g08.bks.cpg/sg47_7_cif.got.tgz:13960.got - 2010.06.03 20:15:42.
