data_PCOD9385091
_publ_section_title
;
Structure prediction by ZEFSAII (Michael W. Deem and Ramdas Pophale) SiO2 
 PCOD9385091
Probable space group: P M M M
;
_chemical_formula_sum "Si O2"
_cell_formula_units_Z 48
_cell_length_a 19.074029
_cell_length_b 8.639574
_cell_length_c 16.392319
_cell_angle_alpha 90.000000
_cell_angle_beta 90.000000
_cell_angle_gamma 90.000000
_cell_volume 2701.314591
_symmetry_space_group_name_H-M "P M M M"
_symmetry_group_IT_number 47
_symmetry_cell_setting 'orthorhombic'
loop_
_space_group_symop_operation_xyz
x,y,z
-x,-y,z
x,-y,-z
-x,y,-z
-x,-y,-z
x,y,-z
-x,y,z
x,-y,z
loop_
_atom_site_type_symbol
_atom_site_label
_atom_site_fract_x
_atom_site_fract_y
_atom_site_fract_z
Si Si1 0.920056 0.313297 0.181947
Si Si2 0.711109 0.685724 0.254383
Si Si3 0.415042 0.675730 0.000000
Si Si4 0.786793 0.687247 0.911621
Si Si5 0.082158 0.313993 0.500000
Si Si6 0.418191 0.815162 0.823999
Si Si7 0.158650 0.184317 0.340327
O O1 0.917721 0.500000 0.192860
O O2 0.867826 0.276239 0.107830
O O3 0.887825 0.238910 0.263157
O O4 0.000000 0.266738 0.168939
O O5 0.713378 0.500000 0.258474
O O6 0.745043 0.739366 0.167945
O O7 0.631838 0.743505 0.244915
O O8 0.762684 0.753011 0.322952
O O9 0.396518 0.755385 0.914465
O O10 0.387736 0.500000 0.000000
O O11 0.500000 0.671534 0.000000
O O12 0.780478 0.500000 0.913033
O O13 0.764488 0.746753 0.000000
O O14 0.083370 0.500000 0.500000
O O15 0.122420 0.252578 0.420542
O O16 0.000000 0.265274 0.500000
O O17 0.500000 0.772251 0.812708
O O18 0.412752 0.000000 0.822994
O O19 0.160173 0.000000 0.344622
#
# Coordination Sequence:
#
# PCOD9385091 Si02
#       7
#     8   8   4   8   4   8   8
#     4   9  17  30  48  69  96 131 170 214 262 309
#     4  10  20  34  53  74 102 139 179 221 265 316
#     4   9  17  29  45  67  97 135 180 225 268 319
#     4   8  15  27  43  66  93 124 169 220 262 300
#     4  11  23  39  61  87 114 141 172 213 261 317
#     4  10  20  33  49  73 105 139 177 225 280 328
#     4  11  22  36  54  78 108 138 171 209 259 320
#
# _framework density 17.769127000000001
#
# number of rings (size 3 to 8) (size 9 to 14) (size 15 to 20)
#    0.000    2.333    0.000    4.500    1.167    5.333 
#    0.000    1.667    0.000    4.500    0.000    5.250 
#    0.000    4.667    0.000    0.000    0.000    0.000 
#
# Total GULP energy -267761.106119 kJ/mol
# GULP energy per Si atom -5578.356377 kJ/mol
# Density = 1.772868 g / cm^3
# Si number density = 17.769127 Si / 1000 Ang^3
#
#
#
# Elastic Constant Matrix: (Units=GPa)
#
#
# Indices 1 2 3 4 5 6 
#
# 1 118.1955 37.3892 38.1961 0.0000 0.0000 0.0000
# 2 37.3892 55.8285 21.4728 0.0000 0.0000 0.0000
# 3 38.1961 21.4728 80.4257 0.0000 0.0000 0.0000
# 4 0.0000 0.0000 0.0000 12.3019 0.0000 0.0000
# 5 0.0000 0.0000 0.0000 0.0000 27.6156 0.0000
# 6 0.0000 0.0000 0.0000 0.0000 0.0000 21.9018
#
#
#
# Elastic Compliance Matrix: (Units=1/GPa)
#
#
# Indices 1 2 3 4 5 6 
#
# 1 0.011724 -0.006364 -0.003869 0.000000 0.000000 0.000000
# 2 -0.006364 0.023416 -0.003230 0.000000 0.000000 0.000000
# 3 -0.003869 -0.003230 0.015134 0.000000 0.000000 0.000000
# 4 0.000000 0.000000 0.000000 0.081289 0.000000 0.000000
# 5 0.000000 0.000000 0.000000 0.000000 0.036211 0.000000
# 6 0.000000 0.000000 0.000000 0.000000 0.000000 0.045658
#
#
# Mechanical properties :
#
#
# Convention : Reuss Voigt Hill
#
# Bulk Modulus (GPa) = 42.82810 49.84064 46.33437
# Shear Modulus (GPa) = 20.15002 22.85664 21.50333
#
# Velocity S-wave (km/s) = 3.37113 3.59041 3.48250
# Velocity P-wave (km/s) = 6.26957 6.73038 6.50406
#
# Compressibility (1/GPa) = 0.02334916
#
# Stress axis : x y z
#
# Youngs Moduli (GPa) = 85.29618 42.70601 66.07836
#
# Poissons Ratio (x) = 0.27176 0.25565
# Poissons Ratio (y) = 0.54279 0.21341
# Poissons Ratio (z) = 0.33001 0.13792
#
# Static dielectric constant tensor:
#      x y z
#    x 1.657130 0.000000 0.000000 
#    y 0.000000 1.599660 0.000000 
#    z 0.000000 0.000000 1.584170 
# 
# From -- ./inp_files/24495.got.cif
#   From: 2010.05.17/outbox.cif.g08.bks.cpg/sg47_13_cif.got.tgz:24495.got - 2010.06.03 20:15:42.
