data_PCOD9385605
_publ_section_title
;
Structure prediction by ZEFSAII (Michael W. Deem and Ramdas Pophale) SiO2 
 PCOD9385605
Probable space group: P M M M
;
_chemical_formula_sum "Si O2"
_cell_formula_units_Z 41
_cell_length_a 26.502453
_cell_length_b 9.681213
_cell_length_c 7.656840
_cell_angle_alpha 90.000000
_cell_angle_beta 90.000000
_cell_angle_gamma 90.000000
_cell_volume 1964.560557
_symmetry_space_group_name_H-M "P M M M"
_symmetry_group_IT_number 47
_symmetry_cell_setting 'orthorhombic'
loop_
_space_group_symop_operation_xyz
x,y,z
-x,-y,z
x,-y,-z
-x,y,-z
-x,-y,-z
x,y,-z
-x,y,z
x,-y,z
loop_
_atom_site_type_symbol
_atom_site_label
_atom_site_fract_x
_atom_site_fract_y
_atom_site_fract_z
Si Si1 0.389521 0.841529 0.794183
Si Si2 0.797782 0.158506 0.714331
Si Si3 0.500000 0.157425 0.291894
Si Si4 0.000000 0.000000 0.500000
Si Si5 0.705002 0.344032 0.293658
Si Si6 0.889768 0.654595 0.286834
Si Si7 0.000000 0.283956 0.304855
O O1 0.446009 0.784253 0.763039
O O2 0.346660 0.740898 0.724738
O O3 0.386586 0.000000 0.721879
O O4 0.381864 0.851240 0.000000
O O5 0.797350 0.157266 0.500000
O O6 0.750900 0.251185 0.776164
O O7 0.849765 0.231048 0.769833
O O8 0.793707 0.000000 0.770734
O O9 0.500000 0.152617 0.500000
O O10 0.500000 0.000000 0.220316
O O11 0.000000 0.877899 0.649533
O O12 0.714795 0.356972 0.500000
O O13 0.702292 0.500000 0.221540
O O14 0.891797 0.665016 0.500000
O O15 0.872165 0.500000 0.243962
O O16 0.946783 0.676333 0.221863
O O17 0.000000 0.350826 0.500000
#
# Coordination Sequence:
#
# PCOD9385605 Si02
#       7
#     8   8   4   1   8   8   4
#     4  10  20  34  54  79 107 136 169 207 249 296
#     4   9  17  26  41  60  82 112 153 200 248 296
#     4   9  17  31  54  83 110 139 170 206 246 291
#     4   8  16  20  26  44  64 100 146 200 234 290
#     4  10  20  34  50  70  97 130 168 210 254 301
#     4   9  15  22  32  48  73 106 146 191 241 296
#     4   8  15  20  30  41  69 102 145 190 240 290
#
# _framework density 20.869806000000001
#
# number of rings (size 3 to 8) (size 9 to 14) (size 15 to 20)
#    0.293    2.439    0.000    2.341    1.366    7.024 
#    0.000    0.488    0.000    2.927    0.000    0.000 
#    0.000    0.000    0.000    0.878    0.000   14.439 
#
# Total GULP energy -228344.728834 kJ/mol
# GULP energy per Si atom -5569.383630 kJ/mol
# Density = 2.082230 g / cm^3
# Si number density = 20.869806 Si / 1000 Ang^3
#
#
#
# Elastic Constant Matrix: (Units=GPa)
#
#
# Indices 1 2 3 4 5 6 
#
# 1 181.0698 95.7788 -5.0592 0.0000 0.0000 0.0000
# 2 95.7788 172.7880 7.5647 0.0000 0.0000 0.0000
# 3 -5.0592 7.5647 37.5566 0.0000 0.0000 0.0000
# 4 0.0000 0.0000 0.0000 1.3158 0.0000 0.0000
# 5 0.0000 0.0000 0.0000 0.0000 -48.5003 0.0000
# 6 0.0000 0.0000 0.0000 0.0000 0.0000 5.0399
#
#
#
# Elastic Compliance Matrix: (Units=1/GPa)
#
#
# Indices 1 2 3 4 5 6 
#
# 1 0.007957 -0.004497 0.001978 0.000000 0.000000 0.000000
# 2 -0.004497 0.008381 -0.002294 0.000000 0.000000 0.000000
# 3 0.001978 -0.002294 0.027355 0.000000 0.000000 0.000000
# 4 0.000000 0.000000 0.000000 0.759987 0.000000 0.000000
# 5 0.000000 0.000000 0.000000 0.000000 -0.020618 0.000000
# 6 0.000000 0.000000 0.000000 0.000000 0.000000 0.198417
#
#
# Mechanical properties :
#
#
# Convention : Reuss Voigt Hill
#
# Bulk Modulus (GPa) = 29.35499 65.33144 47.34321
# Shear Modulus (GPa) = 4.98773 11.11309 8.05041
#
# Velocity S-wave (km/s) = 1.54762 2.31009 1.96617
# Velocity P-wave (km/s) = 4.15810 6.20384 5.28098
#
# Compressibility (1/GPa) = 0.03406576
#
# Stress axis : x y z
#
# Youngs Moduli (GPa) = 125.67850 119.32174 36.55650
#
# Poissons Ratio (x) = 0.53661 -0.07230
# Poissons Ratio (y) = 0.56520 0.08386
# Poissons Ratio (z) = -0.24855 0.27371
#
# Static dielectric constant tensor:
#      x y z
#    x 1.753230 0.000000 0.000000 
#    y 0.000000 1.730130 0.000000 
#    z 0.000000 0.000000 1.783620 
# 
# From -- ./inp_files/13123.got.cif
#   From: 2010.05.17/outbox.cif.g08.bks.cpg/sg47_7_cif.got.tgz:13123.got - 2010.06.03 20:15:42.
