data_PCOD9385721
_publ_section_title
;
Structure prediction by ZEFSAII (Michael W. Deem and Ramdas Pophale) SiO2 
 PCOD9385721
Probable space group: P M M M
;
_chemical_formula_sum "Si O2"
_cell_formula_units_Z 32
_cell_length_a 7.575287
_cell_length_b 14.261430
_cell_length_c 15.594586
_cell_angle_alpha 90.000000
_cell_angle_beta 90.000000
_cell_angle_gamma 90.000000
_cell_volume 1684.752136
_symmetry_space_group_name_H-M "P M M M"
_symmetry_group_IT_number 47
_symmetry_cell_setting 'orthorhombic'
loop_
_space_group_symop_operation_xyz
x,y,z
-x,-y,z
x,-y,-z
-x,y,-z
-x,-y,-z
x,y,-z
-x,y,z
x,-y,z
loop_
_atom_site_type_symbol
_atom_site_label
_atom_site_fract_x
_atom_site_fract_y
_atom_site_fract_z
Si Si1 0.297640 0.192891 0.727290
Si Si2 0.697331 0.612247 0.500000
Si Si3 0.797393 0.393482 0.310065
Si Si4 0.000000 0.886444 0.602038
Si Si5 0.285500 0.109480 0.093141
O O1 0.500000 0.160514 0.713822
O O2 0.297668 0.305858 0.731690
O O3 0.169467 0.155709 0.652343
O O4 0.228250 0.157170 0.819108
O O5 0.680371 0.500000 0.500000
O O6 0.500000 0.653961 0.500000
O O7 0.791754 0.631709 0.588725
O O8 0.726613 0.500000 0.299823
O O9 0.000000 0.394231 0.281930
O O10 0.000000 0.863555 0.500000
O O11 0.000000 0.000000 0.609871
O O12 0.500000 0.114790 0.093091
O O13 0.237894 0.000000 0.096951
O O14 0.225687 0.146664 0.000000
#
# Coordination Sequence:
#
# PCOD9385721 Si02
#       5
#     8   4   8   4   8
#     4  11  22  37  61  87 114 152 194 235 285 345
#     4   9  17  29  47  73 101 134 183 237 283 325
#     4  10  20  34  52  76 110 149 189 236 285 332
#     4  11  26  44  58  80 118 157 196 240 280 332
#     4   8  15  31  57  87 114 140 178 234 295 346
#
# _framework density 18.993891000000001
#
# number of rings (size 3 to 8) (size 9 to 14) (size 15 to 20)
#    0.000    2.250    1.250    2.625    1.750    5.000 
#    0.000    1.875    0.000    3.000    0.000    5.250 
#    0.000    0.000    0.000    0.000    0.000    0.000 
#
# Total GULP energy -178351.155610 kJ/mol
# GULP energy per Si atom -5573.473613 kJ/mol
# Density = 1.895066 g / cm^3
# Si number density = 18.993891 Si / 1000 Ang^3
#
#
#
# Elastic Constant Matrix: (Units=GPa)
#
#
# Indices 1 2 3 4 5 6 
#
# 1 91.0817 17.3419 35.0800 0.0000 0.0000 0.0000
# 2 17.3419 92.5267 63.2021 0.0000 0.0000 0.0000
# 3 35.0800 63.2021 151.5767 0.0000 0.0000 0.0000
# 4 0.0000 0.0000 0.0000 14.6358 0.0000 0.0000
# 5 0.0000 0.0000 0.0000 0.0000 17.1883 0.0000
# 6 0.0000 0.0000 0.0000 0.0000 0.0000 18.1867
#
#
#
# Elastic Compliance Matrix: (Units=1/GPa)
#
#
# Indices 1 2 3 4 5 6 
#
# 1 0.012070 -0.000495 -0.002587 0.000000 0.000000 0.000000
# 2 -0.000495 0.015132 -0.006195 0.000000 0.000000 0.000000
# 3 -0.002587 -0.006195 0.009779 0.000000 0.000000 0.000000
# 4 0.000000 0.000000 0.000000 0.068326 0.000000 0.000000
# 5 0.000000 0.000000 0.000000 0.000000 0.058179 0.000000
# 6 0.000000 0.000000 0.000000 0.000000 0.000000 0.054985
#
#
# Mechanical properties :
#
#
# Convention : Reuss Voigt Hill
#
# Bulk Modulus (GPa) = 54.26838 62.93701 58.60270
# Shear Modulus (GPa) = 20.56196 24.63956 22.60076
#
# Velocity S-wave (km/s) = 3.29379 3.60562 3.45323
# Velocity P-wave (km/s) = 6.56498 7.10924 6.84252
#
# Compressibility (1/GPa) = 0.01842694
#
# Stress axis : x y z
#
# Youngs Moduli (GPa) = 82.85166 66.08492 102.25920
#
# Poissons Ratio (x) = 0.03272 0.26453
# Poissons Ratio (y) = 0.04103 0.63349
# Poissons Ratio (z) = 0.21433 0.40939
#
# Static dielectric constant tensor:
#      x y z
#    x 1.729440 0.000000 0.000000 
#    y 0.000000 1.672720 0.000000 
#    z 0.000000 0.000000 1.665320 
# 
# From -- ./inp_files/20479.got.cif
#   From: 2010.05.17/outbox.cif.g08.bks.cpg/sg47_11_cif.got.tgz:20479.got - 2010.06.03 20:15:42.
