data_PCOD9385216
_publ_section_title
;
Structure prediction by ZEFSAII (Michael W. Deem and Ramdas Pophale) SiO2 
 PCOD9385216
Probable space group: P M M M
;
_chemical_formula_sum "Si O2"
_cell_formula_units_Z 44
_cell_length_a 29.920272
_cell_length_b 9.509183
_cell_length_c 7.599831
_cell_angle_alpha 90.000000
_cell_angle_beta 90.000000
_cell_angle_gamma 90.000000
_cell_volume 2162.283715
_symmetry_space_group_name_H-M "P M M M"
_symmetry_group_IT_number 47
_symmetry_cell_setting 'orthorhombic'
loop_
_space_group_symop_operation_xyz
x,y,z
-x,-y,z
x,-y,-z
-x,y,-z
-x,-y,-z
x,y,-z
-x,y,z
x,-y,z
loop_
_atom_site_type_symbol
_atom_site_label
_atom_site_fract_x
_atom_site_fract_y
_atom_site_fract_z
Si Si1 0.000000 0.337860 0.284116
Si Si2 0.730152 0.663038 0.788718
Si Si3 0.366726 0.340294 0.290307
Si Si4 0.549483 0.837135 0.285103
Si Si5 0.172141 0.337276 0.212274
Si Si6 0.084851 0.159098 0.290733
O O1 0.955971 0.254411 0.223884
O O2 0.000000 0.500000 0.227390
O O3 0.000000 0.339761 0.500000
O O4 0.728840 0.500000 0.728219
O O5 0.682408 0.725949 0.737628
O O6 0.778711 0.716307 0.728589
O O7 0.730961 0.663110 0.000000
O O8 0.372411 0.349900 0.500000
O O9 0.366618 0.500000 0.218626
O O10 0.408583 0.252595 0.221209
O O11 0.550059 0.834755 0.500000
O O12 0.500000 0.786384 0.231422
O O13 0.553837 0.000000 0.233090
O O14 0.166036 0.500000 0.271935
O O15 0.131509 0.238642 0.264291
O O16 0.172856 0.341575 0.000000
O O17 0.077880 0.148331 0.500000
O O18 0.085088 0.000000 0.219347
#
# Coordination Sequence:
#
# PCOD9385216 Si02
#       6
#     4   8   8   8   8   8
#     4   9  17  31  52  75  98 127 162 196 232 277
#     4   8  15  29  47  65  88 119 150 181 223 273
#     4   9  16  25  41  67  91 109 139 185 226 258
#     4   8  14  25  40  58  83 115 145 173 214 267
#     4   9  18  33  52  72  94 124 163 201 235 276
#     4  10  20  33  50  74 103 131 158 192 236 282
#
# _framework density 20.348856000000001
#
# number of rings (size 3 to 8) (size 9 to 14) (size 15 to 20)
#    0.000    3.182    0.000    2.455    0.000    3.636 
#    0.000    5.000    0.000    7.091    0.000    3.818 
#    0.000    0.000    0.000    0.000    0.000    0.000 
#
# Total GULP energy -245188.325289 kJ/mol
# GULP energy per Si atom -5572.461938 kJ/mol
# Density = 2.030254 g / cm^3
# Si number density = 20.348856 Si / 1000 Ang^3
#
#
#
# Elastic Constant Matrix: (Units=GPa)
#
#
# Indices 1 2 3 4 5 6 
#
# 1 246.9753 107.9488 1.1855 0.0000 0.0000 0.0000
# 2 107.9488 107.4237 5.6749 0.0000 0.0000 0.0000
# 3 1.1855 5.6749 39.7401 0.0000 0.0000 0.0000
# 4 0.0000 0.0000 0.0000 5.4552 0.0000 0.0000
# 5 0.0000 0.0000 0.0000 0.0000 36.3691 0.0000
# 6 0.0000 0.0000 0.0000 0.0000 0.0000 -27.6213
#
#
#
# Elastic Compliance Matrix: (Units=1/GPa)
#
#
# Indices 1 2 3 4 5 6 
#
# 1 0.007247 -0.007327 0.000830 0.000000 0.000000 0.000000
# 2 -0.007327 0.016786 -0.002179 0.000000 0.000000 0.000000
# 3 0.000830 -0.002179 0.025450 0.000000 0.000000 0.000000
# 4 0.000000 0.000000 0.000000 0.183312 0.000000 0.000000
# 5 0.000000 0.000000 0.000000 0.000000 0.027496 0.000000
# 6 0.000000 0.000000 0.000000 0.000000 0.000000 -0.036204
#
#
# Mechanical properties :
#
#
# Convention : Reuss Voigt Hill
#
# Bulk Modulus (GPa) = 31.12025 69.30637 50.21331
# Shear Modulus (GPa) = 19.82956 21.46259 20.64608
#
# Velocity S-wave (km/s) = 3.12505 3.25119 3.18874
# Velocity P-wave (km/s) = 5.32427 6.94454 6.18767
#
# Compressibility (1/GPa) = 0.03213342
#
# Stress axis : x y z
#
# Youngs Moduli (GPa) = 137.98157 59.57188 39.29297
#
# Poissons Ratio (x) = 0.43646 -0.03261
# Poissons Ratio (y) = 1.01094 0.08560
# Poissons Ratio (z) = -0.11453 0.12978
#
# Static dielectric constant tensor:
#      x y z
#    x 1.745870 0.000000 0.000000 
#    y 0.000000 1.697040 0.000000 
#    z 0.000000 0.000000 1.768810 
# 
# From -- ./inp_files/13617.got.cif
#   From: 2010.05.17/outbox.cif.g08.bks.cpg/sg47_7_cif.got.tgz:13617.got - 2010.06.03 20:15:42.
