data_PCOD9385425
_publ_section_title
;
Structure prediction by ZEFSAII (Michael W. Deem and Ramdas Pophale) SiO2 
 PCOD9385425
Probable space group: P M M M
;
_chemical_formula_sum "Si O2"
_cell_formula_units_Z 48
_cell_length_a 7.906647
_cell_length_b 9.907561
_cell_length_c 30.011157
_cell_angle_alpha 90.000000
_cell_angle_beta 90.000000
_cell_angle_gamma 90.000000
_cell_volume 2350.941614
_symmetry_space_group_name_H-M "P M M M"
_symmetry_group_IT_number 47
_symmetry_cell_setting 'orthorhombic'
loop_
_space_group_symop_operation_xyz
x,y,z
-x,-y,z
x,-y,-z
-x,y,-z
-x,-y,-z
x,y,-z
-x,y,z
x,-y,z
loop_
_atom_site_type_symbol
_atom_site_label
_atom_site_fract_x
_atom_site_fract_y
_atom_site_fract_z
Si Si1 0.207166 0.156479 0.794225
Si Si2 0.704004 0.000000 0.948244
Si Si3 0.295730 0.651723 0.551386
Si Si4 0.797858 0.154479 0.369904
Si Si5 0.803938 0.251432 0.109730
Si Si6 0.793120 0.656776 0.711215
Si Si7 0.697693 0.500000 0.949935
O O1 0.268686 0.212975 0.841874
O O2 0.256967 0.258659 0.755039
O O3 0.000000 0.153278 0.794754
O O4 0.260299 0.000000 0.787691
O O5 0.777744 0.125937 0.922426
O O6 0.500000 0.000000 0.945151
O O7 0.749678 0.000000 0.000000
O O8 0.242434 0.671069 0.500000
O O9 0.500000 0.651690 0.552024
O O10 0.239891 0.500000 0.565578
O O11 0.235399 0.769045 0.583828
O O12 0.734365 0.254573 0.331025
O O13 0.000000 0.145402 0.363838
O O14 0.732078 0.000000 0.368252
O O15 0.737159 0.373860 0.081000
O O16 0.000000 0.279027 0.117832
O O17 0.737317 0.500000 0.710651
O O18 0.000000 0.653568 0.710431
O O19 0.500000 0.500000 0.956859
O O20 0.777306 0.500000 0.000000
#
# Coordination Sequence:
#
# PCOD9385425 Si02
#       7
#     8   4   8   8   8   8   4
#     4   9  17  31  51  80 114 141 171 220 278 327
#     4  11  23  39  59  83 115 155 191 225 278 345
#     4   9  19  36  56  77 104 143 189 234 282 335
#     4  10  20  33  51  80 115 148 184 228 276 326
#     4  11  22  37  60  89 115 144 188 240 284 328
#     4   9  17  29  50  79 110 145 182 222 271 328
#     4  11  25  43  59  79 113 155 191 227 284 349
#
# _framework density 20.417352000000001
#
# number of rings (size 3 to 8) (size 9 to 14) (size 15 to 20)
#    0.000    2.167    0.833    3.000    1.167    7.333 
#    0.000    2.500    0.000    2.000    0.000    0.000 
#    0.000    0.000    0.000    0.000    0.000    0.000 
#
# Total GULP energy -267852.853826 kJ/mol
# GULP energy per Si atom -5580.267788 kJ/mol
# Density = 2.037088 g / cm^3
# Si number density = 20.417352 Si / 1000 Ang^3
#
#
#
# Elastic Constant Matrix: (Units=GPa)
#
#
# Indices 1 2 3 4 5 6 
#
# 1 16.7471 7.9360 2.7517 0.0000 0.0000 0.0000
# 2 7.9360 231.9928 113.6698 0.0000 0.0000 0.0000
# 3 2.7517 113.6698 153.4490 0.0000 0.0000 0.0000
# 4 0.0000 0.0000 0.0000 50.2359 0.0000 0.0000
# 5 0.0000 0.0000 0.0000 0.0000 51.4471 0.0000
# 6 0.0000 0.0000 0.0000 0.0000 0.0000 -20.5461
#
#
#
# Elastic Compliance Matrix: (Units=1/GPa)
#
#
# Indices 1 2 3 4 5 6 
#
# 1 0.060744 -0.002424 0.000706 0.000000 0.000000 0.000000
# 2 -0.002424 0.006863 -0.005040 0.000000 0.000000 0.000000
# 3 0.000706 -0.005040 0.010238 0.000000 0.000000 0.000000
# 4 0.000000 0.000000 0.000000 0.019906 0.000000 0.000000
# 5 0.000000 0.000000 0.000000 0.000000 0.019437 0.000000
# 6 0.000000 0.000000 0.000000 0.000000 0.000000 -0.048671
#
#
# Mechanical properties :
#
#
# Convention : Reuss Voigt Hill
#
# Bulk Modulus (GPa) = 15.54505 72.32268 43.93386
# Shear Modulus (GPa) = 48.31975 34.74947 41.53461
#
# Velocity S-wave (km/s) = 4.87005 4.12995 4.51519
# Velocity P-wave (km/s) = 6.26525 7.63159 6.98192
#
# Compressibility (1/GPa) = 0.06432916
#
# Stress axis : x y z
#
# Youngs Moduli (GPa) = 16.46241 145.70698 97.67560
#
# Poissons Ratio (x) = 0.35320 -0.06899
# Poissons Ratio (y) = 0.03991 0.49233
# Poissons Ratio (z) = -0.01163 0.73443
#
# Static dielectric constant tensor:
#      x y z
#    x 1.749780 0.000000 0.000000 
#    y 0.000000 1.670930 0.000000 
#    z 0.000000 0.000000 1.731640 
# 
# From -- ./inp_files/2802.got.cif
#   From: 2010.05.17/outbox.cif.g08.bks.cpg/sg47_2_cif.got.tgz:2802.got - 2010.06.03 20:15:42.
