data_PCOD9385494
_publ_section_title
;
Structure prediction by ZEFSAII (Michael W. Deem and Ramdas Pophale) SiO2 
 PCOD9385494
Probable space group: P M M M
;
_chemical_formula_sum "Si O2"
_cell_formula_units_Z 64
_cell_length_a 7.703626
_cell_length_b 15.245401
_cell_length_c 25.968275
_cell_angle_alpha 90.000000
_cell_angle_beta 90.000000
_cell_angle_gamma 90.000000
_cell_volume 3049.840617
_symmetry_space_group_name_H-M "P M M M"
_symmetry_group_IT_number 47
_symmetry_cell_setting 'orthorhombic'
loop_
_space_group_symop_operation_xyz
x,y,z
-x,-y,z
x,-y,-z
-x,y,-z
-x,-y,-z
x,y,-z
-x,y,z
x,-y,z
loop_
_atom_site_type_symbol
_atom_site_label
_atom_site_fract_x
_atom_site_fract_y
_atom_site_fract_z
Si Si1 0.294284 0.745857 0.365573
Si Si2 0.787139 0.601632 0.842806
Si Si3 0.206517 0.728782 0.753110
Si Si4 0.791060 0.100819 0.557607
Si Si5 0.297295 0.096200 0.923729
Si Si6 0.712094 0.598939 0.558267
Si Si7 0.789195 0.094439 0.803920
Si Si8 0.204289 0.705845 0.944359
O O1 0.500000 0.736787 0.363825
O O2 0.233673 0.729461 0.307692
O O3 0.257924 0.836806 0.395141
O O4 0.221173 0.670198 0.402389
O O5 0.732851 0.500000 0.845313
O O6 0.729283 0.650516 0.790194
O O7 0.728087 0.658033 0.892827
O O8 0.000000 0.601800 0.843103
O O9 0.276164 0.821323 0.774042
O O10 0.000000 0.729674 0.761300
O O11 0.731039 0.130754 0.500000
O O12 0.000000 0.099686 0.555998
O O13 0.732373 0.000000 0.564471
O O14 0.500000 0.097932 0.937418
O O15 0.276833 0.097506 0.862109
O O16 0.219450 0.188454 0.941254
O O17 0.226792 0.000000 0.940305
O O18 0.766942 0.618290 0.500000
O O19 0.500000 0.600734 0.558422
O O20 0.763938 0.500000 0.571443
O O21 0.000000 0.097436 0.806134
O O22 0.740164 0.000000 0.781003
O O23 0.000000 0.685063 0.945185
O O24 0.279154 0.678205 0.000000
#
# Coordination Sequence:
#
# PCOD9385494 Si02
#       8
#     8   8   8   8   8   8   8   8
#     4  11  22  33  51  82 114 142 180 229 274 319
#     4   9  18  35  58  82 108 139 180 230 280 328
#     4  10  20  35  53  75 106 145 183 218 267 327
#     4   9  19  37  59  81 109 149 192 229 272 330
#     4  10  20  33  52  79 111 144 174 210 263 322
#     4   8  15  30  51  73 100 136 174 212 260 317
#     4   9  17  32  55  77  98 131 177 222 261 309
#     4  10  20  35  57  84 111 141 182 228 271 323
#
# _framework density 20.984701999999999
#
# number of rings (size 3 to 8) (size 9 to 14) (size 15 to 20)
#    0.000    2.500    1.250    1.875    0.000    4.000 
#    0.000    4.375    0.000    2.250    0.000    5.250 
#    0.000    0.000    0.000    0.000    0.000    0.000 
#
# Total GULP energy -356932.782377 kJ/mol
# GULP energy per Si atom -5577.074725 kJ/mol
# Density = 2.093694 g / cm^3
# Si number density = 20.984702 Si / 1000 Ang^3
#
#
#
# Elastic Constant Matrix: (Units=GPa)
#
#
# Indices 1 2 3 4 5 6 
#
# 1 28.3740 4.0541 -4.2401 0.0000 0.0000 0.0000
# 2 4.0541 156.3800 111.0769 0.0000 0.0000 0.0000
# 3 -4.2401 111.0769 152.2165 0.0000 0.0000 0.0000
# 4 0.0000 0.0000 0.0000 -28.7258 0.0000 0.0000
# 5 0.0000 0.0000 0.0000 0.0000 -5.3146 0.0000
# 6 0.0000 0.0000 0.0000 0.0000 0.0000 -8.7955
#
#
#
# Elastic Compliance Matrix: (Units=1/GPa)
#
#
# Indices 1 2 3 4 5 6 
#
# 1 0.036261 -0.003441 0.003521 0.000000 0.000000 0.000000
# 2 -0.003441 0.013603 -0.010022 0.000000 0.000000 0.000000
# 3 0.003521 -0.010022 0.013981 0.000000 0.000000 0.000000
# 4 0.000000 0.000000 0.000000 -0.034812 0.000000 0.000000
# 5 0.000000 0.000000 0.000000 0.000000 -0.188162 0.000000
# 6 0.000000 0.000000 0.000000 0.000000 0.000000 -0.113695
#
#
# Mechanical properties :
#
#
# Convention : Reuss Voigt Hill
#
# Bulk Modulus (GPa) = 22.74741 62.08358 42.41549
# Shear Modulus (GPa) = -20.98323 6.50479 -7.23922
#
# Velocity S-wave (km/s) = -3.16560 1.76253 -1.85937
# Velocity P-wave (km/s) = 1.58045 5.81304 3.95560
#
# Compressibility (1/GPa) = 0.04396105
#
# Stress axis : x y z
#
# Youngs Moduli (GPa) = 27.57749 73.51548 71.52527
#
# Poissons Ratio (x) = 0.25298 -0.25186
# Poissons Ratio (y) = 0.09490 0.71683
# Poissons Ratio (z) = -0.09711 0.73678
#
# Static dielectric constant tensor:
#      x y z
#    x 1.790570 0.000000 0.000000 
#    y 0.000000 1.762180 0.000000 
#    z 0.000000 0.000000 1.770680 
# 
# From -- ./inp_files/32116.got.cif
#   From: 2010.05.17/outbox.cif.g08.bks.cpg/sg47_17_cif.got.tgz:32116.got - 2010.06.03 20:15:42.
