data_PCOD9385317
_publ_section_title
;
Structure prediction by ZEFSAII (Michael W. Deem and Ramdas Pophale) SiO2 
 PCOD9385317
Probable space group: P M M M
;
_chemical_formula_sum "Si O2"
_cell_formula_units_Z 44
_cell_length_a 29.323394
_cell_length_b 9.033537
_cell_length_c 9.530834
_cell_angle_alpha 90.000000
_cell_angle_beta 90.000000
_cell_angle_gamma 90.000000
_cell_volume 2524.660405
_symmetry_space_group_name_H-M "P M M M"
_symmetry_group_IT_number 47
_symmetry_cell_setting 'orthorhombic'
loop_
_space_group_symop_operation_xyz
x,y,z
-x,-y,z
x,-y,-z
-x,y,-z
-x,-y,-z
x,y,-z
-x,y,z
x,-y,z
loop_
_atom_site_type_symbol
_atom_site_label
_atom_site_fract_x
_atom_site_fract_y
_atom_site_fract_z
Si Si1 0.050967 0.677971 0.664251
Si Si2 0.594530 0.676726 0.833507
Si Si3 0.500000 0.170192 0.170383
Si Si4 0.765671 0.819821 0.838240
Si Si5 0.677192 0.178776 0.335408
Si Si6 0.867638 0.824283 0.832678
O O1 0.055811 0.717177 0.500000
O O2 0.052446 0.500000 0.673856
O O3 0.091735 0.745471 0.752609
O O4 0.000000 0.725613 0.710315
O O5 0.593263 0.500000 0.817407
O O6 0.546213 0.746573 0.787935
O O7 0.635397 0.747019 0.745666
O O8 0.600865 0.709301 0.000000
O O9 0.500000 0.000000 0.218008
O O10 0.500000 0.169862 0.000000
O O11 0.724564 0.774359 0.738090
O O12 0.816462 0.772180 0.793342
O O13 0.766649 0.000000 0.839099
O O14 0.757675 0.773581 0.000000
O O15 0.676971 0.215220 0.500000
O O16 0.673589 0.000000 0.322133
O O17 0.870209 0.000000 0.805354
O O18 0.871765 0.802850 0.000000
#
# Coordination Sequence:
#
# PCOD9385317 Si02
#       6
#     8   8   4   8   8   8
#     4   9  19  35  51  68  95 132 171 207 244 292
#     4  10  20  34  53  77 105 136 169 206 249 296
#     4   9  17  31  54  81 104 129 166 210 252 295
#     4   8  15  30  51  73  99 131 165 203 248 296
#     4  10  20  33  51  76 103 132 169 209 247 292
#     4   9  18  32  51  77 104 127 158 204 254 301
#
# _framework density 17.428086
#
# number of rings (size 3 to 8) (size 9 to 14) (size 15 to 20)
#    0.000    2.818    0.000    3.000    0.000    5.455 
#    0.000    5.909    0.000    3.818    0.000    0.000 
#    0.000    0.000    0.000    0.000    0.000    0.000 
#
# Total GULP energy -245309.662042 kJ/mol
# GULP energy per Si atom -5575.219592 kJ/mol
# Density = 1.738842 g / cm^3
# Si number density = 17.428086 Si / 1000 Ang^3
#
#
#
# Elastic Constant Matrix: (Units=GPa)
#
#
# Indices 1 2 3 4 5 6 
#
# 1 217.0771 63.4081 97.6701 0.0000 0.0000 0.0000
# 2 63.4081 35.2754 45.7355 0.0000 0.0000 0.0000
# 3 97.6701 45.7355 72.0156 0.0000 0.0000 0.0000
# 4 0.0000 0.0000 0.0000 24.5634 0.0000 0.0000
# 5 0.0000 0.0000 0.0000 0.0000 -21.9866 0.0000
# 6 0.0000 0.0000 0.0000 0.0000 0.0000 -111.6216
#
#
#
# Elastic Compliance Matrix: (Units=1/GPa)
#
#
# Indices 1 2 3 4 5 6 
#
# 1 0.011861 -0.002627 -0.014418 0.000000 0.000000 0.000000
# 2 -0.002627 0.161099 -0.098747 0.000000 0.000000 0.000000
# 3 -0.014418 -0.098747 0.096152 0.000000 0.000000 0.000000
# 4 0.000000 0.000000 0.000000 0.040711 0.000000 0.000000
# 5 0.000000 0.000000 0.000000 0.000000 -0.045482 0.000000
# 6 0.000000 0.000000 0.000000 0.000000 0.000000 -0.008959
#
#
# Mechanical properties :
#
#
# Convention : Reuss Voigt Hill
#
# Bulk Modulus (GPa) = 26.64704 81.99950 54.32327
# Shear Modulus (GPa) = 10.01047 -13.97201 -1.98077
#
# Velocity S-wave (km/s) = 2.39924 -2.83449 -1.06724
# Velocity P-wave (km/s) = 4.79563 6.03654 5.45151
#
# Compressibility (1/GPa) = 0.03752762
#
# Stress axis : x y z
#
# Youngs Moduli (GPa) = 84.30761 6.20736 10.40018
#
# Poissons Ratio (x) = 0.01631 0.14995
# Poissons Ratio (y) = 0.22152 1.02699
# Poissons Ratio (z) = 1.21556 0.61296
#
# Static dielectric constant tensor:
#      x y z
#    x 1.585350 0.000000 0.000000 
#    y 0.000000 1.583110 0.000000 
#    z 0.000000 0.000000 1.573430 
# 
# From -- ./inp_files/2161.got.cif
#   From: 2010.05.17/outbox.cif.g08.bks.cpg/sg47_2_cif.got.tgz:2161.got - 2010.06.03 20:15:42.
