data_PCOD9385364
_publ_section_title
;
Structure prediction by ZEFSAII (Michael W. Deem and Ramdas Pophale) SiO2 
 PCOD9385364
Probable space group: P M M M
;
_chemical_formula_sum "Si O2"
_cell_formula_units_Z 40
_cell_length_a 7.496992
_cell_length_b 8.105180
_cell_length_c 30.659888
_cell_angle_alpha 90.000000
_cell_angle_beta 90.000000
_cell_angle_gamma 90.000000
_cell_volume 1863.031833
_symmetry_space_group_name_H-M "P M M M"
_symmetry_group_IT_number 47
_symmetry_cell_setting 'orthorhombic'
loop_
_space_group_symop_operation_xyz
x,y,z
-x,-y,z
x,-y,-z
-x,y,-z
-x,-y,-z
x,y,-z
-x,y,z
x,-y,z
loop_
_atom_site_type_symbol
_atom_site_label
_atom_site_fract_x
_atom_site_fract_y
_atom_site_fract_z
Si Si1 0.707749 0.198974 0.289237
Si Si2 0.296400 0.698363 0.617071
Si Si3 0.218581 0.000000 0.050509
Si Si4 0.000000 0.297788 0.549949
Si Si5 0.284048 0.808897 0.194736
Si Si6 0.789519 0.321442 0.100850
O O1 0.500000 0.252777 0.290376
O O2 0.781913 0.255989 0.335459
O O3 0.780729 0.252702 0.242138
O O4 0.712147 0.000000 0.288171
O O5 0.500000 0.761858 0.613861
O O6 0.303243 0.500000 0.615182
O O7 0.171978 0.755712 0.577737
O O8 0.282965 0.163393 0.075393
O O9 0.000000 0.000000 0.052477
O O10 0.268685 0.000000 0.000000
O O11 0.000000 0.500000 0.549528
O O12 0.000000 0.242694 0.500000
O O13 0.500000 0.809545 0.196660
O O14 0.229553 0.708564 0.152480
O O15 0.226697 0.000000 0.188845
O O16 0.713156 0.500000 0.089141
O O17 0.000000 0.326137 0.091050
#
# Coordination Sequence:
#
# PCOD9385364 Si02
#       6
#     8   8   4   4   8   8
#     4   8  15  29  49  72  98 130 166 201 241 300
#     4   9  17  30  49  71  96 128 166 211 261 312
#     4   9  18  34  55  75 101 139 177 223 275 316
#     4   9  18  32  49  71  99 129 167 219 269 312
#     4   9  17  31  52  75 101 137 175 208 254 317
#     4  10  20  33  51  77 106 135 172 219 268 320
#
# _framework density 21.470381
#
# number of rings (size 3 to 8) (size 9 to 14) (size 15 to 20)
#    0.000    3.000    1.000    1.200    0.000    2.000 
#    1.800    6.500    0.000    2.400    0.000    4.200 
#    0.000    0.000    0.000    0.000    0.000    0.000 
#
# Total GULP energy -223139.586678 kJ/mol
# GULP energy per Si atom -5578.489667 kJ/mol
# Density = 2.142151 g / cm^3
# Si number density = 21.470381 Si / 1000 Ang^3
#
#
#
# Elastic Constant Matrix: (Units=GPa)
#
#
# Indices 1 2 3 4 5 6 
#
# 1 71.5488 18.9226 28.3159 0.0000 0.0000 0.0000
# 2 18.9226 85.5719 69.3876 0.0000 0.0000 0.0000
# 3 28.3159 69.3876 186.2749 0.0000 0.0000 0.0000
# 4 0.0000 0.0000 0.0000 31.0072 0.0000 0.0000
# 5 0.0000 0.0000 0.0000 0.0000 22.2170 0.0000
# 6 0.0000 0.0000 0.0000 0.0000 0.0000 -3.5882
#
#
#
# Elastic Compliance Matrix: (Units=1/GPa)
#
#
# Indices 1 2 3 4 5 6 
#
# 1 0.015135 -0.002122 -0.001510 0.000000 0.000000 0.000000
# 2 -0.002122 0.017041 -0.006025 0.000000 0.000000 0.000000
# 3 -0.001510 -0.006025 0.007842 0.000000 0.000000 0.000000
# 4 0.000000 0.000000 0.000000 0.032251 0.000000 0.000000
# 5 0.000000 0.000000 0.000000 0.000000 0.045011 0.000000
# 6 0.000000 0.000000 0.000000 0.000000 0.000000 -0.278695
#
#
# Mechanical properties :
#
#
# Convention : Reuss Voigt Hill
#
# Bulk Modulus (GPa) = 48.30123 64.07197 56.18660
# Shear Modulus (GPa) = -36.98267 25.04516 -5.96876
#
# Velocity S-wave (km/s) = -4.15480 3.41911 -1.66914
# Velocity P-wave (km/s) = 0.68627 6.74492 4.74462
#
# Compressibility (1/GPa) = 0.02070341
#
# Stress axis : x y z
#
# Youngs Moduli (GPa) = 66.07006 58.68188 127.51259
#
# Poissons Ratio (x) = 0.12454 0.19257
# Poissons Ratio (y) = 0.14022 0.76829
# Poissons Ratio (z) = 0.09978 0.35357
#
# Static dielectric constant tensor:
#      x y z
#    x 1.801060 0.000000 0.000000 
#    y 0.000000 1.777740 0.000000 
#    z 0.000000 0.000000 1.758790 
# 
# From -- ./inp_files/32998.got.cif
#   From: 2010.05.17/outbox.cif.g08.bks.cpg/sg47_17_cif.got.tgz:32998.got - 2010.06.03 20:15:42.
