data_PCOD9385440
_publ_section_title
;
Structure prediction by ZEFSAII (Michael W. Deem and Ramdas Pophale) SiO2 
 PCOD9385440
Probable space group: P M M M
;
_chemical_formula_sum "Si O2"
_cell_formula_units_Z 48
_cell_length_a 9.710524
_cell_length_b 7.566119
_cell_length_c 31.795453
_cell_angle_alpha 90.000000
_cell_angle_beta 90.000000
_cell_angle_gamma 90.000000
_cell_volume 2336.043096
_symmetry_space_group_name_H-M "P M M M"
_symmetry_group_IT_number 47
_symmetry_cell_setting 'orthorhombic'
loop_
_space_group_symop_operation_xyz
x,y,z
-x,-y,z
x,-y,-z
-x,y,-z
-x,-y,-z
x,y,-z
-x,y,z
x,-y,z
loop_
_atom_site_type_symbol
_atom_site_label
_atom_site_fract_x
_atom_site_fract_y
_atom_site_fract_z
Si Si1 0.342296 0.713171 0.781278
Si Si2 0.842371 0.284057 0.547798
Si Si3 0.159625 0.284334 0.046549
Si Si4 0.844198 0.208010 0.298121
Si Si5 0.341285 0.284461 0.124247
Si Si6 0.345398 0.708700 0.623110
O O1 0.500000 0.773210 0.772345
O O2 0.346969 0.500000 0.781846
O O3 0.234260 0.764198 0.745821
O O4 0.302897 0.772276 0.828449
O O5 0.808534 0.230832 0.500000
O O6 0.841686 0.500000 0.548374
O O7 0.737630 0.218379 0.583070
O O8 0.000000 0.230641 0.557106
O O9 0.163431 0.500000 0.046940
O O10 0.247326 0.221596 0.086094
O O11 0.000000 0.233269 0.050675
O O12 0.208888 0.229352 0.000000
O O13 0.747463 0.275665 0.335452
O O14 0.000000 0.282254 0.298336
O O15 0.855062 0.000000 0.304928
O O16 0.500000 0.234925 0.117407
O O17 0.335702 0.500000 0.124203
O O18 0.500000 0.781081 0.628640
O O19 0.359260 0.500000 0.615238
#
# Coordination Sequence:
#
# PCOD9385440 Si02
#       6
#     8   8   8   8   8   8
#     4   9  18  33  52  73  96 122 156 198 242 289
#     4   8  14  26  46  73 104 135 164 195 233 276
#     4   8  13  20  30  48  78 115 151 184 219 263
#     4  11  24  38  51  70  96 126 162 202 243 289
#     4   8  14  24  38  58  84 113 146 185 227 272
#     4  10  20  33  52  78 104 131 164 200 239 284
#
# _framework density 20.547567000000001
#
# number of rings (size 3 to 8) (size 9 to 14) (size 15 to 20)
#    0.000    3.000    0.000    3.500    0.000    6.000 
#    0.000    5.000    0.000    0.500    0.000    3.500 
#    0.000    0.667    0.000    7.333    0.000   12.000 
#
# Total GULP energy -267768.195803 kJ/mol
# GULP energy per Si atom -5578.504079 kJ/mol
# Density = 2.050080 g / cm^3
# Si number density = 20.547567 Si / 1000 Ang^3
#
#
#
# Elastic Constant Matrix: (Units=GPa)
#
#
# Indices 1 2 3 4 5 6 
#
# 1 162.1025 3.8636 136.6501 0.0000 0.0000 0.0000
# 2 3.8636 45.3969 -2.3269 0.0000 0.0000 0.0000
# 3 136.6501 -2.3269 186.1222 0.0000 0.0000 0.0000
# 4 0.0000 0.0000 0.0000 -88.9266 0.0000 0.0000
# 5 0.0000 0.0000 0.0000 0.0000 42.9610 0.0000
# 6 0.0000 0.0000 0.0000 0.0000 0.0000 -7.2125
#
#
#
# Elastic Compliance Matrix: (Units=1/GPa)
#
#
# Indices 1 2 3 4 5 6 
#
# 1 0.016369 -0.002010 -0.012043 0.000000 0.000000 0.000000
# 2 -0.002010 0.022289 0.001755 0.000000 0.000000 0.000000
# 3 -0.012043 0.001755 0.014237 0.000000 0.000000 0.000000
# 4 0.000000 0.000000 0.000000 -0.011245 0.000000 0.000000
# 5 0.000000 0.000000 0.000000 0.000000 0.023277 0.000000
# 6 0.000000 0.000000 0.000000 0.000000 0.000000 -0.138648
#
#
# Mechanical properties :
#
#
# Convention : Reuss Voigt Hill
#
# Bulk Modulus (GPa) = 35.33943 74.44389 54.89166
# Shear Modulus (GPa) = -125.97406 6.39337 -59.79034
#
# Velocity S-wave (km/s) = -7.83847 1.76586 -5.40015
# Velocity P-wave (km/s) = 8.04276 6.36132 3.47991
#
# Compressibility (1/GPa) = 0.02829701
#
# Stress axis : x y z
#
# Youngs Moduli (GPa) = 61.09029 44.86518 70.23995
#
# Poissons Ratio (x) = 0.09020 0.84592
# Poissons Ratio (y) = 0.12282 -0.12325
# Poissons Ratio (z) = 0.73573 -0.07873
#
# Static dielectric constant tensor:
#      x y z
#    x 1.722880 0.000000 0.000000 
#    y 0.000000 1.776420 0.000000 
#    z 0.000000 0.000000 1.714280 
# 
# From -- ./inp_files/2503.got.cif
#   From: 2010.05.17/outbox.cif.g08.bks.cpg/sg47_2_cif.got.tgz:2503.got - 2010.06.03 20:15:42.
