data_PCOD9385412
_publ_section_title
;
Structure prediction by ZEFSAII (Michael W. Deem and Ramdas Pophale) SiO2 
 PCOD9385412
Probable space group: P M M M
;
_chemical_formula_sum "Si O2"
_cell_formula_units_Z 37
_cell_length_a 7.551180
_cell_length_b 23.354485
_cell_length_c 9.753936
_cell_angle_alpha 90.000000
_cell_angle_beta 90.000000
_cell_angle_gamma 90.000000
_cell_volume 1720.144849
_symmetry_space_group_name_H-M "P M M M"
_symmetry_group_IT_number 47
_symmetry_cell_setting 'orthorhombic'
loop_
_space_group_symop_operation_xyz
x,y,z
-x,-y,z
x,-y,-z
-x,y,-z
-x,-y,-z
x,y,-z
-x,y,z
x,-y,z
loop_
_atom_site_type_symbol
_atom_site_label
_atom_site_fract_x
_atom_site_fract_y
_atom_site_fract_z
Si Si1 0.214659 0.878781 0.348007
Si Si2 0.000000 0.000000 0.000000
Si Si3 0.696245 0.000000 0.232890
Si Si4 0.212515 0.777630 0.155173
Si Si5 0.283930 0.565313 0.156442
Si Si6 0.712571 0.331440 0.655541
O O1 0.266177 0.858623 0.500000
O O2 0.277151 0.834750 0.231815
O O3 0.000000 0.880224 0.342862
O O4 0.280537 0.942520 0.321066
O O5 0.846406 0.000000 0.118811
O O6 0.500000 0.000000 0.172924
O O7 0.250000 0.723401 0.250671
O O8 0.000000 0.782702 0.146309
O O9 0.280747 0.771221 0.000000
O O10 0.500000 0.565778 0.157586
O O11 0.229355 0.500000 0.186097
O O12 0.221572 0.612117 0.264896
O O13 0.230495 0.579629 0.000000
O O14 0.780303 0.325789 0.500000
O O15 0.500000 0.336612 0.647244
#
# Coordination Sequence:
#
# PCOD9385412 Si02
#       6
#     8   1   4   8   8   8
#     4  10  21  40  65  91 123 162 200 249 312 371
#     4  12  26  48  66  94 144 168 208 272 302 378
#     4  12  26  42  70  99 128 173 213 258 317 369
#     4  10  22  38  60  85 113 154 200 240 290 353
#     4   8  14  26  46  72 103 141 184 231 289 354
#     4  10  20  33  51  78 112 147 186 238 293 346
#
# _framework density 21.509817000000002
#
# number of rings (size 3 to 8) (size 9 to 14) (size 15 to 20)
#    0.000    2.162    1.081    2.432    1.514    5.622 
#    0.000    2.162    0.000    0.649    0.000    4.541 
#    0.000    0.000    0.000    0.000    0.000    0.000 
#
# Total GULP energy -206489.622423 kJ/mol
# GULP energy per Si atom -5580.800606 kJ/mol
# Density = 2.146086 g / cm^3
# Si number density = 21.509817 Si / 1000 Ang^3
#
#
#
# Elastic Constant Matrix: (Units=GPa)
#
#
# Indices 1 2 3 4 5 6 
#
# 1 79.7752 -2.7167 20.4998 0.0000 0.0000 0.0000
# 2 -2.7167 164.5910 117.7497 0.0000 0.0000 0.0000
# 3 20.4998 117.7497 210.5888 0.0000 0.0000 0.0000
# 4 0.0000 0.0000 0.0000 1929.4409 0.0000 0.0000
# 5 0.0000 0.0000 0.0000 0.0000 -107.5787 0.0000
# 6 0.0000 0.0000 0.0000 0.0000 0.0000 20.9394
#
#
#
# Elastic Compliance Matrix: (Units=1/GPa)
#
#
# Indices 1 2 3 4 5 6 
#
# 1 0.013202 0.001896 -0.002345 0.000000 0.000000 0.000000
# 2 0.001896 0.010399 -0.005999 0.000000 0.000000 0.000000
# 3 -0.002345 -0.005999 0.008331 0.000000 0.000000 0.000000
# 4 0.000000 0.000000 0.000000 0.000518 0.000000 0.000000
# 5 0.000000 0.000000 0.000000 0.000000 -0.009296 0.000000
# 6 0.000000 0.000000 0.000000 0.000000 0.000000 0.047757
#
#
# Mechanical properties :
#
#
# Convention : Reuss Voigt Hill
#
# Bulk Modulus (GPa) = 52.53363 80.66896 66.60130
# Shear Modulus (GPa) = 55.46089 389.85512 222.65801
#
# Velocity S-wave (km/s) = 5.08330 13.47734 10.18525
# Velocity P-wave (km/s) = 7.67655 16.72632 13.01344
#
# Compressibility (1/GPa) = 0.01903543
#
# Stress axis : x y z
#
# Youngs Moduli (GPa) = 75.74371 96.16696 120.03211
#
# Poissons Ratio (x) = -0.18230 0.28149
# Poissons Ratio (y) = -0.14358 0.72005
# Poissons Ratio (z) = 0.17763 0.57689
#
# Static dielectric constant tensor:
#      x y z
#    x 1.827310 0.000000 0.000000 
#    y 0.000000 1.742970 0.000000 
#    z 0.000000 0.000000 1.764050 
# 
# From -- ./inp_files/1475.got.cif
#   From: 2010.05.17/outbox.cif.g08.bks.cpg/sg47_1_cif.got.tgz:1475.got - 2010.06.03 20:15:42.
