data_PCOD9385724
_publ_section_title
;
Structure prediction by ZEFSAII (Michael W. Deem and Ramdas Pophale) SiO2 
 PCOD9385724
Probable space group: P M M M
;
_chemical_formula_sum "Si O2"
_cell_formula_units_Z 29
_cell_length_a 12.547731
_cell_length_b 15.210848
_cell_length_c 7.262900
_cell_angle_alpha 90.000000
_cell_angle_beta 90.000000
_cell_angle_gamma 90.000000
_cell_volume 1386.208925
_symmetry_space_group_name_H-M "P M M M"
_symmetry_group_IT_number 47
_symmetry_cell_setting 'orthorhombic'
loop_
_space_group_symop_operation_xyz
x,y,z
-x,-y,z
x,-y,-z
-x,y,-z
-x,-y,-z
x,y,-z
-x,y,z
x,-y,z
loop_
_atom_site_type_symbol
_atom_site_label
_atom_site_fract_x
_atom_site_fract_y
_atom_site_fract_z
Si Si1 0.880460 0.898239 0.775667
Si Si2 0.500000 0.667945 0.226584
Si Si3 0.121865 0.600101 0.277583
Si Si4 0.500000 0.500000 0.500000
Si Si5 0.717858 0.244503 0.791092
O O1 0.788056 0.833945 0.707912
O O2 0.000000 0.870483 0.718111
O O3 0.865284 0.000000 0.724280
O O4 0.880703 0.894790 0.000000
O O5 0.500000 0.577297 0.338170
O O6 0.605356 0.722485 0.281675
O O7 0.500000 0.655307 0.000000
O O8 0.124948 0.602281 0.500000
O O9 0.147991 0.500000 0.222381
O O10 0.204226 0.671284 0.208600
O O11 0.000000 0.618881 0.221481
O O12 0.695087 0.216856 0.000000
#
# Coordination Sequence:
#
# PCOD9385724 Si02
#       5
#     8   4   8   1   8
#     4   8  14  27  51  82 112 146 188 231 286 353
#     4  10  25  41  58  90 117 146 206 252 281 347
#     4   9  19  33  49  72 102 137 180 225 274 345
#     4  12  26  44  68  78 108 172 198 240 312 336
#     4  10  20  34  52  77 112 143 182 243 289 332
#
# _framework density 20.920369000000001
#
# number of rings (size 3 to 8) (size 9 to 14) (size 15 to 20)
#    0.000    2.759    0.000    2.690    3.862    2.207 
#    0.000    2.069    0.000    4.966    0.000    4.828 
#    0.000    0.000    0.000    0.000    0.000    0.552 
#
# Total GULP energy -161592.547270 kJ/mol
# GULP energy per Si atom -5572.156802 kJ/mol
# Density = 2.087275 g / cm^3
# Si number density = 20.920369 Si / 1000 Ang^3
#
#
#
# Elastic Constant Matrix: (Units=GPa)
#
#
# Indices 1 2 3 4 5 6 
#
# 1 168.9740 119.6714 16.0362 0.0000 0.0000 0.0000
# 2 119.6714 129.4523 13.4641 0.0000 0.0000 0.0000
# 3 16.0362 13.4641 109.9209 0.0000 0.0000 0.0000
# 4 0.0000 0.0000 0.0000 50.0516 0.0000 0.0000
# 5 0.0000 0.0000 0.0000 0.0000 -0.9068 0.0000
# 6 0.0000 0.0000 0.0000 0.0000 0.0000 -28.4902
#
#
#
# Elastic Compliance Matrix: (Units=1/GPa)
#
#
# Indices 1 2 3 4 5 6 
#
# 1 0.017175 -0.015818 -0.000568 0.000000 0.000000 0.000000
# 2 -0.015818 0.022393 -0.000435 0.000000 0.000000 0.000000
# 3 -0.000568 -0.000435 0.009234 0.000000 0.000000 0.000000
# 4 0.000000 0.000000 0.000000 0.019979 0.000000 0.000000
# 5 0.000000 0.000000 0.000000 0.000000 -1.102811 0.000000
# 6 0.000000 0.000000 0.000000 0.000000 0.000000 -0.035100
#
#
# Mechanical properties :
#
#
# Convention : Reuss Voigt Hill
#
# Bulk Modulus (GPa) = 65.96847 78.52117 72.24482
# Shear Modulus (GPa) = -4.85232 21.40930 8.27849
#
# Velocity S-wave (km/s) = -1.52462 3.20249 1.99142
# Velocity P-wave (km/s) = 5.33876 7.16166 6.31632
#
# Compressibility (1/GPa) = 0.01515876
#
# Stress axis : x y z
#
# Youngs Moduli (GPa) = 58.22583 44.65727 108.29975
#
# Poissons Ratio (x) = 0.70638 0.06152
# Poissons Ratio (y) = 0.92100 0.04714
# Poissons Ratio (z) = 0.03308 0.01944
#
# Static dielectric constant tensor:
#      x y z
#    x 1.724890 0.000000 0.000000 
#    y 0.000000 1.712350 0.000000 
#    z 0.000000 0.000000 1.807050 
# 
# From -- ./inp_files/3245.got.cif
#   From: 2010.05.17/outbox.cif.g08.bks.cpg/sg47_2_cif.got.tgz:3245.got - 2010.06.03 20:15:42.
