data_PCOD9385898
_publ_section_title
;
Structure prediction by ZEFSAII (Michael W. Deem and Ramdas Pophale) SiO2 
 PCOD9385898
Probable space group: P M M M
;
_chemical_formula_sum "Si O2"
_cell_formula_units_Z 44
_cell_length_a 9.506158
_cell_length_b 9.008613
_cell_length_c 29.234712
_cell_angle_alpha 90.000000
_cell_angle_beta 90.000000
_cell_angle_gamma 90.000000
_cell_volume 2503.581759
_symmetry_space_group_name_H-M "P M M M"
_symmetry_group_IT_number 47
_symmetry_cell_setting 'orthorhombic'
loop_
_space_group_symop_operation_xyz
x,y,z
-x,-y,z
x,-y,-z
-x,y,-z
-x,-y,-z
x,y,-z
-x,y,z
x,-y,z
loop_
_atom_site_type_symbol
_atom_site_label
_atom_site_fract_x
_atom_site_fract_y
_atom_site_fract_z
Si Si1 0.838286 0.318609 0.500000
Si Si2 0.329030 0.671150 0.688980
Si Si3 0.835615 0.677517 0.865734
Si Si4 0.662621 0.318826 0.588191
Si Si5 0.666462 0.176619 0.217003
Si Si6 0.335425 0.177934 0.053036
O O1 0.836038 0.500000 0.500000
O O2 0.756968 0.270671 0.545740
O O3 0.000000 0.271702 0.500000
O O4 0.500000 0.670202 0.687109
O O5 0.283614 0.500000 0.695138
O O6 0.284984 0.726545 0.638684
O O7 0.288534 0.766379 0.732869
O O8 0.824076 0.500000 0.864568
O O9 0.754789 0.745660 0.822487
O O10 0.762840 0.739492 0.911386
O O11 0.000000 0.718225 0.864614
O O12 0.500000 0.272837 0.581869
O O13 0.662264 0.500000 0.589039
O O14 0.500000 0.212430 0.211468
O O15 0.681345 0.000000 0.213889
O O16 0.500000 0.212841 0.061815
O O17 0.319967 0.000000 0.058319
O O18 0.305179 0.214356 0.000000
#
# Coordination Sequence:
#
# PCOD9385898 Si02
#       6
#     4   8   8   8   8   8
#     4   9  15  21  31  53  86 117 144 182 234 283
#     4   8  14  26  45  68  93 122 157 197 241 289
#     4  11  24  38  52  75 107 140 173 209 249 294
#     4   8  13  22  37  56  80 114 153 188 226 279
#     4  10  20  34  54  78 101 128 165 208 253 302
#     4   9  19  37  60  84 108 135 170 210 250 295
#
# _framework density 17.574819000000002
#
# number of rings (size 3 to 8) (size 9 to 14) (size 15 to 20)
#    0.000    2.818    0.000    3.545    0.000    6.909 
#    0.000    3.636    0.000    3.273    0.000    0.636 
#    0.000    5.091    0.000    0.000    0.000    0.000 
#
# Total GULP energy -245320.943886 kJ/mol
# GULP energy per Si atom -5575.475997 kJ/mol
# Density = 1.753482 g / cm^3
# Si number density = 17.574819 Si / 1000 Ang^3
#
#
#
# Elastic Constant Matrix: (Units=GPa)
#
#
# Indices 1 2 3 4 5 6 
#
# 1 98.4719 45.9516 105.3501 0.0000 0.0000 0.0000
# 2 45.9516 32.0800 58.2065 0.0000 0.0000 0.0000
# 3 105.3501 58.2065 183.0351 0.0000 0.0000 0.0000
# 4 0.0000 0.0000 0.0000 -693.7075 0.0000 0.0000
# 5 0.0000 0.0000 0.0000 0.0000 -7.5344 0.0000
# 6 0.0000 0.0000 0.0000 0.0000 0.0000 17.8216
#
#
#
# Elastic Compliance Matrix: (Units=1/GPa)
#
#
# Indices 1 2 3 4 5 6 
#
# 1 0.037859 -0.034734 -0.010745 0.000000 0.000000 0.000000
# 2 -0.034734 0.105559 -0.013577 0.000000 0.000000 0.000000
# 3 -0.010745 -0.013577 0.015966 0.000000 0.000000 0.000000
# 4 0.000000 0.000000 0.000000 -0.001442 0.000000 0.000000
# 5 0.000000 0.000000 0.000000 0.000000 -0.132724 0.000000
# 6 0.000000 0.000000 0.000000 0.000000 0.000000 0.056112
#
#
# Mechanical properties :
#
#
# Convention : Reuss Voigt Hill
#
# Bulk Modulus (GPa) = 24.22920 81.40039 52.81480
# Shear Modulus (GPa) = 23.45229 -129.74548 -53.14660
#
# Velocity S-wave (km/s) = 3.65694 -8.60145 -5.50507
# Velocity P-wave (km/s) = 5.62559 7.22700 3.20798
#
# Compressibility (1/GPa) = 0.04127251
#
# Stress axis : x y z
#
# Youngs Moduli (GPa) = 26.41349 9.47338 62.63461
#
# Poissons Ratio (x) = 0.32905 0.67303
# Poissons Ratio (y) = 0.91744 0.85037
# Poissons Ratio (z) = 0.28382 0.12862
#
# Static dielectric constant tensor:
#      x y z
#    x 1.579000 0.000000 0.000000 
#    y 0.000000 1.584270 0.000000 
#    z 0.000000 0.000000 1.602480 
# 
# From -- ./inp_files/33949.got.cif
#   From: 2010.05.17/outbox.cif.g08.bks.cpg/sg47_17_cif.got.tgz:33949.got - 2010.06.03 20:15:42.
