data_PCOD9385363
_publ_section_title
;
Structure prediction by ZEFSAII (Michael W. Deem and Ramdas Pophale) SiO2 
 PCOD9385363
Probable space group: P M M M
;
_chemical_formula_sum "Si O2"
_cell_formula_units_Z 64
_cell_length_a 8.108895
_cell_length_b 21.253166
_cell_length_c 20.244724
_cell_angle_alpha 90.000000
_cell_angle_beta 90.000000
_cell_angle_gamma 90.000000
_cell_volume 3488.969489
_symmetry_space_group_name_H-M "P M M M"
_symmetry_group_IT_number 47
_symmetry_cell_setting 'orthorhombic'
loop_
_space_group_symop_operation_xyz
x,y,z
-x,-y,z
x,-y,-z
-x,y,-z
-x,-y,-z
x,y,-z
-x,y,z
x,-y,z
loop_
_atom_site_type_symbol
_atom_site_label
_atom_site_fract_x
_atom_site_fract_y
_atom_site_fract_z
Si Si1 0.308990 0.194825 0.787214
Si Si2 0.192836 0.688738 0.702893
Si Si3 0.806577 0.106475 0.427446
Si Si4 0.198939 0.235626 0.073660
Si Si5 0.798052 0.569684 0.786108
Si Si6 0.307409 0.752930 0.426534
Si Si7 0.799488 0.616194 0.927414
Si Si8 0.199986 0.069104 0.715018
O O1 0.500000 0.206820 0.773702
O O2 0.212363 0.251026 0.750797
O O3 0.274107 0.199112 0.865007
O O4 0.261500 0.127678 0.757249
O O5 0.259079 0.627045 0.740229
O O6 0.272796 0.706328 0.633249
O O7 0.000000 0.678792 0.690702
O O8 0.734789 0.091079 0.500000
O O9 0.790621 0.181813 0.418286
O O10 0.738891 0.076355 0.360706
O O11 0.000000 0.089857 0.430018
O O12 0.241277 0.309792 0.079641
O O13 0.000000 0.231532 0.077698
O O14 0.249046 0.214910 0.000000
O O15 0.749559 0.500000 0.763919
O O16 0.743220 0.581023 0.861778
O O17 0.000000 0.572206 0.786843
O O18 0.269454 0.727738 0.500000
O O19 0.500000 0.770244 0.424896
O O20 0.000000 0.612183 0.928316
O O21 0.742017 0.594475 0.000000
O O22 0.000000 0.072564 0.713736
O O23 0.247113 0.000000 0.740200
#
# Coordination Sequence:
#
# PCOD9385363 Si02
#       8
#     8   8   8   8   8   8   8   8
#     4  12  23  34  53  79 108 142 179 219 264 310
#     4  11  20  33  54  77 104 138 179 221 262 312
#     4   9  17  30  50  76 106 140 174 207 249 305
#     4   9  17  32  55  80 105 135 174 220 267 312
#     4   9  17  28  45  73 106 137 172 219 268 308
#     4  10  20  33  51  77 106 133 168 217 269 317
#     4   8  13  23  42  70 103 136 169 205 249 302
#     4  10  21  36  54  77 107 143 180 218 261 310
#
# _framework density 18.343523999999999
#
# number of rings (size 3 to 8) (size 9 to 14) (size 15 to 20)
#    0.000    2.250    2.500    2.625    0.000    1.750 
#    0.000    2.500    0.000    2.250    0.000    7.875 
#    0.000    2.000    0.000    0.000    0.000    0.000 
#
# Total GULP energy -356992.535848 kJ/mol
# GULP energy per Si atom -5578.008373 kJ/mol
# Density = 1.830177 g / cm^3
# Si number density = 18.343524 Si / 1000 Ang^3
#
#
#
# Elastic Constant Matrix: (Units=GPa)
#
#
# Indices 1 2 3 4 5 6 
#
# 1 14.7273 -4.7989 -0.8064 0.0000 0.0000 0.0000
# 2 -4.7989 88.6541 46.6870 0.0000 0.0000 0.0000
# 3 -0.8064 46.6870 104.2934 0.0000 0.0000 0.0000
# 4 0.0000 0.0000 0.0000 20.5959 0.0000 0.0000
# 5 0.0000 0.0000 0.0000 0.0000 -4.4856 0.0000
# 6 0.0000 0.0000 0.0000 0.0000 0.0000 -21.1986
#
#
#
# Elastic Compliance Matrix: (Units=1/GPa)
#
#
# Indices 1 2 3 4 5 6 
#
# 1 0.069298 0.004539 -0.001496 0.000000 0.000000 0.000000
# 2 0.004539 0.015056 -0.006705 0.000000 0.000000 0.000000
# 3 -0.001496 -0.006705 0.012578 0.000000 0.000000 0.000000
# 4 0.000000 0.000000 0.000000 0.048553 0.000000 0.000000
# 5 0.000000 0.000000 0.000000 0.000000 -0.222937 0.000000
# 6 0.000000 0.000000 0.000000 0.000000 0.000000 -0.047173
#
#
# Mechanical properties :
#
#
# Convention : Reuss Voigt Hill
#
# Bulk Modulus (GPa) = 11.15962 32.20424 21.68193
# Shear Modulus (GPa) = -57.18834 10.08856 -23.54989
#
# Velocity S-wave (km/s) = -5.58963 2.34771 -3.58694
# Velocity P-wave (km/s) = 5.96337 4.99432 2.30418
#
# Compressibility (1/GPa) = 0.08960880
#
# Stress axis : x y z
#
# Youngs Moduli (GPa) = 14.43041 66.41681 79.50248
#
# Poissons Ratio (x) = -0.30147 0.11894
# Poissons Ratio (y) = -0.06550 0.53306
# Poissons Ratio (z) = 0.02159 0.44532
#
# Static dielectric constant tensor:
#      x y z
#    x 1.652130 0.000000 0.000000 
#    y 0.000000 1.616310 0.000000 
#    z 0.000000 0.000000 1.648630 
# 
# From -- ./inp_files/30153.got.cif
#   From: 2010.05.17/outbox.cif.g08.bks.cpg/sg47_16_cif.got.tgz:30153.got - 2010.06.03 20:15:42.
