data_PCOD9385526
_publ_section_title
;
Structure prediction by ZEFSAII (Michael W. Deem and Ramdas Pophale) SiO2 
 PCOD9385526
Probable space group: P M M M
;
_chemical_formula_sum "Si O2"
_cell_formula_units_Z 48
_cell_length_a 9.909570
_cell_length_b 30.043259
_cell_length_c 8.852458
_cell_angle_alpha 90.000000
_cell_angle_beta 90.000000
_cell_angle_gamma 90.000000
_cell_volume 2635.516421
_symmetry_space_group_name_H-M "P M M M"
_symmetry_group_IT_number 47
_symmetry_cell_setting 'orthorhombic'
loop_
_space_group_symop_operation_xyz
x,y,z
-x,-y,z
x,-y,-z
-x,y,-z
-x,-y,-z
x,y,-z
-x,y,z
x,-y,z
loop_
_atom_site_type_symbol
_atom_site_label
_atom_site_fract_x
_atom_site_fract_y
_atom_site_fract_z
Si Si1 0.500000 0.052222 0.181444
Si Si2 0.342101 0.280879 0.182381
Si Si3 0.841584 0.196021 0.182156
Si Si4 0.836516 0.450962 0.175690
Si Si5 0.246380 0.102229 0.320181
Si Si6 0.842055 0.357928 0.319734
Si Si7 0.000000 0.052909 0.174016
O O1 0.374519 0.079390 0.244921
O O2 0.500000 0.000000 0.228158
O O3 0.500000 0.052857 0.000000
O O4 0.500000 0.279126 0.230075
O O5 0.255618 0.237023 0.224315
O O6 0.259160 0.322443 0.247754
O O7 0.341186 0.283690 0.000000
O O8 0.786658 0.151342 0.258524
O O9 0.000000 0.203358 0.222479
O O10 0.836324 0.191019 0.000000
O O11 0.789630 0.500000 0.227947
O O12 0.799062 0.407620 0.269921
O O13 0.000000 0.452198 0.178962
O O14 0.796973 0.445487 0.000000
O O15 0.258488 0.103239 0.500000
O O16 0.125949 0.071253 0.264025
O O17 0.839222 0.354282 0.500000
O O18 0.000000 0.350956 0.270852
O O19 0.000000 0.000000 0.168855
O O20 0.000000 0.069660 0.000000
#
# Coordination Sequence:
#
# PCOD9385526 Si02
#       7
#     4   8   8   8   8   8   4
#     4  11  25  45  67  89 119 163 207 243 284 345
#     4  10  22  39  60  86 112 147 195 243 289 341
#     4  10  21  39  63  88 117 154 195 238 287 350
#     4   8  14  26  47  76 109 146 189 237 286 337
#     4  12  25  40  62  94 127 157 192 243 300 348
#     4  10  20  33  52  81 116 154 192 235 289 346
#     4  11  23  41  65  91 121 161 205 241 282 343
#
# _framework density 18.21275
#
# number of rings (size 3 to 8) (size 9 to 14) (size 15 to 20)
#    0.000    1.833    0.833    4.000    1.167    6.333 
#    0.000    1.667    0.000    0.500    0.000    3.500 
#    0.000    0.000    0.000    0.000    0.000    0.000 
#
# Total GULP energy -267874.398224 kJ/mol
# GULP energy per Si atom -5580.716630 kJ/mol
# Density = 1.817130 g / cm^3
# Si number density = 18.212750 Si / 1000 Ang^3
#
#
#
# Elastic Constant Matrix: (Units=GPa)
#
#
# Indices 1 2 3 4 5 6 
#
# 1 155.8895 91.3958 45.7246 0.0000 0.0000 0.0000
# 2 91.3958 166.0062 54.7013 0.0000 0.0000 0.0000
# 3 45.7246 54.7013 49.8716 0.0000 0.0000 0.0000
# 4 0.0000 0.0000 0.0000 -54.8058 0.0000 0.0000
# 5 0.0000 0.0000 0.0000 0.0000 -59.3873 0.0000
# 6 0.0000 0.0000 0.0000 0.0000 0.0000 21.4828
#
#
#
# Elastic Compliance Matrix: (Units=1/GPa)
#
#
# Indices 1 2 3 4 5 6 
#
# 1 0.010212 -0.003973 -0.005005 0.000000 0.000000 0.000000
# 2 -0.003973 0.010979 -0.008400 0.000000 0.000000 0.000000
# 3 -0.005005 -0.008400 0.033853 0.000000 0.000000 0.000000
# 4 0.000000 0.000000 0.000000 -0.018246 0.000000 0.000000
# 5 0.000000 0.000000 0.000000 0.000000 -0.016839 0.000000
# 6 0.000000 0.000000 0.000000 0.000000 0.000000 0.046549
#
#
# Mechanical properties :
#
#
# Convention : Reuss Voigt Hill
#
# Bulk Modulus (GPa) = 49.28761 83.93451 66.61106
# Shear Modulus (GPa) = 46.28449 -6.54567 19.86941
#
# Velocity S-wave (km/s) = 5.04662 -1.89784 3.30655
# Velocity P-wave (km/s) = 7.81529 6.43298 7.15758
#
# Compressibility (1/GPa) = 0.02028907
#
# Stress axis : x y z
#
# Youngs Moduli (GPa) = 97.92114 91.08223 29.53908
#
# Poissons Ratio (x) = 0.36189 0.14785
# Poissons Ratio (y) = 0.38906 0.24811
# Poissons Ratio (z) = 0.49011 0.76505
#
# Static dielectric constant tensor:
#      x y z
#    x 1.642270 0.000000 0.000000 
#    y 0.000000 1.622110 0.000000 
#    z 0.000000 0.000000 1.606470 
# 
# From -- ./inp_files/2805.got.cif
#   From: 2010.05.17/outbox.cif.g08.bks.cpg/sg47_2_cif.got.tgz:2805.got - 2010.06.03 20:15:42.
