data_PCOD9385098
_publ_section_title
;
Structure prediction by ZEFSAII (Michael W. Deem and Ramdas Pophale) SiO2 
 PCOD9385098
Probable space group: P M M M
;
_chemical_formula_sum "Si O2"
_cell_formula_units_Z 48
_cell_length_a 16.455965
_cell_length_b 8.313787
_cell_length_c 19.159861
_cell_angle_alpha 90.000000
_cell_angle_beta 90.000000
_cell_angle_gamma 90.000000
_cell_volume 2621.287175
_symmetry_space_group_name_H-M "P M M M"
_symmetry_group_IT_number 47
_symmetry_cell_setting 'orthorhombic'
loop_
_space_group_symop_operation_xyz
x,y,z
-x,-y,z
x,-y,-z
-x,y,-z
-x,-y,-z
x,y,-z
-x,y,z
x,-y,z
loop_
_atom_site_type_symbol
_atom_site_label
_atom_site_fract_x
_atom_site_fract_y
_atom_site_fract_z
Si Si1 0.821811 0.694520 0.580202
Si Si2 0.662349 0.691868 0.155152
Si Si3 0.829098 0.694676 0.920041
Si Si4 0.000000 0.314745 0.585031
Si Si5 0.500000 0.808106 0.079880
Si Si6 0.088006 0.192918 0.787023
Si Si7 0.748175 0.807695 0.286540
O O1 0.807641 0.743527 0.500000
O O2 0.826390 0.500000 0.581208
O O3 0.753659 0.750984 0.633968
O O4 0.912024 0.758440 0.602750
O O5 0.661266 0.500000 0.153533
O O6 0.740946 0.746571 0.110016
O O7 0.580309 0.754040 0.120701
O O8 0.678592 0.746957 0.234557
O O9 0.832208 0.500000 0.917173
O O10 0.895734 0.763830 0.867515
O O11 0.838772 0.744622 0.000000
O O12 0.000000 0.500000 0.609632
O O13 0.000000 0.320229 0.500000
O O14 0.500000 0.000000 0.076693
O O15 0.500000 0.744835 0.000000
O O16 0.166799 0.256592 0.746627
O O17 0.000000 0.254965 0.763612
O O18 0.087887 0.000000 0.779566
O O19 0.747973 0.000000 0.284368
#
# Coordination Sequence:
#
# PCOD9385098 Si02
#       7
#     8   8   8   4   4   8   8
#     4   9  17  30  48  71  99 133 175 220 265 314
#     4  10  20  36  56  77 103 135 172 207 248 305
#     4   9  18  32  49  69  93 121 158 207 253 291
#     4   7  12  24  41  63  93 127 166 215 264 307
#     4  11  23  37  57  87 118 141 164 201 253 311
#     4   9  19  33  45  61  89 127 169 208 250 302
#     4  10  20  33  50  71 101 136 171 215 264 311
#
# _framework density 18.311615
#
# number of rings (size 3 to 8) (size 9 to 14) (size 15 to 20)
#    0.000    2.667    0.000    2.750    1.167    4.000 
#    0.000    1.667    0.000    1.500    0.000    0.583 
#    0.000    4.667    0.000    0.000    0.000    0.000 
#
# Total GULP energy -267667.121720 kJ/mol
# GULP energy per Si atom -5576.398369 kJ/mol
# Density = 1.826994 g / cm^3
# Si number density = 18.311615 Si / 1000 Ang^3
#
#
#
# Elastic Constant Matrix: (Units=GPa)
#
#
# Indices 1 2 3 4 5 6 
#
# 1 82.4116 14.5226 39.7944 0.0000 0.0000 0.0000
# 2 14.5226 21.2134 12.8007 0.0000 0.0000 0.0000
# 3 39.7944 12.8007 111.5616 0.0000 0.0000 0.0000
# 4 0.0000 0.0000 0.0000 21.2192 0.0000 0.0000
# 5 0.0000 0.0000 0.0000 0.0000 12.8694 0.0000
# 6 0.0000 0.0000 0.0000 0.0000 0.0000 19.9036
#
#
#
# Elastic Compliance Matrix: (Units=1/GPa)
#
#
# Indices 1 2 3 4 5 6 
#
# 1 0.015824 -0.007979 -0.004729 0.000000 0.000000 0.000000
# 2 -0.007979 0.054670 -0.003427 0.000000 0.000000 0.000000
# 3 -0.004729 -0.003427 0.011044 0.000000 0.000000 0.000000
# 4 0.000000 0.000000 0.000000 0.047127 0.000000 0.000000
# 5 0.000000 0.000000 0.000000 0.000000 0.077704 0.000000
# 6 0.000000 0.000000 0.000000 0.000000 0.000000 0.050242
#
#
# Mechanical properties :
#
#
# Convention : Reuss Voigt Hill
#
# Bulk Modulus (GPa) = 20.29714 38.82465 29.56089
# Shear Modulus (GPa) = 16.37716 20.66970 18.52343
#
# Velocity S-wave (km/s) = 2.99383 3.36337 3.18397
# Velocity P-wave (km/s) = 4.80198 6.02754 5.44932
#
# Compressibility (1/GPa) = 0.04926803
#
# Stress axis : x y z
#
# Youngs Moduli (GPa) = 63.19607 18.29146 90.54998
#
# Poissons Ratio (x) = 0.14595 0.42820
# Poissons Ratio (y) = 0.50426 0.31028
# Poissons Ratio (z) = 0.29884 0.06268
#
# Static dielectric constant tensor:
#      x y z
#    x 1.634010 0.000000 0.000000 
#    y 0.000000 1.632250 0.000000 
#    z 0.000000 0.000000 1.660890 
# 
# From -- ./inp_files/28017.got.cif
#   From: 2010.05.17/outbox.cif.g08.bks.cpg/sg47_15_cif.got.tgz:28017.got - 2010.06.03 20:15:42.
