data_PCOD9385686
_publ_section_title
;
Structure prediction by ZEFSAII (Michael W. Deem and Ramdas Pophale) SiO2 
 PCOD9385686
Probable space group: P M M M
;
_chemical_formula_sum "Si O2"
_cell_formula_units_Z 56
_cell_length_a 8.558731
_cell_length_b 22.590300
_cell_length_c 15.929518
_cell_angle_alpha 90.000000
_cell_angle_beta 90.000000
_cell_angle_gamma 90.000000
_cell_volume 3079.881522
_symmetry_space_group_name_H-M "P M M M"
_symmetry_group_IT_number 47
_symmetry_cell_setting 'orthorhombic'
loop_
_space_group_symop_operation_xyz
x,y,z
-x,-y,z
x,-y,-z
-x,y,-z
-x,-y,-z
x,y,-z
-x,y,z
x,-y,z
loop_
_atom_site_type_symbol
_atom_site_label
_atom_site_fract_x
_atom_site_fract_y
_atom_site_fract_z
Si Si1 0.177187 0.652028 0.857732
Si Si2 0.686893 0.872244 0.098466
Si Si3 0.822154 0.000000 0.101165
Si Si4 0.181319 0.603573 0.596397
Si Si5 0.315023 0.431741 0.000000
Si Si6 0.811752 0.773674 0.774936
Si Si7 0.674666 0.434366 0.250516
Si Si8 0.687649 0.736513 0.403386
O O1 0.264725 0.609873 0.923008
O O2 0.241244 0.715139 0.827648
O O3 0.192411 0.610575 0.777146
O O4 0.000000 0.660397 0.886622
O O5 0.500000 0.866114 0.100877
O O6 0.762534 0.828138 0.165949
O O7 0.734984 0.939212 0.122249
O O8 0.735934 0.861520 0.000000
O O9 0.000000 0.000000 0.133520
O O10 0.829677 0.000000 0.000000
O O11 0.196859 0.587721 0.500000
O O12 0.300917 0.566114 0.650971
O O13 0.228634 0.672858 0.604195
O O14 0.000000 0.594562 0.619140
O O15 0.251236 0.500000 0.000000
O O16 0.500000 0.437310 0.000000
O O17 0.742608 0.772302 0.680075
O O18 0.000000 0.770602 0.767908
O O19 0.500000 0.413491 0.228794
O O20 0.694025 0.500000 0.214713
O O21 0.721534 0.758558 0.500000
O O22 0.500000 0.729349 0.398109
#
# Coordination Sequence:
#
# PCOD9385686 Si02
#       8
#     8   8   4   8   4   8   8   8
#     4  11  24  40  58  80 105 137 177 227 282 336
#     4  10  21  36  57  87 123 162 201 238 278 327
#     4   9  17  33  57  85 120 163 202 237 277 323
#     4  10  20  34  52  74 100 131 168 212 266 329
#     4  11  25  43  61  79 101 136 183 232 285 347
#     4  11  23  37  56  85 118 151 190 236 288 341
#     4  11  23  37  54  75  99 130 170 218 273 333
#     4  10  20  35  57  82 109 144 185 231 285 344
#
# _framework density 18.182518000000002
#
# number of rings (size 3 to 8) (size 9 to 14) (size 15 to 20)
#    0.000    1.571    1.429    3.429    1.000    8.857 
#    0.000    1.429    0.000    0.000    0.000    0.500 
#    0.000    4.000    0.000    0.000    0.000    0.000 
#
# Total GULP energy -312077.038709 kJ/mol
# GULP energy per Si atom -5572.804263 kJ/mol
# Density = 1.814113 g / cm^3
# Si number density = 18.182518 Si / 1000 Ang^3
#
#
#
# Elastic Constant Matrix: (Units=GPa)
#
#
# Indices 1 2 3 4 5 6 
#
# 1 44.1209 16.4733 24.7082 0.0000 0.0000 0.0000
# 2 16.4733 97.3758 49.9264 0.0000 0.0000 0.0000
# 3 24.7082 49.9264 106.9723 0.0000 0.0000 0.0000
# 4 0.0000 0.0000 0.0000 15.9789 0.0000 0.0000
# 5 0.0000 0.0000 0.0000 0.0000 32.2698 0.0000
# 6 0.0000 0.0000 0.0000 0.0000 0.0000 25.7220
#
#
#
# Elastic Compliance Matrix: (Units=1/GPa)
#
#
# Indices 1 2 3 4 5 6 
#
# 1 0.026258 -0.001752 -0.005247 0.000000 0.000000 0.000000
# 2 -0.001752 0.013617 -0.005951 0.000000 0.000000 0.000000
# 3 -0.005247 -0.005951 0.013338 0.000000 0.000000 0.000000
# 4 0.000000 0.000000 0.000000 0.062583 0.000000 0.000000
# 5 0.000000 0.000000 0.000000 0.000000 0.030989 0.000000
# 6 0.000000 0.000000 0.000000 0.000000 0.000000 0.038877
#
#
# Mechanical properties :
#
#
# Convention : Reuss Voigt Hill
#
# Bulk Modulus (GPa) = 36.61319 47.85388 42.23353
# Shear Modulus (GPa) = 22.65886 25.28488 23.97187
#
# Velocity S-wave (km/s) = 3.53397 3.73314 3.63492
# Velocity P-wave (km/s) = 6.06895 6.70504 6.39491
#
# Compressibility (1/GPa) = 0.02731256
#
# Stress axis : x y z
#
# Youngs Moduli (GPa) = 38.08420 73.43844 74.97617
#
# Poissons Ratio (x) = 0.12864 0.39343
# Poissons Ratio (y) = 0.06671 0.44616
# Poissons Ratio (z) = 0.19984 0.43701
#
# Static dielectric constant tensor:
#      x y z
#    x 1.638180 0.000000 0.000000 
#    y 0.000000 1.610860 0.000000 
#    z 0.000000 0.000000 1.834380 
# 
# From -- ./inp_files/21605.got.cif
#   From: 2010.05.17/outbox.cif.g08.bks.cpg/sg47_11_cif.got.tgz:21605.got - 2010.06.03 20:15:42.
