data_PCOD9385520
_publ_section_title
;
Structure prediction by ZEFSAII (Michael W. Deem and Ramdas Pophale) SiO2 
 PCOD9385520
Probable space group: P M M M
;
_chemical_formula_sum "Si O2"
_cell_formula_units_Z 48
_cell_length_a 7.646254
_cell_length_b 29.829460
_cell_length_c 10.109771
_cell_angle_alpha 90.000000
_cell_angle_beta 90.000000
_cell_angle_gamma 90.000000
_cell_volume 2305.873246
_symmetry_space_group_name_H-M "P M M M"
_symmetry_group_IT_number 47
_symmetry_cell_setting 'orthorhombic'
loop_
_space_group_symop_operation_xyz
x,y,z
-x,-y,z
x,-y,-z
-x,y,-z
-x,-y,-z
x,y,-z
-x,y,z
x,-y,z
loop_
_atom_site_type_symbol
_atom_site_label
_atom_site_fract_x
_atom_site_fract_y
_atom_site_fract_z
Si Si1 0.000000 0.550679 0.147713
Si Si2 0.789969 0.788908 0.153915
Si Si3 0.703418 0.390738 0.748911
Si Si4 0.289569 0.872235 0.652841
Si Si5 0.211518 0.291055 0.346065
Si Si6 0.709766 0.450393 0.500000
Si Si7 0.713319 0.051833 0.851082
O O1 0.834666 0.584210 0.157053
O O2 0.000000 0.500000 0.218192
O O3 0.000000 0.538591 0.000000
O O4 0.751200 0.831656 0.246719
O O5 0.726530 0.746712 0.242216
O O6 0.000000 0.785134 0.144779
O O7 0.725725 0.791359 0.000000
O O8 0.500000 0.396504 0.782240
O O9 0.735911 0.339280 0.711516
O O10 0.753818 0.420044 0.621828
O O11 0.225459 0.867233 0.500000
O O12 0.500000 0.874971 0.643951
O O13 0.226632 0.916423 0.732016
O O14 0.271481 0.285497 0.500000
O O15 0.000000 0.288976 0.350035
O O16 0.783512 0.500000 0.500000
O O17 0.500000 0.454474 0.500000
O O18 0.500000 0.052752 0.850626
O O19 0.765785 0.000000 0.834721
O O20 0.767110 0.066769 0.000000
#
# Coordination Sequence:
#
# PCOD9385520 Si02
#       7
#     4   8   8   8   8   4   8
#     4  11  26  45  63  87 123 166 209 251 294 351
#     4  10  22  39  59  83 113 153 198 243 293 352
#     4  11  22  39  64  93 123 157 197 245 302 359
#     4  10  20  33  52  81 114 148 191 243 297 353
#     4  10  20  37  60  87 121 156 194 241 298 360
#     4   9  18  33  57  91 124 151 187 236 288 347
#     4   8  14  26  46  73 107 148 191 237 293 355
#
# _framework density 20.816410000000001
#
# number of rings (size 3 to 8) (size 9 to 14) (size 15 to 20)
#    0.000    2.167    1.667    2.000    0.000    5.333 
#    0.000    3.333    0.000    0.500    0.000    3.500 
#    0.000    0.000    0.000    0.000    0.000    0.000 
#
# Total GULP energy -267240.393422 kJ/mol
# GULP energy per Si atom -5567.508196 kJ/mol
# Density = 2.076903 g / cm^3
# Si number density = 20.816410 Si / 1000 Ang^3
#
#
#
# Elastic Constant Matrix: (Units=GPa)
#
#
# Indices 1 2 3 4 5 6 
#
# 1 51.9530 14.2282 35.3605 0.0000 0.0000 0.0000
# 2 14.2282 170.5990 107.2827 0.0000 0.0000 0.0000
# 3 35.3605 107.2827 195.5837 0.0000 0.0000 0.0000
# 4 0.0000 0.0000 0.0000 40.4509 0.0000 0.0000
# 5 0.0000 0.0000 0.0000 0.0000 20.6158 0.0000
# 6 0.0000 0.0000 0.0000 0.0000 0.0000 64.7244
#
#
#
# Elastic Compliance Matrix: (Units=1/GPa)
#
#
# Indices 1 2 3 4 5 6 
#
# 1 0.022065 0.001020 -0.004549 0.000000 0.000000 0.000000
# 2 0.001020 0.008996 -0.005119 0.000000 0.000000 0.000000
# 3 -0.004549 -0.005119 0.008743 0.000000 0.000000 0.000000
# 4 0.000000 0.000000 0.000000 0.024721 0.000000 0.000000
# 5 0.000000 0.000000 0.000000 0.000000 0.048507 0.000000
# 6 0.000000 0.000000 0.000000 0.000000 0.000000 0.015450
#
#
# Mechanical properties :
#
#
# Convention : Reuss Voigt Hill
#
# Bulk Modulus (GPa) = 44.42692 81.31983 62.87338
# Shear Modulus (GPa) = 32.62024 42.57586 37.59805
#
# Velocity S-wave (km/s) = 3.96289 4.52741 4.25452
# Velocity P-wave (km/s) = 6.50599 8.15352 7.37590
#
# Compressibility (1/GPa) = 0.02250888
#
# Stress axis : x y z
#
# Youngs Moduli (GPa) = 45.32105 111.16546 114.37574
#
# Poissons Ratio (x) = -0.11343 0.52028
# Poissons Ratio (y) = -0.04624 0.58547
# Poissons Ratio (z) = 0.20616 0.56903
#
# Static dielectric constant tensor:
#      x y z
#    x 1.770180 0.000000 0.000000 
#    y 0.000000 1.757120 0.000000 
#    z 0.000000 0.000000 1.667320 
# 
# From -- ./inp_files/2777.got.cif
#   From: 2010.05.17/outbox.cif.g08.bks.cpg/sg47_2_cif.got.tgz:2777.got - 2010.06.03 20:15:42.
