data_PCOD9385980
_publ_section_title
;
Structure prediction by ZEFSAII (Michael W. Deem and Ramdas Pophale) SiO2 
 PCOD9385980
Probable space group: P M M M
;
_chemical_formula_sum "Si O2"
_cell_formula_units_Z 44
_cell_length_a 29.554966
_cell_length_b 7.965807
_cell_length_c 9.675499
_cell_angle_alpha 90.000000
_cell_angle_beta 90.000000
_cell_angle_gamma 90.000000
_cell_volume 2277.894554
_symmetry_space_group_name_H-M "P M M M"
_symmetry_group_IT_number 47
_symmetry_cell_setting 'orthorhombic'
loop_
_space_group_symop_operation_xyz
x,y,z
-x,-y,z
x,-y,-z
-x,y,-z
-x,-y,-z
x,y,-z
-x,y,z
x,-y,z
loop_
_atom_site_type_symbol
_atom_site_label
_atom_site_fract_x
_atom_site_fract_y
_atom_site_fract_z
Si Si1 0.134167 0.297298 0.841632
Si Si2 0.765666 0.202106 0.158596
Si Si3 0.317267 0.201217 0.343177
Si Si4 0.949730 0.704955 0.660106
Si Si5 0.500000 0.200330 0.158638
Si Si6 0.402014 0.300553 0.841070
O O1 0.132507 0.500000 0.842585
O O2 0.183998 0.246683 0.791584
O O3 0.092270 0.235525 0.750770
O O4 0.130007 0.238053 0.000000
O O5 0.726011 0.266431 0.257554
O O6 0.762419 0.000000 0.153540
O O7 0.760563 0.264506 0.000000
O O8 0.319728 0.266981 0.500000
O O9 0.362288 0.235013 0.255513
O O10 0.312225 0.000000 0.351879
O O11 0.944616 0.754000 0.500000
O O12 0.949318 0.500000 0.663455
O O13 0.000000 0.757237 0.707828
O O14 0.548080 0.257966 0.216733
O O15 0.500000 0.000000 0.156431
O O16 0.500000 0.265983 0.000000
O O17 0.398026 0.500000 0.848344
O O18 0.398516 0.233419 0.000000
#
# Coordination Sequence:
#
# PCOD9385980 Si02
#       6
#     8   8   8   8   4   8
#     4   9  17  28  44  68  93 115 147 194 240 280
#     4   9  18  33  51  69  93 127 162 196 240 294
#     4  10  21  36  53  74 100 131 169 209 248 295
#     4   8  14  25  41  62  89 120 152 186 228 280
#     4   9  17  31  54  81 106 135 172 210 246 289
#     4  10  20  34  54  80 108 136 167 206 251 296
#
# _framework density 19.316082000000002
#
# number of rings (size 3 to 8) (size 9 to 14) (size 15 to 20)
#    0.000    2.818    0.000    1.909    0.000    5.091 
#    0.000    4.091    0.000    3.273    0.000    3.818 
#    0.000    0.000    0.000    0.000    0.000    0.000 
#
# Total GULP energy -245336.206576 kJ/mol
# GULP energy per Si atom -5575.822877 kJ/mol
# Density = 1.927212 g / cm^3
# Si number density = 19.316082 Si / 1000 Ang^3
#
#
#
# Elastic Constant Matrix: (Units=GPa)
#
#
# Indices 1 2 3 4 5 6 
#
# 1 220.1744 1.5772 107.0485 0.0000 0.0000 0.0000
# 2 1.5772 15.0751 7.5461 0.0000 0.0000 0.0000
# 3 107.0485 7.5461 92.9338 0.0000 0.0000 0.0000
# 4 0.0000 0.0000 0.0000 11.2756 0.0000 0.0000
# 5 0.0000 0.0000 0.0000 0.0000 -16.2392 0.0000
# 6 0.0000 0.0000 0.0000 0.0000 0.0000 28.1413
#
#
#
# Elastic Compliance Matrix: (Units=1/GPa)
#
#
# Indices 1 2 3 4 5 6 
#
# 1 0.010710 0.005269 -0.012765 0.000000 0.000000 0.000000
# 2 0.005269 0.071737 -0.011894 0.000000 0.000000 0.000000
# 3 -0.012765 -0.011894 0.026430 0.000000 0.000000 0.000000
# 4 0.000000 0.000000 0.000000 0.088687 0.000000 0.000000
# 5 0.000000 0.000000 0.000000 0.000000 -0.061580 0.000000
# 6 0.000000 0.000000 0.000000 0.000000 0.000000 0.035535
#
#
# Mechanical properties :
#
#
# Convention : Reuss Voigt Hill
#
# Bulk Modulus (GPa) = 14.26590 62.28077 38.27333
# Shear Modulus (GPa) = 21.39802 18.76964 20.08383
#
# Velocity S-wave (km/s) = 3.33195 3.12061 3.22801
# Velocity P-wave (km/s) = 4.71212 6.73032 5.80953
#
# Compressibility (1/GPa) = 0.07009725
#
# Stress axis : x y z
#
# Youngs Moduli (GPa) = 93.36715 13.93974 37.83604
#
# Poissons Ratio (x) = -0.07345 0.48297
# Poissons Ratio (y) = -0.49196 0.45004
# Poissons Ratio (z) = 1.19183 0.16580
#
# Static dielectric constant tensor:
#      x y z
#    x 1.668800 0.000000 0.000000 
#    y 0.000000 1.696510 0.000000 
#    z 0.000000 0.000000 1.673120 
# 
# From -- ./inp_files/2060.got.cif
#   From: 2010.05.17/outbox.cif.g08.bks.cpg/sg47_2_cif.got.tgz:2060.got - 2010.06.03 20:15:42.
