data_PCOD9385976
_publ_section_title
;
Structure prediction by ZEFSAII (Michael W. Deem and Ramdas Pophale) SiO2 
 PCOD9385976
Probable space group: P M M M
;
_chemical_formula_sum "Si O2"
_cell_formula_units_Z 52
_cell_length_a 13.893058
_cell_length_b 21.979846
_cell_length_c 7.677292
_cell_angle_alpha 90.000000
_cell_angle_beta 90.000000
_cell_angle_gamma 90.000000
_cell_volume 2344.393740
_symmetry_space_group_name_H-M "P M M M"
_symmetry_group_IT_number 47
_symmetry_cell_setting 'orthorhombic'
loop_
_space_group_symop_operation_xyz
x,y,z
-x,-y,z
x,-y,-z
-x,y,-z
-x,-y,-z
x,y,-z
-x,y,z
x,-y,z
loop_
_atom_site_type_symbol
_atom_site_label
_atom_site_fract_x
_atom_site_fract_y
_atom_site_fract_z
Si Si1 0.811616 0.803220 0.712294
Si Si2 0.817373 0.932072 0.698941
Si Si3 0.895892 0.325363 0.793032
Si Si4 0.603350 0.926957 0.200661
Si Si5 0.605538 0.245016 0.296476
Si Si6 0.390990 0.500000 0.291645
Si Si7 0.693720 0.369822 0.793891
O O1 0.809958 0.805107 0.500000
O O2 0.851908 0.868224 0.777129
O O3 0.875308 0.746001 0.765846
O O4 0.701953 0.787670 0.774507
O O5 0.851900 0.935660 0.500000
O O6 0.702121 0.918731 0.697787
O O7 0.832038 0.000000 0.777018
O O8 0.801593 0.359273 0.723193
O O9 0.000000 0.341928 0.719200
O O10 0.898691 0.337054 0.000000
O O11 0.500000 0.904607 0.271054
O O12 0.596004 0.000000 0.193750
O O13 0.613679 0.906273 0.000000
O O14 0.601819 0.228441 0.500000
O O15 0.500000 0.232571 0.218387
O O16 0.626616 0.317236 0.284970
O O17 0.500000 0.500000 0.224008
O O18 0.393556 0.500000 0.500000
O O19 0.340593 0.437915 0.235130
O O20 0.694067 0.357335 0.000000
#
# Coordination Sequence:
#
# PCOD9385976 Si02
#       7
#     8   8   8   8   8   4   8
#     4   9  18  31  48  72  98 126 166 211 254 308
#     4   9  17  28  42  62  90 123 158 200 252 309
#     4   9  19  37  59  80 102 129 164 211 265 312
#     4   8  14  24  36  51  75 110 152 194 234 281
#     4   9  17  30  47  67  97 136 172 209 255 302
#     4  11  23  37  54  79 116 158 187 205 234 279
#     4  10  20  34  54  80 107 136 174 216 253 292
#
# _framework density 22.180574
#
# number of rings (size 3 to 8) (size 9 to 14) (size 15 to 20)
#    0.000    2.846    0.000    1.615    0.000    5.231 
#    0.000    3.462    0.000    2.769    0.000    3.231 
#    0.000    0.000    0.000    0.000    0.000    0.000 
#
# Total GULP energy -289911.359530 kJ/mol
# GULP energy per Si atom -5575.218453 kJ/mol
# Density = 2.213009 g / cm^3
# Si number density = 22.180574 Si / 1000 Ang^3
#
#
#
# Elastic Constant Matrix: (Units=GPa)
#
#
# Indices 1 2 3 4 5 6 
#
# 1 84.8272 28.9085 -0.7909 0.0000 0.0000 0.0000
# 2 28.9085 142.6726 -14.5533 0.0000 0.0000 0.0000
# 3 -0.7909 -14.5533 46.4691 0.0000 0.0000 0.0000
# 4 0.0000 0.0000 0.0000 -9.9828 0.0000 0.0000
# 5 0.0000 0.0000 0.0000 0.0000 19.8238 0.0000
# 6 0.0000 0.0000 0.0000 0.0000 0.0000 -1.4915
#
#
#
# Elastic Compliance Matrix: (Units=1/GPa)
#
#
# Indices 1 2 3 4 5 6 
#
# 1 0.012680 -0.002631 -0.000608 0.000000 0.000000 0.000000
# 2 -0.002631 0.007786 0.002394 0.000000 0.000000 0.000000
# 3 -0.000608 0.002394 0.022259 0.000000 0.000000 0.000000
# 4 0.000000 0.000000 0.000000 -0.100172 0.000000 0.000000
# 5 0.000000 0.000000 0.000000 0.000000 0.050444 0.000000
# 6 0.000000 0.000000 0.000000 0.000000 0.000000 -0.670481
#
#
# Mechanical properties :
#
#
# Convention : Reuss Voigt Hill
#
# Bulk Modulus (GPa) = 24.37023 33.45530 28.91276
# Shear Modulus (GPa) = -7.55156 19.03020 5.73932
#
# Velocity S-wave (km/s) = -1.84715 2.93229 1.61033
# Velocity P-wave (km/s) = 2.54200 5.15561 4.06461
#
# Compressibility (1/GPa) = 0.04103367
#
# Stress axis : x y z
#
# Youngs Moduli (GPa) = 78.86617 128.42953 44.92562
#
# Poissons Ratio (x) = 0.33793 0.02733
# Poissons Ratio (y) = 0.20751 -0.10754
# Poissons Ratio (z) = 0.04797 -0.30743
#
# Static dielectric constant tensor:
#      x y z
#    x 1.898880 0.000000 0.000000 
#    y 0.000000 1.827880 0.000000 
#    z 0.000000 0.000000 1.828660 
# 
# From -- ./inp_files/7055.got.cif
#   From: 2010.05.17/outbox.cif.g08.bks.cpg/sg47_4_cif.got.tgz:7055.got - 2010.06.03 20:15:42.
