data_PCOD9385654
_publ_section_title
;
Structure prediction by ZEFSAII (Michael W. Deem and Ramdas Pophale) SiO2 
 PCOD9385654
Probable space group: P M M M
;
_chemical_formula_sum "Si O2"
_cell_formula_units_Z 52
_cell_length_a 7.512125
_cell_length_b 24.309798
_cell_length_c 14.912244
_cell_angle_alpha 90.000000
_cell_angle_beta 90.000000
_cell_angle_gamma 90.000000
_cell_volume 2723.247773
_symmetry_space_group_name_H-M "P M M M"
_symmetry_group_IT_number 47
_symmetry_cell_setting 'orthorhombic'
loop_
_space_group_symop_operation_xyz
x,y,z
-x,-y,z
x,-y,-z
-x,y,-z
-x,-y,-z
x,y,-z
-x,y,z
x,-y,z
loop_
_atom_site_type_symbol
_atom_site_label
_atom_site_fract_x
_atom_site_fract_y
_atom_site_fract_z
Si Si1 0.284870 0.398972 0.599582
Si Si2 0.281985 0.879781 0.103907
Si Si3 0.716762 0.729315 0.401021
Si Si4 0.718293 0.773382 0.786376
Si Si5 0.293459 0.000000 0.891082
Si Si6 0.708946 0.668950 0.899429
Si Si7 0.206827 0.440393 0.793051
O O1 0.227168 0.417451 0.500000
O O2 0.500000 0.400857 0.600632
O O3 0.232210 0.334839 0.610377
O O4 0.222383 0.431559 0.686190
O O5 0.500000 0.881246 0.104137
O O6 0.225492 0.829595 0.166221
O O7 0.218514 0.940384 0.134279
O O8 0.230067 0.870646 0.000000
O O9 0.775167 0.747417 0.500000
O O10 0.500000 0.729555 0.401046
O O11 0.775801 0.764375 0.316069
O O12 0.500000 0.773302 0.786129
O O13 0.780969 0.720484 0.843256
O O14 0.500000 0.000000 0.862232
O O15 0.292205 0.000000 0.000000
O O16 0.500000 0.680855 0.908421
O O17 0.720190 0.612569 0.844050
O O18 0.783478 0.663945 0.000000
O O19 0.286024 0.500000 0.816605
O O20 0.000000 0.441625 0.816492
#
# Coordination Sequence:
#
# PCOD9385654 Si02
#       7
#     8   8   8   8   4   8   8
#     4   9  17  32  54  75  93 114 143 182 225 268
#     4   8  12  17  27  47  76 109 141 172 210 256
#     4   8  13  22  39  62  84 104 129 167 215 261
#     4   9  14  22  39  62  84 104 133 179 227 264
#     4   7  10  16  24  38  69 111 146 170 198 249
#     4  10  20  34  52  71  88 109 145 194 237 269
#     4  11  24  38  50  66  91 122 151 179 218 274
#
# _framework density 19.094846
#
# number of rings (size 3 to 8) (size 9 to 14) (size 15 to 20)
#    0.000    3.000    1.538    2.769    0.000    4.308 
#    0.000    3.077    0.000    0.000    0.000    0.538 
#    0.000    4.308    0.000    0.692    0.000    8.692 
#
# Total GULP energy -289916.408154 kJ/mol
# GULP energy per Si atom -5575.315541 kJ/mol
# Density = 1.905139 g / cm^3
# Si number density = 19.094846 Si / 1000 Ang^3
#
#
#
# Elastic Constant Matrix: (Units=GPa)
#
#
# Indices 1 2 3 4 5 6 
#
# 1 46.5967 0.7966 -0.2602 0.0000 0.0000 0.0000
# 2 0.7966 159.2668 83.7408 0.0000 0.0000 0.0000
# 3 -0.2602 83.7408 125.1541 0.0000 0.0000 0.0000
# 4 0.0000 0.0000 0.0000 15.1989 0.0000 0.0000
# 5 0.0000 0.0000 0.0000 0.0000 -32.7230 0.0000
# 6 0.0000 0.0000 0.0000 0.0000 0.0000 29.6384
#
#
#
# Elastic Compliance Matrix: (Units=1/GPa)
#
#
# Indices 1 2 3 4 5 6 
#
# 1 0.021465 -0.000202 0.000180 0.000000 0.000000 0.000000
# 2 -0.000202 0.009688 -0.006483 0.000000 0.000000 0.000000
# 3 0.000180 -0.006483 0.012328 0.000000 0.000000 0.000000
# 4 0.000000 0.000000 0.000000 0.065794 0.000000 0.000000
# 5 0.000000 0.000000 0.000000 0.000000 -0.030560 0.000000
# 6 0.000000 0.000000 0.000000 0.000000 0.000000 0.033740
#
#
# Mechanical properties :
#
#
# Convention : Reuss Voigt Hill
#
# Bulk Modulus (GPa) = 32.81734 55.50800 44.16267
# Shear Modulus (GPa) = 36.86656 18.87222 27.86939
#
# Velocity S-wave (km/s) = 4.39875 3.14720 3.82452
# Velocity P-wave (km/s) = 6.55915 6.50686 6.53306
#
# Compressibility (1/GPa) = 0.03047169
#
# Stress axis : x y z
#
# Youngs Moduli (GPa) = 46.58700 103.21546 81.11419
#
# Poissons Ratio (x) = 0.02083 -0.01457
# Poissons Ratio (y) = 0.00940 0.52586
# Poissons Ratio (z) = -0.00837 0.66914
#
# Static dielectric constant tensor:
#      x y z
#    x 1.744150 0.000000 0.000000 
#    y 0.000000 1.669230 0.000000 
#    z 0.000000 0.000000 1.658750 
# 
# From -- ./inp_files/21798.got.cif
#   From: 2010.05.17/outbox.cif.g08.bks.cpg/sg47_11_cif.got.tgz:21798.got - 2010.06.03 20:15:42.
