data_PCOD9385751
_publ_section_title
;
Structure prediction by ZEFSAII (Michael W. Deem and Ramdas Pophale) SiO2 
 PCOD9385751
Probable space group: P M M M
;
_chemical_formula_sum "Si O2"
_cell_formula_units_Z 48
_cell_length_a 7.542960
_cell_length_b 31.617043
_cell_length_c 9.476104
_cell_angle_alpha 90.000000
_cell_angle_beta 90.000000
_cell_angle_gamma 90.000000
_cell_volume 2259.918998
_symmetry_space_group_name_H-M "P M M M"
_symmetry_group_IT_number 47
_symmetry_cell_setting 'orthorhombic'
loop_
_space_group_symop_operation_xyz
x,y,z
-x,-y,z
x,-y,-z
-x,y,-z
-x,-y,-z
x,y,-z
-x,y,z
x,-y,z
loop_
_atom_site_type_symbol
_atom_site_label
_atom_site_fract_x
_atom_site_fract_y
_atom_site_fract_z
Si Si1 0.282804 0.789131 0.837748
Si Si2 0.286097 0.452156 0.660573
Si Si3 0.291773 0.709628 0.658465
Si Si4 0.283833 0.952440 0.162785
Si Si5 0.716710 0.128467 0.338002
Si Si6 0.207982 0.629066 0.158794
O O1 0.500000 0.788784 0.840139
O O2 0.219699 0.747508 0.754771
O O3 0.228826 0.831140 0.753951
O O4 0.224832 0.789308 0.000000
O O5 0.227199 0.442073 0.500000
O O6 0.500000 0.452579 0.658372
O O7 0.226923 0.500000 0.694445
O O8 0.231806 0.416652 0.770559
O O9 0.216568 0.707689 0.500000
O O10 0.500000 0.719026 0.644143
O O11 0.279905 0.665184 0.738593
O O12 0.500000 0.952298 0.164595
O O13 0.224606 0.914990 0.264386
O O14 0.227754 0.000000 0.202566
O O15 0.231598 0.944687 0.000000
O O16 0.773823 0.131783 0.500000
O O17 0.500000 0.128244 0.338168
O O18 0.000000 0.637333 0.149216
O O19 0.283132 0.630795 0.000000
#
# Coordination Sequence:
#
# PCOD9385751 Si02
#       6
#     8   8   8   8   8   8
#     4   9  16  26  41  60  82 109 142 183 233 285
#     4   9  19  37  60  84 108 135 170 210 249 290
#     4  10  20  34  53  75  97 123 160 205 249 294
#     4   8  13  20  28  38  56  87 128 172 219 273
#     4   9  15  21  30  46  69  96 130 176 226 274
#     4  11  24  38  52  75 107 139 170 204 243 290
#
# _framework density 21.239699000000002
#
# number of rings (size 3 to 8) (size 9 to 14) (size 15 to 20)
#    0.000    2.667    0.000    3.500    0.000    9.667 
#    0.000    4.167    0.000    0.000    0.000    0.000 
#    0.000    0.000    0.000    0.000    0.000    0.833 
#
# Total GULP energy -268053.103028 kJ/mol
# GULP energy per Si atom -5584.439646 kJ/mol
# Density = 2.119136 g / cm^3
# Si number density = 21.239699 Si / 1000 Ang^3
#
#
#
# Elastic Constant Matrix: (Units=GPa)
#
#
# Indices 1 2 3 4 5 6 
#
# 1 49.2804 -6.2078 3.3734 0.0000 0.0000 0.0000
# 2 -6.2078 160.8950 128.8380 0.0000 0.0000 0.0000
# 3 3.3734 128.8380 215.2349 0.0000 0.0000 0.0000
# 4 0.0000 0.0000 0.0000 42.7803 0.0000 0.0000
# 5 0.0000 0.0000 0.0000 0.0000 17.1963 0.0000
# 6 0.0000 0.0000 0.0000 0.0000 0.0000 -48.9314
#
#
#
# Elastic Compliance Matrix: (Units=1/GPa)
#
#
# Indices 1 2 3 4 5 6 
#
# 1 0.020653 0.002028 -0.001538 0.000000 0.000000 0.000000
# 2 0.002028 0.012136 -0.007296 0.000000 0.000000 0.000000
# 3 -0.001538 -0.007296 0.009038 0.000000 0.000000 0.000000
# 4 0.000000 0.000000 0.000000 0.023375 0.000000 0.000000
# 5 0.000000 0.000000 0.000000 0.000000 0.058152 0.000000
# 6 0.000000 0.000000 0.000000 0.000000 0.000000 -0.020437
#
#
# Mechanical properties :
#
#
# Convention : Reuss Voigt Hill
#
# Bulk Modulus (GPa) = 35.44240 75.26862 55.35551
# Shear Modulus (GPa) = 39.70338 22.16949 30.93643
#
# Velocity S-wave (km/s) = 4.32823 3.23426 3.82060
# Velocity P-wave (km/s) = 6.45765 7.03291 6.75141
#
# Compressibility (1/GPa) = 0.02821480
#
# Stress axis : x y z
#
# Youngs Moduli (GPa) = 48.41962 82.39850 110.64688
#
# Poissons Ratio (x) = -0.16712 0.17015
# Poissons Ratio (y) = -0.09821 0.80732
# Poissons Ratio (z) = 0.07446 0.60121
#
# Static dielectric constant tensor:
#      x y z
#    x 1.838190 0.000000 0.000000 
#    y 0.000000 1.723290 0.000000 
#    z 0.000000 0.000000 1.741950 
# 
# From -- ./inp_files/2504.got.cif
#   From: 2010.05.17/outbox.cif.g08.bks.cpg/sg47_2_cif.got.tgz:2504.got - 2010.06.03 20:15:42.
