data_PCOD9385420
_publ_section_title
;
Structure prediction by ZEFSAII (Michael W. Deem and Ramdas Pophale) SiO2 
 PCOD9385420
Probable space group: P M M M
;
_chemical_formula_sum "Si O2"
_cell_formula_units_Z 48
_cell_length_a 8.393342
_cell_length_b 10.194663
_cell_length_c 29.851213
_cell_angle_alpha 90.000000
_cell_angle_beta 90.000000
_cell_angle_gamma 90.000000
_cell_volume 2554.287493
_symmetry_space_group_name_H-M "P M M M"
_symmetry_group_IT_number 47
_symmetry_cell_setting 'orthorhombic'
loop_
_space_group_symop_operation_xyz
x,y,z
-x,-y,z
x,-y,-z
-x,y,-z
-x,-y,-z
x,y,-z
-x,y,z
x,-y,z
loop_
_atom_site_type_symbol
_atom_site_label
_atom_site_fract_x
_atom_site_fract_y
_atom_site_fract_z
Si Si1 0.689444 0.849455 0.797920
Si Si2 0.808678 0.000000 0.551971
Si Si3 0.189356 0.151824 0.698927
Si Si4 0.690585 0.751212 0.607099
Si Si5 0.305341 0.500000 0.448648
Si Si6 0.805807 0.147916 0.948252
Si Si7 0.807903 0.651328 0.872744
O O1 0.500000 0.849806 0.804092
O O2 0.729465 0.818471 0.746269
O O3 0.762759 0.740135 0.830153
O O4 0.748268 0.000000 0.806697
O O5 0.744473 0.124764 0.578328
O O6 0.758193 0.000000 0.500000
O O7 0.000000 0.000000 0.553576
O O8 0.241804 0.238432 0.657093
O O9 0.000000 0.159798 0.704860
O O10 0.230344 0.000000 0.687646
O O11 0.500000 0.749021 0.610268
O O12 0.745997 0.625992 0.579187
O O13 0.500000 0.500000 0.449936
O O14 0.250244 0.500000 0.500000
O O15 0.750771 0.263371 0.915543
O O16 0.000000 0.148242 0.947422
O O17 0.756015 0.000000 0.934147
O O18 0.758104 0.167063 0.000000
O O19 0.750255 0.500000 0.871288
O O20 0.000000 0.645580 0.875145
#
# Coordination Sequence:
#
# PCOD9385420 Si02
#       7
#     8   4   8   8   4   8   8
#     4  10  21  37  58  81 105 139 185 230 275 330
#     4  11  23  37  55  83 117 149 185 231 278 325
#     4  10  20  36  59  85 114 142 174 223 279 333
#     4  11  21  36  60  85 112 146 185 228 275 330
#     4   9  20  38  57  81 113 147 185 225 266 319
#     4   8  14  26  47  76 109 146 188 232 277 328
#     4  10  20  33  51  79 114 149 186 228 279 334
#
# _framework density 18.791931999999999
#
# number of rings (size 3 to 8) (size 9 to 14) (size 15 to 20)
#    0.000    2.167    0.833    3.250    0.000    4.333 
#    1.500    3.333    0.000    3.500    0.000    3.500 
#    0.000    0.000    0.000    0.000    0.000    0.000 
#
# Total GULP energy -267888.939542 kJ/mol
# GULP energy per Si atom -5581.019574 kJ/mol
# Density = 1.874916 g / cm^3
# Si number density = 18.791932 Si / 1000 Ang^3
#
#
#
# Elastic Constant Matrix: (Units=GPa)
#
#
# Indices 1 2 3 4 5 6 
#
# 1 14.0249 13.6436 7.1330 0.0000 0.0000 0.0000
# 2 13.6436 171.3671 94.2665 0.0000 0.0000 0.0000
# 3 7.1330 94.2665 125.0584 0.0000 0.0000 0.0000
# 4 0.0000 0.0000 0.0000 30.5366 0.0000 0.0000
# 5 0.0000 0.0000 0.0000 0.0000 -36.1355 0.0000
# 6 0.0000 0.0000 0.0000 0.0000 0.0000 23.8133
#
#
#
# Elastic Compliance Matrix: (Units=1/GPa)
#
#
# Indices 1 2 3 4 5 6 
#
# 1 0.077299 -0.006370 0.000393 0.000000 0.000000 0.000000
# 2 -0.006370 0.010494 -0.007547 0.000000 0.000000 0.000000
# 3 0.000393 -0.007547 0.013662 0.000000 0.000000 0.000000
# 4 0.000000 0.000000 0.000000 0.032748 0.000000 0.000000
# 5 0.000000 0.000000 0.000000 0.000000 -0.027674 0.000000
# 6 0.000000 0.000000 0.000000 0.000000 0.000000 0.041993
#
#
# Mechanical properties :
#
#
# Convention : Reuss Voigt Hill
#
# Bulk Modulus (GPa) = 13.43954 60.05962 36.74958
# Shear Modulus (GPa) = 24.95331 16.67004 20.81168
#
# Velocity S-wave (km/s) = 3.64795 2.98163 3.33149
# Velocity P-wave (km/s) = 4.99106 6.62444 5.86489
#
# Compressibility (1/GPa) = 0.07440730
#
# Stress axis : x y z
#
# Youngs Moduli (GPa) = 12.93671 95.29242 73.19308
#
# Poissons Ratio (x) = 0.60706 -0.02876
# Poissons Ratio (y) = 0.08241 0.55238
# Poissons Ratio (z) = -0.00508 0.71916
#
# Static dielectric constant tensor:
#      x y z
#    x 1.653160 0.000000 0.000000 
#    y 0.000000 1.589700 0.000000 
#    z 0.000000 0.000000 1.633960 
# 
# From -- ./inp_files/34184.got.cif
#   From: 2010.05.17/outbox.cif.g08.bks.cpg/sg47_18_cif.got.tgz:34184.got - 2010.06.03 20:15:42.
