data_PCOD9385598
_publ_section_title
;
Structure prediction by ZEFSAII (Michael W. Deem and Ramdas Pophale) SiO2 
 PCOD9385598
Probable space group: P M M M
;
_chemical_formula_sum "Si O2"
_cell_formula_units_Z 64
_cell_length_a 14.609188
_cell_length_b 9.036849
_cell_length_c 32.432370
_cell_angle_alpha 90.000000
_cell_angle_beta 90.000000
_cell_angle_gamma 90.000000
_cell_volume 4281.754762
_symmetry_space_group_name_H-M "P M M M"
_symmetry_group_IT_number 47
_symmetry_cell_setting 'orthorhombic'
loop_
_space_group_symop_operation_xyz
x,y,z
-x,-y,z
x,-y,-z
-x,y,-z
-x,-y,-z
x,y,-z
-x,y,z
x,-y,z
loop_
_atom_site_type_symbol
_atom_site_label
_atom_site_fract_x
_atom_site_fract_y
_atom_site_fract_z
Si Si1 0.898926 0.320746 0.577845
Si Si2 0.894798 0.323324 0.324683
Si Si3 0.388804 0.671779 0.127838
Si Si4 0.705096 0.319609 0.545261
Si Si5 0.389332 0.825266 0.044855
Si Si6 0.608270 0.679000 0.219684
Si Si7 0.391450 0.323401 0.629620
Si Si8 0.284385 0.176319 0.705120
O O1 0.900815 0.500000 0.574532
O O2 0.885905 0.288326 0.626425
O O3 0.809804 0.270397 0.553292
O O4 0.000000 0.267254 0.564935
O O5 0.879330 0.500000 0.320533
O O6 0.818985 0.235026 0.299804
O O7 0.000000 0.292457 0.313008
O O8 0.500000 0.679235 0.127689
O O9 0.363717 0.500000 0.124968
O O10 0.354672 0.752791 0.086906
O O11 0.362570 0.726602 0.173421
O O12 0.673542 0.270826 0.500000
O O13 0.704993 0.500000 0.545076
O O14 0.644527 0.276757 0.584518
O O15 0.500000 0.807286 0.044950
O O16 0.371345 0.000000 0.046165
O O17 0.357189 0.767418 0.000000
O O18 0.500000 0.712476 0.225130
O O19 0.616724 0.500000 0.221997
O O20 0.667014 0.755182 0.254876
O O21 0.500000 0.302307 0.632982
O O22 0.372404 0.500000 0.634317
O O23 0.338655 0.237521 0.665259
O O24 0.287307 0.000000 0.706251
#
# Coordination Sequence:
#
# PCOD9385598 Si02
#       8
#     8   8   8   8   8   8   8   8
#     4   8  13  23  42  67  91 111 131 161 203 249
#     4   9  17  32  54  73  90 115 143 169 203 253
#     4   8  14  24  37  53  73 100 138 184 228 264
#     4   9  16  26  43  68  93 112 136 175 218 256
#     4   8  13  20  30  46  70 102 139 178 221 266
#     4   9  18  32  47  62  84 116 152 189 229 270
#     4  10  20  34  50  65  86 117 150 184 219 255
#     4  12  23  32  47  70  93 114 141 180 219 261
#
# _framework density 14.947143000000001
#
# number of rings (size 3 to 8) (size 9 to 14) (size 15 to 20)
#    0.000    2.875    1.250    3.375    0.000    3.500 
#    0.000    5.000    0.000    0.375    0.000    0.875 
#    0.000    2.000    0.000    0.000    0.000    0.625 
#
# Total GULP energy -356374.615650 kJ/mol
# GULP energy per Si atom -5568.353370 kJ/mol
# Density = 1.491312 g / cm^3
# Si number density = 14.947143 Si / 1000 Ang^3
#
#
#
# Elastic Constant Matrix: (Units=GPa)
#
#
# Indices 1 2 3 4 5 6 
#
# 1 53.4607 29.6054 46.4928 0.0000 0.0000 0.0000
# 2 29.6054 30.9819 47.1023 0.0000 0.0000 0.0000
# 3 46.4928 47.1023 139.5679 0.0000 0.0000 0.0000
# 4 0.0000 0.0000 0.0000 -25.8123 0.0000 0.0000
# 5 0.0000 0.0000 0.0000 0.0000 3.0463 0.0000
# 6 0.0000 0.0000 0.0000 0.0000 0.0000 7.5516
#
#
#
# Elastic Compliance Matrix: (Units=1/GPa)
#
#
# Indices 1 2 3 4 5 6 
#
# 1 0.039780 -0.036693 -0.000868 0.000000 0.000000 0.000000
# 2 -0.036693 0.100134 -0.021571 0.000000 0.000000 0.000000
# 3 -0.000868 -0.021571 0.014734 0.000000 0.000000 0.000000
# 4 0.000000 0.000000 0.000000 -0.038741 0.000000 0.000000
# 5 0.000000 0.000000 0.000000 0.000000 0.328271 0.000000
# 6 0.000000 0.000000 0.000000 0.000000 0.000000 0.132423
#
#
# Mechanical properties :
#
#
# Convention : Reuss Voigt Hill
#
# Bulk Modulus (GPa) = 27.48420 52.26794 39.87607
# Shear Modulus (GPa) = 7.07222 3.67778 5.37500
#
# Velocity S-wave (km/s) = 2.17756 1.57031 1.89837
# Velocity P-wave (km/s) = 4.97492 6.19130 5.61614
#
# Compressibility (1/GPa) = 0.03638454
#
# Stress axis : x y z
#
# Youngs Moduli (GPa) = 25.13829 9.98665 67.86999
#
# Poissons Ratio (x) = 0.36644 0.05893
# Poissons Ratio (y) = 0.92239 1.46401
# Poissons Ratio (z) = 0.02183 0.21542
#
# Static dielectric constant tensor:
#      x y z
#    x 1.487350 0.000000 0.000000 
#    y 0.000000 1.497290 0.000000 
#    z 0.000000 0.000000 1.515420 
# 
# From -- ./inp_files/8279.got.cif
#   From: 2010.05.17/outbox.cif.g08.bks.cpg/sg47_5_cif.got.tgz:8279.got - 2010.06.03 20:15:42.
