data_PCOD9385390
_publ_section_title
;
Structure prediction by ZEFSAII (Michael W. Deem and Ramdas Pophale) SiO2 
 PCOD9385390
Probable space group: P M M M
;
_chemical_formula_sum "Si O2"
_cell_formula_units_Z 52
_cell_length_a 13.724576
_cell_length_b 8.897355
_cell_length_c 24.687253
_cell_angle_alpha 90.000000
_cell_angle_beta 90.000000
_cell_angle_gamma 90.000000
_cell_volume 3014.620328
_symmetry_space_group_name_H-M "P M M M"
_symmetry_group_IT_number 47
_symmetry_cell_setting 'orthorhombic'
loop_
_space_group_symop_operation_xyz
x,y,z
-x,-y,z
x,-y,-z
-x,y,-z
-x,-y,-z
x,y,-z
-x,y,z
x,-y,z
loop_
_atom_site_type_symbol
_atom_site_label
_atom_site_fract_x
_atom_site_fract_y
_atom_site_fract_z
Si Si1 0.500000 0.183153 0.437401
Si Si2 0.614224 0.327578 0.732750
Si Si3 0.109999 0.822903 0.235100
Si Si4 0.613938 0.680515 0.937512
Si Si5 0.702801 0.820903 0.834171
Si Si6 0.693310 0.178979 0.372823
Si Si7 0.890123 0.679310 0.353396
O O1 0.500000 0.228183 0.500000
O O2 0.600183 0.231945 0.408130
O O3 0.500000 0.000000 0.434905
O O4 0.500000 0.325785 0.720376
O O5 0.649234 0.500000 0.729482
O O6 0.631435 0.261831 0.792133
O O7 0.667445 0.225920 0.688555
O O8 0.190607 0.785865 0.190451
O O9 0.119670 0.730585 0.290615
O O10 0.000000 0.801212 0.214666
O O11 0.121809 0.000000 0.249096
O O12 0.500000 0.719021 0.927490
O O13 0.622342 0.500000 0.932024
O O14 0.681093 0.760846 0.893766
O O15 0.635990 0.719191 0.000000
O O16 0.688663 0.000000 0.832111
O O17 0.798688 0.249890 0.384893
O O18 0.700035 0.000000 0.377295
O O19 0.884277 0.500000 0.356454
O O20 0.000000 0.726019 0.370615
#
# Coordination Sequence:
#
# PCOD9385390 Si02
#       7
#     4   8   8   8   8   8   8
#     4   9  20  38  59  83 111 145 184 227 272 317
#     4  11  22  33  47  71 107 144 172 206 259 318
#     4   9  18  32  48  69 101 137 171 208 255 311
#     4   9  19  36  54  70  93 130 172 211 257 313
#     4  11  21  31  49  76 102 131 169 213 262 312
#     4  11  20  33  55  80 108 141 178 221 268 317
#     4  10  20  33  51  77 109 144 181 220 266 321
#
# _framework density 17.249269999999999
#
# number of rings (size 3 to 8) (size 9 to 14) (size 15 to 20)
#    0.000    1.923    2.308    2.769    0.000    4.923 
#    0.000    0.769    0.000    4.615    0.000    6.462 
#    0.000    0.000    0.000    0.000    0.000    0.000 
#
# Total GULP energy -290084.502247 kJ/mol
# GULP energy per Si atom -5578.548120 kJ/mol
# Density = 1.721001 g / cm^3
# Si number density = 17.249270 Si / 1000 Ang^3
#
#
#
# Elastic Constant Matrix: (Units=GPa)
#
#
# Indices 1 2 3 4 5 6 
#
# 1 133.4804 42.4870 39.7103 0.0000 0.0000 0.0000
# 2 42.4870 41.9268 16.3252 0.0000 0.0000 0.0000
# 3 39.7103 16.3252 57.8325 0.0000 0.0000 0.0000
# 4 0.0000 0.0000 0.0000 34.8501 0.0000 0.0000
# 5 0.0000 0.0000 0.0000 0.0000 14.1055 0.0000
# 6 0.0000 0.0000 0.0000 0.0000 0.0000 26.7866
#
#
#
# Elastic Compliance Matrix: (Units=1/GPa)
#
#
# Indices 1 2 3 4 5 6 
#
# 1 0.012500 -0.010477 -0.005626 0.000000 0.000000 0.000000
# 2 -0.010477 0.035577 -0.002849 0.000000 0.000000 0.000000
# 3 -0.005626 -0.002849 0.021958 0.000000 0.000000 0.000000
# 4 0.000000 0.000000 0.000000 0.028694 0.000000 0.000000
# 5 0.000000 0.000000 0.000000 0.000000 0.070894 0.000000
# 6 0.000000 0.000000 0.000000 0.000000 0.000000 0.037332
#
#
# Mechanical properties :
#
#
# Convention : Reuss Voigt Hill
#
# Bulk Modulus (GPa) = 31.12099 47.80941 39.46520
# Shear Modulus (GPa) = 19.56409 24.12959 21.84684
#
# Velocity S-wave (km/s) = 3.37144 3.74421 3.56270
# Velocity P-wave (km/s) = 5.76511 6.81683 6.31291
#
# Compressibility (1/GPa) = 0.03213266
#
# Stress axis : x y z
#
# Youngs Moduli (GPa) = 79.99930 28.10795 45.54052
#
# Poissons Ratio (x) = 0.29448 0.25620
# Poissons Ratio (y) = 0.83812 0.12975
# Poissons Ratio (z) = 0.45005 0.08008
#
# Static dielectric constant tensor:
#      x y z
#    x 1.626950 0.000000 0.000000 
#    y 0.000000 1.587760 0.000000 
#    z 0.000000 0.000000 1.551720 
# 
# From -- ./inp_files/32642.got.cif
#   From: 2010.05.17/outbox.cif.g08.bks.cpg/sg47_17_cif.got.tgz:32642.got - 2010.06.03 20:15:42.
