data_PCOD9385612
_publ_section_title
;
Structure prediction by ZEFSAII (Michael W. Deem and Ramdas Pophale) SiO2 
 PCOD9385612
Probable space group: P M M M
;
_chemical_formula_sum "Si O2"
_cell_formula_units_Z 52
_cell_length_a 20.009217
_cell_length_b 16.544477
_cell_length_c 8.242258
_cell_angle_alpha 90.000000
_cell_angle_beta 90.000000
_cell_angle_gamma 90.000000
_cell_volume 2728.533824
_symmetry_space_group_name_H-M "P M M M"
_symmetry_group_IT_number 47
_symmetry_cell_setting 'orthorhombic'
loop_
_space_group_symop_operation_xyz
x,y,z
-x,-y,z
x,-y,-z
-x,y,-z
-x,-y,-z
x,y,-z
-x,y,z
x,-y,z
loop_
_atom_site_type_symbol
_atom_site_label
_atom_site_fract_x
_atom_site_fract_y
_atom_site_fract_z
Si Si1 0.421596 0.590427 0.197807
Si Si2 0.714884 0.911151 0.803350
Si Si3 0.806299 0.685527 0.318969
Si Si4 0.669979 0.264412 0.188998
Si Si5 0.000000 0.904014 0.316506
Si Si6 0.072451 0.403604 0.814005
Si Si7 0.858987 0.152907 0.190790
O O1 0.500000 0.597445 0.237813
O O2 0.398551 0.500000 0.250657
O O3 0.381149 0.668927 0.258472
O O4 0.416438 0.590553 0.000000
O O5 0.679813 0.827548 0.743565
O O6 0.794496 0.902567 0.770911
O O7 0.691786 0.000000 0.745269
O O8 0.707998 0.910664 0.000000
O O9 0.779913 0.677396 0.500000
O O10 0.742867 0.694349 0.202822
O O11 0.861138 0.619191 0.279456
O O12 0.847343 0.767838 0.296153
O O13 0.652350 0.253791 0.000000
O O14 0.068151 0.880374 0.227256
O O15 0.000000 0.870332 0.500000
O O16 0.000000 0.000000 0.327014
O O17 0.068954 0.500000 0.819429
O O18 0.000000 0.374045 0.749786
O O19 0.078438 0.373558 0.000000
O O20 0.853769 0.172799 0.000000
#
# Coordination Sequence:
#
# PCOD9385612 Si02
#       7
#     8   8   8   8   4   8   8
#     4   8  14  26  47  76 106 134 166 205 246 289
#     4   8  14  26  45  67  90 119 160 207 249 292
#     4  11  22  34  49  71 101 129 158 204 261 311
#     4   9  17  30  49  73  98 128 169 208 247 301
#     4  11  23  35  47  69 100 127 156 203 263 317
#     4   9  19  36  55  71  89 120 165 210 249 298
#     4  10  20  34  51  68  88 123 170 212 251 304
#
# _framework density 19.057856000000001
#
# number of rings (size 3 to 8) (size 9 to 14) (size 15 to 20)
#    0.000    2.692    0.000    4.385    1.077    2.462 
#    0.000    2.308    0.000    5.077    0.000    4.308 
#    0.000    0.000    0.000    5.538    0.000    6.154 
#
# Total GULP energy -289468.967866 kJ/mol
# GULP energy per Si atom -5566.710921 kJ/mol
# Density = 1.901448 g / cm^3
# Si number density = 19.057856 Si / 1000 Ang^3
#
#
#
# Elastic Constant Matrix: (Units=GPa)
#
#
# Indices 1 2 3 4 5 6 
#
# 1 71.4512 64.2021 -4.1064 0.0000 0.0000 0.0000
# 2 64.2021 122.9807 4.2760 0.0000 0.0000 0.0000
# 3 -4.1064 4.2760 20.2680 0.0000 0.0000 0.0000
# 4 0.0000 0.0000 0.0000 -14.4749 0.0000 0.0000
# 5 0.0000 0.0000 0.0000 0.0000 -2.8195 0.0000
# 6 0.0000 0.0000 0.0000 0.0000 0.0000 7.4795
#
#
#
# Elastic Compliance Matrix: (Units=1/GPa)
#
#
# Indices 1 2 3 4 5 6 
#
# 1 0.027826 -0.014831 0.008767 0.000000 0.000000 0.000000
# 2 -0.014831 0.016097 -0.006401 0.000000 0.000000 0.000000
# 3 0.008767 -0.006401 0.052465 0.000000 0.000000 0.000000
# 4 0.000000 0.000000 0.000000 -0.069085 0.000000 0.000000
# 5 0.000000 0.000000 0.000000 0.000000 -0.354678 0.000000
# 6 0.000000 0.000000 0.000000 0.000000 0.000000 0.133699
#
#
# Mechanical properties :
#
#
# Convention : Reuss Voigt Hill
#
# Bulk Modulus (GPa) = 13.99446 38.16039 26.07743
# Shear Modulus (GPa) = -34.50031 8.05891 -13.22070
#
# Velocity S-wave (km/s) = -4.25937 2.05860 -2.63670
# Velocity P-wave (km/s) = 4.10251 5.07123 2.10794
#
# Compressibility (1/GPa) = 0.07145684
#
# Stress axis : x y z
#
# Youngs Moduli (GPa) = 35.93746 62.12461 19.06022
#
# Poissons Ratio (x) = 0.92140 -0.16709
# Poissons Ratio (y) = 0.53300 0.12200
# Poissons Ratio (z) = -0.31505 0.39765
#
# Static dielectric constant tensor:
#      x y z
#    x 1.629990 0.000000 0.000000 
#    y 0.000000 1.720660 0.000000 
#    z 0.000000 0.000000 1.701630 
# 
# From -- ./inp_files/9572.got.cif
#   From: 2010.05.17/outbox.cif.g08.bks.cpg/sg47_5_cif.got.tgz:9572.got - 2010.06.03 20:15:42.
