data_PCOD9385170
_publ_section_title
;
Structure prediction by ZEFSAII (Michael W. Deem and Ramdas Pophale) SiO2 
 PCOD9385170
Probable space group: P M M M
;
_chemical_formula_sum "Si O2"
_cell_formula_units_Z 44
_cell_length_a 29.430263
_cell_length_b 7.813283
_cell_length_c 9.834024
_cell_angle_alpha 90.000000
_cell_angle_beta 90.000000
_cell_angle_gamma 90.000000
_cell_volume 2261.304057
_symmetry_space_group_name_H-M "P M M M"
_symmetry_group_IT_number 47
_symmetry_cell_setting 'orthorhombic'
loop_
_space_group_symop_operation_xyz
x,y,z
-x,-y,z
x,-y,-z
-x,y,-z
-x,-y,-z
x,y,-z
-x,y,z
x,-y,z
loop_
_atom_site_type_symbol
_atom_site_label
_atom_site_fract_x
_atom_site_fract_y
_atom_site_fract_z
Si Si1 0.134370 0.209802 0.843540
Si Si2 0.782403 0.208889 0.343116
Si Si3 0.319525 0.205219 0.346739
Si Si4 0.948366 0.791191 0.655529
Si Si5 0.500000 0.202868 0.154620
Si Si6 0.402201 0.297609 0.846238
O O1 0.178806 0.266234 0.760038
O O2 0.089532 0.265560 0.761717
O O3 0.134385 0.000000 0.843390
O O4 0.134678 0.264822 0.000000
O O5 0.791509 0.258793 0.500000
O O6 0.731163 0.265267 0.306869
O O7 0.782998 0.000000 0.341146
O O8 0.329075 0.268905 0.500000
O O9 0.359690 0.245463 0.244132
O O10 0.316642 0.000000 0.353959
O O11 0.937662 0.739861 0.500000
O O12 0.000000 0.737241 0.687156
O O13 0.948181 0.000000 0.656575
O O14 0.548433 0.253413 0.215842
O O15 0.500000 0.000000 0.145813
O O16 0.500000 0.277313 0.000000
O O17 0.400685 0.500000 0.857966
O O18 0.399916 0.222506 0.000000
#
# Coordination Sequence:
#
# PCOD9385170 Si02
#       6
#     8   8   8   8   4   8
#     4   9  15  20  28  45  67  90 121 166 217 263
#     4   8  14  25  39  53  72 100 133 171 216 265
#     4   9  18  32  49  69  92 119 154 195 236 277
#     4   8  13  20  28  37  53  84 126 167 208 258
#     4   9  17  31  52  75  98 127 162 196 230 269
#     4  10  20  33  50  73 100 128 157 190 230 277
#
# _framework density 19.457799999999999
#
# number of rings (size 3 to 8) (size 9 to 14) (size 15 to 20)
#    0.000    3.182    0.000    3.000    0.000    5.818 
#    0.000    4.091    0.000    2.727    0.000    0.000 
#    0.000    0.000    0.000    0.000    0.000    0.909 
#
# Total GULP energy -245230.381458 kJ/mol
# GULP energy per Si atom -5573.417760 kJ/mol
# Density = 1.941351 g / cm^3
# Si number density = 19.457800 Si / 1000 Ang^3
#
#
#
# Elastic Constant Matrix: (Units=GPa)
#
#
# Indices 1 2 3 4 5 6 
#
# 1 215.9788 10.2275 139.0522 0.0000 0.0000 0.0000
# 2 10.2275 24.7316 7.1441 0.0000 0.0000 0.0000
# 3 139.0522 7.1441 131.1407 0.0000 0.0000 0.0000
# 4 0.0000 0.0000 0.0000 1.1477 0.0000 0.0000
# 5 0.0000 0.0000 0.0000 0.0000 42.6198 0.0000
# 6 0.0000 0.0000 0.0000 0.0000 0.0000 -33.6993
#
#
#
# Elastic Compliance Matrix: (Units=1/GPa)
#
#
# Indices 1 2 3 4 5 6 
#
# 1 0.014652 -0.001597 -0.015449 0.000000 0.000000 0.000000
# 2 -0.001597 0.041254 -0.000555 0.000000 0.000000 0.000000
# 3 -0.015449 -0.000555 0.024037 0.000000 0.000000 0.000000
# 4 0.000000 0.000000 0.000000 0.871276 0.000000 0.000000
# 5 0.000000 0.000000 0.000000 0.000000 0.023463 0.000000
# 6 0.000000 0.000000 0.000000 0.000000 0.000000 -0.029674
#
#
# Mechanical properties :
#
#
# Convention : Reuss Voigt Hill
#
# Bulk Modulus (GPa) = 22.34987 76.07764 49.21376
# Shear Modulus (GPa) = 5.02450 16.37546 10.69998
#
# Velocity S-wave (km/s) = 1.60868 2.90416 2.34755
# Velocity P-wave (km/s) = 3.86804 7.10135 5.71800
#
# Compressibility (1/GPa) = 0.04474298
#
# Stress axis : x y z
#
# Youngs Moduli (GPa) = 68.24869 24.23980 41.60266
#
# Poissons Ratio (x) = 0.03870 0.64273
# Poissons Ratio (y) = 0.10896 0.02307
# Poissons Ratio (z) = 1.05439 0.01344
#
# Static dielectric constant tensor:
#      x y z
#    x 1.690610 0.000000 0.000000 
#    y 0.000000 1.700710 0.000000 
#    z 0.000000 0.000000 1.695460 
# 
# From -- ./inp_files/2198.got.cif
#   From: 2010.05.17/outbox.cif.g08.bks.cpg/sg47_2_cif.got.tgz:2198.got - 2010.06.03 20:15:42.
