data_PCOD9385243
_publ_section_title
;
Structure prediction by ZEFSAII (Michael W. Deem and Ramdas Pophale) SiO2 
 PCOD9385243
Probable space group: P M M M
;
_chemical_formula_sum "Si O2"
_cell_formula_units_Z 56
_cell_length_a 16.670660
_cell_length_b 7.394490
_cell_length_c 20.100532
_cell_angle_alpha 90.000000
_cell_angle_beta 90.000000
_cell_angle_gamma 90.000000
_cell_volume 2477.813256
_symmetry_space_group_name_H-M "P M M M"
_symmetry_group_IT_number 47
_symmetry_cell_setting 'orthorhombic'
loop_
_space_group_symop_operation_xyz
x,y,z
-x,-y,z
x,-y,-z
-x,y,-z
-x,-y,-z
x,y,-z
-x,y,z
x,-y,z
loop_
_atom_site_type_symbol
_atom_site_label
_atom_site_fract_x
_atom_site_fract_y
_atom_site_fract_z
Si Si1 0.641839 0.289559 0.324799
Si Si2 0.197299 0.295537 0.621932
Si Si3 0.089651 0.708683 0.897230
Si Si4 0.500000 0.782647 0.423861
Si Si5 0.269385 0.280317 0.925381
Si Si6 0.908280 0.721767 0.500000
Si Si7 0.591909 0.278964 0.822138
Si Si8 0.910502 0.215810 0.257749
O O1 0.661534 0.500000 0.310788
O O2 0.719839 0.204021 0.358283
O O3 0.574739 0.280497 0.380592
O O4 0.612326 0.219100 0.253392
O O5 0.215313 0.500000 0.598520
O O6 0.140479 0.217545 0.565086
O O7 0.150189 0.299557 0.691054
O O8 0.087935 0.500000 0.919533
O O9 0.176508 0.784807 0.918704
O O10 0.094657 0.714732 0.817201
O O11 0.000000 0.784837 0.914537
O O12 0.500000 0.719411 0.500000
O O13 0.500000 0.000000 0.424662
O O14 0.264967 0.500000 0.919261
O O15 0.335695 0.221100 0.871270
O O16 0.297003 0.236837 0.000000
O O17 0.911716 0.500000 0.500000
O O18 0.000000 0.783355 0.500000
O O19 0.500000 0.223568 0.839090
O O20 0.591063 0.500000 0.823464
O O21 0.000000 0.253659 0.282566
O O22 0.898900 0.000000 0.255484
#
# Coordination Sequence:
#
# PCOD9385243 Si02
#       8
#     8   8   8   4   8   4   8   8
#     4  10  20  36  59  83 107 140 184 227 267 320
#     4  10  20  33  54  80 104 136 177 222 273 322
#     4   9  17  30  49  72 100 135 174 219 271 321
#     4  11  25  41  57  81 114 145 174 218 279 333
#     4   9  17  28  45  74 109 139 171 216 269 326
#     4   9  18  32  49  74 107 138 172 215 261 315
#     4   9  16  28  47  73 105 138 172 214 264 314
#     4  10  20  33  50  74 104 139 180 224 269 319
#
# _framework density 22.600576
#
# number of rings (size 3 to 8) (size 9 to 14) (size 15 to 20)
#    0.000    2.429    0.714    1.929    1.000    5.429 
#    0.000    3.214    0.000    1.714    0.000    2.000 
#    0.000    0.571    0.000    0.000    0.000    0.000 
#
# Total GULP energy -312492.256373 kJ/mol
# GULP energy per Si atom -5580.218864 kJ/mol
# Density = 2.254914 g / cm^3
# Si number density = 22.600576 Si / 1000 Ang^3
#
#
#
# Elastic Constant Matrix: (Units=GPa)
#
#
# Indices 1 2 3 4 5 6 
#
# 1 205.9082 12.7606 104.5834 0.0000 0.0000 0.0000
# 2 12.7606 74.9352 -5.9444 0.0000 0.0000 0.0000
# 3 104.5834 -5.9444 149.7333 0.0000 0.0000 0.0000
# 4 0.0000 0.0000 0.0000 19.8094 0.0000 0.0000
# 5 0.0000 0.0000 0.0000 0.0000 -266.0453 0.0000
# 6 0.0000 0.0000 0.0000 0.0000 0.0000 -15.0511
#
#
#
# Elastic Compliance Matrix: (Units=1/GPa)
#
#
# Indices 1 2 3 4 5 6 
#
# 1 0.007750 -0.001755 -0.005483 0.000000 0.000000 0.000000
# 2 -0.001755 0.013784 0.001773 0.000000 0.000000 0.000000
# 3 -0.005483 0.001773 0.010578 0.000000 0.000000 0.000000
# 4 0.000000 0.000000 0.000000 0.050481 0.000000 0.000000
# 5 0.000000 0.000000 0.000000 0.000000 -0.003759 0.000000
# 6 0.000000 0.000000 0.000000 0.000000 0.000000 -0.066440
#
#
# Mechanical properties :
#
#
# Convention : Reuss Voigt Hill
#
# Bulk Modulus (GPa) = 47.20658 72.59732 59.90195
# Shear Modulus (GPa) = 164.55166 -30.97895 66.78636
#
# Velocity S-wave (km/s) = 8.54205 -3.70633 5.44196
# Velocity P-wave (km/s) = 10.87297 3.72502 8.12703
#
# Compressibility (1/GPa) = 0.02118349
#
# Stress axis : x y z
#
# Youngs Moduli (GPa) = 129.03122 72.54632 94.53169
#
# Poissons Ratio (x) = 0.12730 0.51830
# Poissons Ratio (y) = 0.22641 -0.16759
# Poissons Ratio (z) = 0.70745 -0.12861
#
# Static dielectric constant tensor:
#      x y z
#    x 1.859880 0.000000 0.000000 
#    y 0.000000 1.876840 0.000000 
#    z 0.000000 0.000000 1.784850 
# 
# From -- ./inp_files/31092.got.cif
#   From: 2010.05.17/outbox.cif.g08.bks.cpg/sg47_16_cif.got.tgz:31092.got - 2010.06.03 20:15:42.
