data_PCOD9385541
_publ_section_title
;
Structure prediction by ZEFSAII (Michael W. Deem and Ramdas Pophale) SiO2 
 PCOD9385541
Probable space group: P M M M
;
_chemical_formula_sum "Si O2"
_cell_formula_units_Z 64
_cell_length_a 7.763495
_cell_length_b 25.790947
_cell_length_c 15.083163
_cell_angle_alpha 90.000000
_cell_angle_beta 90.000000
_cell_angle_gamma 90.000000
_cell_volume 3020.069873
_symmetry_space_group_name_H-M "P M M M"
_symmetry_group_IT_number 47
_symmetry_cell_setting 'orthorhombic'
loop_
_space_group_symop_operation_xyz
x,y,z
-x,-y,z
x,-y,-z
-x,y,-z
-x,-y,-z
x,y,-z
-x,y,z
x,-y,z
loop_
_atom_site_type_symbol
_atom_site_label
_atom_site_fract_x
_atom_site_fract_y
_atom_site_fract_z
Si Si1 0.204588 0.362626 0.253432
Si Si2 0.205160 0.832277 0.899365
Si Si3 0.789536 0.557984 0.601892
Si Si4 0.296904 0.830055 0.601357
Si Si5 0.206779 0.055851 0.605269
Si Si6 0.708092 0.558004 0.102496
Si Si7 0.203886 0.246453 0.244801
Si Si8 0.293150 0.055251 0.895064
O O1 0.275866 0.397936 0.332830
O O2 0.228431 0.396239 0.164877
O O3 0.276419 0.304498 0.249347
O O4 0.000000 0.357743 0.269638
O O5 0.277808 0.788668 0.834589
O O6 0.230940 0.889879 0.860032
O O7 0.000000 0.825177 0.905736
O O8 0.275914 0.830349 0.000000
O O9 0.739270 0.566357 0.500000
O O10 0.734805 0.500000 0.629026
O O11 0.000000 0.558082 0.604122
O O12 0.227324 0.828019 0.500000
O O13 0.500000 0.821355 0.597158
O O14 0.269684 0.888506 0.638153
O O15 0.222189 0.786584 0.665535
O O16 0.249965 0.055697 0.500000
O O17 0.000000 0.056009 0.612827
O O18 0.270541 0.000000 0.641199
O O19 0.500000 0.558215 0.104878
O O20 0.765489 0.500000 0.131260
O O21 0.760459 0.564869 0.000000
O O22 0.000000 0.251698 0.227171
O O23 0.500000 0.055234 0.889652
O O24 0.229145 0.000000 0.858206
O O25 0.246735 0.055477 0.000000
#
# Coordination Sequence:
#
# PCOD9385541 Si02
#       8
#     8   8   8   8   8   8   8   8
#     4  10  20  33  53  80 105 134 177 224 262 299
#     4   9  18  33  51  70  96 130 166 206 252 302
#     4   8  14  26  46  74 106 133 158 198 254 308
#     4  10  21  36  54  76 103 137 177 222 267 309
#     4   8  14  27  50  78 104 131 165 208 264 327
#     4   9  19  36  56  79 110 146 178 209 255 316
#     4  10  22  37  52  74 104 139 178 217 259 309
#     4   8  14  26  46  72  98 122 153 198 252 306
#
# _framework density 21.191562000000001
#
# number of rings (size 3 to 8) (size 9 to 14) (size 15 to 20)
#    0.000    3.000    0.000    2.250    0.000    4.250 
#    0.000    6.250    0.000    2.625    0.000    1.750 
#    0.000    0.000    0.000    0.000    0.000    0.000 
#
# Total GULP energy -356931.823632 kJ/mol
# GULP energy per Si atom -5577.059744 kJ/mol
# Density = 2.114333 g / cm^3
# Si number density = 21.191562 Si / 1000 Ang^3
#
#
#
# Elastic Constant Matrix: (Units=GPa)
#
#
# Indices 1 2 3 4 5 6 
#
# 1 23.7044 5.9274 -3.8779 0.0000 0.0000 0.0000
# 2 5.9274 234.6349 90.3973 0.0000 0.0000 0.0000
# 3 -3.8779 90.3973 92.5175 0.0000 0.0000 0.0000
# 4 0.0000 0.0000 0.0000 -73.7888 0.0000 0.0000
# 5 0.0000 0.0000 0.0000 0.0000 -5.1674 0.0000
# 6 0.0000 0.0000 0.0000 0.0000 0.0000 155.4627
#
#
#
# Elastic Compliance Matrix: (Units=1/GPa)
#
#
# Indices 1 2 3 4 5 6 
#
# 1 0.043675 -0.002900 0.004665 0.000000 0.000000 0.000000
# 2 -0.002900 0.007027 -0.006988 0.000000 0.000000 0.000000
# 3 0.004665 -0.006988 0.017832 0.000000 0.000000 0.000000
# 4 0.000000 0.000000 0.000000 -0.013552 0.000000 0.000000
# 5 0.000000 0.000000 0.000000 0.000000 -0.193522 0.000000
# 6 0.000000 0.000000 0.000000 0.000000 0.000000 0.006432
#
#
# Mechanical properties :
#
#
# Convention : Reuss Voigt Hill
#
# Bulk Modulus (GPa) = 17.21572 59.52783 38.37178
# Shear Modulus (GPa) = -48.87711 32.52863 -8.17424
#
# Velocity S-wave (km/s) = -4.80775 3.92213 -1.96613
# Velocity P-wave (km/s) = 4.76212 6.97583 3.60447
#
# Compressibility (1/GPa) = 0.05808643
#
# Stress axis : x y z
#
# Youngs Moduli (GPa) = 22.89664 142.29900 56.07857
#
# Poissons Ratio (x) = 0.41273 -0.26158
# Poissons Ratio (y) = 0.06641 0.39188
# Poissons Ratio (z) = -0.10680 0.99438
#
# Static dielectric constant tensor:
#      x y z
#    x 1.774750 0.000000 0.000000 
#    y 0.000000 1.772780 0.000000 
#    z 0.000000 0.000000 1.786460 
# 
# From -- ./inp_files/21944.got.cif
#   From: 2010.05.17/outbox.cif.g08.bks.cpg/sg47_11_cif.got.tgz:21944.got - 2010.06.03 20:15:42.
