data_PCOD9385848
_publ_section_title
;
Structure prediction by ZEFSAII (Michael W. Deem and Ramdas Pophale) SiO2 
 PCOD9385848
Probable space group: P M M M
;
_chemical_formula_sum "Si O2"
_cell_formula_units_Z 48
_cell_length_a 31.884158
_cell_length_b 8.725491
_cell_length_c 9.214728
_cell_angle_alpha 90.000000
_cell_angle_beta 90.000000
_cell_angle_gamma 90.000000
_cell_volume 2563.582792
_symmetry_space_group_name_H-M "P M M M"
_symmetry_group_IT_number 47
_symmetry_cell_setting 'orthorhombic'
loop_
_space_group_symop_operation_xyz
x,y,z
-x,-y,z
x,-y,-z
-x,y,-z
-x,-y,-z
x,y,-z
-x,y,z
x,-y,z
loop_
_atom_site_type_symbol
_atom_site_label
_atom_site_fract_x
_atom_site_fract_y
_atom_site_fract_z
Si Si1 0.411408 0.682996 0.828526
Si Si2 0.500000 0.176858 0.823633
Si Si3 0.669114 0.183615 0.669141
Si Si4 0.830943 0.814594 0.330762
Si Si5 0.000000 0.812712 0.332392
Si Si6 0.084198 0.186991 0.832661
Si Si7 0.250034 0.683775 0.831086
O O1 0.409517 0.500000 0.815900
O O2 0.457005 0.741697 0.778466
O O3 0.373923 0.758025 0.739533
O O4 0.406717 0.722048 0.000000
O O5 0.500000 0.000000 0.778295
O O6 0.500000 0.181567 0.000000
O O7 0.671399 0.228118 0.500000
O O8 0.708301 0.252927 0.755241
O O9 0.670884 0.000000 0.678131
O O10 0.831595 0.771246 0.500000
O O11 0.873807 0.765871 0.251411
O O12 0.790711 0.746689 0.250887
O O13 0.828677 0.000000 0.323487
O O14 0.957956 0.763316 0.249463
O O15 0.000000 0.764408 0.500000
O O16 0.000000 0.000000 0.331770
O O17 0.083828 0.000000 0.832541
O O18 0.084653 0.236696 0.000000
O O19 0.250420 0.500000 0.824388
O O20 0.248986 0.730408 0.000000
#
# Coordination Sequence:
#
# PCOD9385848 Si02
#       7
#     8   4   8   8   4   8   8
#     4  10  20  35  57  85 115 147 185 228 273 323
#     4   9  17  31  54  83 114 149 188 230 276 323
#     4  11  24  40  58  82 111 143 180 222 269 322
#     4  10  20  34  53  78 107 139 176 218 266 320
#     4   9  15  23  37  61  96 135 174 219 270 321
#     4   9  16  26  42  66  98 136 176 218 266 319
#     4  11  24  40  58  81 107 137 176 220 266 319
#
# _framework density 18.723794999999999
#
# number of rings (size 3 to 8) (size 9 to 14) (size 15 to 20)
#    0.000    2.000    0.000    4.000    0.000   12.667 
#    0.000    0.417    0.000    2.500    0.000    0.583 
#    0.000    4.667    0.000    0.000    0.000    0.000 
#
# Total GULP energy -268155.016675 kJ/mol
# GULP energy per Si atom -5586.562847 kJ/mol
# Density = 1.868118 g / cm^3
# Si number density = 18.723795 Si / 1000 Ang^3
#
#
#
# Elastic Constant Matrix: (Units=GPa)
#
#
# Indices 1 2 3 4 5 6 
#
# 1 217.3498 39.0346 124.1484 0.0000 0.0000 0.0000
# 2 39.0346 24.6595 45.8584 0.0000 0.0000 0.0000
# 3 124.1484 45.8584 179.6745 0.0000 0.0000 0.0000
# 4 0.0000 0.0000 0.0000 19.8425 0.0000 0.0000
# 5 0.0000 0.0000 0.0000 0.0000 2245.7670 0.0000
# 6 0.0000 0.0000 0.0000 0.0000 0.0000 -62.7177
#
#
#
# Elastic Compliance Matrix: (Units=1/GPa)
#
#
# Indices 1 2 3 4 5 6 
#
# 1 0.007849 -0.004452 -0.004287 0.000000 0.000000 0.000000
# 2 -0.004452 0.079715 -0.017269 0.000000 0.000000 0.000000
# 3 -0.004287 -0.017269 0.012936 0.000000 0.000000 0.000000
# 4 0.000000 0.000000 0.000000 0.050397 0.000000 0.000000
# 5 0.000000 0.000000 0.000000 0.000000 0.000445 0.000000
# 6 0.000000 0.000000 0.000000 0.000000 0.000000 -0.015944
#
#
# Mechanical properties :
#
#
# Convention : Reuss Voigt Hill
#
# Bulk Modulus (GPa) = 20.62609 93.30739 56.96674
# Shear Modulus (GPa) = 24.56086 454.75453 239.65769
#
# Velocity S-wave (km/s) = 3.62573 15.60136 11.32582
# Velocity P-wave (km/s) = 5.34489 19.35144 14.19588
#
# Compressibility (1/GPa) = 0.04848229
#
# Stress axis : x y z
#
# Youngs Moduli (GPa) = 127.40005 12.54469 77.30583
#
# Poissons Ratio (x) = 0.05585 0.33143
# Poissons Ratio (y) = 0.56720 1.33503
# Poissons Ratio (z) = 0.54620 0.21664
#
# Static dielectric constant tensor:
#      x y z
#    x 1.609800 0.000000 0.000000 
#    y 0.000000 1.630750 0.000000 
#    z 0.000000 0.000000 1.632210 
# 
# From -- ./inp_files/13926.got.cif
#   From: 2010.05.17/outbox.cif.g08.bks.cpg/sg47_7_cif.got.tgz:13926.got - 2010.06.03 20:15:42.
