data_PCOD9385200
_publ_section_title
;
Structure prediction by ZEFSAII (Michael W. Deem and Ramdas Pophale) SiO2 
 PCOD9385200
Probable space group: P M M M
;
_chemical_formula_sum "Si O2"
_cell_formula_units_Z 36
_cell_length_a 9.662342
_cell_length_b 7.390975
_cell_length_c 23.997425
_cell_angle_alpha 90.000000
_cell_angle_beta 90.000000
_cell_angle_gamma 90.000000
_cell_volume 1713.755185
_symmetry_space_group_name_H-M "P M M M"
_symmetry_group_IT_number 47
_symmetry_cell_setting 'orthorhombic'
loop_
_space_group_symop_operation_xyz
x,y,z
-x,-y,z
x,-y,-z
-x,y,-z
-x,-y,-z
x,y,-z
-x,y,z
x,-y,z
loop_
_atom_site_type_symbol
_atom_site_label
_atom_site_fract_x
_atom_site_fract_y
_atom_site_fract_z
Si Si1 0.339545 0.779518 0.938433
Si Si2 0.159722 0.278309 0.500000
Si Si3 0.158148 0.782324 0.709799
Si Si4 0.656629 0.713512 0.396564
Si Si5 0.840298 0.220345 0.165357
O O1 0.500000 0.727313 0.933333
O O2 0.252637 0.715929 0.885672
O O3 0.335777 0.000000 0.937945
O O4 0.289176 0.723458 0.000000
O O5 0.156478 0.500000 0.500000
O O6 0.244088 0.216543 0.445571
O O7 0.000000 0.219729 0.500000
O O8 0.265607 0.733171 0.662101
O O9 0.199304 0.721468 0.772082
O O10 0.000000 0.719728 0.698100
O O11 0.152671 0.000000 0.711245
O O12 0.500000 0.787474 0.396423
O O13 0.644416 0.500000 0.407371
O O14 0.000000 0.270797 0.156862
O O15 0.834509 0.000000 0.165228
#
# Coordination Sequence:
#
# PCOD9385200 Si02
#       5
#     8   4   8   8   8
#     4   8  13  20  30  47  73 105 141 179 217 259
#     4   9  17  31  52  73  92 119 152 184 224 271
#     4   9  18  32  48  67  93 124 157 191 227 270
#     4  10  20  33  50  73  98 121 149 187 227 268
#     4   8  14  24  37  54  78 109 144 181 220 261
#
# _framework density 21.006501
#
# number of rings (size 3 to 8) (size 9 to 14) (size 15 to 20)
#    0.000    3.222    0.000    3.000    0.000    4.444 
#    0.000    5.000    0.000    3.333    0.000    0.000 
#    0.000    0.889    0.000    9.778    0.000   16.000 
#
# Total GULP energy -200857.771373 kJ/mol
# GULP energy per Si atom -5579.382538 kJ/mol
# Density = 2.095869 g / cm^3
# Si number density = 21.006501 Si / 1000 Ang^3
#
#
#
# Elastic Constant Matrix: (Units=GPa)
#
#
# Indices 1 2 3 4 5 6 
#
# 1 166.2356 5.8030 149.2269 0.0000 0.0000 0.0000
# 2 5.8030 70.1395 0.1772 0.0000 0.0000 0.0000
# 3 149.2269 0.1772 224.2035 0.0000 0.0000 0.0000
# 4 0.0000 0.0000 0.0000 16.9240 0.0000 0.0000
# 5 0.0000 0.0000 0.0000 0.0000 123.9015 0.0000
# 6 0.0000 0.0000 0.0000 0.0000 0.0000 4.0768
#
#
#
# Elastic Compliance Matrix: (Units=1/GPa)
#
#
# Indices 1 2 3 4 5 6 
#
# 1 0.015049 -0.001220 -0.010015 0.000000 0.000000 0.000000
# 2 -0.001220 0.014356 0.000801 0.000000 0.000000 0.000000
# 3 -0.010015 0.000801 0.011126 0.000000 0.000000 0.000000
# 4 0.000000 0.000000 0.000000 0.059088 0.000000 0.000000
# 5 0.000000 0.000000 0.000000 0.000000 0.008071 0.000000
# 6 0.000000 0.000000 0.000000 0.000000 0.000000 0.245289
#
#
# Mechanical properties :
#
#
# Convention : Reuss Voigt Hill
#
# Bulk Modulus (GPa) = 50.86080 85.66588 68.26334
# Shear Modulus (GPa) = 13.14402 49.33855 31.24129
#
# Velocity S-wave (km/s) = 2.50414 4.85163 3.86063
# Velocity P-wave (km/s) = 5.71187 8.50021 7.24151
#
# Compressibility (1/GPa) = 0.01966151
#
# Stress axis : x y z
#
# Youngs Moduli (GPa) = 66.45130 69.65631 89.88289
#
# Poissons Ratio (x) = 0.08496 0.90020
# Poissons Ratio (y) = 0.08105 -0.07195
# Poissons Ratio (z) = 0.66552 -0.05576
#
# Static dielectric constant tensor:
#      x y z
#    x 1.714430 0.000000 0.000000 
#    y 0.000000 1.841730 0.000000 
#    z 0.000000 0.000000 1.736570 
# 
# From -- ./inp_files/1412.got.cif
#   From: 2010.05.17/outbox.cif.g08.bks.cpg/sg47_1_cif.got.tgz:1412.got - 2010.06.03 20:15:42.
