data_PCOD9385627
_publ_section_title
;
Structure prediction by ZEFSAII (Michael W. Deem and Ramdas Pophale) SiO2 
 PCOD9385627
Probable space group: P M M M
;
_chemical_formula_sum "Si O2"
_cell_formula_units_Z 44
_cell_length_a 17.912988
_cell_length_b 8.864632
_cell_length_c 15.624756
_cell_angle_alpha 90.000000
_cell_angle_beta 90.000000
_cell_angle_gamma 90.000000
_cell_volume 2481.086983
_symmetry_space_group_name_H-M "P M M M"
_symmetry_group_IT_number 47
_symmetry_cell_setting 'orthorhombic'
loop_
_space_group_symop_operation_xyz
x,y,z
-x,-y,z
x,-y,-z
-x,y,-z
-x,-y,-z
x,y,-z
-x,y,z
x,-y,z
loop_
_atom_site_type_symbol
_atom_site_label
_atom_site_fract_x
_atom_site_fract_y
_atom_site_fract_z
Si Si1 0.911070 0.171821 0.000000
Si Si2 0.588637 0.680705 0.903181
Si Si3 0.146736 0.678955 0.828456
Si Si4 0.918586 0.319179 0.354148
Si Si5 0.699141 0.820630 0.233127
Si Si6 0.752908 0.318032 0.403711
O O1 0.885362 0.258546 0.915819
O O2 0.000000 0.166106 0.000000
O O3 0.881930 0.000000 0.000000
O O4 0.500000 0.709077 0.896135
O O5 0.599850 0.500000 0.897498
O O6 0.633806 0.759358 0.827687
O O7 0.612202 0.727276 0.000000
O O8 0.160278 0.500000 0.833256
O O9 0.092230 0.704533 0.747566
O O10 0.223746 0.762219 0.808085
O O11 0.920144 0.500000 0.369598
O O12 0.839918 0.266252 0.393808
O O13 0.000000 0.259449 0.381926
O O14 0.703339 0.754105 0.329232
O O15 0.697145 0.000000 0.236456
O O16 0.727931 0.284669 0.500000
O O17 0.753071 0.500000 0.391669
#
# Coordination Sequence:
#
# PCOD9385627 Si02
#       6
#     4   8   8   8   8   8
#     4  11  23  35  47  69 102 135 172 225 285 333
#     4   9  19  37  61  87 114 144 177 212 255 314
#     4  10  20  34  51  70  96 137 186 226 261 315
#     4   8  14  26  46  72  98 124 165 223 277 318
#     4  11  22  35  54  80 112 145 177 220 272 321
#     4   9  18  33  53  77 105 140 184 229 274 328
#
# _framework density 17.734162999999999
#
# number of rings (size 3 to 8) (size 9 to 14) (size 15 to 20)
#    0.000    2.455    0.000    4.636    1.273    2.909 
#    0.000    2.727    0.000    5.455    0.000    8.909 
#    0.000    0.000    0.000    0.000    0.000    0.000 
#
# Total GULP energy -245370.594654 kJ/mol
# GULP energy per Si atom -5576.604424 kJ/mol
# Density = 1.769380 g / cm^3
# Si number density = 17.734163 Si / 1000 Ang^3
#
#
#
# Elastic Constant Matrix: (Units=GPa)
#
#
# Indices 1 2 3 4 5 6 
#
# 1 63.2597 40.3844 54.4080 0.0000 0.0000 0.0000
# 2 40.3844 64.5947 64.0081 0.0000 0.0000 0.0000
# 3 54.4080 64.0081 148.5804 0.0000 0.0000 0.0000
# 4 0.0000 0.0000 0.0000 17.0194 0.0000 0.0000
# 5 0.0000 0.0000 0.0000 0.0000 7.5172 0.0000
# 6 0.0000 0.0000 0.0000 0.0000 0.0000 13.6137
#
#
#
# Elastic Compliance Matrix: (Units=1/GPa)
#
#
# Indices 1 2 3 4 5 6 
#
# 1 0.028106 -0.012865 -0.004750 0.000000 0.000000 0.000000
# 2 -0.012865 0.032901 -0.009463 0.000000 0.000000 0.000000
# 3 -0.004750 -0.009463 0.012546 0.000000 0.000000 0.000000
# 4 0.000000 0.000000 0.000000 0.058757 0.000000 0.000000
# 5 0.000000 0.000000 0.000000 0.000000 0.133028 0.000000
# 6 0.000000 0.000000 0.000000 0.000000 0.000000 0.073455
#
#
# Mechanical properties :
#
#
# Convention : Reuss Voigt Hill
#
# Bulk Modulus (GPa) = 51.55141 66.00396 58.77768
# Shear Modulus (GPa) = 12.51833 15.47235 13.99534
#
# Velocity S-wave (km/s) = 2.65974 2.95695 2.81227
# Velocity P-wave (km/s) = 6.21002 6.99696 6.61520
#
# Compressibility (1/GPa) = 0.01939811
#
# Stress axis : x y z
#
# Youngs Moduli (GPa) = 35.57969 30.39402 79.70564
#
# Poissons Ratio (x) = 0.39102 0.37858
# Poissons Ratio (y) = 0.45774 0.75423
# Poissons Ratio (z) = 0.16899 0.28761
#
# Static dielectric constant tensor:
#      x y z
#    x 1.599490 0.000000 0.000000 
#    y 0.000000 1.593920 0.000000 
#    z 0.000000 0.000000 1.607460 
# 
# From -- ./inp_files/9020.got.cif
#   From: 2010.05.17/outbox.cif.g08.bks.cpg/sg47_5_cif.got.tgz:9020.got - 2010.06.03 20:15:42.
