data_PCOD9385958
_publ_section_title
;
Structure prediction by ZEFSAII (Michael W. Deem and Ramdas Pophale) SiO2 
 PCOD9385958
Probable space group: P M M M
;
_chemical_formula_sum "Si O2"
_cell_formula_units_Z 64
_cell_length_a 25.470313
_cell_length_b 8.284700
_cell_length_c 15.976083
_cell_angle_alpha 90.000000
_cell_angle_beta 90.000000
_cell_angle_gamma 90.000000
_cell_volume 3371.175614
_symmetry_space_group_name_H-M "P M M M"
_symmetry_group_IT_number 47
_symmetry_cell_setting 'orthorhombic'
loop_
_space_group_symop_operation_xyz
x,y,z
-x,-y,z
x,-y,-z
-x,y,-z
-x,-y,-z
x,y,-z
-x,y,z
x,-y,z
loop_
_atom_site_type_symbol
_atom_site_label
_atom_site_fract_x
_atom_site_fract_y
_atom_site_fract_z
Si Si1 0.440815 0.195428 0.229633
Si Si2 0.595938 0.807969 0.410178
Si Si3 0.709532 0.688364 0.628856
Si Si4 0.357061 0.307485 0.093194
Si Si5 0.939907 0.694413 0.905707
Si Si6 0.735885 0.191357 0.807565
Si Si7 0.173831 0.194614 0.409001
Si Si8 0.145868 0.805987 0.225650
O O1 0.500000 0.242149 0.206472
O O2 0.428283 0.255589 0.323775
O O3 0.398532 0.254832 0.163127
O O4 0.437773 0.000000 0.231294
O O5 0.577010 0.742533 0.500000
O O6 0.658330 0.777830 0.404491
O O7 0.586134 0.000000 0.410617
O O8 0.705910 0.500000 0.608496
O O9 0.711574 0.715225 0.728627
O O10 0.764955 0.757397 0.597430
O O11 0.351680 0.500000 0.095961
O O12 0.300684 0.230768 0.114622
O O13 0.374220 0.259209 0.000000
O O14 0.940400 0.500000 0.907160
O O15 0.900368 0.746894 0.833574
O O16 0.000000 0.748713 0.890566
O O17 0.924587 0.749207 0.000000
O O18 0.797012 0.237700 0.812488
O O19 0.733573 0.000000 0.788819
O O20 0.153628 0.251122 0.500000
O O21 0.146674 0.252481 0.322735
O O22 0.170954 0.000000 0.408030
O O23 0.143295 0.000000 0.228088
#
# Coordination Sequence:
#
# PCOD9385958 Si02
#       8
#     8   8   8   8   8   8   8   8
#     4  10  22  40  61  82 105 139 183 227 269 322
#     4  10  20  34  54  79 108 142 177 216 266 323
#     4  11  20  30  49  78 110 142 179 221 265 315
#     4  11  24  40  59  84 111 141 177 220 275 332
#     4   9  19  36  56  78 107 145 186 226 272 327
#     4  10  20  36  56  79 111 147 181 218 267 324
#     4   9  18  33  51  73 108 151 188 222 265 319
#     4   9  19  33  53  83 112 141 181 227 271 316
#
# _framework density 18.984476000000001
#
# number of rings (size 3 to 8) (size 9 to 14) (size 15 to 20)
#    0.000    2.125    1.250    3.375    0.000    7.250 
#    0.000    5.625    0.000    0.375    0.000    4.375 
#    0.000    0.000    0.000    0.000    0.000    0.000 
#
# Total GULP energy -357072.043751 kJ/mol
# GULP energy per Si atom -5579.250684 kJ/mol
# Density = 1.894127 g / cm^3
# Si number density = 18.984476 Si / 1000 Ang^3
#
#
#
# Elastic Constant Matrix: (Units=GPa)
#
#
# Indices 1 2 3 4 5 6 
#
# 1 87.4862 11.0542 72.3057 0.0000 0.0000 0.0000
# 2 11.0542 13.8277 17.7035 0.0000 0.0000 0.0000
# 3 72.3057 17.7035 150.1227 0.0000 0.0000 0.0000
# 4 0.0000 0.0000 0.0000 67.7519 0.0000 0.0000
# 5 0.0000 0.0000 0.0000 0.0000 -64.1058 0.0000
# 6 0.0000 0.0000 0.0000 0.0000 0.0000 50.6992
#
#
#
# Elastic Compliance Matrix: (Units=1/GPa)
#
#
# Indices 1 2 3 4 5 6 
#
# 1 0.019188 -0.004131 -0.008755 0.000000 0.000000 0.000000
# 2 -0.004131 0.086068 -0.008160 0.000000 0.000000 0.000000
# 3 -0.008755 -0.008160 0.011840 0.000000 0.000000 0.000000
# 4 0.000000 0.000000 0.000000 0.014760 0.000000 0.000000
# 5 0.000000 0.000000 0.000000 0.000000 -0.015599 0.000000
# 6 0.000000 0.000000 0.000000 0.000000 0.000000 0.019724
#
#
# Mechanical properties :
#
#
# Convention : Reuss Voigt Hill
#
# Bulk Modulus (GPa) = 13.33246 50.39594 31.86420
# Shear Modulus (GPa) = 24.62163 20.89393 22.75778
#
# Velocity S-wave (km/s) = 3.60521 3.32110 3.46606
# Velocity P-wave (km/s) = 4.93640 6.42727 5.73052
#
# Compressibility (1/GPa) = 0.07500490
#
# Stress axis : x y z
#
# Youngs Moduli (GPa) = 52.11643 11.61871 84.45877
#
# Poissons Ratio (x) = 0.04800 0.73940
# Poissons Ratio (y) = 0.21529 0.68919
# Poissons Ratio (z) = 0.45626 0.09481
#
# Static dielectric constant tensor:
#      x y z
#    x 1.628640 0.000000 0.000000 
#    y 0.000000 1.659850 0.000000 
#    z 0.000000 0.000000 1.707280 
# 
# From -- ./inp_files/7800.got.cif
#   From: 2010.05.17/outbox.cif.g08.bks.cpg/sg47_4_cif.got.tgz:7800.got - 2010.06.03 20:15:42.
