data_PCOD9385949
_publ_section_title
;
Structure prediction by ZEFSAII (Michael W. Deem and Ramdas Pophale) SiO2 
 PCOD9385949
Probable space group: P M M M
;
_chemical_formula_sum "Si O2"
_cell_formula_units_Z 56
_cell_length_a 7.477926
_cell_length_b 20.642204
_cell_length_c 16.134588
_cell_angle_alpha 90.000000
_cell_angle_beta 90.000000
_cell_angle_gamma 90.000000
_cell_volume 2490.549105
_symmetry_space_group_name_H-M "P M M M"
_symmetry_group_IT_number 47
_symmetry_cell_setting 'orthorhombic'
loop_
_space_group_symop_operation_xyz
x,y,z
-x,-y,z
x,-y,-z
-x,y,-z
-x,-y,-z
x,y,-z
-x,y,z
x,-y,z
loop_
_atom_site_type_symbol
_atom_site_label
_atom_site_fract_x
_atom_site_fract_y
_atom_site_fract_z
Si Si1 0.290206 0.220146 0.590218
Si Si2 0.784733 0.931139 0.813348
Si Si3 0.792526 0.188659 0.907639
Si Si4 0.787445 0.070920 0.617391
Si Si5 0.783652 0.574504 0.406405
Si Si6 0.702155 0.334929 0.907851
Si Si7 0.706989 0.317861 0.726518
O O1 0.214440 0.241267 0.500000
O O2 0.500000 0.236878 0.589689
O O3 0.278088 0.141891 0.591656
O O4 0.216847 0.256475 0.672897
O O5 0.711464 0.865338 0.849673
O O6 0.758606 0.930536 0.715638
O O7 0.000000 0.929648 0.828215
O O8 0.718277 0.000000 0.846774
O O9 0.697915 0.256930 0.909608
O O10 0.000000 0.202409 0.884716
O O11 0.793206 0.160871 0.000000
O O12 0.000000 0.071206 0.600833
O O13 0.719458 0.000000 0.587793
O O14 0.726578 0.591603 0.500000
O O15 0.731360 0.500000 0.390714
O O16 0.714416 0.623792 0.338572
O O17 0.000000 0.577103 0.404652
O O18 0.500000 0.361854 0.906896
O O19 0.784524 0.342810 0.815203
O O20 0.779960 0.353149 0.000000
O O21 0.500000 0.301725 0.745968
#
# Coordination Sequence:
#
# PCOD9385949 Si02
#       7
#     8   8   8   8   8   8   8
#     4  10  21  34  47  68  98 127 158 202 254 303
#     4   8  14  25  40  58  81 108 141 188 244 295
#     4   9  16  25  40  63  87 113 151 197 244 299
#     4   9  18  32  48  64  84 117 163 208 247 295
#     4   9  19  36  57  83 115 146 173 203 244 296
#     4   9  18  32  49  70  98 131 165 204 251 297
#     4  10  20  34  54  79 106 137 174 214 253 297
#
# _framework density 22.485002999999999
#
# number of rings (size 3 to 8) (size 9 to 14) (size 15 to 20)
#    0.000    2.857    0.000    2.571    0.000    3.429 
#    0.000    3.571    0.000    1.714    0.000    5.000 
#    0.000    0.000    0.000    0.000    0.000    0.000 
#
# Total GULP energy -311876.881815 kJ/mol
# GULP energy per Si atom -5569.230032 kJ/mol
# Density = 2.243383 g / cm^3
# Si number density = 22.485003 Si / 1000 Ang^3
#
#
#
# Elastic Constant Matrix: (Units=GPa)
#
#
# Indices 1 2 3 4 5 6 
#
# 1 62.7356 -4.4278 13.1702 0.0000 0.0000 0.0000
# 2 -4.4278 76.5397 53.3826 0.0000 0.0000 0.0000
# 3 13.1702 53.3826 142.4360 0.0000 0.0000 0.0000
# 4 0.0000 0.0000 0.0000 31.2924 0.0000 0.0000
# 5 0.0000 0.0000 0.0000 0.0000 2.1109 0.0000
# 6 0.0000 0.0000 0.0000 0.0000 0.0000 18.5241
#
#
#
# Elastic Compliance Matrix: (Units=1/GPa)
#
#
# Indices 1 2 3 4 5 6 
#
# 1 0.016676 0.002762 -0.002577 0.000000 0.000000 0.000000
# 2 0.002762 0.018146 -0.007056 0.000000 0.000000 0.000000
# 3 -0.002577 -0.007056 0.009904 0.000000 0.000000 0.000000
# 4 0.000000 0.000000 0.000000 0.031957 0.000000 0.000000
# 5 0.000000 0.000000 0.000000 0.000000 0.473723 0.000000
# 6 0.000000 0.000000 0.000000 0.000000 0.000000 0.053984
#
#
# Mechanical properties :
#
#
# Convention : Reuss Voigt Hill
#
# Bulk Modulus (GPa) = 32.27565 45.10680 38.69122
# Shear Modulus (GPa) = 7.95596 25.02458 16.49027
#
# Velocity S-wave (km/s) = 1.88309 3.33970 2.71105
# Velocity P-wave (km/s) = 4.37190 5.91404 5.20045
#
# Compressibility (1/GPa) = 0.03098311
#
# Stress axis : x y z
#
# Youngs Moduli (GPa) = 59.96684 55.10759 100.97364
#
# Poissons Ratio (x) = -0.15221 0.26022
# Poissons Ratio (y) = -0.16563 0.71250
# Poissons Ratio (z) = 0.15454 0.38886
#
# Static dielectric constant tensor:
#      x y z
#    x 1.859950 0.000000 0.000000 
#    y 0.000000 1.859940 0.000000 
#    z 0.000000 0.000000 1.913180 
# 
# From -- ./inp_files/21570.got.cif
#   From: 2010.05.17/outbox.cif.g08.bks.cpg/sg47_11_cif.got.tgz:21570.got - 2010.06.03 20:15:42.
