data_PCOD9385586
_publ_section_title
;
Structure prediction by ZEFSAII (Michael W. Deem and Ramdas Pophale) SiO2 
 PCOD9385586
Probable space group: P M M M
;
_chemical_formula_sum "Si O2"
_cell_formula_units_Z 40
_cell_length_a 16.264993
_cell_length_b 7.540392
_cell_length_c 14.872043
_cell_angle_alpha 90.000000
_cell_angle_beta 90.000000
_cell_angle_gamma 90.000000
_cell_volume 1823.973134
_symmetry_space_group_name_H-M "P M M M"
_symmetry_group_IT_number 47
_symmetry_cell_setting 'orthorhombic'
loop_
_space_group_symop_operation_xyz
x,y,z
-x,-y,z
x,-y,-z
-x,y,-z
-x,-y,-z
x,y,-z
-x,y,z
x,-y,z
loop_
_atom_site_type_symbol
_atom_site_label
_atom_site_fract_x
_atom_site_fract_y
_atom_site_fract_z
Si Si1 0.000000 0.282487 0.104480
Si Si2 0.903844 0.214094 0.600324
Si Si3 0.662067 0.712027 0.784665
Si Si4 0.500000 0.210850 0.101002
Si Si5 0.160689 0.707353 0.206468
Si Si6 0.403702 0.716017 0.402313
O O1 0.918566 0.217297 0.155845
O O2 0.000000 0.500000 0.108927
O O3 0.000000 0.233804 0.000000
O O4 0.876951 0.271990 0.500000
O O5 0.853705 0.279360 0.686184
O O6 0.000000 0.266884 0.611174
O O7 0.901550 0.000000 0.601608
O O8 0.671389 0.500000 0.776174
O O9 0.582609 0.739587 0.846013
O O10 0.749826 0.782613 0.817626
O O11 0.643049 0.782221 0.684863
O O12 0.500000 0.000000 0.095609
O O13 0.500000 0.284846 0.000000
O O14 0.161850 0.500000 0.181994
O O15 0.372863 0.774896 0.500000
O O16 0.500000 0.763999 0.394684
O O17 0.401295 0.500000 0.401586
#
# Coordination Sequence:
#
# PCOD9385586 Si02
#       6
#     4   8   8   4   8   8
#     4   9  18  34  52  73 108 144 173 219 284 341
#     4   9  18  33  53  77 110 155 197 229 269 323
#     4  10  20  35  58  86 110 139 184 230 274 329
#     4  11  25  43  60  79 108 146 183 227 286 339
#     4  10  20  33  55  85 111 141 184 232 282 331
#     4   8  13  24  46  74 103 134 166 205 256 312
#
# _framework density 21.930150000000001
#
# number of rings (size 3 to 8) (size 9 to 14) (size 15 to 20)
#    0.000    2.600    2.000    1.500    0.000    3.600 
#    0.000    5.000    0.000    2.400    0.000    0.000 
#    0.000    0.000    0.000    0.000    0.000    0.000 
#
# Total GULP energy -223296.343588 kJ/mol
# GULP energy per Si atom -5582.408590 kJ/mol
# Density = 2.188024 g / cm^3
# Si number density = 21.930150 Si / 1000 Ang^3
#
#
#
# Elastic Constant Matrix: (Units=GPa)
#
#
# Indices 1 2 3 4 5 6 
#
# 1 189.4965 5.3425 99.9871 0.0000 0.0000 0.0000
# 2 5.3425 53.4539 -6.3333 0.0000 0.0000 0.0000
# 3 99.9871 -6.3333 142.4253 0.0000 0.0000 0.0000
# 4 0.0000 0.0000 0.0000 12.1061 0.0000 0.0000
# 5 0.0000 0.0000 0.0000 0.0000 -4.0532 0.0000
# 6 0.0000 0.0000 0.0000 0.0000 0.0000 -10.1889
#
#
#
# Elastic Compliance Matrix: (Units=1/GPa)
#
#
# Indices 1 2 3 4 5 6 
#
# 1 0.008511 -0.001567 -0.006044 0.000000 0.000000 0.000000
# 2 -0.001567 0.019095 0.001949 0.000000 0.000000 0.000000
# 3 -0.006044 0.001949 0.011351 0.000000 0.000000 0.000000
# 4 0.000000 0.000000 0.000000 0.082603 0.000000 0.000000
# 5 0.000000 0.000000 0.000000 0.000000 -0.246716 0.000000
# 6 0.000000 0.000000 0.000000 0.000000 0.000000 -0.098146
#
#
# Mechanical properties :
#
#
# Convention : Reuss Voigt Hill
#
# Bulk Modulus (GPa) = 36.18879 64.81871 50.50375
# Shear Modulus (GPa) = -24.65886 18.66475 -2.99705
#
# Velocity S-wave (km/s) = -3.35689 2.92053 -1.17030
# Velocity P-wave (km/s) = 1.22994 6.40263 4.61012
#
# Compressibility (1/GPa) = 0.02763286
#
# Stress axis : x y z
#
# Youngs Moduli (GPa) = 117.50039 52.36907 88.09608
#
# Poissons Ratio (x) = 0.08205 0.53249
# Poissons Ratio (y) = 0.18409 -0.17170
# Poissons Ratio (z) = 0.71022 -0.10207
#
# Static dielectric constant tensor:
#      x y z
#    x 1.860230 0.000000 0.000000 
#    y 0.000000 1.807470 0.000000 
#    z 0.000000 0.000000 1.781820 
# 
# From -- ./inp_files/23341.got.cif
#   From: 2010.05.17/outbox.cif.g08.bks.cpg/sg47_12_cif.got.tgz:23341.got - 2010.06.03 20:15:42.
