data_PCOD9385022
_publ_section_title
;
Structure prediction by ZEFSAII (Michael W. Deem and Ramdas Pophale) SiO2 
 PCOD9385022
Probable space group: P M M M
;
_chemical_formula_sum "Si O2"
_cell_formula_units_Z 48
_cell_length_a 7.537721
_cell_length_b 9.478834
_cell_length_c 32.261859
_cell_angle_alpha 90.000000
_cell_angle_beta 90.000000
_cell_angle_gamma 90.000000
_cell_volume 2305.071308
_symmetry_space_group_name_H-M "P M M M"
_symmetry_group_IT_number 47
_symmetry_cell_setting 'orthorhombic'
loop_
_space_group_symop_operation_xyz
x,y,z
-x,-y,z
x,-y,-z
-x,y,-z
-x,-y,-z
x,y,-z
-x,y,z
x,-y,z
loop_
_atom_site_type_symbol
_atom_site_label
_atom_site_fract_x
_atom_site_fract_y
_atom_site_fract_z
Si Si1 0.210492 0.158655 0.873407
Si Si2 0.713870 0.661957 0.634683
Si Si3 0.211566 0.840486 0.716061
Si Si4 0.711309 0.329380 0.544574
Si Si5 0.782433 0.337820 0.795051
Si Si6 0.286267 0.339575 0.953377
O O1 0.278620 0.257230 0.836373
O O2 0.234403 0.232812 0.917583
O O3 0.000000 0.147890 0.866347
O O4 0.283839 0.000000 0.872595
O O5 0.500000 0.655732 0.631890
O O6 0.775785 0.500000 0.641455
O O7 0.758499 0.760957 0.672900
O O8 0.779898 0.715893 0.589646
O O9 0.277812 0.747050 0.754443
O O10 0.000000 0.850202 0.721754
O O11 0.282598 0.000000 0.715933
O O12 0.784097 0.279458 0.500000
O O13 0.500000 0.299579 0.543866
O O14 0.729294 0.500000 0.545048
O O15 0.724991 0.500000 0.794358
O O16 0.000000 0.339472 0.795014
O O17 0.500000 0.342695 0.954276
O O18 0.225564 0.500000 0.944200
O O19 0.225894 0.302300 0.000000
#
# Coordination Sequence:
#
# PCOD9385022 Si02
#       6
#     8   8   8   8   8   8
#     4  10  20  33  51  77 106 131 158 197 243 289
#     4   9  17  29  47  72  98 122 153 196 242 285
#     4  10  20  33  49  69  95 128 163 196 234 284
#     4   7  10  19  38  64  91 117 147 187 235 282
#     4   9  17  31  52  74  95 123 160 200 241 284
#     4   9  19  36  55  74  99 133 171 207 242 282
#
# _framework density 20.823650000000001
#
# number of rings (size 3 to 8) (size 9 to 14) (size 15 to 20)
#    0.000    3.000    0.000    3.500    0.000    5.333 
#    0.000    3.333    0.000    6.000    0.000    5.833 
#    0.000    0.000    0.000    0.000    0.000    0.000 
#
# Total GULP energy -267711.536269 kJ/mol
# GULP energy per Si atom -5577.323672 kJ/mol
# Density = 2.077625 g / cm^3
# Si number density = 20.823650 Si / 1000 Ang^3
#
#
#
# Elastic Constant Matrix: (Units=GPa)
#
#
# Indices 1 2 3 4 5 6 
#
# 1 49.1546 7.0612 0.2266 0.0000 0.0000 0.0000
# 2 7.0612 167.6781 132.6135 0.0000 0.0000 0.0000
# 3 0.2266 132.6135 215.5997 0.0000 0.0000 0.0000
# 4 0.0000 0.0000 0.0000 -17.0075 0.0000 0.0000
# 5 0.0000 0.0000 0.0000 0.0000 19.6602 0.0000
# 6 0.0000 0.0000 0.0000 0.0000 0.0000 13.0724
#
#
#
# Elastic Compliance Matrix: (Units=1/GPa)
#
#
# Indices 1 2 3 4 5 6 
#
# 1 0.020577 -0.001654 0.000996 0.000000 0.000000 0.000000
# 2 -0.001654 0.011746 -0.007223 0.000000 0.000000 0.000000
# 3 0.000996 -0.007223 0.009080 0.000000 0.000000 0.000000
# 4 0.000000 0.000000 0.000000 -0.058798 0.000000 0.000000
# 5 0.000000 0.000000 0.000000 0.000000 0.050864 0.000000
# 6 0.000000 0.000000 0.000000 0.000000 0.000000 0.076497
#
#
# Mechanical properties :
#
#
# Convention : Reuss Voigt Hill
#
# Bulk Modulus (GPa) = 39.00117 79.13722 59.06920
# Shear Modulus (GPa) = 37.23658 22.64711 29.94184
#
# Velocity S-wave (km/s) = 4.23328 3.30141 3.79605
# Velocity P-wave (km/s) = 6.53178 7.25385 6.90227
#
# Compressibility (1/GPa) = 0.02564026
#
# Stress axis : x y z
#
# Youngs Moduli (GPa) = 48.59793 85.13407 110.13069
#
# Poissons Ratio (x) = 0.14082 -0.10966
# Poissons Ratio (y) = 0.08038 0.79550
# Poissons Ratio (z) = -0.04839 0.61494
#
# Static dielectric constant tensor:
#      x y z
#    x 1.816260 0.000000 0.000000 
#    y 0.000000 1.709800 0.000000 
#    z 0.000000 0.000000 1.752080 
# 
# From -- ./inp_files/2454.got.cif
#   From: 2010.05.17/outbox.cif.g08.bks.cpg/sg47_2_cif.got.tgz:2454.got - 2010.06.03 20:15:42.
