data_PCOD9385304
_publ_section_title
;
Structure prediction by ZEFSAII (Michael W. Deem and Ramdas Pophale) SiO2 
 PCOD9385304
Probable space group: P M M M
;
_chemical_formula_sum "Si O2"
_cell_formula_units_Z 37
_cell_length_a 10.511430
_cell_length_b 7.423834
_cell_length_c 23.129806
_cell_angle_alpha 90.000000
_cell_angle_beta 90.000000
_cell_angle_gamma 90.000000
_cell_volume 1804.936988
_symmetry_space_group_name_H-M "P M M M"
_symmetry_group_IT_number 47
_symmetry_cell_setting 'orthorhombic'
loop_
_space_group_symop_operation_xyz
x,y,z
-x,-y,z
x,-y,-z
-x,y,-z
-x,-y,-z
x,y,-z
-x,y,z
x,-y,z
loop_
_atom_site_type_symbol
_atom_site_label
_atom_site_fract_x
_atom_site_fract_y
_atom_site_fract_z
Si Si1 0.644648 0.219647 0.566134
Si Si2 0.144028 0.219462 0.656457
Si Si3 0.265164 0.696701 0.000000
Si Si4 0.000000 0.500000 0.000000
Si Si5 0.358140 0.209359 0.875119
Si Si6 0.143397 0.780060 0.789333
O O1 0.672167 0.273945 0.500000
O O2 0.500000 0.274509 0.580389
O O3 0.749472 0.281599 0.611722
O O4 0.645855 0.000000 0.566787
O O5 0.168622 0.272459 0.722903
O O6 0.000000 0.274777 0.641172
O O7 0.145285 0.000000 0.655631
O O8 0.114536 0.654504 0.000000
O O9 0.309450 0.785037 0.940812
O O10 0.328900 0.500000 0.000000
O O11 0.500000 0.287228 0.870365
O O12 0.250213 0.287333 0.833176
O O13 0.368027 0.000000 0.858580
O O14 0.000000 0.722402 0.805233
O O15 0.142042 0.000000 0.790645
#
# Coordination Sequence:
#
# PCOD9385304 Si02
#       6
#     8   8   4   1   8   8
#     4   8  13  19  26  38  58  87 125 168 212 257
#     4   8  13  21  31  45  66  94 129 170 214 256
#     4  10  22  38  54  70  98 122 154 188 225 273
#     4   8  24  40  52  76  96 120 160 192 218 280
#     4  10  20  33  51  75  99 122 152 190 233 278
#     4   8  15  26  40  58  82 110 141 179 222 267
#
# _framework density 20.49933
#
# number of rings (size 3 to 8) (size 9 to 14) (size 15 to 20)
#    0.324    3.027    0.000    2.595    1.514    3.027 
#    0.000    7.027    0.000    0.000    0.000    0.000 
#    0.000    0.000    0.000    0.000    0.000    1.081 
#
# Total GULP energy -205990.209122 kJ/mol
# GULP energy per Si atom -5567.302949 kJ/mol
# Density = 2.045267 g / cm^3
# Si number density = 20.499330 Si / 1000 Ang^3
#
#
#
# Elastic Constant Matrix: (Units=GPa)
#
#
# Indices 1 2 3 4 5 6 
#
# 1 228.3911 7.6191 152.0003 0.0000 0.0000 0.0000
# 2 7.6191 62.0260 -0.3601 0.0000 0.0000 0.0000
# 3 152.0003 -0.3601 151.2955 0.0000 0.0000 0.0000
# 4 0.0000 0.0000 0.0000 -34.8808 0.0000 0.0000
# 5 0.0000 0.0000 0.0000 0.0000 36.8093 0.0000
# 6 0.0000 0.0000 0.0000 0.0000 0.0000 -5.1434
#
#
#
# Elastic Compliance Matrix: (Units=1/GPa)
#
#
# Indices 1 2 3 4 5 6 
#
# 1 0.013395 -0.001724 -0.013461 0.000000 0.000000 0.000000
# 2 -0.001724 0.016344 0.001770 0.000000 0.000000 0.000000
# 3 -0.013461 0.001770 0.020138 0.000000 0.000000 0.000000
# 4 0.000000 0.000000 0.000000 -0.028669 0.000000 0.000000
# 5 0.000000 0.000000 0.000000 0.000000 0.027167 0.000000
# 6 0.000000 0.000000 0.000000 0.000000 0.000000 -0.194423
#
#
# Mechanical properties :
#
#
# Convention : Reuss Voigt Hill
#
# Bulk Modulus (GPa) = 43.38747 84.47014 63.92880
# Shear Modulus (GPa) = -44.82813 18.18725 -13.32044
#
# Velocity S-wave (km/s) = -4.68141 2.98184 -2.55188
# Velocity P-wave (km/s) = 2.83011 7.29047 4.75086
#
# Compressibility (1/GPa) = 0.02304813
#
# Stress axis : x y z
#
# Youngs Moduli (GPa) = 74.65593 61.18352 49.65792
#
# Poissons Ratio (x) = 0.10545 0.66846
# Poissons Ratio (y) = 0.12867 -0.08792
# Poissons Ratio (z) = 1.00496 -0.10832
#
# Static dielectric constant tensor:
#      x y z
#    x 1.721110 0.000000 0.000000 
#    y 0.000000 1.800350 0.000000 
#    z 0.000000 0.000000 1.700080 
# 
# From -- ./inp_files/27295.got.cif
#   From: 2010.05.17/outbox.cif.g08.bks.cpg/sg47_14_cif.got.tgz:27295.got - 2010.06.03 20:15:42.
