data_PCOD9385773
_publ_section_title
;
Structure prediction by ZEFSAII (Michael W. Deem and Ramdas Pophale) SiO2 
 PCOD9385773
Probable space group: P M M M
;
_chemical_formula_sum "Si O2"
_cell_formula_units_Z 52
_cell_length_a 21.456318
_cell_length_b 8.011640
_cell_length_c 15.121054
_cell_angle_alpha 90.000000
_cell_angle_beta 90.000000
_cell_angle_gamma 90.000000
_cell_volume 2599.313651
_symmetry_space_group_name_H-M "P M M M"
_symmetry_group_IT_number 47
_symmetry_cell_setting 'orthorhombic'
loop_
_space_group_symop_operation_xyz
x,y,z
-x,-y,z
x,-y,-z
-x,y,-z
-x,-y,-z
x,y,-z
-x,y,z
x,-y,z
loop_
_atom_site_type_symbol
_atom_site_label
_atom_site_fract_x
_atom_site_fract_y
_atom_site_fract_z
Si Si1 0.590496 0.303863 0.902908
Si Si2 0.198350 0.809526 0.270025
Si Si3 0.260091 0.695879 0.903043
Si Si4 0.432402 0.198209 0.704637
Si Si5 0.075204 0.312137 0.500000
Si Si6 0.307316 0.795314 0.396471
Si Si7 0.930418 0.300350 0.690187
O O1 0.573773 0.500000 0.899559
O O2 0.665321 0.293241 0.903018
O O3 0.570502 0.224126 0.810592
O O4 0.570095 0.238598 0.000000
O O5 0.234752 0.797662 0.178374
O O6 0.245171 0.735923 0.344445
O O7 0.130616 0.731165 0.253596
O O8 0.187191 0.000000 0.294668
O O9 0.244126 0.500000 0.891213
O O10 0.237654 0.749846 0.000000
O O11 0.500000 0.266065 0.674117
O O12 0.370009 0.262308 0.655483
O O13 0.432686 0.000000 0.688096
O O14 0.102480 0.500000 0.500000
O O15 0.088649 0.229602 0.406639
O O16 0.000000 0.327382 0.500000
O O17 0.307868 0.748711 0.500000
O O18 0.306686 0.000000 0.392421
O O19 0.936005 0.500000 0.679727
O O20 0.000000 0.239835 0.715467
#
# Coordination Sequence:
#
# PCOD9385773 Si02
#       7
#     8   8   8   8   4   8   8
#     4   9  18  33  53  76 103 135 168 207 261 321
#     4  11  21  32  53  81 109 140 171 214 267 313
#     4   9  18  34  56  79 103 134 173 215 259 313
#     4  10  20  34  53  76 102 136 179 222 262 305
#     4   7  12  26  47  69  95 131 174 213 248 292
#     4   9  19  35  51  72 105 140 177 219 261 306
#     4   9  18  33  52  74 104 142 180 217 257 306
#
# _framework density 20.005282000000001
#
# number of rings (size 3 to 8) (size 9 to 14) (size 15 to 20)
#    0.000    2.692    1.538    2.308    1.077    1.846 
#    0.000    4.615    0.000    4.154    0.000    4.308 
#    0.000    0.000    0.000    0.000    0.000    0.000 
#
# Total GULP energy -289567.666366 kJ/mol
# GULP energy per Si atom -5568.608969 kJ/mol
# Density = 1.995975 g / cm^3
# Si number density = 20.005282 Si / 1000 Ang^3
#
#
#
# Elastic Constant Matrix: (Units=GPa)
#
#
# Indices 1 2 3 4 5 6 
#
# 1 135.1588 19.0588 46.3988 0.0000 0.0000 0.0000
# 2 19.0588 13.5616 5.4232 0.0000 0.0000 0.0000
# 3 46.3988 5.4232 88.9369 0.0000 0.0000 0.0000
# 4 0.0000 0.0000 0.0000 -111.0583 0.0000 0.0000
# 5 0.0000 0.0000 0.0000 0.0000 -4.9336 0.0000
# 6 0.0000 0.0000 0.0000 0.0000 0.0000 11.4078
#
#
#
# Elastic Compliance Matrix: (Units=1/GPa)
#
#
# Indices 1 2 3 4 5 6 
#
# 1 0.010984 -0.013473 -0.004909 0.000000 0.000000 0.000000
# 2 -0.013473 0.092107 0.001412 0.000000 0.000000 0.000000
# 3 -0.004909 0.001412 0.013719 0.000000 0.000000 0.000000
# 4 0.000000 0.000000 0.000000 -0.009004 0.000000 0.000000
# 5 0.000000 0.000000 0.000000 0.000000 -0.202692 0.000000
# 6 0.000000 0.000000 0.000000 0.000000 0.000000 0.087659
#
#
# Mechanical properties :
#
#
# Convention : Reuss Voigt Hill
#
# Bulk Modulus (GPa) = 12.06694 42.15765 27.11229
# Shear Modulus (GPa) = 92.02342 -9.79839 41.11252
#
# Velocity S-wave (km/s) = 6.78966 -2.21552 4.53822
# Velocity P-wave (km/s) = 8.21650 3.81763 6.40645
#
# Compressibility (1/GPa) = 0.08287104
#
# Stress axis : x y z
#
# Youngs Moduli (GPa) = 91.04462 10.85693 72.89338
#
# Poissons Ratio (x) = 0.14627 0.35781
# Poissons Ratio (y) = 1.22664 -0.10296
# Poissons Ratio (z) = 0.44691 -0.01533
#
# Static dielectric constant tensor:
#      x y z
#    x 1.737080 0.000000 0.000000 
#    y 0.000000 1.742990 0.000000 
#    z 0.000000 0.000000 1.723330 
# 
# From -- ./inp_files/11069.got.cif
#   From: 2010.05.17/outbox.cif.g08.bks.cpg/sg47_6_cif.got.tgz:11069.got - 2010.06.03 20:15:42.
