data_PCOD9385191
_publ_section_title
;
Structure prediction by ZEFSAII (Michael W. Deem and Ramdas Pophale) SiO2 
 PCOD9385191
Probable space group: P M M M
;
_chemical_formula_sum "Si O2"
_cell_formula_units_Z 32
_cell_length_a 22.599199
_cell_length_b 9.492110
_cell_length_c 9.268322
_cell_angle_alpha 90.000000
_cell_angle_beta 90.000000
_cell_angle_gamma 90.000000
_cell_volume 1988.185593
_symmetry_space_group_name_H-M "P M M M"
_symmetry_group_IT_number 47
_symmetry_cell_setting 'orthorhombic'
loop_
_space_group_symop_operation_xyz
x,y,z
-x,-y,z
x,-y,-z
-x,y,-z
-x,-y,-z
x,y,-z
-x,y,z
x,-y,z
loop_
_atom_site_type_symbol
_atom_site_label
_atom_site_fract_x
_atom_site_fract_y
_atom_site_fract_z
Si Si1 0.737519 0.833585 0.328199
Si Si2 0.500000 0.671441 0.165929
Si Si3 0.930225 0.500000 0.328277
Si Si4 0.619123 0.666380 0.327684
Si Si5 0.835511 0.341614 0.832102
O O1 0.746187 0.809866 0.500000
O O2 0.676948 0.754549 0.286536
O O3 0.792142 0.767273 0.242559
O O4 0.732548 0.000000 0.303508
O O5 0.500000 0.500000 0.169228
O O6 0.559902 0.714745 0.246779
O O7 0.500000 0.716513 0.000000
O O8 0.919912 0.500000 0.500000
O O9 0.896647 0.632326 0.254325
O O10 0.000000 0.500000 0.301090
O O11 0.610309 0.680305 0.500000
O O12 0.628639 0.500000 0.297420
O O13 0.807613 0.500000 0.824490
O O14 0.845991 0.309746 0.000000
#
# Coordination Sequence:
#
# PCOD9385191 Si02
#       5
#     8   4   4   8   8
#     4  10  20  33  50  73 101 135 173 212 254 299
#     4   9  17  29  46  69  92 118 156 207 258 307
#     4   9  17  31  55  83 107 132 165 206 247 287
#     4   9  17  30  49  70  93 124 163 208 256 305
#     4   9  19  32  50  77 105 135 167 202 248 297
#
# _framework density 16.095078000000001
#
# number of rings (size 3 to 8) (size 9 to 14) (size 15 to 20)
#    0.750    2.000    0.000    1.875    0.000    5.000 
#    0.000    3.125    0.000    4.500    0.000    5.250 
#    0.000    0.000    0.000    0.000    0.000    0.000 
#
# Total GULP energy -178145.998458 kJ/mol
# GULP energy per Si atom -5567.062452 kJ/mol
# Density = 1.605844 g / cm^3
# Si number density = 16.095078 Si / 1000 Ang^3
#
#
#
# Elastic Constant Matrix: (Units=GPa)
#
#
# Indices 1 2 3 4 5 6 
#
# 1 160.2016 58.2945 91.2196 0.0000 0.0000 0.0000
# 2 58.2945 50.3151 49.8286 0.0000 0.0000 0.0000
# 3 91.2196 49.8286 86.9599 0.0000 0.0000 0.0000
# 4 0.0000 0.0000 0.0000 16.4377 0.0000 0.0000
# 5 0.0000 0.0000 0.0000 0.0000 -5.8724 0.0000
# 6 0.0000 0.0000 0.0000 0.0000 0.0000 -0.5053
#
#
#
# Elastic Compliance Matrix: (Units=1/GPa)
#
#
# Indices 1 2 3 4 5 6 
#
# 1 0.015912 -0.004405 -0.014167 0.000000 0.000000 0.000000
# 2 -0.004405 0.047169 -0.022407 0.000000 0.000000 0.000000
# 3 -0.014167 -0.022407 0.039200 0.000000 0.000000 0.000000
# 4 0.000000 0.000000 0.000000 0.060836 0.000000 0.000000
# 5 0.000000 0.000000 0.000000 0.000000 -0.170288 0.000000
# 6 0.000000 0.000000 0.000000 0.000000 0.000000 -1.979086
#
#
# Mechanical properties :
#
#
# Convention : Reuss Voigt Hill
#
# Bulk Modulus (GPa) = 49.20765 77.35135 63.27950
# Shear Modulus (GPa) = -2.63501 8.55426 2.95962
#
# Velocity S-wave (km/s) = -1.28090 2.30789 1.35751
# Velocity P-wave (km/s) = 5.33403 7.43405 6.46982
#
# Compressibility (1/GPa) = 0.02032204
#
# Stress axis : x y z
#
# Youngs Moduli (GPa) = 62.84567 21.20030 25.51005
#
# Poissons Ratio (x) = 0.09339 0.36141
# Poissons Ratio (y) = 0.27685 0.57161
# Poissons Ratio (z) = 0.89035 0.47504
#
# Static dielectric constant tensor:
#      x y z
#    x 1.516890 0.000000 0.000000 
#    y 0.000000 1.527890 0.000000 
#    z 0.000000 0.000000 1.539800 
# 
# From -- ./inp_files/12022.got.cif
#   From: 2010.05.17/outbox.cif.g08.bks.cpg/sg47_7_cif.got.tgz:12022.got - 2010.06.03 20:15:42.
