data_PCOD9385836
_publ_section_title
;
Structure prediction by ZEFSAII (Michael W. Deem and Ramdas Pophale) SiO2 
 PCOD9385836
Probable space group: P M M M
;
_chemical_formula_sum "Si O2"
_cell_formula_units_Z 56
_cell_length_a 14.547780
_cell_length_b 23.764004
_cell_length_c 8.927112
_cell_angle_alpha 90.000000
_cell_angle_beta 90.000000
_cell_angle_gamma 90.000000
_cell_volume 3086.223153
_symmetry_space_group_name_H-M "P M M M"
_symmetry_group_IT_number 47
_symmetry_cell_setting 'orthorhombic'
loop_
_space_group_symop_operation_xyz
x,y,z
-x,-y,z
x,-y,-z
-x,y,-z
-x,-y,-z
x,y,-z
-x,y,z
x,-y,z
loop_
_atom_site_type_symbol
_atom_site_label
_atom_site_fract_x
_atom_site_fract_y
_atom_site_fract_z
Si Si1 0.779485 0.436684 0.178801
Si Si2 0.392826 0.614220 0.678670
Si Si3 0.889820 0.664935 0.674352
Si Si4 0.107862 0.215405 0.178476
Si Si5 0.723126 0.162919 0.321867
Si Si6 0.606382 0.066451 0.178605
Si Si7 0.390361 0.735532 0.175625
O O1 0.811078 0.500000 0.214874
O O2 0.676832 0.427472 0.240599
O O3 0.840781 0.388652 0.254371
O O4 0.780636 0.429750 0.000000
O O5 0.379628 0.612889 0.500000
O O6 0.500000 0.602299 0.710585
O O7 0.372140 0.676700 0.741181
O O8 0.863812 0.670775 0.500000
O O9 0.866800 0.722427 0.761057
O O10 0.000000 0.657953 0.683179
O O11 0.174696 0.171387 0.257633
O O12 0.000000 0.206433 0.212484
O O13 0.120033 0.213631 0.000000
O O14 0.723090 0.167006 0.500000
O O15 0.675633 0.105656 0.267552
O O16 0.663798 0.213761 0.251142
O O17 0.500000 0.079924 0.216991
O O18 0.620155 0.000000 0.205405
O O19 0.616763 0.076340 0.000000
O O20 0.500000 0.746061 0.185295
O O21 0.365966 0.730822 0.000000
#
# Coordination Sequence:
#
# PCOD9385836 Si02
#       7
#     8   8   8   8   8   8   8
#     4  11  24  39  55  76 103 137 177 219 261 313
#     4  10  21  37  56  77 103 135 172 218 271 323
#     4  10  21  38  60  84 110 138 169 213 271 328
#     4  10  21  38  60  83 108 141 181 223 267 320
#     4  12  23  33  52  82 116 149 180 222 273 322
#     4   9  19  37  59  82 112 152 195 234 269 310
#     4  10  20  34  53  77 107 142 179 219 263 316
#
# _framework density 18.145156
#
# number of rings (size 3 to 8) (size 9 to 14) (size 15 to 20)
#    0.000    1.714    0.000    5.143    0.000    7.429 
#    0.000    3.571    0.000    0.429    0.000    3.000 
#    0.000    0.000    0.000    0.000    0.000    0.000 
#
# Total GULP energy -313067.462886 kJ/mol
# GULP energy per Si atom -5590.490409 kJ/mol
# Density = 1.810386 g / cm^3
# Si number density = 18.145156 Si / 1000 Ang^3
#
#
#
# Elastic Constant Matrix: (Units=GPa)
#
#
# Indices 1 2 3 4 5 6 
#
# 1 66.5213 48.1815 42.9943 0.0000 0.0000 0.0000
# 2 48.1815 66.9213 44.2320 0.0000 0.0000 0.0000
# 3 42.9943 44.2320 88.1165 0.0000 0.0000 0.0000
# 4 0.0000 0.0000 0.0000 -939.7098 0.0000 0.0000
# 5 0.0000 0.0000 0.0000 0.0000 28.7606 0.0000
# 6 0.0000 0.0000 0.0000 0.0000 0.0000 22.2515
#
#
#
# Elastic Compliance Matrix: (Units=1/GPa)
#
#
# Indices 1 2 3 4 5 6 
#
# 1 0.033646 -0.020014 -0.006371 0.000000 0.000000 0.000000
# 2 -0.020014 0.034267 -0.007436 0.000000 0.000000 0.000000
# 3 -0.006371 -0.007436 0.018190 0.000000 0.000000 0.000000
# 4 0.000000 0.000000 0.000000 -0.001064 0.000000 0.000000
# 5 0.000000 0.000000 0.000000 0.000000 0.034770 0.000000
# 6 0.000000 0.000000 0.000000 0.000000 0.000000 0.044941
#
#
# Mechanical properties :
#
#
# Convention : Reuss Voigt Hill
#
# Bulk Modulus (GPa) = 54.16368 54.70830 54.43599
# Shear Modulus (GPa) = 20.96056 -171.99609 -75.51777
#
# Velocity S-wave (km/s) = 3.40245 -9.74653 -6.45825
# Velocity P-wave (km/s) = 6.73428 9.82058 5.05437
#
# Compressibility (1/GPa) = 0.01846256
#
# Stress axis : x y z
#
# Youngs Moduli (GPa) = 29.72109 29.18262 54.97658
#
# Poissons Ratio (x) = 0.58405 0.35023
# Poissons Ratio (y) = 0.59483 0.40880
# Poissons Ratio (z) = 0.18934 0.21700
#
# Static dielectric constant tensor:
#      x y z
#    x 1.639690 0.000000 0.000000 
#    y 0.000000 1.595380 0.000000 
#    z 0.000000 0.000000 1.599350 
# 
# From -- ./inp_files/7222.got.cif
#   From: 2010.05.17/outbox.cif.g08.bks.cpg/sg47_4_cif.got.tgz:7222.got - 2010.06.03 20:15:42.
