data_PCOD9385250
_publ_section_title
;
Structure prediction by ZEFSAII (Michael W. Deem and Ramdas Pophale) SiO2 
 PCOD9385250
Probable space group: P M M M
;
_chemical_formula_sum "Si O2"
_cell_formula_units_Z 36
_cell_length_a 18.505559
_cell_length_b 7.411650
_cell_length_c 11.513897
_cell_angle_alpha 90.000000
_cell_angle_beta 90.000000
_cell_angle_gamma 90.000000
_cell_volume 1579.208420
_symmetry_space_group_name_H-M "P M M M"
_symmetry_group_IT_number 47
_symmetry_cell_setting 'orthorhombic'
loop_
_space_group_symop_operation_xyz
x,y,z
-x,-y,z
x,-y,-z
-x,y,-z
-x,-y,-z
x,y,-z
-x,y,z
x,-y,z
loop_
_atom_site_type_symbol
_atom_site_label
_atom_site_fract_x
_atom_site_fract_y
_atom_site_fract_z
Si Si1 0.417302 0.782240 0.000000
Si Si2 0.421804 0.719512 0.364880
Si Si3 0.085559 0.781700 0.628146
Si Si4 0.693072 0.293747 0.199028
Si Si5 0.149829 0.206534 0.870750
O O1 0.372472 0.711892 0.891407
O O2 0.500000 0.724491 0.000000
O O3 0.414772 0.000000 0.000000
O O4 0.422811 0.762793 0.500000
O O5 0.500000 0.779653 0.314483
O O6 0.420558 0.500000 0.353923
O O7 0.347452 0.786932 0.309894
O O8 0.112559 0.718920 0.500000
O O9 0.119301 0.714505 0.749658
O O10 0.000000 0.745109 0.631696
O O11 0.095111 0.000000 0.627739
O O12 0.714813 0.500000 0.221474
O O13 0.763710 0.203578 0.147092
O O14 0.123038 0.000000 0.875020
O O15 0.134772 0.285397 0.000000
#
# Coordination Sequence:
#
# PCOD9385250 Si02
#       5
#     4   8   8   8   8
#     4  11  23  37  53  73 100 135 174 221 273 314
#     4   8  15  29  48  70  96 125 162 212 262 304
#     4   8  15  30  53  80 107 137 179 227 268 312
#     4  11  21  33  52  76 102 136 177 216 256 313
#     4  10  20  33  50  74 108 143 173 215 271 320
#
# _framework density 22.796230999999999
#
# number of rings (size 3 to 8) (size 9 to 14) (size 15 to 20)
#    0.000    2.556    1.111    3.000    0.000    3.111 
#    0.000    2.222    0.000    2.667    0.000   10.889 
#    0.000    0.000    0.000    0.000    0.000    0.000 
#
# Total GULP energy -200675.651566 kJ/mol
# GULP energy per Si atom -5574.323655 kJ/mol
# Density = 2.274435 g / cm^3
# Si number density = 22.796231 Si / 1000 Ang^3
#
#
#
# Elastic Constant Matrix: (Units=GPa)
#
#
# Indices 1 2 3 4 5 6 
#
# 1 60.6332 -2.3351 64.7597 0.0000 0.0000 0.0000
# 2 -2.3351 80.2997 5.1658 0.0000 0.0000 0.0000
# 3 64.7597 5.1658 195.6222 0.0000 0.0000 0.0000
# 4 0.0000 0.0000 0.0000 8.6709 0.0000 0.0000
# 5 0.0000 0.0000 0.0000 0.0000 -33.7579 0.0000
# 6 0.0000 0.0000 0.0000 0.0000 0.0000 10.6423
#
#
#
# Elastic Compliance Matrix: (Units=1/GPa)
#
#
# Indices 1 2 3 4 5 6 
#
# 1 0.025647 0.001294 -0.008525 0.000000 0.000000 0.000000
# 2 0.001294 0.012540 -0.000760 0.000000 0.000000 0.000000
# 3 -0.008525 -0.000760 0.007954 0.000000 0.000000 0.000000
# 4 0.000000 0.000000 0.000000 0.115328 0.000000 0.000000
# 5 0.000000 0.000000 0.000000 0.000000 -0.029623 0.000000
# 6 0.000000 0.000000 0.000000 0.000000 0.000000 0.093965
#
#
# Mechanical properties :
#
#
# Convention : Reuss Voigt Hill
#
# Bulk Modulus (GPa) = 33.15527 52.41510 42.78519
# Shear Modulus (GPa) = 19.85352 15.04202 17.44777
#
# Velocity S-wave (km/s) = 2.95432 2.57154 2.76955
# Velocity P-wave (km/s) = 5.11988 5.64445 5.38855
#
# Compressibility (1/GPa) = 0.03016112
#
# Stress axis : x y z
#
# Youngs Moduli (GPa) = 38.99074 79.74575 125.72372
#
# Poissons Ratio (x) = -0.10321 1.07173
# Poissons Ratio (y) = -0.05046 0.09550
# Poissons Ratio (z) = 0.33238 0.06057
#
# Static dielectric constant tensor:
#      x y z
#    x 1.811700 0.000000 0.000000 
#    y 0.000000 1.901180 0.000000 
#    z 0.000000 0.000000 2.025370 
# 
# From -- ./inp_files/3752.got.cif
#   From: 2010.05.17/outbox.cif.g08.bks.cpg/sg47_2_cif.got.tgz:3752.got - 2010.06.03 20:15:42.
