data_PCOD9385739
_publ_section_title
;
Structure prediction by ZEFSAII (Michael W. Deem and Ramdas Pophale) SiO2 
 PCOD9385739
Probable space group: P M M M
;
_chemical_formula_sum "Si O2"
_cell_formula_units_Z 64
_cell_length_a 26.076100
_cell_length_b 15.121840
_cell_length_c 7.665196
_cell_angle_alpha 90.000000
_cell_angle_beta 90.000000
_cell_angle_gamma 90.000000
_cell_volume 3022.529448
_symmetry_space_group_name_H-M "P M M M"
_symmetry_group_IT_number 47
_symmetry_cell_setting 'orthorhombic'
loop_
_space_group_symop_operation_xyz
x,y,z
-x,-y,z
x,-y,-z
-x,y,-z
-x,-y,-z
x,y,-z
-x,y,z
x,-y,z
loop_
_atom_site_type_symbol
_atom_site_label
_atom_site_fract_x
_atom_site_fract_y
_atom_site_fract_z
Si Si1 0.714758 0.902372 0.788655
Si Si2 0.754296 0.282136 0.205509
Si Si3 0.941890 0.712304 0.706923
Si Si4 0.345258 0.601390 0.711185
Si Si5 0.405995 0.902934 0.292014
Si Si6 0.443111 0.286572 0.286433
Si Si7 0.850213 0.401724 0.292785
Si Si8 0.060289 0.094665 0.789978
O O1 0.745109 0.816725 0.722552
O O2 0.655018 0.893168 0.737478
O O3 0.732249 0.000000 0.729923
O O4 0.716566 0.901727 0.000000
O O5 0.703246 0.339660 0.236691
O O6 0.802646 0.336307 0.272055
O O7 0.761844 0.272791 0.000000
O O8 0.946243 0.697655 0.500000
O O9 0.901863 0.642211 0.781074
O O10 0.919430 0.811282 0.729259
O O11 0.000000 0.708820 0.779876
O O12 0.346132 0.599543 0.500000
O O13 0.341200 0.500000 0.771981
O O14 0.397285 0.649578 0.770951
O O15 0.415124 0.905140 0.500000
O O16 0.432653 0.814056 0.225950
O O17 0.421259 0.000000 0.221858
O O18 0.441623 0.285537 0.500000
O O19 0.500000 0.315182 0.234360
O O20 0.857973 0.409844 0.500000
O O21 0.839710 0.500000 0.222753
O O22 0.000000 0.094731 0.738681
O O23 0.082307 0.000000 0.730178
O O24 0.062271 0.095120 0.000000
#
# Coordination Sequence:
#
# PCOD9385739 Si02
#       8
#     8   8   8   8   8   8   8   8
#     4   9  18  33  53  76 102 132 165 203 252 307
#     4  11  22  36  57  81 104 132 169 215 260 307
#     4   9  18  33  54  80 108 139 176 217 260 306
#     4  10  20  34  53  75 100 134 175 218 264 311
#     4   9  16  27  47  74 101 131 167 207 252 303
#     4   9  17  29  46  72 105 136 169 212 258 307
#     4  10  22  39  57  78 106 139 173 213 261 310
#     4   8  14  26  46  73 105 141 178 212 249 298
#
# _framework density 21.174319000000001
#
# number of rings (size 3 to 8) (size 9 to 14) (size 15 to 20)
#    0.000    2.625    1.250    1.125    0.000    4.000 
#    0.000    5.625    0.000    3.750    0.000    5.250 
#    0.000    0.000    0.000    0.000    0.000    0.000 
#
# Total GULP energy -356984.159182 kJ/mol
# GULP energy per Si atom -5577.877487 kJ/mol
# Density = 2.112613 g / cm^3
# Si number density = 21.174319 Si / 1000 Ang^3
#
#
#
# Elastic Constant Matrix: (Units=GPa)
#
#
# Indices 1 2 3 4 5 6 
#
# 1 85.4062 48.7731 -6.3317 0.0000 0.0000 0.0000
# 2 48.7731 112.1249 -5.0789 0.0000 0.0000 0.0000
# 3 -6.3317 -5.0789 35.2180 0.0000 0.0000 0.0000
# 4 0.0000 0.0000 0.0000 18.9041 0.0000 0.0000
# 5 0.0000 0.0000 0.0000 0.0000 -89.1478 0.0000
# 6 0.0000 0.0000 0.0000 0.0000 0.0000 -10.3518
#
#
#
# Elastic Compliance Matrix: (Units=1/GPa)
#
#
# Indices 1 2 3 4 5 6 
#
# 1 0.015697 -0.006744 0.001850 0.000000 0.000000 0.000000
# 2 -0.006744 0.011875 0.000500 0.000000 0.000000 0.000000
# 3 0.001850 0.000500 0.028799 0.000000 0.000000 0.000000
# 4 0.000000 0.000000 0.000000 0.052899 0.000000 0.000000
# 5 0.000000 0.000000 0.000000 0.000000 -0.011217 0.000000
# 6 0.000000 0.000000 0.000000 0.000000 0.000000 -0.096602
#
#
# Mechanical properties :
#
#
# Convention : Reuss Voigt Hill
#
# Bulk Modulus (GPa) = 21.01643 34.16379 27.59011
# Shear Modulus (GPa) = 191.55640 -3.09334 94.23153
#
# Velocity S-wave (km/s) = 9.52170 -1.20999 6.67827
# Velocity P-wave (km/s) = 11.43812 3.77061 8.51611
#
# Compressibility (1/GPa) = 0.04758182
#
# Stress axis : x y z
#
# Youngs Moduli (GPa) = 63.70464 84.21026 34.72319
#
# Poissons Ratio (x) = 0.56795 -0.06422
# Poissons Ratio (y) = 0.42965 -0.01736
# Poissons Ratio (z) = -0.11782 -0.04210
#
# Static dielectric constant tensor:
#      x y z
#    x 1.736140 0.000000 0.000000 
#    y 0.000000 1.809840 0.000000 
#    z 0.000000 0.000000 1.802410 
# 
# From -- ./inp_files/12724.got.cif
#   From: 2010.05.17/outbox.cif.g08.bks.cpg/sg47_7_cif.got.tgz:12724.got - 2010.06.03 20:15:42.
