data_PCOD9385298
_publ_section_title
;
Structure prediction by ZEFSAII (Michael W. Deem and Ramdas Pophale) SiO2 
 PCOD9385298
Probable space group: P M M M
;
_chemical_formula_sum "Si O2"
_cell_formula_units_Z 64
_cell_length_a 18.010929
_cell_length_b 8.981528
_cell_length_c 21.102662
_cell_angle_alpha 90.000000
_cell_angle_beta 90.000000
_cell_angle_gamma 90.000000
_cell_volume 3413.686112
_symmetry_space_group_name_H-M "P M M M"
_symmetry_group_IT_number 47
_symmetry_cell_setting 'orthorhombic'
loop_
_space_group_symop_operation_xyz
x,y,z
-x,-y,z
x,-y,-z
-x,y,-z
-x,-y,-z
x,y,-z
-x,y,z
x,-y,z
loop_
_atom_site_type_symbol
_atom_site_label
_atom_site_fract_x
_atom_site_fract_y
_atom_site_fract_z
Si Si1 0.130898 0.322230 0.428528
Si Si2 0.918111 0.823021 0.698488
Si Si3 0.372556 0.677119 0.800378
Si Si4 0.625467 0.822216 0.930287
Si Si5 0.418037 0.178251 0.670696
Si Si6 0.804484 0.676402 0.206178
Si Si7 0.708631 0.823591 0.572497
Si Si8 0.787464 0.676815 0.068544
O O1 0.106997 0.279387 0.500000
O O2 0.125832 0.500000 0.423351
O O3 0.088179 0.246221 0.371309
O O4 0.216173 0.269356 0.421298
O O5 0.852627 0.761641 0.742517
O O6 0.000000 0.785927 0.724834
O O7 0.911402 0.000000 0.693769
O O8 0.380951 0.500000 0.802870
O O9 0.402509 0.746446 0.865961
O O10 0.409627 0.744644 0.738380
O O11 0.283796 0.710079 0.792938
O O12 0.711788 0.771081 0.931966
O O13 0.619523 0.000000 0.924793
O O14 0.594509 0.779009 0.000000
O O15 0.500000 0.209994 0.644345
O O16 0.353043 0.223827 0.622835
O O17 0.411901 0.000000 0.679306
O O18 0.812714 0.500000 0.217527
O O19 0.829194 0.710841 0.133750
O O20 0.681656 0.807833 0.500000
O O21 0.725218 0.000000 0.582189
O O22 0.767125 0.500000 0.072779
O O23 0.824773 0.699094 0.000000
#
# Coordination Sequence:
#
# PCOD9385298 Si02
#       8
#     8   8   8   8   8   8   8   8
#     4  10  21  37  58  82 105 130 163 205 252 302
#     4  11  24  38  52  73 102 136 172 210 252 299
#     4  10  20  33  51  75 102 134 172 212 254 301
#     4   9  16  26  44  72 102 130 163 205 254 305
#     4  10  21  35  51  74 105 139 173 210 251 295
#     4   9  18  32  52  77 102 132 170 211 254 300
#     4   9  18  34  57  82 106 134 168 206 249 297
#     4   8  14  26  45  71 102 131 162 205 254 300
#
# _framework density 18.748062999999998
#
# number of rings (size 3 to 8) (size 9 to 14) (size 15 to 20)
#    0.000    2.500    0.000    3.000    0.000    8.250 
#    0.000    2.500    0.000    0.750    0.000    7.875 
#    0.000    0.000    0.000    0.000    0.000    0.000 
#
# Total GULP energy -356882.954106 kJ/mol
# GULP energy per Si atom -5576.296158 kJ/mol
# Density = 1.870539 g / cm^3
# Si number density = 18.748063 Si / 1000 Ang^3
#
#
#
# Elastic Constant Matrix: (Units=GPa)
#
#
# Indices 1 2 3 4 5 6 
#
# 1 40.8130 18.0762 27.3327 0.0000 0.0000 0.0000
# 2 18.0762 24.9267 20.9632 0.0000 0.0000 0.0000
# 3 27.3327 20.9632 89.7185 0.0000 0.0000 0.0000
# 4 0.0000 0.0000 0.0000 28.9100 0.0000 0.0000
# 5 0.0000 0.0000 0.0000 0.0000 -17.6227 0.0000
# 6 0.0000 0.0000 0.0000 0.0000 0.0000 -28.8566
#
#
#
# Elastic Compliance Matrix: (Units=1/GPa)
#
#
# Indices 1 2 3 4 5 6 
#
# 1 0.038966 -0.022743 -0.006557 0.000000 0.000000 0.000000
# 2 -0.022743 0.063203 -0.007839 0.000000 0.000000 0.000000
# 3 -0.006557 -0.007839 0.014975 0.000000 0.000000 0.000000
# 4 0.000000 0.000000 0.000000 0.034590 0.000000 0.000000
# 5 0.000000 0.000000 0.000000 0.000000 -0.056745 0.000000
# 6 0.000000 0.000000 0.000000 0.000000 0.000000 -0.034654
#
#
# Mechanical properties :
#
#
# Convention : Reuss Voigt Hill
#
# Bulk Modulus (GPa) = 23.32839 32.02249 27.67544
# Shear Modulus (GPa) = 33.57920 2.42519 18.00219
#
# Velocity S-wave (km/s) = 4.23670 1.13859 3.10210
# Velocity P-wave (km/s) = 6.03349 4.34120 5.25590
#
# Compressibility (1/GPa) = 0.04286622
#
# Stress axis : x y z
#
# Youngs Moduli (GPa) = 25.66332 15.82212 66.77696
#
# Poissons Ratio (x) = 0.35984 0.43786
# Poissons Ratio (y) = 0.58365 0.52347
# Poissons Ratio (z) = 0.16828 0.12403
#
# Static dielectric constant tensor:
#      x y z
#    x 1.632140 0.000000 0.000000 
#    y 0.000000 1.622760 0.000000 
#    z 0.000000 0.000000 1.677840 
# 
# From -- ./inp_files/9977.got.cif
#   From: 2010.05.17/outbox.cif.g08.bks.cpg/sg47_5_cif.got.tgz:9977.got - 2010.06.03 20:15:42.
