data_PCOD9385171
_publ_section_title
;
Structure prediction by ZEFSAII (Michael W. Deem and Ramdas Pophale) SiO2 
 PCOD9385171
Probable space group: P M M M
;
_chemical_formula_sum "Si O2"
_cell_formula_units_Z 40
_cell_length_a 7.945461
_cell_length_b 27.020720
_cell_length_c 9.542514
_cell_angle_alpha 90.000000
_cell_angle_beta 90.000000
_cell_angle_gamma 90.000000
_cell_volume 2048.702150
_symmetry_space_group_name_H-M "P M M M"
_symmetry_group_IT_number 47
_symmetry_cell_setting 'orthorhombic'
loop_
_space_group_symop_operation_xyz
x,y,z
-x,-y,z
x,-y,-z
-x,y,-z
-x,-y,-z
x,y,-z
-x,y,z
x,-y,z
loop_
_atom_site_type_symbol
_atom_site_label
_atom_site_fract_x
_atom_site_fract_y
_atom_site_fract_z
Si Si1 0.205783 0.000000 0.838196
Si Si2 0.800415 0.500000 0.659966
Si Si3 0.699538 0.605578 0.341591
Si Si4 0.206057 0.904015 0.338476
Si Si5 0.797614 0.699240 0.840730
Si Si6 0.205363 0.809560 0.837316
O O1 0.258587 0.951120 0.753790
O O2 0.000000 0.000000 0.840042
O O3 0.260971 0.000000 0.000000
O O4 0.728096 0.500000 0.500000
O O5 0.748731 0.447478 0.723873
O O6 0.000000 0.500000 0.651523
O O7 0.772447 0.607613 0.500000
O O8 0.500000 0.605835 0.351669
O O9 0.751004 0.653567 0.255767
O O10 0.259948 0.907509 0.500000
O O11 0.262229 0.853458 0.263453
O O12 0.000000 0.903923 0.338908
O O13 0.739969 0.754142 0.794951
O O14 0.000000 0.701378 0.845156
O O15 0.736896 0.691399 0.000000
O O16 0.000000 0.810200 0.835131
O O17 0.253972 0.817776 0.000000
#
# Coordination Sequence:
#
# PCOD9385171 Si02
#       6
#     4   4   8   8   8   8
#     4   9  15  21  29  41  63 101 144 181 222 275
#     4   9  17  31  52  75  98 127 162 198 236 279
#     4  10  20  33  50  73 100 128 158 194 237 285
#     4   9  15  21  30  47  71  99 136 183 229 272
#     4   9  18  32  49  69  93 122 158 199 240 284
#     4   8  14  25  39  54  75 105 141 181 226 276
#
# _framework density 19.524557999999999
#
# number of rings (size 3 to 8) (size 9 to 14) (size 15 to 20)
#    0.000    3.000    0.000    3.000    0.000    7.200 
#    0.000    2.500    0.000    3.000    0.000    0.000 
#    0.000    0.000    0.000    0.900    0.000   17.800 
#
# Total GULP energy -222981.810085 kJ/mol
# GULP energy per Si atom -5574.545252 kJ/mol
# Density = 1.948012 g / cm^3
# Si number density = 19.524558 Si / 1000 Ang^3
#
#
#
# Elastic Constant Matrix: (Units=GPa)
#
#
# Indices 1 2 3 4 5 6 
#
# 1 18.4292 14.4308 7.8387 0.0000 0.0000 0.0000
# 2 14.4308 237.5281 123.8709 0.0000 0.0000 0.0000
# 3 7.8387 123.8709 120.5930 0.0000 0.0000 0.0000
# 4 0.0000 0.0000 0.0000 51.6794 0.0000 0.0000
# 5 0.0000 0.0000 0.0000 0.0000 3.8520 0.0000
# 6 0.0000 0.0000 0.0000 0.0000 0.0000 -28.7916
#
#
#
# Elastic Compliance Matrix: (Units=1/GPa)
#
#
# Indices 1 2 3 4 5 6 
#
# 1 0.056978 -0.003295 -0.000319 0.000000 0.000000 0.000000
# 2 -0.003295 0.009258 -0.009295 0.000000 0.000000 0.000000
# 3 -0.000319 -0.009295 0.017861 0.000000 0.000000 0.000000
# 4 0.000000 0.000000 0.000000 0.019350 0.000000 0.000000
# 5 0.000000 0.000000 0.000000 0.000000 0.259607 0.000000
# 6 0.000000 0.000000 0.000000 0.000000 0.000000 -0.034732
#
#
# Mechanical properties :
#
#
# Convention : Reuss Voigt Hill
#
# Bulk Modulus (GPa) = 17.15920 74.31458 45.73689
# Shear Modulus (GPa) = 13.38455 20.70862 17.04659
#
# Velocity S-wave (km/s) = 2.62109 3.26029 2.95801
# Velocity P-wave (km/s) = 4.23884 7.23307 5.92812
#
# Compressibility (1/GPa) = 0.05827778
#
# Stress axis : x y z
#
# Youngs Moduli (GPa) = 17.55076 108.01934 55.98868
#
# Poissons Ratio (x) = 0.35598 0.01784
# Poissons Ratio (y) = 0.05784 0.52042
# Poissons Ratio (z) = 0.00559 1.00404
#
# Static dielectric constant tensor:
#      x y z
#    x 1.691810 0.000000 0.000000 
#    y 0.000000 1.690260 0.000000 
#    z 0.000000 0.000000 1.685530 
# 
# From -- ./inp_files/1812.got.cif
#   From: 2010.05.17/outbox.cif.g08.bks.cpg/sg47_1_cif.got.tgz:1812.got - 2010.06.03 20:15:42.
