data_PCOD9385740
_publ_section_title
;
Structure prediction by ZEFSAII (Michael W. Deem and Ramdas Pophale) SiO2 
 PCOD9385740
Probable space group: P M M M
;
_chemical_formula_sum "Si O2"
_cell_formula_units_Z 52
_cell_length_a 17.329172
_cell_length_b 7.376273
_cell_length_c 16.866871
_cell_angle_alpha 90.000000
_cell_angle_beta 90.000000
_cell_angle_gamma 90.000000
_cell_volume 2156.002785
_symmetry_space_group_name_H-M "P M M M"
_symmetry_group_IT_number 47
_symmetry_cell_setting 'orthorhombic'
loop_
_space_group_symop_operation_xyz
x,y,z
-x,-y,z
x,-y,-z
-x,y,-z
-x,-y,-z
x,y,-z
-x,y,z
x,-y,z
loop_
_atom_site_type_symbol
_atom_site_label
_atom_site_fract_x
_atom_site_fract_y
_atom_site_fract_z
Si Si1 0.373922 0.293572 0.412100
Si Si2 0.082749 0.777602 0.253175
Si Si3 0.206652 0.206093 0.634549
Si Si4 0.587620 0.279946 0.236053
Si Si5 0.307758 0.718550 0.089029
Si Si6 0.088148 0.718803 0.500000
Si Si7 0.874500 0.213639 0.914863
O O1 0.391357 0.213975 0.500000
O O2 0.403292 0.500000 0.414288
O O3 0.281057 0.298161 0.402243
O O4 0.400171 0.214761 0.327088
O O5 0.163599 0.713016 0.289875
O O6 0.084733 0.716650 0.162838
O O7 0.000000 0.723004 0.289941
O O8 0.085495 0.000000 0.257344
O O9 0.135905 0.209637 0.573924
O O10 0.230918 0.000000 0.650433
O O11 0.500000 0.239169 0.212647
O O12 0.596359 0.500000 0.240290
O O13 0.645267 0.216794 0.166549
O O14 0.313335 0.500000 0.089222
O O15 0.217812 0.768312 0.095173
O O16 0.333975 0.778292 0.000000
O O17 0.091276 0.500000 0.500000
O O18 0.000000 0.776327 0.500000
O O19 0.892311 0.000000 0.917130
O O20 0.895417 0.292235 0.000000
#
# Coordination Sequence:
#
# PCOD9385740 Si02
#       7
#     8   8   8   8   8   4   8
#     4  10  20  34  53  75 101 133 170 214 259 304
#     4   9  18  31  47  71 101 130 166 212 255 296
#     4  11  21  34  54  76 100 134 172 210 253 306
#     4   9  18  32  51  77 105 133 170 213 255 305
#     4   9  17  30  50  75 102 132 165 206 255 303
#     4  11  23  37  53  75 104 133 164 209 259 304
#     4   9  17  30  50  74  99 131 170 209 249 296
#
# _framework density 24.118707000000001
#
# number of rings (size 3 to 8) (size 9 to 14) (size 15 to 20)
#    0.000    2.385    0.769    2.077    0.000    2.154 
#    0.000    5.385    0.000    4.154    0.000    5.385 
#    0.000    0.000    0.000    0.000    0.000    0.000 
#
# Total GULP energy -290247.897824 kJ/mol
# GULP energy per Si atom -5581.690343 kJ/mol
# Density = 2.406381 g / cm^3
# Si number density = 24.118707 Si / 1000 Ang^3
#
#
#
# Elastic Constant Matrix: (Units=GPa)
#
#
# Indices 1 2 3 4 5 6 
#
# 1 72.3492 -6.1174 20.9330 0.0000 0.0000 0.0000
# 2 -6.1174 93.3808 0.5687 0.0000 0.0000 0.0000
# 3 20.9330 0.5687 139.5115 0.0000 0.0000 0.0000
# 4 0.0000 0.0000 0.0000 5.8001 0.0000 0.0000
# 5 0.0000 0.0000 0.0000 0.0000 10.3413 0.0000
# 6 0.0000 0.0000 0.0000 0.0000 0.0000 6.6957
#
#
#
# Elastic Compliance Matrix: (Units=1/GPa)
#
#
# Indices 1 2 3 4 5 6 
#
# 1 0.014536 0.000966 -0.002185 0.000000 0.000000 0.000000
# 2 0.000966 0.010773 -0.000189 0.000000 0.000000 0.000000
# 3 -0.002185 -0.000189 0.007496 0.000000 0.000000 0.000000
# 4 0.000000 0.000000 0.000000 0.172411 0.000000 0.000000
# 5 0.000000 0.000000 0.000000 0.000000 0.096700 0.000000
# 6 0.000000 0.000000 0.000000 0.000000 0.000000 0.149349
#
#
# Mechanical properties :
#
#
# Convention : Reuss Voigt Hill
#
# Bulk Modulus (GPa) = 33.34553 37.33443 35.33998
# Shear Modulus (GPa) = 10.77406 23.89124 17.33265
#
# Velocity S-wave (km/s) = 2.11584 3.15074 2.68365
# Velocity P-wave (km/s) = 4.45249 5.36184 4.92818
#
# Compressibility (1/GPa) = 0.02998903
#
# Stress axis : x y z
#
# Youngs Moduli (GPa) = 68.79627 92.82257 133.39599
#
# Poissons Ratio (x) = -0.08962 0.29146
# Poissons Ratio (y) = -0.06643 0.02518
# Poissons Ratio (z) = 0.15032 0.01752
#
# Static dielectric constant tensor:
#      x y z
#    x 1.859410 0.000000 0.000000 
#    y 0.000000 1.953320 0.000000 
#    z 0.000000 0.000000 2.066950 
# 
# From -- ./inp_files/28496.got.cif
#   From: 2010.05.17/outbox.cif.g08.bks.cpg/sg47_15_cif.got.tgz:28496.got - 2010.06.03 20:15:42.
