data_PCOD9385549
_publ_section_title
;
Structure prediction by ZEFSAII (Michael W. Deem and Ramdas Pophale) SiO2 
 PCOD9385549
Probable space group: P M M M
;
_chemical_formula_sum "Si O2"
_cell_formula_units_Z 64
_cell_length_a 16.159734
_cell_length_b 24.376117
_cell_length_c 7.635562
_cell_angle_alpha 90.000000
_cell_angle_beta 90.000000
_cell_angle_gamma 90.000000
_cell_volume 3007.736190
_symmetry_space_group_name_H-M "P M M M"
_symmetry_group_IT_number 47
_symmetry_cell_setting 'orthorhombic'
loop_
_space_group_symop_operation_xyz
x,y,z
-x,-y,z
x,-y,-z
-x,y,-z
-x,-y,-z
x,y,-z
-x,y,z
x,-y,z
loop_
_atom_site_type_symbol
_atom_site_label
_atom_site_fract_x
_atom_site_fract_y
_atom_site_fract_z
Si Si1 0.254230 0.062174 0.289967
Si Si2 0.908047 0.131583 0.788987
Si Si3 0.408708 0.133625 0.290577
Si Si4 0.652166 0.745677 0.790472
Si Si5 0.590356 0.626491 0.293753
Si Si6 0.842625 0.249146 0.211656
Si Si7 0.090736 0.368005 0.291679
Si Si8 0.247926 0.563484 0.285194
O O1 0.263123 0.059846 0.500000
O O2 0.166679 0.091153 0.255821
O O3 0.330921 0.098674 0.221317
O O4 0.256153 0.000000 0.222415
O O5 0.884298 0.192802 0.726636
O O6 0.000000 0.115903 0.726409
O O7 0.911108 0.133738 0.000000
O O8 0.410549 0.125601 0.500000
O O9 0.500000 0.118649 0.221926
O O10 0.391647 0.197732 0.258522
O O11 0.608429 0.691162 0.722372
O O12 0.747397 0.747687 0.727382
O O13 0.653247 0.741821 0.000000
O O14 0.587049 0.613330 0.500000
O O15 0.500000 0.613908 0.217566
O O16 0.668820 0.593493 0.222035
O O17 0.889755 0.303954 0.265172
O O18 0.841596 0.247588 0.000000
O O19 0.088061 0.377924 0.500000
O O20 0.167317 0.403472 0.222705
O O21 0.000000 0.381284 0.219064
O O22 0.247949 0.565811 0.500000
O O23 0.245715 0.500000 0.235358
#
# Coordination Sequence:
#
# PCOD9385549 Si02
#       8
#     8   8   8   8   8   8   8   8
#     4  10  22  39  58  81 110 144 182 225 269 313
#     4  10  21  38  59  82 109 143 182 222 268 323
#     4  10  21  37  58  83 111 144 180 219 266 320
#     4  11  21  34  56  83 110 141 176 217 267 321
#     4  10  20  34  54  79 107 140 176 215 263 318
#     4  10  20  35  56  80 108 142 176 215 266 320
#     4  10  20  33  53  81 108 137 174 215 264 320
#     4   9  18  33  52  75 105 139 176 221 265 305
#
# _framework density 21.278461
#
# number of rings (size 3 to 8) (size 9 to 14) (size 15 to 20)
#    0.000    2.000    2.500    1.125    0.000    5.250 
#    0.000    5.000    0.000    1.500    0.000    3.500 
#    0.000    0.000    0.000    0.000    0.000    0.000 
#
# Total GULP energy -357579.206394 kJ/mol
# GULP energy per Si atom -5587.175100 kJ/mol
# Density = 2.123003 g / cm^3
# Si number density = 21.278461 Si / 1000 Ang^3
#
#
#
# Elastic Constant Matrix: (Units=GPa)
#
#
# Indices 1 2 3 4 5 6 
#
# 1 212.4216 84.3731 6.1680 0.0000 0.0000 0.0000
# 2 84.3731 142.8226 -8.6892 0.0000 0.0000 0.0000
# 3 6.1680 -8.6892 42.0599 0.0000 0.0000 0.0000
# 4 0.0000 0.0000 0.0000 61.8374 0.0000 0.0000
# 5 0.0000 0.0000 0.0000 0.0000 -2.9003 0.0000
# 6 0.0000 0.0000 0.0000 0.0000 0.0000 13.4771
#
#
#
# Elastic Compliance Matrix: (Units=1/GPa)
#
#
# Indices 1 2 3 4 5 6 
#
# 1 0.006269 -0.003808 -0.001706 0.000000 0.000000 0.000000
# 2 -0.003808 0.009403 0.002501 0.000000 0.000000 0.000000
# 3 -0.001706 0.002501 0.024542 0.000000 0.000000 0.000000
# 4 0.000000 0.000000 0.000000 0.016171 0.000000 0.000000
# 5 0.000000 0.000000 0.000000 0.000000 -0.344795 0.000000
# 6 0.000000 0.000000 0.000000 0.000000 0.000000 0.074200
#
#
# Mechanical properties :
#
#
# Convention : Reuss Voigt Hill
#
# Bulk Modulus (GPa) = 29.24832 62.33420 45.79126
# Shear Modulus (GPa) = -25.40820 35.51300 5.05240
#
# Velocity S-wave (km/s) = -3.45930 4.08973 1.54259
# Velocity P-wave (km/s) = 1.47658 7.18744 4.97388
#
# Compressibility (1/GPa) = 0.03419000
#
# Stress axis : x y z
#
# Youngs Moduli (GPa) = 159.50265 106.34727 40.74571
#
# Poissons Ratio (x) = 0.40492 0.06951
# Poissons Ratio (y) = 0.60731 -0.10190
# Poissons Ratio (z) = 0.27211 -0.26597
#
# Static dielectric constant tensor:
#      x y z
#    x 1.783270 0.000000 0.000000 
#    y 0.000000 1.713080 0.000000 
#    z 0.000000 0.000000 1.868080 
# 
# From -- ./inp_files/7777.got.cif
#   From: 2010.05.17/outbox.cif.g08.bks.cpg/sg47_4_cif.got.tgz:7777.got - 2010.06.03 20:15:42.
