data_PCOD9385794
_publ_section_title
;
Structure prediction by ZEFSAII (Michael W. Deem and Ramdas Pophale) SiO2 
 PCOD9385794
Probable space group: P M M M
;
_chemical_formula_sum "Si O2"
_cell_formula_units_Z 48
_cell_length_a 9.276432
_cell_length_b 7.531920
_cell_length_c 31.879902
_cell_angle_alpha 90.000000
_cell_angle_beta 90.000000
_cell_angle_gamma 90.000000
_cell_volume 2227.427830
_symmetry_space_group_name_H-M "P M M M"
_symmetry_group_IT_number 47
_symmetry_cell_setting 'orthorhombic'
loop_
_space_group_symop_operation_xyz
x,y,z
-x,-y,z
x,-y,-z
-x,y,-z
-x,-y,-z
x,y,-z
-x,y,z
x,-y,z
loop_
_atom_site_type_symbol
_atom_site_label
_atom_site_fract_x
_atom_site_fract_y
_atom_site_fract_z
Si Si1 0.336788 0.288803 0.666432
Si Si2 0.163097 0.788467 0.581974
Si Si3 0.163080 0.788589 0.249165
Si Si4 0.666225 0.217719 0.500000
Si Si5 0.833770 0.216904 0.916385
Si Si6 0.333675 0.782981 0.000000
Si Si7 0.666220 0.782648 0.167359
O O1 0.500000 0.215700 0.666431
O O2 0.346855 0.500000 0.666653
O O3 0.250170 0.238978 0.624720
O O4 0.249578 0.237637 0.707943
O O5 0.250816 0.721501 0.541704
O O6 0.000000 0.717479 0.584517
O O7 0.151810 0.000000 0.576171
O O8 0.251600 0.720741 0.209112
O O9 0.000000 0.717488 0.251655
O O10 0.151620 0.000000 0.243075
O O11 0.500000 0.273752 0.500000
O O12 0.665708 0.000000 0.500000
O O13 0.749823 0.273513 0.958149
O O14 0.750658 0.272537 0.874422
O O15 0.000000 0.273875 0.916459
O O16 0.834166 0.000000 0.916483
O O17 0.500000 0.726431 0.000000
O O18 0.333826 0.000000 0.000000
O O19 0.500000 0.726139 0.166953
O O20 0.665637 0.000000 0.167622
#
# Coordination Sequence:
#
# PCOD9385794 Si02
#       7
#     8   8   8   4   8   4   8
#     4  11  24  39  54  75 104 137 172 210 253 301
#     4  10  20  35  57  84 111 139 173 212 252 296
#     4  10  20  34  53  76  99 126 164 208 253 302
#     4   9  17  31  54  83 112 141 172 208 250 293
#     4   9  15  22  32  48  73 106 145 189 235 284
#     4   9  15  21  29  43  67 103 146 187 230 285
#     4   9  16  26  41  61  85 114 150 194 242 290
#
# _framework density 21.549517999999999
#
# number of rings (size 3 to 8) (size 9 to 14) (size 15 to 20)
#    0.000    2.333    0.000    3.500    0.000   11.333 
#    0.000    0.417    0.000    2.500    0.000    0.000 
#    0.000    0.000    0.000    0.750    0.000   14.667 
#
# Total GULP energy -268297.972310 kJ/mol
# GULP energy per Si atom -5589.541090 kJ/mol
# Density = 2.150047 g / cm^3
# Si number density = 21.549518 Si / 1000 Ang^3
#
#
#
# Elastic Constant Matrix: (Units=GPa)
#
#
# Indices 1 2 3 4 5 6 
#
# 1 281.2339 6.9103 170.0459 0.0000 0.0000 0.0000
# 2 6.9103 53.7368 -2.5770 0.0000 0.0000 0.0000
# 3 170.0459 -2.5770 260.5576 0.0000 0.0000 0.0000
# 4 0.0000 0.0000 0.0000 -56.3948 0.0000 0.0000
# 5 0.0000 0.0000 0.0000 0.0000 46.7479 0.0000
# 6 0.0000 0.0000 0.0000 0.0000 0.0000 -5.8736
#
#
#
# Elastic Compliance Matrix: (Units=1/GPa)
#
#
# Indices 1 2 3 4 5 6 
#
# 1 0.005921 -0.000947 -0.003874 0.000000 0.000000 0.000000
# 2 -0.000947 0.018770 0.000804 0.000000 0.000000 0.000000
# 3 -0.003874 0.000804 0.006374 0.000000 0.000000 0.000000
# 4 0.000000 0.000000 0.000000 -0.017732 0.000000 0.000000
# 5 0.000000 0.000000 0.000000 0.000000 0.021391 0.000000
# 6 0.000000 0.000000 0.000000 0.000000 0.000000 -0.170253
#
#
# Mechanical properties :
#
#
# Convention : Reuss Voigt Hill
#
# Bulk Modulus (GPa) = 43.42060 104.92074 74.17067
# Shear Modulus (GPa) = -41.73008 24.97251 -8.37878
#
# Velocity S-wave (km/s) = -4.40531 3.40787 -1.97398
# Velocity P-wave (km/s) = 2.38385 8.01740 5.41276
#
# Compressibility (1/GPa) = 0.02303054
#
# Stress axis : x y z
#
# Youngs Moduli (GPa) = 168.88364 53.27771 156.88884
#
# Poissons Ratio (x) = 0.05047 0.60774
# Poissons Ratio (y) = 0.15997 -0.12611
# Poissons Ratio (z) = 0.65420 -0.04283
#
# Static dielectric constant tensor:
#      x y z
#    x 1.755050 0.000000 0.000000 
#    y 0.000000 1.812420 0.000000 
#    z 0.000000 0.000000 1.735120 
# 
# From -- ./inp_files/34142.got.cif
#   From: 2010.05.17/outbox.cif.g08.bks.cpg/sg47_18_cif.got.tgz:34142.got - 2010.06.03 20:15:42.
