data_PCOD9385197
_publ_section_title
;
Structure prediction by ZEFSAII (Michael W. Deem and Ramdas Pophale) SiO2 
 PCOD9385197
Probable space group: P M M M
;
_chemical_formula_sum "Si O2"
_cell_formula_units_Z 44
_cell_length_a 7.614801
_cell_length_b 30.551507
_cell_length_c 9.262754
_cell_angle_alpha 90.000000
_cell_angle_beta 90.000000
_cell_angle_gamma 90.000000
_cell_volume 2154.920863
_symmetry_space_group_name_H-M "P M M M"
_symmetry_group_IT_number 47
_symmetry_cell_setting 'orthorhombic'
loop_
_space_group_symop_operation_xyz
x,y,z
-x,-y,z
x,-y,-z
-x,y,-z
-x,-y,-z
x,y,-z
-x,y,z
x,-y,z
loop_
_atom_site_type_symbol
_atom_site_label
_atom_site_fract_x
_atom_site_fract_y
_atom_site_fract_z
Si Si1 0.714904 0.634835 0.665680
Si Si2 0.792478 0.190321 0.665533
Si Si3 0.285846 0.451177 0.832641
Si Si4 0.699291 0.895900 0.831435
Si Si5 0.712408 0.278696 0.165184
Si Si6 0.000000 0.947734 0.330606
O O1 0.770125 0.639234 0.500000
O O2 0.500000 0.634674 0.667209
O O3 0.773339 0.589061 0.735219
O O4 0.771781 0.676309 0.760258
O O5 0.728425 0.190777 0.500000
O O6 0.707644 0.151959 0.759273
O O7 0.764908 0.236987 0.740497
O O8 0.000000 0.180968 0.662932
O O9 0.500000 0.451063 0.829864
O O10 0.229759 0.500000 0.787209
O O11 0.235018 0.444719 0.000000
O O12 0.500000 0.912266 0.822250
O O13 0.831583 0.926848 0.746265
O O14 0.748790 0.892701 0.000000
O O15 0.500000 0.279702 0.162036
O O16 0.774155 0.275027 0.000000
O O17 0.000000 0.936086 0.500000
O O18 0.000000 0.000000 0.317057
#
# Coordination Sequence:
#
# PCOD9385197 Si02
#       6
#     8   8   8   8   8   4
#     4   9  16  25  38  58  87 123 164 214 271 331
#     4  11  23  38  58  85 117 153 194 242 298 357
#     4   8  13  21  33  50  76 114 159 206 260 325
#     4  11  24  42  67  98 131 170 215 262 314 372
#     4  10  20  33  50  73 102 139 183 228 279 342
#     4  11  25  45  69  99 135 175 219 267 318 369
#
# _framework density 20.418384
#
# number of rings (size 3 to 8) (size 9 to 14) (size 15 to 20)
#    0.000    2.091    0.909    3.545    0.000    9.455 
#    0.000    3.636    0.000    0.000    0.000    0.000 
#    0.000    0.727    0.000    7.636    0.000   10.545 
#
# Total GULP energy -245944.500397 kJ/mol
# GULP energy per Si atom -5589.647736 kJ/mol
# Density = 2.037191 g / cm^3
# Si number density = 20.418384 Si / 1000 Ang^3
#
#
#
# Elastic Constant Matrix: (Units=GPa)
#
#
# Indices 1 2 3 4 5 6 
#
# 1 65.0103 32.3261 42.4004 0.0000 0.0000 0.0000
# 2 32.3261 131.6213 96.3752 0.0000 0.0000 0.0000
# 3 42.4004 96.3752 190.5527 0.0000 0.0000 0.0000
# 4 0.0000 0.0000 0.0000 42.2264 0.0000 0.0000
# 5 0.0000 0.0000 0.0000 0.0000 21.1796 0.0000
# 6 0.0000 0.0000 0.0000 0.0000 0.0000 15.0661
#
#
#
# Elastic Compliance Matrix: (Units=1/GPa)
#
#
# Indices 1 2 3 4 5 6 
#
# 1 0.018468 -0.002425 -0.002883 0.000000 0.000000 0.000000
# 2 -0.002425 0.012384 -0.005724 0.000000 0.000000 0.000000
# 3 -0.002883 -0.005724 0.008784 0.000000 0.000000 0.000000
# 4 0.000000 0.000000 0.000000 0.023682 0.000000 0.000000
# 5 0.000000 0.000000 0.000000 0.000000 0.047215 0.000000
# 6 0.000000 0.000000 0.000000 0.000000 0.000000 0.066374
#
#
# Mechanical properties :
#
#
# Convention : Reuss Voigt Hill
#
# Bulk Modulus (GPa) = 56.90456 81.04307 68.97381
# Shear Modulus (GPa) = 24.41054 30.09995 27.25524
#
# Velocity S-wave (km/s) = 3.46138 3.84364 3.65751
# Velocity P-wave (km/s) = 6.62606 7.71204 7.18958
#
# Compressibility (1/GPa) = 0.01757329
#
# Stress axis : x y z
#
# Youngs Moduli (GPa) = 54.14700 80.74744 113.83782
#
# Poissons Ratio (x) = 0.19579 0.32820
# Poissons Ratio (y) = 0.13129 0.65161
# Poissons Ratio (z) = 0.15611 0.46220
#
# Static dielectric constant tensor:
#      x y z
#    x 1.802850 0.000000 0.000000 
#    y 0.000000 1.683660 0.000000 
#    z 0.000000 0.000000 1.689770 
# 
# From -- ./inp_files/2149.got.cif
#   From: 2010.05.17/outbox.cif.g08.bks.cpg/sg47_2_cif.got.tgz:2149.got - 2010.06.03 20:15:42.
