data_PCOD9385753
_publ_section_title
;
Structure prediction by ZEFSAII (Michael W. Deem and Ramdas Pophale) SiO2 
 PCOD9385753
Probable space group: P M M M
;
_chemical_formula_sum "Si O2"
_cell_formula_units_Z 64
_cell_length_a 32.155279
_cell_length_b 14.510737
_cell_length_c 9.150165
_cell_angle_alpha 90.000000
_cell_angle_beta 90.000000
_cell_angle_gamma 90.000000
_cell_volume 4269.437679
_symmetry_space_group_name_H-M "P M M M"
_symmetry_group_IT_number 47
_symmetry_cell_setting 'orthorhombic'
loop_
_space_group_symop_operation_xyz
x,y,z
-x,-y,z
x,-y,-z
-x,y,-z
-x,-y,-z
x,y,-z
-x,y,z
x,-y,z
loop_
_atom_site_type_symbol
_atom_site_label
_atom_site_fract_x
_atom_site_fract_y
_atom_site_fract_z
Si Si1 0.918655 0.604981 0.825969
Si Si2 0.171410 0.393809 0.326879
Si Si3 0.286300 0.892734 0.824884
Si Si4 0.454097 0.888084 0.171106
Si Si5 0.370991 0.112210 0.331764
Si Si6 0.871237 0.108652 0.674974
Si Si7 0.046129 0.779054 0.674187
Si Si8 0.203498 0.780447 0.824505
O O1 0.933378 0.500000 0.799649
O O2 0.873999 0.614970 0.747068
O O3 0.947396 0.683759 0.759517
O O4 0.913718 0.616911 0.000000
O O5 0.167978 0.374831 0.500000
O O6 0.184782 0.500000 0.308010
O O7 0.200401 0.319663 0.248748
O O8 0.329065 0.860266 0.751597
O O9 0.246260 0.832394 0.786391
O O10 0.279050 0.000000 0.783129
O O11 0.291333 0.890354 0.000000
O O12 0.500000 0.857883 0.223381
O O13 0.413822 0.855224 0.258150
O O14 0.454042 0.000000 0.179116
O O15 0.450217 0.864622 0.000000
O O16 0.369211 0.139729 0.500000
O O17 0.371761 0.000000 0.325708
O O18 0.864812 0.120656 0.500000
O O19 0.915939 0.153152 0.711787
O O20 0.835125 0.161200 0.761279
O O21 0.870633 0.000000 0.706604
O O22 0.048959 0.761199 0.500000
O O23 0.000000 0.816931 0.704007
O O24 0.200340 0.774112 0.000000
#
# Coordination Sequence:
#
# PCOD9385753 Si02
#       8
#     8   8   8   8   8   8   8   8
#     4  10  20  34  53  76  99 122 147 177 216 260
#     4  10  20  34  53  75  98 122 146 175 215 265
#     4   9  18  31  44  60  86 120 153 184 223 269
#     4   8  13  21  33  48  68 100 142 185 230 278
#     4   9  16  24  35  53  77 106 143 189 234 269
#     4  10  21  36  53  72  94 122 154 187 223 262
#     4  10  21  36  53  73  97 125 154 182 217 263
#     4  11  21  33  52  75  96 119 149 186 226 267
#
# _framework density 14.990264
#
# number of rings (size 3 to 8) (size 9 to 14) (size 15 to 20)
#    0.000    2.375    1.250    2.250    0.000    5.750 
#    0.000    5.000    0.000    0.000    0.000    1.750 
#    0.000    0.000    0.000    0.000    0.000    0.625 
#
# Total GULP energy -356799.552832 kJ/mol
# GULP energy per Si atom -5574.993013 kJ/mol
# Density = 1.495615 g / cm^3
# Si number density = 14.990264 Si / 1000 Ang^3
#
#
#
# Elastic Constant Matrix: (Units=GPa)
#
#
# Indices 1 2 3 4 5 6 
#
# 1 133.8579 45.3652 56.1010 0.0000 0.0000 0.0000
# 2 45.3652 60.9450 33.3537 0.0000 0.0000 0.0000
# 3 56.1010 33.3537 49.6768 0.0000 0.0000 0.0000
# 4 0.0000 0.0000 0.0000 18.6532 0.0000 0.0000
# 5 0.0000 0.0000 0.0000 0.0000 32.4499 0.0000
# 6 0.0000 0.0000 0.0000 0.0000 0.0000 5.2404
#
#
#
# Elastic Compliance Matrix: (Units=1/GPa)
#
#
# Indices 1 2 3 4 5 6 
#
# 1 0.014500 -0.002896 -0.014431 0.000000 0.000000 0.000000
# 2 -0.002896 0.026518 -0.014535 0.000000 0.000000 0.000000
# 3 -0.014431 -0.014535 0.046186 0.000000 0.000000 0.000000
# 4 0.000000 0.000000 0.000000 0.053610 0.000000 0.000000
# 5 0.000000 0.000000 0.000000 0.000000 0.030817 0.000000
# 6 0.000000 0.000000 0.000000 0.000000 0.000000 0.190827
#
#
# Mechanical properties :
#
#
# Convention : Reuss Voigt Hill
#
# Bulk Modulus (GPa) = 42.58614 57.12438 49.85526
# Shear Modulus (GPa) = 11.52052 18.57934 15.04993
#
# Velocity S-wave (km/s) = 2.77525 3.52437 3.17200
# Velocity P-wave (km/s) = 6.22417 7.39946 6.83711
#
# Compressibility (1/GPa) = 0.02348182
#
# Stress axis : x y z
#
# Youngs Moduli (GPa) = 68.96459 37.71027 21.65140
#
# Poissons Ratio (x) = 0.10919 0.31246
# Poissons Ratio (y) = 0.19969 0.31469
# Poissons Ratio (z) = 0.99525 0.54810
#
# Static dielectric constant tensor:
#      x y z
#    x 1.496630 0.000000 0.000000 
#    y 0.000000 1.484700 0.000000 
#    z 0.000000 0.000000 1.500300 
# 
# From -- ./inp_files/14355.got.cif
#   From: 2010.05.17/outbox.cif.g08.bks.cpg/sg47_8_cif.got.tgz:14355.got - 2010.06.03 20:15:42.
