data_PCOD9385525
_publ_section_title
;
Structure prediction by ZEFSAII (Michael W. Deem and Ramdas Pophale) SiO2 
 PCOD9385525
Probable space group: P M M M
;
_chemical_formula_sum "Si O2"
_cell_formula_units_Z 48
_cell_length_a 9.244180
_cell_length_b 10.010584
_cell_length_c 27.447886
_cell_angle_alpha 90.000000
_cell_angle_beta 90.000000
_cell_angle_gamma 90.000000
_cell_volume 2540.017500
_symmetry_space_group_name_H-M "P M M M"
_symmetry_group_IT_number 47
_symmetry_cell_setting 'orthorhombic'
loop_
_space_group_symop_operation_xyz
x,y,z
-x,-y,z
x,-y,-z
-x,y,-z
-x,-y,-z
x,y,-z
-x,y,z
x,-y,z
loop_
_atom_site_type_symbol
_atom_site_label
_atom_site_fract_x
_atom_site_fract_y
_atom_site_fract_z
Si Si1 0.672968 0.153390 0.668139
Si Si2 0.331455 0.844615 0.216213
Si Si3 0.174940 0.342123 0.407735
Si Si4 0.833780 0.645766 0.147469
Si Si5 0.162994 0.000000 0.058442
Si Si6 0.327206 0.728024 0.056330
Si Si7 0.824511 0.156686 0.500000
O O1 0.500000 0.163048 0.659793
O O2 0.696677 0.168967 0.726066
O O3 0.755309 0.267174 0.638352
O O4 0.716899 0.000000 0.654748
O O5 0.500000 0.810247 0.207571
O O6 0.231357 0.753592 0.183578
O O7 0.311976 0.000000 0.203595
O O8 0.215893 0.500000 0.412715
O O9 0.217488 0.246675 0.453292
O O10 0.000000 0.339415 0.404471
O O11 0.827514 0.500000 0.171364
O O12 0.742856 0.639997 0.097871
O O13 0.000000 0.675641 0.135156
O O14 0.257333 0.870823 0.069177
O O15 0.000000 0.000000 0.079235
O O16 0.147706 0.000000 0.000000
O O17 0.500000 0.731304 0.059643
O O18 0.290232 0.694206 0.000000
O O19 0.000000 0.150483 0.500000
O O20 0.774601 0.000000 0.500000
#
# Coordination Sequence:
#
# PCOD9385525 Si02
#       7
#     8   8   8   8   4   8   4
#     4   9  19  37  59  83 111 144 185 232 283 339
#     4   9  20  40  64  86 109 142 185 233 283 337
#     4  10  20  33  52  81 116 152 190 235 286 339
#     4  11  25  41  57  82 116 151 185 227 283 341
#     4   9  17  31  53  81 111 141 175 219 269 318
#     4  10  21  37  58  83 111 146 188 230 274 330
#     4   9  17  31  52  77 108 151 200 244 286 333
#
# _framework density 18.897506
#
# number of rings (size 3 to 8) (size 9 to 14) (size 15 to 20)
#    0.000    2.333    0.000    3.000    1.167    7.667 
#    0.000    7.083    0.000    2.500    0.000    0.000 
#    0.000    0.000    0.000    0.000    0.000    0.000 
#
# Total GULP energy -267680.472164 kJ/mol
# GULP energy per Si atom -5576.676503 kJ/mol
# Density = 1.885449 g / cm^3
# Si number density = 18.897506 Si / 1000 Ang^3
#
#
#
# Elastic Constant Matrix: (Units=GPa)
#
#
# Indices 1 2 3 4 5 6 
#
# 1 68.2591 51.1004 45.9639 0.0000 0.0000 0.0000
# 2 51.1004 131.3062 57.8581 0.0000 0.0000 0.0000
# 3 45.9639 57.8581 62.4380 0.0000 0.0000 0.0000
# 4 0.0000 0.0000 0.0000 20.0436 0.0000 0.0000
# 5 0.0000 0.0000 0.0000 0.0000 22.4698 0.0000
# 6 0.0000 0.0000 0.0000 0.0000 0.0000 47.2342
#
#
#
# Elastic Compliance Matrix: (Units=1/GPa)
#
#
# Indices 1 2 3 4 5 6 
#
# 1 0.029859 -0.003270 -0.018951 0.000000 0.000000 0.000000
# 2 -0.003270 0.013229 -0.009852 0.000000 0.000000 0.000000
# 3 -0.018951 -0.009852 0.039096 0.000000 0.000000 0.000000
# 4 0.000000 0.000000 0.000000 0.049891 0.000000 0.000000
# 5 0.000000 0.000000 0.000000 0.000000 0.044504 0.000000
# 6 0.000000 0.000000 0.000000 0.000000 0.000000 0.021171
#
#
# Mechanical properties :
#
#
# Convention : Reuss Voigt Hill
#
# Bulk Modulus (GPa) = 55.43505 63.53868 59.48687
# Shear Modulus (GPa) = 18.66310 25.08825 21.87567
#
# Velocity S-wave (km/s) = 3.14601 3.64757 3.40604
# Velocity P-wave (km/s) = 6.52647 7.17185 6.85676
#
# Compressibility (1/GPa) = 0.01803913
#
# Stress axis : x y z
#
# Youngs Moduli (GPa) = 33.49098 75.58923 25.57822
#
# Poissons Ratio (x) = 0.24716 0.48472
# Poissons Ratio (y) = 0.10951 0.25200
# Poissons Ratio (z) = 0.63468 0.74470
#
# Static dielectric constant tensor:
#      x y z
#    x 1.633510 0.000000 0.000000 
#    y 0.000000 1.700560 0.000000 
#    z 0.000000 0.000000 1.658230 
# 
# From -- ./inp_files/34143.got.cif
#   From: 2010.05.17/outbox.cif.g08.bks.cpg/sg47_18_cif.got.tgz:34143.got - 2010.06.03 20:15:42.
