data_PCOD9385211
_publ_section_title
;
Structure prediction by ZEFSAII (Michael W. Deem and Ramdas Pophale) SiO2 
 PCOD9385211
Probable space group: P M M M
;
_chemical_formula_sum "Si O2"
_cell_formula_units_Z 48
_cell_length_a 9.656321
_cell_length_b 31.936947
_cell_length_c 7.500492
_cell_angle_alpha 90.000000
_cell_angle_beta 90.000000
_cell_angle_gamma 90.000000
_cell_volume 2313.102319
_symmetry_space_group_name_H-M "P M M M"
_symmetry_group_IT_number 47
_symmetry_cell_setting 'orthorhombic'
loop_
_space_group_symop_operation_xyz
x,y,z
-x,-y,z
x,-y,-z
-x,y,-z
-x,-y,-z
x,y,-z
-x,y,z
x,-y,z
loop_
_atom_site_type_symbol
_atom_site_label
_atom_site_fract_x
_atom_site_fract_y
_atom_site_fract_z
Si Si1 0.159907 0.500000 0.218631
Si Si2 0.657379 0.171451 0.714014
Si Si3 0.159467 0.751609 0.717501
Si Si4 0.158403 0.657712 0.285247
Si Si5 0.159240 0.000000 0.218640
Si Si6 0.343125 0.577962 0.211200
Si Si7 0.658210 0.922061 0.212881
O O1 0.244313 0.540905 0.279544
O O2 0.000000 0.500000 0.276429
O O3 0.156999 0.500000 0.000000
O O4 0.652246 0.175133 0.500000
O O5 0.500000 0.173335 0.782448
O O6 0.746787 0.210271 0.781371
O O7 0.711474 0.124875 0.752886
O O8 0.163978 0.751751 0.500000
O O9 0.199407 0.704576 0.774240
O O10 0.000000 0.758059 0.768624
O O11 0.153594 0.658514 0.500000
O O12 0.265491 0.621957 0.234229
O O13 0.000000 0.649065 0.223703
O O14 0.242524 0.041209 0.278275
O O15 0.000000 0.000000 0.275781
O O16 0.158535 0.000000 0.000000
O O17 0.500000 0.577760 0.283792
O O18 0.354629 0.570517 0.000000
O O19 0.500000 0.925146 0.283054
O O20 0.649540 0.927076 0.000000
#
# Coordination Sequence:
#
# PCOD9385211 Si02
#       7
#     4   8   8   8   4   8   8
#     4   9  17  31  52  73  94 127 166 198 234 285
#     4   9  17  29  46  68  91 116 149 186 222 264
#     4   8  15  29  48  68  91 121 155 189 227 273
#     4   9  18  33  52  73  97 127 164 202 239 283
#     4   9  17  29  46  67  88 112 146 185 220 260
#     4  10  20  33  50  74 102 129 159 198 242 286
#     4   9  17  30  47  65  87 117 149 180 219 267
#
# _framework density 20.751353000000002
#
# number of rings (size 3 to 8) (size 9 to 14) (size 15 to 20)
#    0.000    3.000    0.000    2.000    0.000    4.667 
#    0.000    3.333    0.000    8.000    0.000    0.000 
#    0.000    0.000    0.000    0.000    0.000    0.000 
#
# Total GULP energy -267832.305438 kJ/mol
# GULP energy per Si atom -5579.839697 kJ/mol
# Density = 2.070412 g / cm^3
# Si number density = 20.751353 Si / 1000 Ang^3
#
#
#
# Elastic Constant Matrix: (Units=GPa)
#
#
# Indices 1 2 3 4 5 6 
#
# 1 154.3566 142.2104 5.7895 0.0000 0.0000 0.0000
# 2 142.2104 223.1788 -1.1200 0.0000 0.0000 0.0000
# 3 5.7895 -1.1200 54.6129 0.0000 0.0000 0.0000
# 4 0.0000 0.0000 0.0000 22.3787 0.0000 0.0000
# 5 0.0000 0.0000 0.0000 0.0000 8.4865 0.0000
# 6 0.0000 0.0000 0.0000 0.0000 0.0000 41.3354
#
#
#
# Elastic Compliance Matrix: (Units=1/GPa)
#
#
# Indices 1 2 3 4 5 6 
#
# 1 0.015882 -0.010129 -0.001891 0.000000 0.000000 0.000000
# 2 -0.010129 0.010942 0.001298 0.000000 0.000000 0.000000
# 3 -0.001891 0.001298 0.018538 0.000000 0.000000 0.000000
# 4 0.000000 0.000000 0.000000 0.044685 0.000000 0.000000
# 5 0.000000 0.000000 0.000000 0.000000 0.117835 0.000000
# 6 0.000000 0.000000 0.000000 0.000000 0.000000 0.024192
#
#
# Mechanical properties :
#
#
# Convention : Reuss Voigt Hill
#
# Bulk Modulus (GPa) = 41.81266 80.65646 61.23456
# Shear Modulus (GPa) = 19.12111 33.45801 26.28956
#
# Velocity S-wave (km/s) = 3.03881 4.01974 3.56319
# Velocity P-wave (km/s) = 5.70137 7.77797 6.81918
#
# Compressibility (1/GPa) = 0.02391620
#
# Stress axis : x y z
#
# Youngs Moduli (GPa) = 62.96512 91.39312 53.94374
#
# Poissons Ratio (x) = 0.92576 0.10203
# Poissons Ratio (y) = 0.63780 -0.07003
# Poissons Ratio (z) = 0.11909 -0.11865
#
# Static dielectric constant tensor:
#      x y z
#    x 1.718080 0.000000 0.000000 
#    y 0.000000 1.720300 0.000000 
#    z 0.000000 0.000000 1.800140 
# 
# From -- ./inp_files/2676.got.cif
#   From: 2010.05.17/outbox.cif.g08.bks.cpg/sg47_2_cif.got.tgz:2676.got - 2010.06.03 20:15:42.
