data_PCOD9385100
_publ_section_title
;
Structure prediction by ZEFSAII (Michael W. Deem and Ramdas Pophale) SiO2 
 PCOD9385100
Probable space group: P M M M
;
_chemical_formula_sum "Si O2"
_cell_formula_units_Z 44
_cell_length_a 7.728065
_cell_length_b 21.855875
_cell_length_c 14.189687
_cell_angle_alpha 90.000000
_cell_angle_beta 90.000000
_cell_angle_gamma 90.000000
_cell_volume 2396.689538
_symmetry_space_group_name_H-M "P M M M"
_symmetry_group_IT_number 47
_symmetry_cell_setting 'orthorhombic'
loop_
_space_group_symop_operation_xyz
x,y,z
-x,-y,z
x,-y,-z
-x,y,-z
-x,-y,-z
x,y,-z
-x,y,z
x,-y,z
loop_
_atom_site_type_symbol
_atom_site_label
_atom_site_fract_x
_atom_site_fract_y
_atom_site_fract_z
Si Si1 0.790037 0.808063 0.204100
Si Si2 0.796084 0.248961 0.396437
Si Si3 0.293257 0.317076 0.104583
Si Si4 0.211054 0.067892 0.109502
Si Si5 0.294544 0.628171 0.298708
Si Si6 0.206536 0.500000 0.607716
O O1 0.724764 0.788912 0.307745
O O2 0.739587 0.753289 0.133737
O O3 0.729127 0.874048 0.169029
O O4 0.000000 0.808828 0.206298
O O5 0.720501 0.238121 0.500000
O O6 0.779927 0.320061 0.367746
O O7 0.000000 0.234786 0.401058
O O8 0.500000 0.326165 0.100474
O O9 0.227456 0.357384 0.192886
O O10 0.222834 0.329822 0.000000
O O11 0.000000 0.068235 0.111708
O O12 0.266658 0.000000 0.140911
O O13 0.260767 0.075419 0.000000
O O14 0.500000 0.638108 0.297235
O O15 0.260048 0.560918 0.337027
O O16 0.274859 0.500000 0.500000
O O17 0.000000 0.500000 0.602405
#
# Coordination Sequence:
#
# PCOD9385100 Si02
#       6
#     8   8   8   8   8   4
#     4   9  16  26  43  65  86 113 151 187 216 256
#     4   9  17  29  44  63  89 117 143 178 226 268
#     4   9  18  32  48  67  93 120 143 174 219 263
#     4   8  13  21  35  58  86 112 141 181 224 260
#     4  10  20  33  50  71  91 114 147 181 212 254
#     4  11  23  37  52  69  92 120 145 175 220 263
#
# _framework density 18.358657000000001
#
# number of rings (size 3 to 8) (size 9 to 14) (size 15 to 20)
#    0.000    2.818    0.000    2.455    0.000    5.091 
#    0.000    0.455    0.000    3.818    0.000    6.364 
#    0.000    0.000    0.000    9.091    0.000    9.818 
#
# Total GULP energy -245289.765516 kJ/mol
# GULP energy per Si atom -5574.767398 kJ/mol
# Density = 1.831687 g / cm^3
# Si number density = 18.358657 Si / 1000 Ang^3
#
#
#
# Elastic Constant Matrix: (Units=GPa)
#
#
# Indices 1 2 3 4 5 6 
#
# 1 28.7078 -13.1934 0.6485 0.0000 0.0000 0.0000
# 2 -13.1934 133.0668 69.4860 0.0000 0.0000 0.0000
# 3 0.6485 69.4860 140.0375 0.0000 0.0000 0.0000
# 4 0.0000 0.0000 0.0000 16.9703 0.0000 0.0000
# 5 0.0000 0.0000 0.0000 0.0000 12.9442 0.0000
# 6 0.0000 0.0000 0.0000 0.0000 0.0000 -82.6052
#
#
#
# Elastic Compliance Matrix: (Units=1/GPa)
#
#
# Indices 1 2 3 4 5 6 
#
# 1 0.037241 0.005105 -0.002706 0.000000 0.000000 0.000000
# 2 0.005105 0.010843 -0.005404 0.000000 0.000000 0.000000
# 3 -0.002706 -0.005404 0.009835 0.000000 0.000000 0.000000
# 4 0.000000 0.000000 0.000000 0.058927 0.000000 0.000000
# 5 0.000000 0.000000 0.000000 0.000000 0.077255 0.000000
# 6 0.000000 0.000000 0.000000 0.000000 0.000000 -0.012106
#
#
# Mechanical properties :
#
#
# Convention : Reuss Voigt Hill
#
# Bulk Modulus (GPa) = 19.26396 46.18825 32.72610
# Shear Modulus (GPa) = 24.35384 5.78661 15.07022
#
# Velocity S-wave (km/s) = 3.64615 1.77731 2.86821
# Velocity P-wave (km/s) = 5.31430 5.42450 5.36968
#
# Compressibility (1/GPa) = 0.05191042
#
# Stress axis : x y z
#
# Youngs Moduli (GPa) = 26.85206 92.22481 101.67901
#
# Poissons Ratio (x) = -0.47083 0.27511
# Poissons Ratio (y) = -0.13709 0.54947
# Poissons Ratio (z) = 0.07265 0.49838
#
# Static dielectric constant tensor:
#      x y z
#    x 1.680120 0.000000 0.000000 
#    y 0.000000 1.619820 0.000000 
#    z 0.000000 0.000000 1.663780 
# 
# From -- ./inp_files/21302.got.cif
#   From: 2010.05.17/outbox.cif.g08.bks.cpg/sg47_11_cif.got.tgz:21302.got - 2010.06.03 20:15:42.
