data_PCOD9385968
_publ_section_title
;
Structure prediction by ZEFSAII (Michael W. Deem and Ramdas Pophale) SiO2 
 PCOD9385968
Probable space group: P M M M
;
_chemical_formula_sum "Si O2"
_cell_formula_units_Z 56
_cell_length_a 14.513106
_cell_length_b 22.785809
_cell_length_c 9.660655
_cell_angle_alpha 90.000000
_cell_angle_beta 90.000000
_cell_angle_gamma 90.000000
_cell_volume 3194.709644
_symmetry_space_group_name_H-M "P M M M"
_symmetry_group_IT_number 47
_symmetry_cell_setting 'orthorhombic'
loop_
_space_group_symop_operation_xyz
x,y,z
-x,-y,z
x,-y,-z
-x,y,-z
-x,-y,-z
x,y,-z
-x,y,z
x,-y,z
loop_
_atom_site_type_symbol
_atom_site_label
_atom_site_fract_x
_atom_site_fract_y
_atom_site_fract_z
Si Si1 0.500000 0.071484 0.346553
Si Si2 0.000000 0.067266 0.168527
Si Si3 0.338298 0.067737 0.152468
Si Si4 0.390435 0.679888 0.165759
Si Si5 0.164437 0.848523 0.841530
Si Si6 0.770831 0.260329 0.336240
Si Si7 0.731362 0.566378 0.836027
Si Si8 0.108232 0.377823 0.662764
O O1 0.500000 0.094174 0.500000
O O2 0.410000 0.088675 0.264696
O O3 0.500000 0.000000 0.347717
O O4 0.913454 0.106668 0.208778
O O5 0.000000 0.000000 0.218607
O O6 0.000000 0.063910 0.000000
O O7 0.253841 0.110920 0.150668
O O8 0.310087 0.000000 0.179367
O O9 0.382338 0.067871 0.000000
O O10 0.500000 0.683337 0.197223
O O11 0.323495 0.721692 0.255955
O O12 0.347518 0.614929 0.192405
O O13 0.379786 0.691949 0.000000
O O14 0.184458 0.795055 0.740417
O O15 0.142540 0.828618 0.000000
O O16 0.754180 0.250638 0.500000
O O17 0.843920 0.313881 0.323664
O O18 0.701075 0.500000 0.805052
O O19 0.824265 0.581325 0.752264
O O20 0.751257 0.570429 0.000000
O O21 0.112721 0.393928 0.500000
O O22 0.000000 0.377894 0.703101
#
# Coordination Sequence:
#
# PCOD9385968 Si02
#       8
#     4   4   8   8   8   8   8   8
#     4   9  17  29  47  71  97 125 159 201 246 293
#     4   9  18  34  57  85 113 139 172 217 266 317
#     4   9  17  31  51  73  99 132 167 203 249 308
#     4   9  18  35  58  80 106 142 180 220 265 315
#     4  10  20  34  54  80 106 135 172 215 262 314
#     4  10  21  36  54  76 104 138 177 223 269 314
#     4   9  18  32  51  80 114 141 172 217 267 318
#     4   9  19  35  53  72  99 141 185 221 261 310
#
# _framework density 17.528977999999999
#
# number of rings (size 3 to 8) (size 9 to 14) (size 15 to 20)
#    0.000    2.714    0.000    1.071    1.000    5.143 
#    1.286    2.857    0.000    1.714    0.000    4.000 
#    0.000    0.000    0.000    0.000    0.000    0.000 
#
# Total GULP energy -311944.213240 kJ/mol
# GULP energy per Si atom -5570.432379 kJ/mol
# Density = 1.748908 g / cm^3
# Si number density = 17.528978 Si / 1000 Ang^3
#
#
#
# Elastic Constant Matrix: (Units=GPa)
#
#
# Indices 1 2 3 4 5 6 
#
# 1 103.8012 34.7252 45.0329 0.0000 0.0000 0.0000
# 2 34.7252 91.9985 46.5652 0.0000 0.0000 0.0000
# 3 45.0329 46.5652 72.5184 0.0000 0.0000 0.0000
# 4 0.0000 0.0000 0.0000 22.7250 0.0000 0.0000
# 5 0.0000 0.0000 0.0000 0.0000 21.6479 0.0000
# 6 0.0000 0.0000 0.0000 0.0000 0.0000 14.7421
#
#
#
# Elastic Compliance Matrix: (Units=1/GPa)
#
#
# Indices 1 2 3 4 5 6 
#
# 1 0.013281 -0.001242 -0.007450 0.000000 0.000000 0.000000
# 2 -0.001242 0.016220 -0.009643 0.000000 0.000000 0.000000
# 3 -0.007450 -0.009643 0.024608 0.000000 0.000000 0.000000
# 4 0.000000 0.000000 0.000000 0.044004 0.000000 0.000000
# 5 0.000000 0.000000 0.000000 0.000000 0.046194 0.000000
# 6 0.000000 0.000000 0.000000 0.000000 0.000000 0.067833
#
#
# Mechanical properties :
#
#
# Convention : Reuss Voigt Hill
#
# Bulk Modulus (GPa) = 57.34635 57.88498 57.61567
# Shear Modulus (GPa) = 19.63675 21.28930 20.46303
#
# Velocity S-wave (km/s) = 3.35064 3.48878 3.42040
# Velocity P-wave (km/s) = 6.91051 7.02303 6.96700
#
# Compressibility (1/GPa) = 0.01743790
#
# Stress axis : x y z
#
# Youngs Moduli (GPa) = 75.29295 61.65326 40.63704
#
# Poissons Ratio (x) = 0.07660 0.30274
# Poissons Ratio (y) = 0.09354 0.39188
# Poissons Ratio (z) = 0.56092 0.59455
#
# Static dielectric constant tensor:
#      x y z
#    x 1.566730 0.000000 0.000000 
#    y 0.000000 1.606780 0.000000 
#    z 0.000000 0.000000 1.599430 
# 
# From -- ./inp_files/7416.got.cif
#   From: 2010.05.17/outbox.cif.g08.bks.cpg/sg47_4_cif.got.tgz:7416.got - 2010.06.03 20:15:42.
