data_PCOD9385640
_publ_section_title
;
Structure prediction by ZEFSAII (Michael W. Deem and Ramdas Pophale) SiO2 
 PCOD9385640
Probable space group: P M M M
;
_chemical_formula_sum "Si O2"
_cell_formula_units_Z 45
_cell_length_a 14.552705
_cell_length_b 22.287643
_cell_length_c 7.496865
_cell_angle_alpha 90.000000
_cell_angle_beta 90.000000
_cell_angle_gamma 90.000000
_cell_volume 2431.574380
_symmetry_space_group_name_H-M "P M M M"
_symmetry_group_IT_number 47
_symmetry_cell_setting 'orthorhombic'
loop_
_space_group_symop_operation_xyz
x,y,z
-x,-y,z
x,-y,-z
-x,y,-z
-x,-y,-z
x,y,-z
-x,y,z
x,-y,z
loop_
_atom_site_type_symbol
_atom_site_label
_atom_site_fract_x
_atom_site_fract_y
_atom_site_fract_z
Si Si1 0.102790 0.387837 0.715717
Si Si2 0.601535 0.875922 0.000000
Si Si3 0.298495 0.564972 0.791491
Si Si4 0.392664 0.686436 0.783683
Si Si5 0.897431 0.248922 0.282881
Si Si6 0.500000 0.000000 0.000000
Si Si7 0.288244 0.808207 0.295597
O O1 0.103884 0.389135 0.500000
O O2 0.188911 0.425733 0.779336
O O3 0.116713 0.318304 0.772033
O O4 0.000000 0.406483 0.772281
O O5 0.657123 0.853681 0.171228
O O6 0.500000 0.845152 0.000000
O O7 0.578374 0.946093 0.000000
O O8 0.323146 0.500000 0.713618
O O9 0.346395 0.624664 0.718173
O O10 0.324029 0.563466 0.000000
O O11 0.500000 0.687594 0.738860
O O12 0.340730 0.744412 0.710636
O O13 0.384076 0.689153 0.000000
O O14 0.895502 0.249478 0.500000
O O15 0.814076 0.206964 0.226417
O O16 0.000000 0.230827 0.227450
O O17 0.284047 0.828946 0.500000
#
# Coordination Sequence:
#
# PCOD9385640 Si02
#       7
#     8   4   8   8   8   1   8
#     4   9  17  31  49  66  90 129 174 221 282 350
#     4  10  22  42  61  87 124 161 193 226 269 324
#     4  10  21  34  47  65  93 133 183 236 291 349
#     4  10  20  34  51  72 102 138 181 239 293 345
#     4   8  15  29  50  79 114 145 178 233 297 347
#     4   8  24  48  66  84 134 178 186 228 278 296
#     4  11  20  33  60  91 117 151 194 239 285 337
#
# _framework density 18.506529
#
# number of rings (size 3 to 8) (size 9 to 14) (size 15 to 20)
#    0.267    2.133    2.667    1.600    0.000    2.844 
#    0.000    4.889    0.000    0.000    0.000    3.733 
#    0.000    2.844    0.000    0.000    0.000    0.000 
#
# Total GULP energy -250848.971633 kJ/mol
# GULP energy per Si atom -5574.421592 kJ/mol
# Density = 1.846441 g / cm^3
# Si number density = 18.506529 Si / 1000 Ang^3
#
#
#
# Elastic Constant Matrix: (Units=GPa)
#
#
# Indices 1 2 3 4 5 6 
#
# 1 101.6663 47.3170 13.5515 0.0000 0.0000 0.0000
# 2 47.3170 110.5584 22.2929 0.0000 0.0000 0.0000
# 3 13.5515 22.2929 64.8736 0.0000 0.0000 0.0000
# 4 0.0000 0.0000 0.0000 -32.0600 0.0000 0.0000
# 5 0.0000 0.0000 0.0000 0.0000 17.4033 0.0000
# 6 0.0000 0.0000 0.0000 0.0000 0.0000 15.5803
#
#
#
# Elastic Compliance Matrix: (Units=1/GPa)
#
#
# Indices 1 2 3 4 5 6 
#
# 1 0.012323 -0.005109 -0.000819 0.000000 0.000000 0.000000
# 2 -0.005109 0.011837 -0.003000 0.000000 0.000000 0.000000
# 3 -0.000819 -0.003000 0.016617 0.000000 0.000000 0.000000
# 4 0.000000 0.000000 0.000000 -0.031192 0.000000 0.000000
# 5 0.000000 0.000000 0.000000 0.000000 0.057460 0.000000
# 6 0.000000 0.000000 0.000000 0.000000 0.000000 0.064183
#
#
# Mechanical properties :
#
#
# Convention : Reuss Voigt Hill
#
# Bulk Modulus (GPa) = 43.62890 49.26901 46.44895
# Shear Modulus (GPa) = 31.90319 13.11385 22.50852
#
# Velocity S-wave (km/s) = 4.15648 2.66485 3.49126
# Velocity P-wave (km/s) = 6.83089 6.01240 6.43467
#
# Compressibility (1/GPa) = 0.02292059
#
# Stress axis : x y z
#
# Youngs Moduli (GPa) = 81.14908 84.48442 60.18092
#
# Poissons Ratio (x) = 0.43163 0.04926
# Poissons Ratio (y) = 0.41459 0.18056
# Poissons Ratio (z) = 0.06642 0.25347
#
# Static dielectric constant tensor:
#      x y z
#    x 1.652080 0.000000 0.000000 
#    y 0.000000 1.602340 0.000000 
#    z 0.000000 0.000000 1.706740 
# 
# From -- ./inp_files/6888.got.cif
#   From: 2010.05.17/outbox.cif.g08.bks.cpg/sg47_4_cif.got.tgz:6888.got - 2010.06.03 20:15:42.
