data_PCOD9385716
_publ_section_title
;
Structure prediction by ZEFSAII (Michael W. Deem and Ramdas Pophale) SiO2 
 PCOD9385716
Probable space group: P M M M
;
_chemical_formula_sum "Si O2"
_cell_formula_units_Z 44
_cell_length_a 14.078326
_cell_length_b 9.017150
_cell_length_c 18.958194
_cell_angle_alpha 90.000000
_cell_angle_beta 90.000000
_cell_angle_gamma 90.000000
_cell_volume 2406.674048
_symmetry_space_group_name_H-M "P M M M"
_symmetry_group_IT_number 47
_symmetry_cell_setting 'orthorhombic'
loop_
_space_group_symop_operation_xyz
x,y,z
-x,-y,z
x,-y,-z
-x,y,-z
-x,-y,-z
x,y,-z
-x,y,z
x,-y,z
loop_
_atom_site_type_symbol
_atom_site_label
_atom_site_fract_x
_atom_site_fract_y
_atom_site_fract_z
Si Si1 0.115525 0.830081 0.078758
Si Si2 0.384070 0.171156 0.000000
Si Si3 0.610322 0.180336 0.421868
Si Si4 0.614797 0.673679 0.853875
Si Si5 0.888040 0.674234 0.778494
Si Si6 0.714525 0.177539 0.719634
O O1 0.140943 0.722331 0.142159
O O2 0.000000 0.831100 0.076538
O O3 0.145158 0.000000 0.094070
O O4 0.147907 0.789476 0.000000
O O5 0.354683 0.250600 0.927504
O O6 0.500000 0.174005 0.000000
O O7 0.354049 0.000000 0.000000
O O8 0.642635 0.229040 0.500000
O O9 0.500000 0.223364 0.413464
O O10 0.669816 0.229014 0.354390
O O11 0.612553 0.000000 0.421970
O O12 0.500000 0.685364 0.850139
O O13 0.639689 0.500000 0.854221
O O14 0.658469 0.752921 0.785756
O O15 0.872477 0.500000 0.768918
O O16 0.822316 0.768371 0.727189
O O17 0.000000 0.705320 0.770334
O O18 0.708419 0.000000 0.723844
#
# Coordination Sequence:
#
# PCOD9385716 Si02
#       6
#     8   4   8   8   8   8
#     4   8  14  27  48  71  94 122 161 214 272 322
#     4   9  17  31  51  73 100 137 182 227 267 309
#     4   8  15  30  54  85 117 142 165 203 260 321
#     4  10  20  34  52  75 107 144 178 216 264 317
#     4  10  21  36  52  71 100 139 181 224 272 324
#     4  11  21  33  54  82 108 137 177 222 266 318
#
# _framework density 18.282492000000001
#
# number of rings (size 3 to 8) (size 9 to 14) (size 15 to 20)
#    0.000    2.636    0.000    3.545    0.000    4.364 
#    1.636    1.818    0.000    2.727    0.000   10.182 
#    0.000    0.000    0.000    0.000    0.000    0.000 
#
# Total GULP energy -245640.305837 kJ/mol
# GULP energy per Si atom -5582.734224 kJ/mol
# Density = 1.824088 g / cm^3
# Si number density = 18.282492 Si / 1000 Ang^3
#
#
#
# Elastic Constant Matrix: (Units=GPa)
#
#
# Indices 1 2 3 4 5 6 
#
# 1 63.7112 38.0997 60.4033 0.0000 0.0000 0.0000
# 2 38.0997 79.6339 63.8441 0.0000 0.0000 0.0000
# 3 60.4033 63.8441 163.7468 0.0000 0.0000 0.0000
# 4 0.0000 0.0000 0.0000 -11.3081 0.0000 0.0000
# 5 0.0000 0.0000 0.0000 0.0000 28.5742 0.0000
# 6 0.0000 0.0000 0.0000 0.0000 0.0000 23.9589
#
#
#
# Elastic Compliance Matrix: (Units=1/GPa)
#
#
# Indices 1 2 3 4 5 6 
#
# 1 0.026622 -0.007075 -0.007062 0.000000 0.000000 0.000000
# 2 -0.007075 0.020148 -0.005246 0.000000 0.000000 0.000000
# 3 -0.007062 -0.005246 0.010757 0.000000 0.000000 0.000000
# 4 0.000000 0.000000 0.000000 -0.088433 0.000000 0.000000
# 5 0.000000 0.000000 0.000000 0.000000 0.034997 0.000000
# 6 0.000000 0.000000 0.000000 0.000000 0.000000 0.041738
#
#
# Mechanical properties :
#
#
# Convention : Reuss Voigt Hill
#
# Bulk Modulus (GPa) = 53.29989 70.19846 61.74918
# Shear Modulus (GPa) = 55.03613 17.89464 36.46538
#
# Velocity S-wave (km/s) = 5.49259 3.13195 4.47089
# Velocity P-wave (km/s) = 8.33316 7.18044 7.77818
#
# Compressibility (1/GPa) = 0.01876177
#
# Stress axis : x y z
#
# Youngs Moduli (GPa) = 37.56283 49.63228 92.96093
#
# Poissons Ratio (x) = 0.35117 0.65646
# Poissons Ratio (y) = 0.26577 0.48764
# Poissons Ratio (z) = 0.26526 0.26036
#
# Static dielectric constant tensor:
#      x y z
#    x 1.681140 0.000000 0.000000 
#    y 0.000000 1.608340 0.000000 
#    z 0.000000 0.000000 1.611260 
# 
# From -- ./inp_files/8954.got.cif
#   From: 2010.05.17/outbox.cif.g08.bks.cpg/sg47_5_cif.got.tgz:8954.got - 2010.06.03 20:15:42.
