data_PCOD9385014
_publ_section_title
;
Structure prediction by ZEFSAII (Michael W. Deem and Ramdas Pophale) SiO2 
 PCOD9385014
Probable space group: P M M M
;
_chemical_formula_sum "Si O2"
_cell_formula_units_Z 44
_cell_length_a 7.647501
_cell_length_b 30.002419
_cell_length_c 9.420305
_cell_angle_alpha 90.000000
_cell_angle_beta 90.000000
_cell_angle_gamma 90.000000
_cell_volume 2161.428026
_symmetry_space_group_name_H-M "P M M M"
_symmetry_group_IT_number 47
_symmetry_cell_setting 'orthorhombic'
loop_
_space_group_symop_operation_xyz
x,y,z
-x,-y,z
x,-y,-z
-x,y,-z
-x,-y,-z
x,y,-z
-x,y,z
x,-y,z
loop_
_atom_site_type_symbol
_atom_site_label
_atom_site_fract_x
_atom_site_fract_y
_atom_site_fract_z
Si Si1 0.786082 0.145095 0.165136
Si Si2 0.214406 0.767919 0.663048
Si Si3 0.792088 0.500000 0.338315
Si Si4 0.790589 0.047909 0.828797
Si Si5 0.706264 0.402935 0.662015
Si Si6 0.206909 0.683239 0.159386
O O1 0.730269 0.186842 0.258584
O O2 0.725632 0.096360 0.219191
O O3 0.000000 0.144289 0.166113
O O4 0.734797 0.150708 0.000000
O O5 0.270346 0.766394 0.500000
O O6 0.276430 0.724498 0.748642
O O7 0.000000 0.767716 0.663037
O O8 0.718462 0.500000 0.500000
O O9 0.738946 0.547608 0.276308
O O10 0.000000 0.500000 0.345299
O O11 0.000000 0.047339 0.803256
O O12 0.720559 0.000000 0.776714
O O13 0.768182 0.048331 0.000000
O O14 0.779715 0.401292 0.500000
O O15 0.500000 0.397038 0.651762
O O16 0.773652 0.363109 0.758182
O O17 0.000000 0.691455 0.146887
O O18 0.280155 0.681294 0.000000
#
# Coordination Sequence:
#
# PCOD9385014 Si02
#       6
#     8   8   4   8   8   8
#     4   8  12  18  29  45  66  93 128 173 222 269
#     4   9  16  25  38  56  78 105 139 182 231 280
#     4   9  17  31  54  81 106 133 164 196 228 265
#     4   7   9  13  22  37  57  84 122 167 212 259
#     4  10  20  34  53  77 104 132 161 193 231 276
#     4  10  20  33  49  69  93 122 158 199 240 281
#
# _framework density 20.356912999999999
#
# number of rings (size 3 to 8) (size 9 to 14) (size 15 to 20)
#    0.000    3.182    0.000    3.545    0.000    5.455 
#    0.000    0.455    0.000    3.273    0.000    3.818 
#    0.000    0.000    0.000    0.000    0.000    0.909 
#
# Total GULP energy -245181.707436 kJ/mol
# GULP energy per Si atom -5572.311533 kJ/mol
# Density = 2.031058 g / cm^3
# Si number density = 20.356913 Si / 1000 Ang^3
#
#
#
# Elastic Constant Matrix: (Units=GPa)
#
#
# Indices 1 2 3 4 5 6 
#
# 1 36.9149 -2.7443 5.1799 0.0000 0.0000 0.0000
# 2 -2.7443 240.4284 104.1771 0.0000 0.0000 0.0000
# 3 5.1799 104.1771 108.3088 0.0000 0.0000 0.0000
# 4 0.0000 0.0000 0.0000 33.9096 0.0000 0.0000
# 5 0.0000 0.0000 0.0000 0.0000 -1.9096 0.0000
# 6 0.0000 0.0000 0.0000 0.0000 0.0000 -39.8339
#
#
#
# Elastic Compliance Matrix: (Units=1/GPa)
#
#
# Indices 1 2 3 4 5 6 
#
# 1 0.027593 0.001520 -0.002782 0.000000 0.000000 0.000000
# 2 0.001520 0.007215 -0.007013 0.000000 0.000000 0.000000
# 3 -0.002782 -0.007013 0.016111 0.000000 0.000000 0.000000
# 4 0.000000 0.000000 0.000000 0.029490 0.000000 0.000000
# 5 0.000000 0.000000 0.000000 0.000000 -0.523665 0.000000
# 6 0.000000 0.000000 0.000000 0.000000 0.000000 -0.025104
#
#
# Mechanical properties :
#
#
# Convention : Reuss Voigt Hill
#
# Bulk Modulus (GPa) = 29.09482 66.54193 47.81837
# Shear Modulus (GPa) = -11.35448 17.03586 2.84069
#
# Velocity S-wave (km/s) = -2.36428 2.89599 1.18257
# Velocity P-wave (km/s) = 2.62113 6.62880 5.04040
#
# Compressibility (1/GPa) = 0.03437038
#
# Stress axis : x y z
#
# Youngs Moduli (GPa) = 36.24148 138.59719 62.06927
#
# Poissons Ratio (x) = -0.21072 0.17268
# Poissons Ratio (y) = -0.05510 0.43527
# Poissons Ratio (z) = 0.10082 0.97193
#
# Static dielectric constant tensor:
#      x y z
#    x 1.762480 0.000000 0.000000 
#    y 0.000000 1.752310 0.000000 
#    z 0.000000 0.000000 1.707950 
# 
# From -- ./inp_files/2105.got.cif
#   From: 2010.05.17/outbox.cif.g08.bks.cpg/sg47_2_cif.got.tgz:2105.got - 2010.06.03 20:15:42.
