data_PCOD9385095
_publ_section_title
;
Structure prediction by ZEFSAII (Michael W. Deem and Ramdas Pophale) SiO2 
 PCOD9385095
Probable space group: P M M M
;
_chemical_formula_sum "Si O2"
_cell_formula_units_Z 64
_cell_length_a 7.982154
_cell_length_b 14.903413
_cell_length_c 32.801469
_cell_angle_alpha 90.000000
_cell_angle_beta 90.000000
_cell_angle_gamma 90.000000
_cell_volume 3902.106630
_symmetry_space_group_name_H-M "P M M M"
_symmetry_group_IT_number 47
_symmetry_cell_setting 'orthorhombic'
loop_
_space_group_symop_operation_xyz
x,y,z
-x,-y,z
x,-y,-z
-x,y,-z
-x,-y,-z
x,y,-z
-x,y,z
x,-y,z
loop_
_atom_site_type_symbol
_atom_site_label
_atom_site_fract_x
_atom_site_fract_y
_atom_site_fract_z
Si Si1 0.701206 0.395649 0.543967
Si Si2 0.797662 0.395796 0.720074
Si Si3 0.294789 0.710900 0.044963
Si Si4 0.697260 0.900790 0.925218
Si Si5 0.705042 0.396949 0.875335
Si Si6 0.802281 0.100006 0.833065
Si Si7 0.698960 0.281454 0.202019
Si Si8 0.798945 0.603645 0.630565
O O1 0.757937 0.357512 0.500000
O O2 0.500000 0.397408 0.543321
O O3 0.760292 0.500000 0.544574
O O4 0.750477 0.353680 0.587307
O O5 0.742430 0.500000 0.725623
O O6 0.740821 0.332801 0.756544
O O7 0.742525 0.362588 0.674973
O O8 0.000000 0.397267 0.720261
O O9 0.500000 0.712218 0.046100
O O10 0.235237 0.813040 0.052426
O O11 0.240861 0.649356 0.082575
O O12 0.244996 0.679631 0.000000
O O13 0.500000 0.905028 0.935098
O O14 0.714144 0.884406 0.876664
O O15 0.769705 0.000000 0.933890
O O16 0.500000 0.396468 0.874944
O O17 0.758707 0.500000 0.872422
O O18 0.763165 0.339370 0.836557
O O19 0.764928 0.180604 0.802563
O O20 0.000000 0.099518 0.841409
O O21 0.753497 0.000000 0.818703
O O22 0.500000 0.276637 0.198132
O O23 0.738312 0.500000 0.629404
O O24 0.000000 0.601918 0.631382
#
# Coordination Sequence:
#
# PCOD9385095 Si02
#       8
#     8   8   8   8   8   8   8   8
#     4   8  13  20  30  46  69  98 135 181 228 267
#     4   9  18  31  44  61  88 119 150 185 224 263
#     4   9  16  26  41  63  89 114 139 167 205 251
#     4   9  16  28  46  67  90 111 133 166 207 249
#     4   9  17  28  41  61  88 112 137 173 210 242
#     4  10  20  33  50  70  89 110 136 166 206 258
#     4  11  20  31  48  68  89 112 141 178 217 258
#     4   8  14  24  36  50  72 104 141 181 221 259
#
# _framework density 16.401396999999999
#
# number of rings (size 3 to 8) (size 9 to 14) (size 15 to 20)
#    0.000    2.875    1.250    2.250    0.000    2.750 
#    0.000    5.000    0.000    0.375    0.000    1.750 
#    0.000    1.000    0.000    0.000    0.000    0.625 
#
# Total GULP energy -356379.964172 kJ/mol
# GULP energy per Si atom -5568.436940 kJ/mol
# Density = 1.636407 g / cm^3
# Si number density = 16.401397 Si / 1000 Ang^3
#
#
#
# Elastic Constant Matrix: (Units=GPa)
#
#
# Indices 1 2 3 4 5 6 
#
# 1 13.0645 5.8483 4.8510 0.0000 0.0000 0.0000
# 2 5.8483 75.7340 52.3416 0.0000 0.0000 0.0000
# 3 4.8510 52.3416 140.6193 0.0000 0.0000 0.0000
# 4 0.0000 0.0000 0.0000 4.3811 0.0000 0.0000
# 5 0.0000 0.0000 0.0000 0.0000 30.5082 0.0000
# 6 0.0000 0.0000 0.0000 0.0000 0.0000 10.0688
#
#
#
# Elastic Compliance Matrix: (Units=1/GPa)
#
#
# Indices 1 2 3 4 5 6 
#
# 1 0.079324 -0.005701 -0.000615 0.000000 0.000000 0.000000
# 2 -0.005701 0.018187 -0.006573 0.000000 0.000000 0.000000
# 3 -0.000615 -0.006573 0.009579 0.000000 0.000000 0.000000
# 4 0.000000 0.000000 0.000000 0.228253 0.000000 0.000000
# 5 0.000000 0.000000 0.000000 0.000000 0.032778 0.000000
# 6 0.000000 0.000000 0.000000 0.000000 0.000000 0.099317
#
#
# Mechanical properties :
#
#
# Convention : Reuss Voigt Hill
#
# Bulk Modulus (GPa) = 12.29810 39.49994 25.89902
# Shear Modulus (GPa) = 9.60949 20.08341 14.84645
#
# Velocity S-wave (km/s) = 2.42315 3.50307 3.01191
# Velocity P-wave (km/s) = 3.91706 6.36377 5.28398
#
# Compressibility (1/GPa) = 0.08131338
#
# Stress axis : x y z
#
# Youngs Moduli (GPa) = 12.60660 54.98407 104.39274
#
# Poissons Ratio (x) = 0.31345 0.06415
# Poissons Ratio (y) = 0.07187 0.68617
# Poissons Ratio (z) = 0.00775 0.36141
#
# Static dielectric constant tensor:
#      x y z
#    x 1.595340 0.000000 0.000000 
#    y 0.000000 1.543240 0.000000 
#    z 0.000000 0.000000 1.586430 
# 
# From -- ./inp_files/34422.got.cif
#   From: 2010.05.17/outbox.cif.g08.bks.cpg/sg47_18_cif.got.tgz:34422.got - 2010.06.03 20:15:42.
