data_PCOD9385744
_publ_section_title
;
Structure prediction by ZEFSAII (Michael W. Deem and Ramdas Pophale) SiO2 
 PCOD9385744
Probable space group: P M M M
;
_chemical_formula_sum "Si O2"
_cell_formula_units_Z 64
_cell_length_a 20.996680
_cell_length_b 8.948079
_cell_length_c 18.162174
_cell_angle_alpha 90.000000
_cell_angle_beta 90.000000
_cell_angle_gamma 90.000000
_cell_volume 3412.308368
_symmetry_space_group_name_H-M "P M M M"
_symmetry_group_IT_number 47
_symmetry_cell_setting 'orthorhombic'
loop_
_space_group_symop_operation_xyz
x,y,z
-x,-y,z
x,-y,-z
-x,y,-z
-x,-y,-z
x,y,-z
-x,y,z
x,-y,z
loop_
_atom_site_type_symbol
_atom_site_label
_atom_site_fract_x
_atom_site_fract_y
_atom_site_fract_z
Si Si1 0.704125 0.676021 0.086895
Si Si2 0.747809 0.168672 0.334481
Si Si3 0.575119 0.163867 0.580839
Si Si4 0.142235 0.680050 0.416587
Si Si5 0.817717 0.831397 0.179031
Si Si6 0.618865 0.671619 0.711589
Si Si7 0.427334 0.179220 0.143058
Si Si8 0.926545 0.319971 0.263667
O O1 0.701322 0.500000 0.105851
O O2 0.762762 0.751179 0.130957
O O3 0.634685 0.748529 0.104010
O O4 0.715869 0.690977 0.000000
O O5 0.788997 0.251779 0.396202
O O6 0.789642 0.157623 0.261120
O O7 0.688020 0.261702 0.305373
O O8 0.732217 0.000000 0.357956
O O9 0.604526 0.181298 0.500000
O O10 0.500000 0.154567 0.572979
O O11 0.586761 0.300981 0.633602
O O12 0.594907 0.000000 0.611357
O O13 0.122563 0.724630 0.500000
O O14 0.145990 0.500000 0.415773
O O15 0.097697 0.723149 0.346592
O O16 0.883000 0.744862 0.197680
O O17 0.828323 0.000000 0.150799
O O18 0.620716 0.500000 0.734180
O O19 0.582463 0.767593 0.772932
O O20 0.500000 0.221575 0.119023
O O21 0.422728 0.000000 0.137437
O O22 0.921822 0.500000 0.260688
O O23 0.000000 0.275594 0.255663
#
# Coordination Sequence:
#
# PCOD9385744 Si02
#       8
#     8   8   8   8   8   8   8   8
#     4  11  24  41  64  93 122 153 189 232 286 347
#     4  10  20  34  53  75 102 141 189 237 286 339
#     4   9  19  36  54  70  93 129 173 223 280 340
#     4   9  18  32  50  76 113 154 198 247 295 345
#     4  10  20  36  60  86 115 152 194 240 284 337
#     4  12  23  34  54  80 107 141 184 237 293 346
#     4  11  24  41  61  86 118 156 196 237 284 344
#     4   9  18  33  56  86 120 160 202 245 296 350
#
# _framework density 18.755633
#
# number of rings (size 3 to 8) (size 9 to 14) (size 15 to 20)
#    0.000    1.875    1.250    3.375    0.000    6.500 
#    0.000    3.125    0.000    0.375    0.000    6.125 
#    0.000    0.000    0.000    0.000    0.000    0.000 
#
# Total GULP energy -356484.652572 kJ/mol
# GULP energy per Si atom -5570.072696 kJ/mol
# Density = 1.871294 g / cm^3
# Si number density = 18.755633 Si / 1000 Ang^3
#
#
#
# Elastic Constant Matrix: (Units=GPa)
#
#
# Indices 1 2 3 4 5 6 
#
# 1 126.6713 47.1951 39.3371 0.0000 0.0000 0.0000
# 2 47.1951 75.4172 36.1637 0.0000 0.0000 0.0000
# 3 39.3371 36.1637 75.4662 0.0000 0.0000 0.0000
# 4 0.0000 0.0000 0.0000 21.9645 0.0000 0.0000
# 5 0.0000 0.0000 0.0000 0.0000 22.0826 0.0000
# 6 0.0000 0.0000 0.0000 0.0000 0.0000 25.0892
#
#
#
# Elastic Compliance Matrix: (Units=1/GPa)
#
#
# Indices 1 2 3 4 5 6 
#
# 1 0.010830 -0.005285 -0.003113 0.000000 0.000000 0.000000
# 2 -0.005285 0.019794 -0.006731 0.000000 0.000000 0.000000
# 3 -0.003113 -0.006731 0.018099 0.000000 0.000000 0.000000
# 4 0.000000 0.000000 0.000000 0.045528 0.000000 0.000000
# 5 0.000000 0.000000 0.000000 0.000000 0.045285 0.000000
# 6 0.000000 0.000000 0.000000 0.000000 0.000000 0.039858
#
#
# Mechanical properties :
#
#
# Convention : Reuss Voigt Hill
#
# Bulk Modulus (GPa) = 54.15157 58.10516 56.12836
# Shear Modulus (GPa) = 23.16902 24.15119 23.66010
#
# Velocity S-wave (km/s) = 3.51851 3.59231 3.55560
# Velocity P-wave (km/s) = 6.74102 6.94649 6.84453
#
# Compressibility (1/GPa) = 0.01846669
#
# Stress axis : x y z
#
# Youngs Moduli (GPa) = 92.33549 50.51995 55.25193
#
# Poissons Ratio (x) = 0.26698 0.17199
# Poissons Ratio (y) = 0.48796 0.37189
# Poissons Ratio (z) = 0.28742 0.34004
#
# Static dielectric constant tensor:
#      x y z
#    x 1.714340 0.000000 0.000000 
#    y 0.000000 1.676410 0.000000 
#    z 0.000000 0.000000 1.681850 
# 
# From -- ./inp_files/28814.got.cif
#   From: 2010.05.17/outbox.cif.g08.bks.cpg/sg47_15_cif.got.tgz:28814.got - 2010.06.03 20:15:42.
