data_PCOD9385788
_publ_section_title
;
Structure prediction by ZEFSAII (Michael W. Deem and Ramdas Pophale) SiO2 
 PCOD9385788
Probable space group: P M M M
;
_chemical_formula_sum "Si O2"
_cell_formula_units_Z 52
_cell_length_a 7.827079
_cell_length_b 14.941717
_cell_length_c 24.101888
_cell_angle_alpha 90.000000
_cell_angle_beta 90.000000
_cell_angle_gamma 90.000000
_cell_volume 2818.715786
_symmetry_space_group_name_H-M "P M M M"
_symmetry_group_IT_number 47
_symmetry_cell_setting 'orthorhombic'
loop_
_space_group_symop_operation_xyz
x,y,z
-x,-y,z
x,-y,-z
-x,y,-z
-x,-y,-z
x,y,-z
-x,y,z
x,-y,z
loop_
_atom_site_type_symbol
_atom_site_label
_atom_site_fract_x
_atom_site_fract_y
_atom_site_fract_z
Si Si1 0.208635 0.901279 0.728625
Si Si2 0.791984 0.098587 0.401321
Si Si3 0.198849 0.281319 0.223594
Si Si4 0.696949 0.608979 0.000000
Si Si5 0.792909 0.291874 0.560807
Si Si6 0.702299 0.397661 0.671339
Si Si7 0.703864 0.600981 0.119768
O O1 0.254778 0.892238 0.663652
O O2 0.273616 0.816549 0.762803
O O3 0.000000 0.899428 0.729513
O O4 0.262675 0.000000 0.747702
O O5 0.735430 0.188667 0.431509
O O6 0.000000 0.097650 0.404320
O O7 0.734378 0.000000 0.420897
O O8 0.217377 0.339975 0.279317
O O9 0.269535 0.334327 0.171241
O O10 0.000000 0.268796 0.212112
O O11 0.774237 0.633138 0.059890
O O12 0.694117 0.500000 0.000000
O O13 0.500000 0.641259 0.000000
O O14 0.739119 0.324729 0.500000
O O15 0.733061 0.350768 0.612332
O O16 0.000000 0.291805 0.562527
O O17 0.500000 0.399261 0.682036
O O18 0.765543 0.500000 0.671097
O O19 0.500000 0.593385 0.112130
O O20 0.768823 0.500000 0.131739
#
# Coordination Sequence:
#
# PCOD9385788 Si02
#       7
#     8   8   8   4   8   8   8
#     4   8  14  26  46  70  95 123 153 187 232 286
#     4   8  13  25  47  73  98 121 147 183 230 286
#     4  11  20  31  51  77 101 124 155 199 245 283
#     4   7  12  26  47  67  92 133 176 202 223 267
#     4  10  20  34  53  76  97 118 151 196 243 288
#     4  11  24  39  52  66  90 127 165 198 235 283
#     4   9  17  30  48  71 101 136 170 199 231 277
#
# _framework density 18.448117
#
# number of rings (size 3 to 8) (size 9 to 14) (size 15 to 20)
#    0.000    2.692    1.538    3.231    0.000    4.308 
#    0.000    3.462    0.000    4.615    0.000    1.615 
#    0.000    4.308    0.000    0.000    0.000    0.000 
#
# Total GULP energy -289871.244150 kJ/mol
# GULP energy per Si atom -5574.447003 kJ/mol
# Density = 1.840613 g / cm^3
# Si number density = 18.448117 Si / 1000 Ang^3
#
#
#
# Elastic Constant Matrix: (Units=GPa)
#
#
# Indices 1 2 3 4 5 6 
#
# 1 19.7177 -4.0104 -5.0405 0.0000 0.0000 0.0000
# 2 -4.0104 108.2977 50.6207 0.0000 0.0000 0.0000
# 3 -5.0405 50.6207 114.0597 0.0000 0.0000 0.0000
# 4 0.0000 0.0000 0.0000 14.9534 0.0000 0.0000
# 5 0.0000 0.0000 0.0000 0.0000 20.3055 0.0000
# 6 0.0000 0.0000 0.0000 0.0000 0.0000 25.3235
#
#
#
# Elastic Compliance Matrix: (Units=1/GPa)
#
#
# Indices 1 2 3 4 5 6 
#
# 1 0.051392 0.001062 0.001800 0.000000 0.000000 0.000000
# 2 0.001062 0.011673 -0.005133 0.000000 0.000000 0.000000
# 3 0.001800 -0.005133 0.011125 0.000000 0.000000 0.000000
# 4 0.000000 0.000000 0.000000 0.066874 0.000000 0.000000
# 5 0.000000 0.000000 0.000000 0.000000 0.049248 0.000000
# 6 0.000000 0.000000 0.000000 0.000000 0.000000 0.039489
#
#
# Mechanical properties :
#
#
# Convention : Reuss Voigt Hill
#
# Bulk Modulus (GPa) = 14.35833 36.13496 25.24664
# Shear Modulus (GPa) = 19.41296 25.48349 22.44822
#
# Velocity S-wave (km/s) = 3.24744 3.72070 3.49209
# Velocity P-wave (km/s) = 4.67559 6.17155 5.47490
#
# Compressibility (1/GPa) = 0.06964600
#
# Stress axis : x y z
#
# Youngs Moduli (GPa) = 19.45834 85.67043 89.88625
#
# Poissons Ratio (x) = -0.09097 -0.16178
# Poissons Ratio (y) = -0.02066 0.46143
# Poissons Ratio (z) = -0.03502 0.43979
#
# Static dielectric constant tensor:
#      x y z
#    x 1.696930 0.000000 0.000000 
#    y 0.000000 1.653710 0.000000 
#    z 0.000000 0.000000 1.638060 
# 
# From -- ./inp_files/29555.got.cif
#   From: 2010.05.17/outbox.cif.g08.bks.cpg/sg47_15_cif.got.tgz:29555.got - 2010.06.03 20:15:42.
