data_PCOD9385919
_publ_section_title
;
Structure prediction by ZEFSAII (Michael W. Deem and Ramdas Pophale) SiO2 
 PCOD9385919
Probable space group: P M M M
;
_chemical_formula_sum "Si O2"
_cell_formula_units_Z 44
_cell_length_a 30.288997
_cell_length_b 7.659686
_cell_length_c 9.276186
_cell_angle_alpha 90.000000
_cell_angle_beta 90.000000
_cell_angle_gamma 90.000000
_cell_volume 2152.114170
_symmetry_space_group_name_H-M "P M M M"
_symmetry_group_IT_number 47
_symmetry_cell_setting 'orthorhombic'
loop_
_space_group_symop_operation_xyz
x,y,z
-x,-y,z
x,-y,-z
-x,y,-z
-x,-y,-z
x,y,-z
-x,y,z
x,-y,z
loop_
_atom_site_type_symbol
_atom_site_label
_atom_site_fract_x
_atom_site_fract_y
_atom_site_fract_z
Si Si1 0.642176 0.791119 0.165800
Si Si2 0.000000 0.292063 0.662936
Si Si3 0.547456 0.290731 0.167203
Si Si4 0.738282 0.787102 0.168685
Si Si5 0.174460 0.214062 0.665844
Si Si6 0.088316 0.208852 0.837150
O O1 0.594783 0.752358 0.235670
O O2 0.689697 0.730742 0.224050
O O3 0.644730 0.000000 0.158847
O O4 0.640251 0.724078 0.000000
O O5 0.043874 0.240516 0.748520
O O6 0.000000 0.500000 0.653882
O O7 0.000000 0.220082 0.500000
O O8 0.500000 0.230425 0.228738
O O9 0.545938 0.500000 0.162365
O O10 0.548676 0.226891 0.000000
O O11 0.780172 0.727427 0.259411
O O12 0.739072 0.000000 0.172114
O O13 0.742295 0.738020 0.000000
O O14 0.171952 0.268150 0.500000
O O15 0.131603 0.274287 0.753965
O O16 0.174452 0.000000 0.667663
O O17 0.093465 0.000000 0.847086
O O18 0.085099 0.278062 0.000000
#
# Coordination Sequence:
#
# PCOD9385919 Si02
#       6
#     8   4   8   8   8   8
#     4   8  13  20  31  48  70  99 134 168 203 248
#     4  11  24  39  54  74 102 135 166 197 238 284
#     4   8  13  20  29  43  67  99 131 164 206 254
#     4   8  13  22  36  55  81 111 142 177 217 261
#     4   9  16  26  43  68  95 121 150 186 228 272
#     4  10  20  34  54  79 103 128 162 202 239 276
#
# _framework density 20.445011000000001
#
# number of rings (size 3 to 8) (size 9 to 14) (size 15 to 20)
#    0.000    3.182    0.000    3.273    0.000    5.455 
#    0.000    1.818    0.000    1.091    0.000    2.545 
#    0.000    0.727    0.000    9.091    0.000   10.545 
#
# Total GULP energy -245094.731441 kJ/mol
# GULP energy per Si atom -5570.334805 kJ/mol
# Density = 2.039848 g / cm^3
# Si number density = 20.445011 Si / 1000 Ang^3
#
#
#
# Elastic Constant Matrix: (Units=GPa)
#
#
# Indices 1 2 3 4 5 6 
#
# 1 272.8515 6.7534 100.6147 0.0000 0.0000 0.0000
# 2 6.7534 34.0374 5.4671 0.0000 0.0000 0.0000
# 3 100.6147 5.4671 107.1321 0.0000 0.0000 0.0000
# 4 0.0000 0.0000 0.0000 1.2490 0.0000 0.0000
# 5 0.0000 0.0000 0.0000 0.0000 -6.3979 0.0000
# 6 0.0000 0.0000 0.0000 0.0000 0.0000 98.6637
#
#
#
# Elastic Compliance Matrix: (Units=1/GPa)
#
#
# Indices 1 2 3 4 5 6 
#
# 1 0.005609 -0.000269 -0.005254 0.000000 0.000000 0.000000
# 2 -0.000269 0.029635 -0.001260 0.000000 0.000000 0.000000
# 3 -0.005254 -0.001260 0.014333 0.000000 0.000000 0.000000
# 4 0.000000 0.000000 0.000000 0.800655 0.000000 0.000000
# 5 0.000000 0.000000 0.000000 0.000000 -0.156301 0.000000
# 6 0.000000 0.000000 0.000000 0.000000 0.000000 0.010135
#
#
# Mechanical properties :
#
#
# Convention : Reuss Voigt Hill
#
# Bulk Modulus (GPa) = 27.76881 71.07682 49.42281
# Shear Modulus (GPa) = 6.85272 38.78200 22.81736
#
# Velocity S-wave (km/s) = 1.83277 4.36006 3.34434
# Velocity P-wave (km/s) = 4.25328 7.75804 6.25610
#
# Compressibility (1/GPa) = 0.03601163
#
# Stress axis : x y z
#
# Youngs Moduli (GPa) = 178.27998 33.74372 69.76850
#
# Poissons Ratio (x) = 0.00908 0.36658
# Poissons Ratio (y) = 0.04795 0.08789
# Poissons Ratio (z) = 0.93672 0.04251
#
# Static dielectric constant tensor:
#      x y z
#    x 1.774480 0.000000 0.000000 
#    y 0.000000 1.761640 0.000000 
#    z 0.000000 0.000000 1.692180 
# 
# From -- ./inp_files/13594.got.cif
#   From: 2010.05.17/outbox.cif.g08.bks.cpg/sg47_7_cif.got.tgz:13594.got - 2010.06.03 20:15:42.
