data_PCOD9385660
_publ_section_title
;
Structure prediction by ZEFSAII (Michael W. Deem and Ramdas Pophale) SiO2 
 PCOD9385660
Probable space group: P M M M
;
_chemical_formula_sum "Si O2"
_cell_formula_units_Z 44
_cell_length_a 32.355647
_cell_length_b 8.224138
_cell_length_c 7.520588
_cell_angle_alpha 90.000000
_cell_angle_beta 90.000000
_cell_angle_gamma 90.000000
_cell_volume 2001.208206
_symmetry_space_group_name_H-M "P M M M"
_symmetry_group_IT_number 47
_symmetry_cell_setting 'orthorhombic'
loop_
_space_group_symop_operation_xyz
x,y,z
-x,-y,z
x,-y,-z
-x,y,-z
-x,-y,-z
x,y,-z
-x,y,z
x,-y,z
loop_
_atom_site_type_symbol
_atom_site_label
_atom_site_fract_x
_atom_site_fract_y
_atom_site_fract_z
Si Si1 0.000000 0.685420 0.789931
Si Si2 0.910891 0.315005 0.711832
Si Si3 0.548052 0.682067 0.216681
Si Si4 0.306234 0.000000 0.782021
Si Si5 0.598017 0.000000 0.217227
Si Si6 0.176135 0.818279 0.715253
Si Si7 0.738305 0.675492 0.209293
O O1 0.955972 0.762183 0.741841
O O2 0.000000 0.500000 0.711650
O O3 0.000000 0.672155 0.000000
O O4 0.906216 0.324818 0.500000
O O5 0.912135 0.500000 0.783177
O O6 0.869746 0.227929 0.778516
O O7 0.500000 0.703137 0.267694
O O8 0.561462 0.500000 0.272733
O O9 0.575032 0.835209 0.276402
O O10 0.549100 0.682461 0.000000
O O11 0.354135 0.000000 0.731673
O O12 0.283635 0.163594 0.717713
O O13 0.304002 0.000000 0.000000
O O14 0.596594 0.000000 0.000000
O O15 0.175694 0.817635 0.500000
O O16 0.212511 0.699880 0.772929
O O17 0.186665 0.000000 0.775936
O O18 0.726373 0.500000 0.285610
O O19 0.728342 0.671620 0.000000
#
# Coordination Sequence:
#
# PCOD9385660 Si02
#       7
#     4   8   8   4   4   8   8
#     4   9  17  29  46  69  96 124 158 197 232 278
#     4   9  17  30  48  69  93 122 155 192 237 286
#     4   8  13  20  30  47  72 103 145 197 245 286
#     4   9  18  31  43  62  91 120 159 206 246 297
#     4   9  15  22  35  51  73 109 149 193 244 291
#     4  10  20  34  53  76  99 124 159 204 250 295
#     4  10  20  34  52  71  95 129 163 200 250 300
#
# _framework density 21.986719000000001
#
# number of rings (size 3 to 8) (size 9 to 14) (size 15 to 20)
#    0.000    2.818    0.909    1.636    0.000    4.727 
#    0.000    5.909    0.000    2.727    0.000    0.000 
#    0.000    0.000    0.000    0.000    0.000    7.273 
#
# Total GULP energy -245510.582481 kJ/mol
# GULP energy per Si atom -5579.785965 kJ/mol
# Density = 2.193668 g / cm^3
# Si number density = 21.986719 Si / 1000 Ang^3
#
#
#
# Elastic Constant Matrix: (Units=GPa)
#
#
# Indices 1 2 3 4 5 6 
#
# 1 140.3899 97.5021 -4.3330 0.0000 0.0000 0.0000
# 2 97.5021 179.5792 6.1928 0.0000 0.0000 0.0000
# 3 -4.3330 6.1928 56.8497 0.0000 0.0000 0.0000
# 4 0.0000 0.0000 0.0000 -0.4815 0.0000 0.0000
# 5 0.0000 0.0000 0.0000 0.0000 7.6060 0.0000
# 6 0.0000 0.0000 0.0000 0.0000 0.0000 22.3456
#
#
#
# Elastic Compliance Matrix: (Units=1/GPa)
#
#
# Indices 1 2 3 4 5 6 
#
# 1 0.011573 -0.006338 0.001573 0.000000 0.000000 0.000000
# 2 -0.006338 0.009060 -0.001470 0.000000 0.000000 0.000000
# 3 0.001573 -0.001470 0.017870 0.000000 0.000000 0.000000
# 4 0.000000 0.000000 0.000000 -2.076970 0.000000 0.000000
# 5 0.000000 0.000000 0.000000 0.000000 0.131476 0.000000
# 6 0.000000 0.000000 0.000000 0.000000 0.000000 0.044752
#
#
# Mechanical properties :
#
#
# Convention : Reuss Voigt Hill
#
# Bulk Modulus (GPa) = 38.41270 63.94918 51.18094
# Shear Modulus (GPa) = -2.71578 24.39114 10.83768
#
# Velocity S-wave (km/s) = -1.11260 3.33432 2.22259
# Velocity P-wave (km/s) = 3.98225 6.63114 5.46948
#
# Compressibility (1/GPa) = 0.02603305
#
# Stress axis : x y z
#
# Youngs Moduli (GPa) = 86.40574 110.37002 55.95894
#
# Poissons Ratio (x) = 0.69952 -0.08800
# Poissons Ratio (y) = 0.54763 0.08226
# Poissons Ratio (z) = -0.13587 0.16225
#
# Static dielectric constant tensor:
#      x y z
#    x 1.782740 0.000000 0.000000 
#    y 0.000000 1.815400 0.000000 
#    z 0.000000 0.000000 1.839330 
# 
# From -- ./inp_files/13773.got.cif
#   From: 2010.05.17/outbox.cif.g08.bks.cpg/sg47_7_cif.got.tgz:13773.got - 2010.06.03 20:15:42.
