data_PCOD9385156
_publ_section_title
;
Structure prediction by ZEFSAII (Michael W. Deem and Ramdas Pophale) SiO2 
 PCOD9385156
Probable space group: P M M M
;
_chemical_formula_sum "Si O2"
_cell_formula_units_Z 48
_cell_length_a 31.671731
_cell_length_b 9.481621
_cell_length_c 7.495499
_cell_angle_alpha 90.000000
_cell_angle_beta 90.000000
_cell_angle_gamma 90.000000
_cell_volume 2250.893476
_symmetry_space_group_name_H-M "P M M M"
_symmetry_group_IT_number 47
_symmetry_cell_setting 'orthorhombic'
loop_
_space_group_symop_operation_xyz
x,y,z
-x,-y,z
x,-y,-z
-x,y,-z
-x,-y,-z
x,y,-z
-x,y,z
x,-y,z
loop_
_atom_site_type_symbol
_atom_site_label
_atom_site_fract_x
_atom_site_fract_y
_atom_site_fract_z
Si Si1 0.371675 0.662131 0.281606
Si Si2 0.871046 0.158624 0.788527
Si Si3 0.290773 0.839533 0.714040
Si Si4 0.452469 0.162497 0.282591
Si Si5 0.207179 0.340243 0.786236
Si Si6 0.952441 0.339773 0.285085
O O1 0.371514 0.662466 0.500000
O O2 0.368232 0.500000 0.225071
O O3 0.331844 0.754852 0.221520
O O4 0.415295 0.734827 0.223882
O O5 0.833994 0.258498 0.715575
O O6 0.916240 0.231999 0.766908
O O7 0.870088 0.000000 0.714739
O O8 0.863390 0.147625 0.000000
O O9 0.294713 0.847920 0.500000
O O10 0.248717 0.751485 0.751952
O O11 0.288422 0.000000 0.782134
O O12 0.452401 0.164018 0.500000
O O13 0.500000 0.201282 0.225982
O O14 0.444381 0.000000 0.229771
O O15 0.210819 0.500000 0.716753
O O16 0.202710 0.350671 0.000000
O O17 0.953352 0.342834 0.500000
O O18 0.942748 0.500000 0.224295
O O19 0.000000 0.303630 0.224441
#
# Coordination Sequence:
#
# PCOD9385156 Si02
#       6
#     8   8   8   8   8   8
#     4   9  16  25  38  58  86 119 155 197 242 287
#     4  10  21  36  54  77 104 133 166 204 246 293
#     4  10  20  33  50  72  98 129 164 201 244 295
#     4   8  13  21  33  50  76 113 154 193 236 288
#     4  10  21  37  56  76  99 129 165 205 249 295
#     4   9  19  36  56  78 105 137 172 208 246 289
#
# _framework density 21.324864000000002
#
# number of rings (size 3 to 8) (size 9 to 14) (size 15 to 20)
#    0.000    2.667    0.000    3.000    0.000    7.000 
#    0.000    4.167    0.000    0.000    0.000    0.000 
#    0.000    0.667    0.000    7.000    0.000    9.667 
#
# Total GULP energy -268095.070500 kJ/mol
# GULP energy per Si atom -5585.313969 kJ/mol
# Density = 2.127633 g / cm^3
# Si number density = 21.324864 Si / 1000 Ang^3
#
#
#
# Elastic Constant Matrix: (Units=GPa)
#
#
# Indices 1 2 3 4 5 6 
#
# 1 188.3695 149.5217 -1.2138 0.0000 0.0000 0.0000
# 2 149.5217 231.0637 8.2035 0.0000 0.0000 0.0000
# 3 -1.2138 8.2035 57.6776 0.0000 0.0000 0.0000
# 4 0.0000 0.0000 0.0000 10.2146 0.0000 0.0000
# 5 0.0000 0.0000 0.0000 0.0000 21.6941 0.0000
# 6 0.0000 0.0000 0.0000 0.0000 0.0000 36.1809
#
#
#
# Elastic Compliance Matrix: (Units=1/GPa)
#
#
# Indices 1 2 3 4 5 6 
#
# 1 0.011004 -0.007165 0.001251 0.000000 0.000000 0.000000
# 2 -0.007165 0.009015 -0.001433 0.000000 0.000000 0.000000
# 3 0.001251 -0.001433 0.017568 0.000000 0.000000 0.000000
# 4 0.000000 0.000000 0.000000 0.097899 0.000000 0.000000
# 5 0.000000 0.000000 0.000000 0.000000 0.046096 0.000000
# 6 0.000000 0.000000 0.000000 0.000000 0.000000 0.027639
#
#
# Mechanical properties :
#
#
# Convention : Reuss Voigt Hill
#
# Bulk Modulus (GPa) = 43.68284 87.79261 65.73773
# Shear Modulus (GPa) = 21.59383 34.99122 28.29252
#
# Velocity S-wave (km/s) = 3.18561 4.05515 3.64639
# Velocity P-wave (km/s) = 5.83607 7.94885 6.97295
#
# Compressibility (1/GPa) = 0.02289229
#
# Stress axis : x y z
#
# Youngs Moduli (GPa) = 90.87253 110.92109 56.92205
#
# Poissons Ratio (x) = 0.79479 -0.07119
# Poissons Ratio (y) = 0.65114 0.08157
# Poissons Ratio (z) = -0.11366 0.15896
#
# Static dielectric constant tensor:
#      x y z
#    x 1.726120 0.000000 0.000000 
#    y 0.000000 1.745950 0.000000 
#    z 0.000000 0.000000 1.845370 
# 
# From -- ./inp_files/2421.got.cif
#   From: 2010.05.17/outbox.cif.g08.bks.cpg/sg47_2_cif.got.tgz:2421.got - 2010.06.03 20:15:42.
