data_PCOD9385845
_publ_section_title
;
Structure prediction by ZEFSAII (Michael W. Deem and Ramdas Pophale) SiO2 
 PCOD9385845
Probable space group: P M M M
;
_chemical_formula_sum "Si O2"
_cell_formula_units_Z 48
_cell_length_a 8.427568
_cell_length_b 19.693149
_cell_length_c 15.902050
_cell_angle_alpha 90.000000
_cell_angle_beta 90.000000
_cell_angle_gamma 90.000000
_cell_volume 2639.189331
_symmetry_space_group_name_H-M "P M M M"
_symmetry_group_IT_number 47
_symmetry_cell_setting 'orthorhombic'
loop_
_space_group_symop_operation_xyz
x,y,z
-x,-y,z
x,-y,-z
-x,y,-z
-x,-y,-z
x,y,-z
-x,y,z
x,-y,z
loop_
_atom_site_type_symbol
_atom_site_label
_atom_site_fract_x
_atom_site_fract_y
_atom_site_fract_z
Si Si1 0.805601 0.078474 0.725564
Si Si2 0.812183 0.917688 0.090402
Si Si3 0.182701 0.582289 0.000000
Si Si4 0.806149 0.193119 0.597153
Si Si5 0.189771 0.339650 0.660634
Si Si6 0.310936 0.421572 0.819400
Si Si7 0.309715 0.422000 0.500000
O O1 0.749893 0.103453 0.818123
O O2 0.754990 0.128338 0.651481
O O3 0.000000 0.078681 0.727839
O O4 0.757869 0.000000 0.713157
O O5 0.000000 0.900923 0.089142
O O6 0.802592 0.000000 0.091385
O O7 0.743979 0.894686 0.000000
O O8 0.262317 0.602793 0.912463
O O9 0.189955 0.500000 0.000000
O O10 0.000000 0.603376 0.000000
O O11 0.753928 0.192076 0.500000
O O12 0.755756 0.262679 0.642571
O O13 0.000000 0.192837 0.595954
O O14 0.247094 0.373132 0.746818
O O15 0.248437 0.384577 0.582736
O O16 0.000000 0.339295 0.660642
O O17 0.500000 0.423601 0.814119
O O18 0.252394 0.500000 0.808041
O O19 0.256556 0.500000 0.500000
O O20 0.500000 0.420624 0.500000
#
# Coordination Sequence:
#
# PCOD9385845 Si02
#       7
#     8   8   4   8   8   8   4
#     4   8  13  21  36  58  83 114 154 200 247 296
#     4   7   9  14  26  46  72 102 138 180 226 277
#     4   9  17  31  53  81 109 137 170 207 252 307
#     4   9  17  29  42  58  86 125 165 204 251 307
#     4  11  21  34  51  71 100 139 173 206 257 317
#     4  10  20  34  53  78 106 135 171 216 258 296
#     4  11  23  37  53  75 100 123 160 218 267 307
#
# _framework density 18.187404000000001
#
# number of rings (size 3 to 8) (size 9 to 14) (size 15 to 20)
#    0.000    2.833    0.833    3.500    0.000    5.000 
#    0.000    1.667    1.833    0.000    0.000    0.000 
#    0.000    3.333    0.000    0.000    0.000    2.167 
#
# Total GULP energy -267398.536082 kJ/mol
# GULP energy per Si atom -5570.802835 kJ/mol
# Density = 1.814601 g / cm^3
# Si number density = 18.187404 Si / 1000 Ang^3
#
#
#
# Elastic Constant Matrix: (Units=GPa)
#
#
# Indices 1 2 3 4 5 6 
#
# 1 18.9100 15.9235 24.0275 0.0000 0.0000 0.0000
# 2 15.9235 102.4348 92.3301 0.0000 0.0000 0.0000
# 3 24.0275 92.3301 197.1973 0.0000 0.0000 0.0000
# 4 0.0000 0.0000 0.0000 -74.4111 0.0000 0.0000
# 5 0.0000 0.0000 0.0000 0.0000 27.6774 0.0000
# 6 0.0000 0.0000 0.0000 0.0000 0.0000 -10.1722
#
#
#
# Elastic Compliance Matrix: (Units=1/GPa)
#
#
# Indices 1 2 3 4 5 6 
#
# 1 0.064047 -0.005056 -0.005437 0.000000 0.000000 0.000000
# 2 -0.005056 0.017290 -0.007479 0.000000 0.000000 0.000000
# 3 -0.005437 -0.007479 0.009235 0.000000 0.000000 0.000000
# 4 0.000000 0.000000 0.000000 -0.013439 0.000000 0.000000
# 5 0.000000 0.000000 0.000000 0.000000 0.036131 0.000000
# 6 0.000000 0.000000 0.000000 0.000000 0.000000 -0.098307
#
#
# Mechanical properties :
#
#
# Convention : Reuss Voigt Hill
#
# Bulk Modulus (GPa) = 18.30526 64.78936 41.54731
# Shear Modulus (GPa) = 72.34837 1.03621 36.69229
#
# Velocity S-wave (km/s) = 6.31393 0.75563 4.49648
# Velocity P-wave (km/s) = 7.95242 6.03836 7.06055
#
# Compressibility (1/GPa) = 0.05462910
#
# Stress axis : x y z
#
# Youngs Moduli (GPa) = 15.61342 57.83814 108.27970
#
# Poissons Ratio (x) = 0.29242 0.58868
# Poissons Ratio (y) = 0.07894 0.80984
# Poissons Ratio (z) = 0.08489 0.43258
#
# Static dielectric constant tensor:
#      x y z
#    x 1.622280 0.000000 0.000000 
#    y 0.000000 1.614660 0.000000 
#    z 0.000000 0.000000 1.638440 
# 
# From -- ./inp_files/21126.got.cif
#   From: 2010.05.17/outbox.cif.g08.bks.cpg/sg47_11_cif.got.tgz:21126.got - 2010.06.03 20:15:42.
