data_PCOD9385462
_publ_section_title
;
Structure prediction by ZEFSAII (Michael W. Deem and Ramdas Pophale) SiO2 
 PCOD9385462
Probable space group: P M M M
;
_chemical_formula_sum "Si O2"
_cell_formula_units_Z 40
_cell_length_a 9.487418
_cell_length_b 28.752699
_cell_length_c 7.528108
_cell_angle_alpha 90.000000
_cell_angle_beta 90.000000
_cell_angle_gamma 90.000000
_cell_volume 2053.584105
_symmetry_space_group_name_H-M "P M M M"
_symmetry_group_IT_number 47
_symmetry_cell_setting 'orthorhombic'
loop_
_space_group_symop_operation_xyz
x,y,z
-x,-y,z
x,-y,-z
-x,y,-z
-x,-y,-z
x,y,-z
-x,y,z
x,-y,z
loop_
_atom_site_type_symbol
_atom_site_label
_atom_site_fract_x
_atom_site_fract_y
_atom_site_fract_z
Si Si1 0.671483 0.947053 0.500000
Si Si2 0.837171 0.782567 0.216074
Si Si3 0.840497 0.500000 0.711113
Si Si4 0.836749 0.321308 0.216993
Si Si5 0.668774 0.873274 0.791638
Si Si6 0.658952 0.591274 0.788106
O O1 0.500000 0.948951 0.500000
O O2 0.712735 0.916898 0.671872
O O3 0.723054 0.000000 0.500000
O O4 0.792850 0.730708 0.273031
O O5 0.742669 0.825854 0.271670
O O6 0.000000 0.789146 0.268871
O O7 0.833655 0.782174 0.000000
O O8 0.851176 0.500000 0.500000
O O9 0.753675 0.545854 0.760868
O O10 0.000000 0.500000 0.784847
O O11 0.738047 0.362842 0.281146
O O12 0.000000 0.328666 0.269113
O O13 0.835223 0.321757 0.000000
O O14 0.500000 0.867942 0.776306
O O15 0.701850 0.880512 0.000000
O O16 0.500000 0.585523 0.718202
O O17 0.647981 0.597359 0.000000
#
# Coordination Sequence:
#
# PCOD9385462 Si02
#       6
#     4   8   4   8   8   8
#     4   9  18  32  49  71 101 133 167 212 259 302
#     4   8  14  26  46  72 101 132 163 197 241 292
#     4  11  24  39  54  70  92 129 172 211 252 300
#     4   8  14  26  46  72 100 129 161 197 239 290
#     4   9  17  29  48  73  98 128 168 211 254 302
#     4  10  20  33  52  79 105 128 160 204 252 302
#
# _framework density 19.47814
#
# number of rings (size 3 to 8) (size 9 to 14) (size 15 to 20)
#    0.000    3.000    0.000    2.400    0.000    4.400 
#    0.000    6.500    2.200    1.200    0.000    2.800 
#    0.000    0.000    0.000    0.000    0.000    0.000 
#
# Total GULP energy -223096.803301 kJ/mol
# GULP energy per Si atom -5577.420083 kJ/mol
# Density = 1.943381 g / cm^3
# Si number density = 19.478140 Si / 1000 Ang^3
#
#
#
# Elastic Constant Matrix: (Units=GPa)
#
#
# Indices 1 2 3 4 5 6 
#
# 1 94.4916 99.4076 25.7513 0.0000 0.0000 0.0000
# 2 99.4076 222.5472 41.6718 0.0000 0.0000 0.0000
# 3 25.7513 41.6718 62.3544 0.0000 0.0000 0.0000
# 4 0.0000 0.0000 0.0000 111.4943 0.0000 0.0000
# 5 0.0000 0.0000 0.0000 0.0000 1.2035 0.0000
# 6 0.0000 0.0000 0.0000 0.0000 0.0000 59.6854
#
#
#
# Elastic Compliance Matrix: (Units=1/GPa)
#
#
# Indices 1 2 3 4 5 6 
#
# 1 0.020344 -0.008589 -0.002662 0.000000 0.000000 0.000000
# 2 -0.008589 0.008762 -0.002309 0.000000 0.000000 0.000000
# 3 -0.002662 -0.002309 0.018680 0.000000 0.000000 0.000000
# 4 0.000000 0.000000 0.000000 0.008969 0.000000 0.000000
# 5 0.000000 0.000000 0.000000 0.000000 0.830926 0.000000
# 6 0.000000 0.000000 0.000000 0.000000 0.000000 0.016755
#
#
# Mechanical properties :
#
#
# Convention : Reuss Voigt Hill
#
# Bulk Modulus (GPa) = 48.38620 79.22831 63.80725
# Shear Modulus (GPa) = 5.32797 48.64748 26.98772
#
# Velocity S-wave (km/s) = 1.65569 5.00296 3.72632
# Velocity P-wave (km/s) = 5.34325 8.61026 7.16544
#
# Compressibility (1/GPa) = 0.02066705
#
# Stress axis : x y z
#
# Youngs Moduli (GPa) = 49.15431 114.12589 53.53435
#
# Poissons Ratio (x) = 0.98022 0.14249
# Poissons Ratio (y) = 0.42218 0.12360
# Poissons Ratio (z) = 0.13084 0.26349
#
# Static dielectric constant tensor:
#      x y z
#    x 1.669480 0.000000 0.000000 
#    y 0.000000 1.664100 0.000000 
#    z 0.000000 0.000000 1.739480 
# 
# From -- ./inp_files/1773.got.cif
#   From: 2010.05.17/outbox.cif.g08.bks.cpg/sg47_1_cif.got.tgz:1773.got - 2010.06.03 20:15:42.
