data_PCOD9385719
_publ_section_title
;
Structure prediction by ZEFSAII (Michael W. Deem and Ramdas Pophale) SiO2 
 PCOD9385719
Probable space group: P M M M
;
_chemical_formula_sum "Si O2"
_cell_formula_units_Z 40
_cell_length_a 15.405151
_cell_length_b 10.328417
_cell_length_c 13.391737
_cell_angle_alpha 90.000000
_cell_angle_beta 90.000000
_cell_angle_gamma 90.000000
_cell_volume 2130.770302
_symmetry_space_group_name_H-M "P M M M"
_symmetry_group_IT_number 47
_symmetry_cell_setting 'orthorhombic'
loop_
_space_group_symop_operation_xyz
x,y,z
-x,-y,z
x,-y,-z
-x,y,-z
-x,-y,-z
x,y,-z
-x,y,z
x,-y,z
loop_
_atom_site_type_symbol
_atom_site_label
_atom_site_fract_x
_atom_site_fract_y
_atom_site_fract_z
Si Si1 0.000000 0.156825 0.386679
Si Si2 0.219088 0.251108 0.886320
Si Si3 0.187338 0.852889 0.681204
Si Si4 0.405460 0.346442 0.826532
Si Si5 0.329908 0.349482 0.387664
Si Si6 0.100152 0.500000 0.879639
O O1 0.910559 0.194176 0.335973
O O2 0.000000 0.203188 0.500000
O O3 0.000000 0.000000 0.387199
O O4 0.204029 0.148684 0.799473
O O5 0.320337 0.289608 0.878258
O O6 0.158563 0.374079 0.856278
O O7 0.198269 0.214105 0.000000
O O8 0.252791 0.752555 0.629863
O O9 0.197267 0.000000 0.642418
O O10 0.500000 0.295208 0.857161
O O11 0.404300 0.500000 0.846106
O O12 0.393155 0.329507 0.706691
O O13 0.365830 0.333166 0.500000
O O14 0.300014 0.500000 0.379930
O O15 0.000000 0.500000 0.841362
O O16 0.093688 0.500000 0.000000
#
# Coordination Sequence:
#
# PCOD9385719 Si02
#       6
#     4   8   8   8   8   4
#     4   9  18  34  54  76 103 136 177 219 262 315
#     4  10  20  34  52  76 108 142 181 223 265 314
#     4  10  21  35  53  77 105 142 182 219 264 318
#     4   9  17  30  50  78 110 140 172 217 271 322
#     4   9  18  33  53  78 107 136 171 217 267 318
#     4   9  18  32  51  75 103 140 178 214 265 318
#
# _framework density 18.772554
#
# number of rings (size 3 to 8) (size 9 to 14) (size 15 to 20)
#    0.000    2.600    1.000    0.600    2.800    2.400 
#    0.000    3.500    0.000   13.200    0.000   11.200 
#    0.000    0.000    0.000    0.000    0.000    0.000 
#
# Total GULP energy -222812.855673 kJ/mol
# GULP energy per Si atom -5570.321392 kJ/mol
# Density = 1.872983 g / cm^3
# Si number density = 18.772554 Si / 1000 Ang^3
#
#
#
# Elastic Constant Matrix: (Units=GPa)
#
#
# Indices 1 2 3 4 5 6 
#
# 1 121.0294 21.3689 1.1521 0.0000 0.0000 0.0000
# 2 21.3689 42.8580 1.4347 0.0000 0.0000 0.0000
# 3 1.1521 1.4347 73.9858 0.0000 0.0000 0.0000
# 4 0.0000 0.0000 0.0000 5.9810 0.0000 0.0000
# 5 0.0000 0.0000 0.0000 0.0000 2.4455 0.0000
# 6 0.0000 0.0000 0.0000 0.0000 0.0000 9.7876
#
#
#
# Elastic Compliance Matrix: (Units=1/GPa)
#
#
# Indices 1 2 3 4 5 6 
#
# 1 0.009060 -0.004516 -0.000054 0.000000 0.000000 0.000000
# 2 -0.004516 0.025599 -0.000426 0.000000 0.000000 0.000000
# 3 -0.000054 -0.000426 0.013525 0.000000 0.000000 0.000000
# 4 0.000000 0.000000 0.000000 0.167195 0.000000 0.000000
# 5 0.000000 0.000000 0.000000 0.000000 0.408909 0.000000
# 6 0.000000 0.000000 0.000000 0.000000 0.000000 0.102171
#
#
# Mechanical properties :
#
#
# Convention : Reuss Voigt Hill
#
# Bulk Modulus (GPa) = 26.18239 31.75384 28.96811
# Shear Modulus (GPa) = 6.67396 17.90399 12.28897
#
# Velocity S-wave (km/s) = 1.88756 3.09161 2.56134
# Velocity P-wave (km/s) = 4.32758 5.44938 4.92056
#
# Compressibility (1/GPa) = 0.03819362
#
# Stress axis : x y z
#
# Youngs Moduli (GPa) = 110.37235 39.06459 73.93606
#
# Poissons Ratio (x) = 0.17640 0.00396
# Poissons Ratio (y) = 0.49840 0.03150
# Poissons Ratio (z) = 0.00591 0.01664
#
# Static dielectric constant tensor:
#      x y z
#    x 1.657810 0.000000 0.000000 
#    y 0.000000 1.641650 0.000000 
#    z 0.000000 0.000000 1.680710 
# 
# From -- ./inp_files/23377.got.cif
#   From: 2010.05.17/outbox.cif.g08.bks.cpg/sg47_12_cif.got.tgz:23377.got - 2010.06.03 20:15:42.
