data_PCOD9385787
_publ_section_title
;
Structure prediction by ZEFSAII (Michael W. Deem and Ramdas Pophale) SiO2 
 PCOD9385787
Probable space group: P M M M
;
_chemical_formula_sum "Si O2"
_cell_formula_units_Z 64
_cell_length_a 14.929355
_cell_length_b 32.670750
_cell_length_c 8.428973
_cell_angle_alpha 90.000000
_cell_angle_beta 90.000000
_cell_angle_gamma 90.000000
_cell_volume 4111.258763
_symmetry_space_group_name_H-M "P M M M"
_symmetry_group_IT_number 47
_symmetry_cell_setting 'orthorhombic'
loop_
_space_group_symop_operation_xyz
x,y,z
-x,-y,z
x,-y,-z
-x,y,-z
-x,-y,-z
x,y,-z
-x,y,z
x,-y,z
loop_
_atom_site_type_symbol
_atom_site_label
_atom_site_fract_x
_atom_site_fract_y
_atom_site_fract_z
Si Si1 0.605271 0.544282 0.690553
Si Si2 0.396492 0.875736 0.810022
Si Si3 0.098847 0.828424 0.693100
Si Si4 0.287258 0.202662 0.310227
Si Si5 0.394367 0.629823 0.190044
Si Si6 0.290744 0.045419 0.307725
Si Si7 0.395849 0.719688 0.191661
Si Si8 0.901290 0.075614 0.692844
O O1 0.607083 0.544626 0.500000
O O2 0.500000 0.544307 0.739252
O O3 0.642691 0.500000 0.744163
O O4 0.645401 0.587222 0.747931
O O5 0.500000 0.874572 0.757882
O O6 0.342703 0.837386 0.740304
O O7 0.350173 0.917868 0.757763
O O8 0.394184 0.872705 0.000000
O O9 0.098806 0.827291 0.500000
O O10 0.185148 0.803508 0.748574
O O11 0.109105 0.876422 0.735493
O O12 0.000000 0.814750 0.746519
O O13 0.285344 0.204179 0.500000
O O14 0.335575 0.243143 0.248485
O O15 0.500000 0.629940 0.234002
O O16 0.361737 0.674593 0.244037
O O17 0.389210 0.628694 0.000000
O O18 0.292282 0.047793 0.500000
O O19 0.187412 0.052067 0.255672
O O20 0.321192 0.000000 0.260913
O O21 0.500000 0.724910 0.242761
O O22 0.396897 0.719620 0.000000
O O23 0.902585 0.073595 0.500000
O O24 0.000000 0.061584 0.747337
#
# Coordination Sequence:
#
# PCOD9385787 Si02
#       8
#     8   8   8   8   8   8   8   8
#     4   8  13  20  30  46  69  97 131 176 227 266
#     4  11  24  39  52  65  86 118 148 173 207 250
#     4   8  14  26  46  70  93 113 132 161 203 248
#     4  11  20  31  51  74  90 107 139 179 212 246
#     4   8  14  24  36  49  69 102 142 179 212 251
#     4  10  20  34  53  76  96 112 137 174 208 238
#     4   9  18  31  43  58  86 120 148 177 219 263
#     4   8  13  25  47  73  98 118 134 158 198 246
#
# _framework density 15.567009000000001
#
# number of rings (size 3 to 8) (size 9 to 14) (size 15 to 20)
#    0.000    2.875    1.250    3.000    0.000    4.250 
#    0.000    5.000    0.000    2.625    0.000    0.875 
#    0.000    0.000    0.000    0.000    0.000    0.625 
#
# Total GULP energy -356331.372535 kJ/mol
# GULP energy per Si atom -5567.677696 kJ/mol
# Density = 1.553158 g / cm^3
# Si number density = 15.567009 Si / 1000 Ang^3
#
#
#
# Elastic Constant Matrix: (Units=GPa)
#
#
# Indices 1 2 3 4 5 6 
#
# 1 78.4784 52.4349 11.5712 0.0000 0.0000 0.0000
# 2 52.4349 144.9829 19.7801 0.0000 0.0000 0.0000
# 3 11.5712 19.7801 8.0324 0.0000 0.0000 0.0000
# 4 0.0000 0.0000 0.0000 25.9018 0.0000 0.0000
# 5 0.0000 0.0000 0.0000 0.0000 -35.4083 0.0000
# 6 0.0000 0.0000 0.0000 0.0000 0.0000 0.7794
#
#
#
# Elastic Compliance Matrix: (Units=1/GPa)
#
#
# Indices 1 2 3 4 5 6 
#
# 1 0.017903 -0.004452 -0.014827 0.000000 0.000000 0.000000
# 2 -0.004452 0.011494 -0.021891 0.000000 0.000000 0.000000
# 3 -0.014827 -0.021891 0.199762 0.000000 0.000000 0.000000
# 4 0.000000 0.000000 0.000000 0.038607 0.000000 0.000000
# 5 0.000000 0.000000 0.000000 0.000000 -0.028242 0.000000
# 6 0.000000 0.000000 0.000000 0.000000 0.000000 1.282981
#
#
# Mechanical properties :
#
#
# Convention : Reuss Voigt Hill
#
# Bulk Modulus (GPa) = 6.81113 44.34068 25.57591
# Shear Modulus (GPa) = 3.02337 8.10175 5.56256
#
# Velocity S-wave (km/s) = 1.39513 2.28380 1.89237
# Velocity P-wave (km/s) = 2.64197 5.95818 4.60868
#
# Compressibility (1/GPa) = 0.14681857
#
# Stress axis : x y z
#
# Youngs Moduli (GPa) = 55.85615 87.00091 5.00595
#
# Poissons Ratio (x) = 0.38733 0.07422
# Poissons Ratio (y) = 0.24867 0.10959
# Poissons Ratio (z) = 0.82819 1.90456
#
# Static dielectric constant tensor:
#      x y z
#    x 1.518400 0.000000 0.000000 
#    y 0.000000 1.542790 0.000000 
#    z 0.000000 0.000000 1.541620 
# 
# From -- ./inp_files/8211.got.cif
#   From: 2010.05.17/outbox.cif.g08.bks.cpg/sg47_5_cif.got.tgz:8211.got - 2010.06.03 20:15:42.
