data_PCOD9385461
_publ_section_title
;
Structure prediction by ZEFSAII (Michael W. Deem and Ramdas Pophale) SiO2 
 PCOD9385461
Probable space group: P M M M
;
_chemical_formula_sum "Si O2"
_cell_formula_units_Z 44
_cell_length_a 29.864228
_cell_length_b 9.545471
_cell_length_c 7.605558
_cell_angle_alpha 90.000000
_cell_angle_beta 90.000000
_cell_angle_gamma 90.000000
_cell_volume 2168.102138
_symmetry_space_group_name_H-M "P M M M"
_symmetry_group_IT_number 47
_symmetry_cell_setting 'orthorhombic'
loop_
_space_group_symop_operation_xyz
x,y,z
-x,-y,z
x,-y,-z
-x,y,-z
-x,-y,-z
x,y,-z
-x,y,z
x,-y,z
loop_
_atom_site_type_symbol
_atom_site_label
_atom_site_fract_x
_atom_site_fract_y
_atom_site_fract_z
Si Si1 0.951835 0.663125 0.788669
Si Si2 0.500000 0.159145 0.209220
Si Si3 0.587346 0.658578 0.710230
Si Si4 0.228719 0.161608 0.285309
Si Si5 0.671104 0.837748 0.285262
Si Si6 0.145407 0.341058 0.290370
O O1 0.950958 0.500000 0.728649
O O2 0.903842 0.724498 0.737853
O O3 0.000000 0.722863 0.728647
O O4 0.952693 0.662116 0.000000
O O5 0.543934 0.246250 0.259846
O O6 0.500000 0.000000 0.281328
O O7 0.500000 0.148976 0.000000
O O8 0.592655 0.648156 0.500000
O O9 0.582061 0.500000 0.778649
O O10 0.631522 0.737869 0.778115
O O11 0.228311 0.164636 0.500000
O O12 0.278760 0.206499 0.231484
O O13 0.187401 0.253992 0.221383
O O14 0.223001 0.000000 0.233414
O O15 0.670444 0.837070 0.500000
O O16 0.663981 0.000000 0.232580
O O17 0.151037 0.350435 0.500000
O O18 0.145245 0.500000 0.218751
#
# Coordination Sequence:
#
# PCOD9385461 Si02
#       6
#     8   4   8   8   8   8
#     4   8  14  25  40  57  79 109 142 174 213 264
#     4  11  24  39  54  72  96 131 170 201 234 280
#     4  10  20  33  52  79 105 127 156 197 242 283
#     4   8  14  25  41  62  90 122 150 176 214 265
#     4   8  14  26  45  68  93 122 155 188 222 264
#     4   9  16  24  38  63  88 107 135 180 224 256
#
# _framework density 20.294249000000001
#
# number of rings (size 3 to 8) (size 9 to 14) (size 15 to 20)
#    0.000    3.182    0.000    2.727    0.000    4.000 
#    0.000    5.455    0.000    2.182    0.000    8.909 
#    0.000    0.000    0.000    0.000    0.000    0.000 
#
# Total GULP energy -245199.542558 kJ/mol
# GULP energy per Si atom -5572.716876 kJ/mol
# Density = 2.024806 g / cm^3
# Si number density = 20.294249 Si / 1000 Ang^3
#
#
#
# Elastic Constant Matrix: (Units=GPa)
#
#
# Indices 1 2 3 4 5 6 
#
# 1 243.2505 113.5132 2.6533 0.0000 0.0000 0.0000
# 2 113.5132 104.6215 5.0188 0.0000 0.0000 0.0000
# 3 2.6533 5.0188 41.1467 0.0000 0.0000 0.0000
# 4 0.0000 0.0000 0.0000 1.4525 0.0000 0.0000
# 5 0.0000 0.0000 0.0000 0.0000 91.8422 0.0000
# 6 0.0000 0.0000 0.0000 0.0000 0.0000 87.4331
#
#
#
# Elastic Compliance Matrix: (Units=1/GPa)
#
#
# Indices 1 2 3 4 5 6 
#
# 1 0.008340 -0.009076 0.000569 0.000000 0.000000 0.000000
# 2 -0.009076 0.019492 -0.001792 0.000000 0.000000 0.000000
# 3 0.000569 -0.001792 0.024485 0.000000 0.000000 0.000000
# 4 0.000000 0.000000 0.000000 0.688489 0.000000 0.000000
# 5 0.000000 0.000000 0.000000 0.000000 0.010888 0.000000
# 6 0.000000 0.000000 0.000000 0.000000 0.000000 0.011437
#
#
# Mechanical properties :
#
#
# Convention : Reuss Voigt Hill
#
# Bulk Modulus (GPa) = 31.52710 70.15438 50.84074
# Shear Modulus (GPa) = 6.29482 54.00111 30.14797
#
# Velocity S-wave (km/s) = 1.76310 5.16399 3.85845
# Velocity P-wave (km/s) = 4.43998 8.37851 6.70495
#
# Compressibility (1/GPa) = 0.03171874
#
# Stress axis : x y z
#
# Youngs Moduli (GPa) = 119.89924 51.30272 40.84102
#
# Poissons Ratio (x) = 0.46565 -0.02325
# Poissons Ratio (y) = 1.08826 0.07320
# Poissons Ratio (z) = -0.06826 0.09195
#
# Static dielectric constant tensor:
#      x y z
#    x 1.740850 0.000000 0.000000 
#    y 0.000000 1.707060 0.000000 
#    z 0.000000 0.000000 1.762490 
# 
# From -- ./inp_files/2319.got.cif
#   From: 2010.05.17/outbox.cif.g08.bks.cpg/sg47_2_cif.got.tgz:2319.got - 2010.06.03 20:15:42.
