data_PCOD9385114
_publ_section_title
;
Structure prediction by ZEFSAII (Michael W. Deem and Ramdas Pophale) SiO2 
 PCOD9385114
Probable space group: P M M M
;
_chemical_formula_sum "Si O2"
_cell_formula_units_Z 53
_cell_length_a 14.606319
_cell_length_b 9.490892
_cell_length_c 23.581095
_cell_angle_alpha 90.000000
_cell_angle_beta 90.000000
_cell_angle_gamma 90.000000
_cell_volume 3268.976366
_symmetry_space_group_name_H-M "P M M M"
_symmetry_group_IT_number 47
_symmetry_cell_setting 'orthorhombic'
loop_
_space_group_symop_operation_xyz
x,y,z
-x,-y,z
x,-y,-z
-x,y,-z
-x,-y,-z
x,y,-z
-x,y,z
x,-y,z
loop_
_atom_site_type_symbol
_atom_site_label
_atom_site_fract_x
_atom_site_fract_y
_atom_site_fract_z
Si Si1 0.391047 0.337846 0.125282
Si Si2 0.720584 0.169356 0.217851
Si Si3 0.723557 0.169236 0.436177
Si Si4 0.894085 0.333563 0.743955
Si Si5 0.500000 0.000000 0.000000
Si Si6 0.601741 0.288383 0.000000
Si Si7 0.395945 0.171000 0.670586
Si Si8 0.104726 0.333231 0.608089
O O1 0.500000 0.299792 0.125307
O O2 0.383223 0.500000 0.144405
O O3 0.335100 0.234873 0.165629
O O4 0.356511 0.327931 0.060296
O O5 0.820339 0.238417 0.224341
O O6 0.664408 0.208933 0.274942
O O7 0.725360 0.000000 0.214235
O O8 0.692090 0.200941 0.500000
O O9 0.653218 0.216024 0.387372
O O10 0.820079 0.242900 0.423977
O O11 0.734052 0.000000 0.431450
O O12 0.877411 0.500000 0.754364
O O13 0.885047 0.311135 0.675961
O O14 0.000000 0.303279 0.758706
O O15 0.421422 0.123582 0.000000
O O16 0.500000 0.355983 0.000000
O O17 0.500000 0.222579 0.675285
O O18 0.399195 0.000000 0.669581
O O19 0.117447 0.500000 0.597446
O O20 0.000000 0.297042 0.592852
#
# Coordination Sequence:
#
# PCOD9385114 Si02
#       8
#     8   8   8   8   1   4   8   8
#     4  10  20  33  50  74 108 146 183 215 250 297
#     4  11  21  31  51  78 105 134 166 210 259 308
#     4  10  20  33  50  71  95 124 164 209 252 299
#     4   9  18  34  54  74  98 129 164 204 252 308
#     4   8  16  28  50  76 104 144 180 232 258 300
#     4   8  17  30  50  71 104 143 181 217 257 295
#     4   9  18  33  48  68  97 128 163 205 251 297
#     4   9  18  33  53  73  95 125 157 195 248 309
#
# _framework density 16.213027
#
# number of rings (size 3 to 8) (size 9 to 14) (size 15 to 20)
#    0.226    2.264    1.509    2.038    1.057    3.321 
#    0.000    4.528    0.000    1.358    0.000    1.585 
#    0.000    3.623    0.000    0.000    0.000    0.000 
#
# Total GULP energy -295064.656135 kJ/mol
# GULP energy per Si atom -5567.257663 kJ/mol
# Density = 1.617613 g / cm^3
# Si number density = 16.213027 Si / 1000 Ang^3
#
#
#
# Elastic Constant Matrix: (Units=GPa)
#
#
# Indices 1 2 3 4 5 6 
#
# 1 94.5148 39.1924 54.5314 0.0000 0.0000 0.0000
# 2 39.1924 59.1193 37.1271 0.0000 0.0000 0.0000
# 3 54.5314 37.1271 106.6052 0.0000 0.0000 0.0000
# 4 0.0000 0.0000 0.0000 -34.6704 0.0000 0.0000
# 5 0.0000 0.0000 0.0000 0.0000 20.1872 0.0000
# 6 0.0000 0.0000 0.0000 0.0000 0.0000 24.3348
#
#
#
# Elastic Compliance Matrix: (Units=1/GPa)
#
#
# Indices 1 2 3 4 5 6 
#
# 1 0.017305 -0.007569 -0.006216 0.000000 0.000000 0.000000
# 2 -0.007569 0.024960 -0.004821 0.000000 0.000000 0.000000
# 3 -0.006216 -0.004821 0.014239 0.000000 0.000000 0.000000
# 4 0.000000 0.000000 0.000000 -0.028843 0.000000 0.000000
# 5 0.000000 0.000000 0.000000 0.000000 0.049536 0.000000
# 6 0.000000 0.000000 0.000000 0.000000 0.000000 0.041093
#
#
# Mechanical properties :
#
#
# Convention : Reuss Voigt Hill
#
# Bulk Modulus (GPa) = 51.83332 57.99348 54.91340
# Shear Modulus (GPa) = 30.87666 10.59622 20.73644
#
# Velocity S-wave (km/s) = 4.36872 2.55926 3.58019
# Velocity P-wave (km/s) = 7.58203 6.67686 7.14379
#
# Compressibility (1/GPa) = 0.01929261
#
# Stress axis : x y z
#
# Youngs Moduli (GPa) = 57.78565 40.06377 70.22815
#
# Poissons Ratio (x) = 0.30322 0.43656
# Poissons Ratio (y) = 0.43735 0.33859
# Poissons Ratio (z) = 0.35921 0.19316
#
# Static dielectric constant tensor:
#      x y z
#    x 1.530810 0.000000 0.000000 
#    y 0.000000 1.534590 0.000000 
#    z 0.000000 0.000000 1.558650 
# 
# From -- ./inp_files/32707.got.cif
#   From: 2010.05.17/outbox.cif.g08.bks.cpg/sg47_17_cif.got.tgz:32707.got - 2010.06.03 20:15:42.
