data_PCOD9385474
_publ_section_title
;
Structure prediction by ZEFSAII (Michael W. Deem and Ramdas Pophale) SiO2 
 PCOD9385474
Probable space group: P M M M
;
_chemical_formula_sum "Si O2"
_cell_formula_units_Z 56
_cell_length_a 14.161635
_cell_length_b 21.202250
_cell_length_c 10.134944
_cell_angle_alpha 90.000000
_cell_angle_beta 90.000000
_cell_angle_gamma 90.000000
_cell_volume 3043.103343
_symmetry_space_group_name_H-M "P M M M"
_symmetry_group_IT_number 47
_symmetry_cell_setting 'orthorhombic'
loop_
_space_group_symop_operation_xyz
x,y,z
-x,-y,z
x,-y,-z
-x,y,-z
-x,-y,-z
x,y,-z
-x,y,z
x,-y,z
loop_
_atom_site_type_symbol
_atom_site_label
_atom_site_fract_x
_atom_site_fract_y
_atom_site_fract_z
Si Si1 0.807833 0.674753 0.347812
Si Si2 0.386791 0.170731 0.853049
Si Si3 0.115102 0.071618 0.847434
Si Si4 0.393523 0.283601 0.649572
Si Si5 0.886461 0.186089 0.346129
Si Si6 0.886362 0.428559 0.848913
Si Si7 0.615101 0.073030 0.644137
O O1 0.837953 0.664765 0.500000
O O2 0.694284 0.669889 0.341542
O O3 0.837788 0.746848 0.314137
O O4 0.851472 0.624308 0.250299
O O5 0.500000 0.162141 0.865665
O O6 0.376786 0.230952 0.759545
O O7 0.350719 0.111864 0.768932
O O8 0.347444 0.177392 0.000000
O O9 0.141213 0.128282 0.748816
O O10 0.000000 0.070850 0.846812
O O11 0.144933 0.000000 0.809543
O O12 0.144034 0.082812 0.000000
O O13 0.389610 0.256172 0.500000
O O14 0.500000 0.308958 0.666343
O O15 0.865860 0.171618 0.500000
O O16 0.000000 0.194792 0.334622
O O17 0.856206 0.500000 0.813487
O O18 0.000000 0.428086 0.848199
O O19 0.855906 0.416039 0.000000
O O20 0.646255 0.097190 0.500000
O O21 0.500000 0.076548 0.643599
O O22 0.640108 0.000000 0.653865
#
# Coordination Sequence:
#
# PCOD9385474 Si02
#       7
#     8   8   8   8   8   8   8
#     4  10  20  33  52  79 107 136 175 220 261 302
#     4   9  16  25  39  60  84 110 145 194 251 306
#     4   8  14  25  41  62  90 126 167 205 241 292
#     4   9  18  33  51  69  93 128 169 213 259 305
#     4   9  17  28  43  68 102 132 158 197 251 307
#     4   9  19  36  57  83 116 150 178 202 236 292
#     4   8  13  21  34  53  77 106 141 183 238 307
#
# _framework density 18.402266999999998
#
# number of rings (size 3 to 8) (size 9 to 14) (size 15 to 20)
#    0.000    3.143    0.000    2.143    0.000    4.571 
#    0.000    5.000    0.000    1.286    0.000    5.000 
#    0.000    0.000    0.000    0.000    0.000    0.000 
#
# Total GULP energy -312126.696616 kJ/mol
# GULP energy per Si atom -5573.691011 kJ/mol
# Density = 1.836038 g / cm^3
# Si number density = 18.402267 Si / 1000 Ang^3
#
#
#
# Elastic Constant Matrix: (Units=GPa)
#
#
# Indices 1 2 3 4 5 6 
#
# 1 64.6412 33.3110 30.5603 0.0000 0.0000 0.0000
# 2 33.3110 114.3780 85.5014 0.0000 0.0000 0.0000
# 3 30.5603 85.5014 134.7565 0.0000 0.0000 0.0000
# 4 0.0000 0.0000 0.0000 11.3128 0.0000 0.0000
# 5 0.0000 0.0000 0.0000 0.0000 10.1817 0.0000
# 6 0.0000 0.0000 0.0000 0.0000 0.0000 0.7453
#
#
#
# Elastic Compliance Matrix: (Units=1/GPa)
#
#
# Indices 1 2 3 4 5 6 
#
# 1 0.018353 -0.004249 -0.001466 0.000000 0.000000 0.000000
# 2 -0.004249 0.017615 -0.010213 0.000000 0.000000 0.000000
# 3 -0.001466 -0.010213 0.014233 0.000000 0.000000 0.000000
# 4 0.000000 0.000000 0.000000 0.088395 0.000000 0.000000
# 5 0.000000 0.000000 0.000000 0.000000 0.098215 0.000000
# 6 0.000000 0.000000 0.000000 0.000000 0.000000 1.341688
#
#
# Mechanical properties :
#
#
# Convention : Reuss Voigt Hill
#
# Bulk Modulus (GPa) = 54.51108 68.05790 61.28449
# Shear Modulus (GPa) = 3.09316 15.40819 9.25067
#
# Velocity S-wave (km/s) = 1.29789 2.89675 2.24451
# Velocity P-wave (km/s) = 5.65086 6.94636 6.33183
#
# Compressibility (1/GPa) = 0.01834489
#
# Stress axis : x y z
#
# Youngs Moduli (GPa) = 54.48779 56.77043 70.25839
#
# Poissons Ratio (x) = 0.24122 0.10301
# Poissons Ratio (y) = 0.23152 0.71753
# Poissons Ratio (z) = 0.07989 0.57978
#
# Static dielectric constant tensor:
#      x y z
#    x 1.669210 0.000000 0.000000 
#    y 0.000000 1.600340 0.000000 
#    z 0.000000 0.000000 1.649820 
# 
# From -- ./inp_files/7370.got.cif
#   From: 2010.05.17/outbox.cif.g08.bks.cpg/sg47_4_cif.got.tgz:7370.got - 2010.06.03 20:15:42.
