data_PCOD9385350
_publ_section_title
;
Structure prediction by ZEFSAII (Michael W. Deem and Ramdas Pophale) SiO2 
 PCOD9385350
Probable space group: P M M M
;
_chemical_formula_sum "Si O2"
_cell_formula_units_Z 48
_cell_length_a 35.964094
_cell_length_b 7.661919
_cell_length_c 9.383936
_cell_angle_alpha 90.000000
_cell_angle_beta 90.000000
_cell_angle_gamma 90.000000
_cell_volume 2585.780867
_symmetry_space_group_name_H-M "P M M M"
_symmetry_group_IT_number 47
_symmetry_cell_setting 'orthorhombic'
loop_
_space_group_symop_operation_xyz
x,y,z
-x,-y,z
x,-y,-z
-x,y,-z
-x,-y,-z
x,y,-z
-x,y,z
x,-y,z
loop_
_atom_site_type_symbol
_atom_site_label
_atom_site_fract_x
_atom_site_fract_y
_atom_site_fract_z
Si Si1 0.097557 0.000000 0.825518
Si Si2 0.685037 0.286898 0.663162
Si Si3 0.385801 0.291915 0.160229
Si Si4 0.817507 0.000000 0.827066
Si Si5 0.541597 0.789551 0.662905
Si Si6 0.958079 0.700131 0.826581
Si Si7 0.759783 0.705166 0.829436
O O1 0.140085 0.000000 0.775991
O O2 0.073868 0.168473 0.779774
O O3 0.098154 0.000000 0.000000
O O4 0.685907 0.227696 0.500000
O O5 0.683964 0.500000 0.661284
O O6 0.648114 0.223960 0.743906
O O7 0.722308 0.240563 0.748296
O O8 0.380258 0.500000 0.150738
O O9 0.425302 0.264115 0.234805
O O10 0.385152 0.220539 0.000000
O O11 0.793825 0.829205 0.786569
O O12 0.819065 0.000000 0.000000
O O13 0.548540 0.730292 0.500000
O O14 0.500000 0.730579 0.704857
O O15 0.540974 0.000000 0.660675
O O16 0.951940 0.500000 0.782490
O O17 0.000000 0.753395 0.783595
O O18 0.957944 0.702075 0.000000
O O19 0.766994 0.500000 0.800936
O O20 0.753983 0.723123 0.000000
#
# Coordination Sequence:
#
# PCOD9385350 Si02
#       7
#     4   8   8   4   8   8   8
#     4   9  15  22  33  49  73 105 144 193 241 280
#     4   9  17  31  52  74  94 119 153 192 234 281
#     4  10  20  33  51  77 105 129 157 195 240 291
#     4   9  18  29  41  62  87 115 157 201 240 292
#     4   9  19  36  54  71  96 131 168 203 238 280
#     4   8  13  20  30  46  70 103 145 192 239 283
#     4   9  17  31  49  66  90 123 154 191 242 293
#
# _framework density 18.563058000000002
#
# number of rings (size 3 to 8) (size 9 to 14) (size 15 to 20)
#    0.000    3.000    0.000    2.250    0.000    5.667 
#    1.500    6.250    0.000    0.000    0.000    0.000 
#    0.000    0.000    0.000    0.000    0.000    6.667 
#
# Total GULP energy -267614.634684 kJ/mol
# GULP energy per Si atom -5575.304889 kJ/mol
# Density = 1.852081 g / cm^3
# Si number density = 18.563058 Si / 1000 Ang^3
#
#
#
# Elastic Constant Matrix: (Units=GPa)
#
#
# Indices 1 2 3 4 5 6 
#
# 1 200.4607 65.3722 73.5755 0.0000 0.0000 0.0000
# 2 65.3722 63.5638 31.5847 0.0000 0.0000 0.0000
# 3 73.5755 31.5847 62.5499 0.0000 0.0000 0.0000
# 4 0.0000 0.0000 0.0000 7.2850 0.0000 0.0000
# 5 0.0000 0.0000 0.0000 0.0000 -13.1524 0.0000
# 6 0.0000 0.0000 0.0000 0.0000 0.0000 9.2751
#
#
#
# Elastic Compliance Matrix: (Units=1/GPa)
#
#
# Indices 1 2 3 4 5 6 
#
# 1 0.010289 -0.006098 -0.009023 0.000000 0.000000 0.000000
# 2 -0.006098 0.024616 -0.005257 0.000000 0.000000 0.000000
# 3 -0.009023 -0.005257 0.029256 0.000000 0.000000 0.000000
# 4 0.000000 0.000000 0.000000 0.137268 0.000000 0.000000
# 5 0.000000 0.000000 0.000000 0.000000 -0.076032 0.000000
# 6 0.000000 0.000000 0.000000 0.000000 0.000000 0.107815
#
#
# Mechanical properties :
#
#
# Convention : Reuss Voigt Hill
#
# Bulk Modulus (GPa) = 42.72804 74.18213 58.45509
# Shear Modulus (GPa) = 17.74497 11.08436 14.41467
#
# Velocity S-wave (km/s) = 3.09517 2.44625 2.78964
# Velocity P-wave (km/s) = 5.98675 6.93021 6.47569
#
# Compressibility (1/GPa) = 0.02340383
#
# Stress axis : x y z
#
# Youngs Moduli (GPa) = 97.19093 40.62420 34.18137
#
# Poissons Ratio (x) = 0.24773 0.30843
# Poissons Ratio (y) = 0.59267 0.17969
# Poissons Ratio (z) = 0.87700 0.21356
#
# Static dielectric constant tensor:
#      x y z
#    x 1.618800 0.000000 0.000000 
#    y 0.000000 1.673810 0.000000 
#    z 0.000000 0.000000 1.624530 
# 
# From -- ./inp_files/13993.got.cif
#   From: 2010.05.17/outbox.cif.g08.bks.cpg/sg47_7_cif.got.tgz:13993.got - 2010.06.03 20:15:42.
