data_PCOD9385266
_publ_section_title
;
Structure prediction by ZEFSAII (Michael W. Deem and Ramdas Pophale) SiO2 
 PCOD9385266
Probable space group: P M M M
;
_chemical_formula_sum "Si O2"
_cell_formula_units_Z 37
_cell_length_a 10.066294
_cell_length_b 7.977443
_cell_length_c 23.511896
_cell_angle_alpha 90.000000
_cell_angle_beta 90.000000
_cell_angle_gamma 90.000000
_cell_volume 1888.082523
_symmetry_space_group_name_H-M "P M M M"
_symmetry_group_IT_number 47
_symmetry_cell_setting 'orthorhombic'
loop_
_space_group_symop_operation_xyz
x,y,z
-x,-y,z
x,-y,-z
-x,y,-z
-x,-y,-z
x,y,-z
-x,y,z
x,-y,z
loop_
_atom_site_type_symbol
_atom_site_label
_atom_site_fract_x
_atom_site_fract_y
_atom_site_fract_z
Si Si1 0.849844 0.204658 0.434478
Si Si2 0.297652 0.685572 0.000000
Si Si3 0.152132 0.300322 0.762505
Si Si4 0.348426 0.799106 0.662361
Si Si5 0.841103 0.807343 0.889793
Si Si6 0.500000 0.000000 0.000000
O O1 0.827927 0.254858 0.500000
O O2 0.736990 0.265078 0.391468
O O3 0.000000 0.256304 0.417512
O O4 0.849025 0.000000 0.433500
O O5 0.214062 0.702521 0.942020
O O6 0.388285 0.849561 0.000000
O O7 0.358145 0.500000 0.000000
O O8 0.147104 0.500000 0.757318
O O9 0.258604 0.234767 0.717551
O O10 0.193729 0.255514 0.826770
O O11 0.000000 0.235468 0.753021
O O12 0.500000 0.734382 0.665899
O O13 0.357436 0.000000 0.656113
O O14 0.000000 0.803869 0.892902
O O15 0.796337 0.000000 0.895209
#
# Coordination Sequence:
#
# PCOD9385266 Si02
#       6
#     8   4   8   8   8   1
#     4   8  14  26  47  75 105 138 179 228 282 341
#     4  12  24  42  66  91 123 164 206 252 303 357
#     4  10  21  37  57  82 110 145 192 241 290 346
#     4  10  20  33  50  77 110 147 186 227 282 344
#     4  10  20  38  65  94 120 147 187 246 309 361
#     4  12  26  48  58  86 128 172 214 246 286 370
#
# _framework density 19.596599999999999
#
# number of rings (size 3 to 8) (size 9 to 14) (size 15 to 20)
#    0.000    2.162    1.081    3.081    0.000    5.622 
#    1.946    2.162    0.000    0.649    0.000    4.541 
#    0.000    0.000    0.000    0.000    0.000    0.000 
#
# Total GULP energy -206129.663149 kJ/mol
# GULP energy per Si atom -5571.071977 kJ/mol
# Density = 1.955200 g / cm^3
# Si number density = 19.596600 Si / 1000 Ang^3
#
#
#
# Elastic Constant Matrix: (Units=GPa)
#
#
# Indices 1 2 3 4 5 6 
#
# 1 138.1750 26.4717 109.4114 0.0000 0.0000 0.0000
# 2 26.4717 67.7056 13.8976 0.0000 0.0000 0.0000
# 3 109.4114 13.8976 148.7473 0.0000 0.0000 0.0000
# 4 0.0000 0.0000 0.0000 -47.6812 0.0000 0.0000
# 5 0.0000 0.0000 0.0000 0.0000 -8.5008 0.0000
# 6 0.0000 0.0000 0.0000 0.0000 0.0000 -22.4868
#
#
#
# Elastic Compliance Matrix: (Units=1/GPa)
#
#
# Indices 1 2 3 4 5 6 
#
# 1 0.018615 -0.004555 -0.013266 0.000000 0.000000 0.000000
# 2 -0.004555 0.016173 0.001839 0.000000 0.000000 0.000000
# 3 -0.013266 0.001839 0.016309 0.000000 0.000000 0.000000
# 4 0.000000 0.000000 0.000000 -0.020973 0.000000 0.000000
# 5 0.000000 0.000000 0.000000 0.000000 -0.117636 0.000000
# 6 0.000000 0.000000 0.000000 0.000000 0.000000 -0.044470
#
#
# Mechanical properties :
#
#
# Convention : Reuss Voigt Hill
#
# Bulk Modulus (GPa) = 52.26624 72.68772 62.47698
# Shear Modulus (GPa) = -53.39561 -2.07728 -27.73645
#
# Velocity S-wave (km/s) = -5.22557 -1.03069 -3.76622
# Velocity P-wave (km/s) = 3.11123 5.97964 3.61084
#
# Compressibility (1/GPa) = 0.01913281
#
# Stress axis : x y z
#
# Youngs Moduli (GPa) = 53.72120 61.83082 61.31530
#
# Poissons Ratio (x) = 0.28163 0.81344
# Poissons Ratio (y) = 0.24469 -0.11277
# Poissons Ratio (z) = 0.71269 -0.11372
#
# Static dielectric constant tensor:
#      x y z
#    x 1.682290 0.000000 0.000000 
#    y 0.000000 1.698830 0.000000 
#    z 0.000000 0.000000 1.679510 
# 
# From -- ./inp_files/31683.got.cif
#   From: 2010.05.17/outbox.cif.g08.bks.cpg/sg47_16_cif.got.tgz:31683.got - 2010.06.03 20:15:42.
