data_PCOD9385477
_publ_section_title
;
Structure prediction by ZEFSAII (Michael W. Deem and Ramdas Pophale) SiO2 
 PCOD9385477
Probable space group: P M M M
;
_chemical_formula_sum "Si O2"
_cell_formula_units_Z 32
_cell_length_a 7.673629
_cell_length_b 9.766263
_cell_length_c 23.049127
_cell_angle_alpha 90.000000
_cell_angle_beta 90.000000
_cell_angle_gamma 90.000000
_cell_volume 1727.363325
_symmetry_space_group_name_H-M "P M M M"
_symmetry_group_IT_number 47
_symmetry_cell_setting 'orthorhombic'
loop_
_space_group_symop_operation_xyz
x,y,z
-x,-y,z
x,-y,-z
-x,y,-z
-x,-y,-z
x,y,-z
-x,y,z
x,-y,z
loop_
_atom_site_type_symbol
_atom_site_label
_atom_site_fract_x
_atom_site_fract_y
_atom_site_fract_z
Si Si1 0.789223 0.158712 0.261846
Si Si2 0.786496 0.342558 0.500000
Si Si3 0.000000 0.333374 0.066092
Si Si4 0.302548 0.660661 0.847366
Si Si5 0.212643 0.842568 0.607184
O O1 0.719207 0.254680 0.211519
O O2 0.733691 0.195695 0.327403
O O3 0.000000 0.166167 0.260161
O O4 0.740400 0.000000 0.252212
O O5 0.730617 0.500000 0.500000
O O6 0.729731 0.260079 0.557172
O O7 0.000000 0.342042 0.500000
O O8 0.832462 0.292121 0.103711
O O9 0.000000 0.500000 0.063585
O O10 0.000000 0.283529 0.000000
O O11 0.500000 0.672491 0.868472
O O12 0.266940 0.500000 0.835270
O O13 0.000000 0.842588 0.606879
O O14 0.265799 0.000000 0.595789
#
# Coordination Sequence:
#
# PCOD9385477 Si02
#       5
#     8   4   4   8   8
#     4   9  17  30  49  72  98 133 176 218 263 313
#     4   9  15  21  31  55  90 125 164 210 259 307
#     4   9  18  34  55  79 109 142 173 210 255 301
#     4  10  20  33  52  79 107 137 174 214 259 309
#     4   8  14  24  38  57  85 124 167 209 254 306
#
# _framework density 18.525344
#
# number of rings (size 3 to 8) (size 9 to 14) (size 15 to 20)
#    0.000    3.000    1.250    1.875    0.000    3.500 
#    0.000    5.000    0.000    1.500    0.000    2.625 
#    0.000    7.000    0.000    0.000    0.000    0.000 
#
# Total GULP energy -178467.907787 kJ/mol
# GULP energy per Si atom -5577.122118 kJ/mol
# Density = 1.848318 g / cm^3
# Si number density = 18.525344 Si / 1000 Ang^3
#
#
#
# Elastic Constant Matrix: (Units=GPa)
#
#
# Indices 1 2 3 4 5 6 
#
# 1 59.7945 35.0994 54.4370 0.0000 0.0000 0.0000
# 2 35.0994 72.8860 89.9226 0.0000 0.0000 0.0000
# 3 54.4370 89.9226 183.5786 0.0000 0.0000 0.0000
# 4 0.0000 0.0000 0.0000 56.9805 0.0000 0.0000
# 5 0.0000 0.0000 0.0000 0.0000 -11.4104 0.0000
# 6 0.0000 0.0000 0.0000 0.0000 0.0000 7.8844
#
#
#
# Elastic Compliance Matrix: (Units=1/GPa)
#
#
# Indices 1 2 3 4 5 6 
#
# 1 0.024280 -0.007101 -0.003722 0.000000 0.000000 0.000000
# 2 -0.007101 0.036752 -0.015897 0.000000 0.000000 0.000000
# 3 -0.003722 -0.015897 0.014337 0.000000 0.000000 0.000000
# 4 0.000000 0.000000 0.000000 0.017550 0.000000 0.000000
# 5 0.000000 0.000000 0.000000 0.000000 -0.087639 0.000000
# 6 0.000000 0.000000 0.000000 0.000000 0.000000 0.126833
#
#
# Mechanical properties :
#
#
# Convention : Reuss Voigt Hill
#
# Bulk Modulus (GPa) = 45.59694 75.01967 60.30831
# Shear Modulus (GPa) = 25.92519 19.81091 22.86805
#
# Velocity S-wave (km/s) = 3.74497 3.27371 3.51724
# Velocity P-wave (km/s) = 6.58532 7.40764 7.00855
#
# Compressibility (1/GPa) = 0.02193130
#
# Stress axis : x y z
#
# Youngs Moduli (GPa) = 41.18541 27.20938 69.74745
#
# Poissons Ratio (x) = 0.19322 0.25957
# Poissons Ratio (y) = 0.29247 1.10874
# Poissons Ratio (z) = 0.15327 0.43254
#
# Static dielectric constant tensor:
#      x y z
#    x 1.691810 0.000000 0.000000 
#    y 0.000000 1.613610 0.000000 
#    z 0.000000 0.000000 1.609590 
# 
# From -- ./inp_files/31606.got.cif
#   From: 2010.05.17/outbox.cif.g08.bks.cpg/sg47_16_cif.got.tgz:31606.got - 2010.06.03 20:15:42.
