data_PCOD9385194
_publ_section_title
;
Structure prediction by ZEFSAII (Michael W. Deem and Ramdas Pophale) SiO2 
 PCOD9385194
Probable space group: P M M M
;
_chemical_formula_sum "Si O2"
_cell_formula_units_Z 52
_cell_length_a 12.042864
_cell_length_b 28.756501
_cell_length_c 8.991658
_cell_angle_alpha 90.000000
_cell_angle_beta 90.000000
_cell_angle_gamma 90.000000
_cell_volume 3113.906753
_symmetry_space_group_name_H-M "P M M M"
_symmetry_group_IT_number 47
_symmetry_cell_setting 'orthorhombic'
loop_
_space_group_symop_operation_xyz
x,y,z
-x,-y,z
x,-y,-z
-x,y,-z
-x,-y,-z
x,y,-z
-x,y,z
x,-y,z
loop_
_atom_site_type_symbol
_atom_site_label
_atom_site_fract_x
_atom_site_fract_y
_atom_site_fract_z
Si Si1 0.133683 0.366179 0.328011
Si Si2 0.256948 0.912456 0.179487
Si Si3 0.132525 0.000000 0.677376
Si Si4 0.500000 0.053858 0.180362
Si Si5 0.134806 0.728894 0.170813
Si Si6 0.868172 0.173855 0.322201
Si Si7 0.730473 0.445750 0.822201
Si Si8 0.500000 0.556331 0.669698
O O1 0.168664 0.366586 0.500000
O O2 0.172199 0.318711 0.248513
O O3 0.179513 0.411221 0.245036
O O4 0.000000 0.366542 0.323919
O O5 0.186855 0.955001 0.247175
O O6 0.385673 0.920954 0.223507
O O7 0.204732 0.865403 0.243485
O O8 0.249869 0.913017 0.000000
O O9 0.153788 0.000000 0.500000
O O10 0.000000 0.000000 0.699127
O O11 0.500000 0.000000 0.232186
O O12 0.500000 0.052233 0.000000
O O13 0.163754 0.775266 0.261200
O O14 0.000000 0.727372 0.169332
O O15 0.172435 0.731577 0.000000
O O16 0.855513 0.171753 0.500000
O O17 0.000000 0.166491 0.289122
O O18 0.750046 0.500000 0.781440
O O19 0.611597 0.430838 0.755856
O O20 0.728491 0.442927 0.000000
O O21 0.500000 0.500000 0.665410
O O22 0.500000 0.573301 0.500000
#
# Coordination Sequence:
#
# PCOD9385194 Si02
#       8
#     8   8   4   4   8   8   8   4
#     4  10  20  33  50  74 105 140 175 212 260 315
#     4  11  21  35  56  77 100 133 173 211 249 298
#     4  11  23  36  49  72 108 139 162 199 252 299
#     4   9  18  36  56  75 100 133 174 218 255 289
#     4   9  17  31  52  76 101 132 172 212 251 305
#     4  10  20  34  52  77 109 137 163 204 258 307
#     4  10  20  33  50  73 102 136 175 219 264 311
#     4   9  17  31  51  72  95 126 167 213 259 307
#
# _framework density 16.699279000000001
#
# number of rings (size 3 to 8) (size 9 to 14) (size 15 to 20)
#    0.000    2.077    0.769    3.231    0.000    8.308 
#    0.000    3.462    0.000    0.923    0.000    5.385 
#    0.000    0.000    0.000    0.000    0.000    0.000 
#
# Total GULP energy -290118.011186 kJ/mol
# GULP energy per Si atom -5579.192523 kJ/mol
# Density = 1.666127 g / cm^3
# Si number density = 16.699279 Si / 1000 Ang^3
#
#
#
# Elastic Constant Matrix: (Units=GPa)
#
#
# Indices 1 2 3 4 5 6 
#
# 1 69.9324 53.6930 48.5493 0.0000 0.0000 0.0000
# 2 53.6930 132.1129 65.1134 0.0000 0.0000 0.0000
# 3 48.5493 65.1134 101.7811 0.0000 0.0000 0.0000
# 4 0.0000 0.0000 0.0000 31.8181 0.0000 0.0000
# 5 0.0000 0.0000 0.0000 0.0000 22.0994 0.0000
# 6 0.0000 0.0000 0.0000 0.0000 0.0000 -5.3187
#
#
#
# Elastic Compliance Matrix: (Units=1/GPa)
#
#
# Indices 1 2 3 4 5 6 
#
# 1 0.024324 -0.006086 -0.007709 0.000000 0.000000 0.000000
# 2 -0.006086 0.012578 -0.005143 0.000000 0.000000 0.000000
# 3 -0.007709 -0.005143 0.016793 0.000000 0.000000 0.000000
# 4 0.000000 0.000000 0.000000 0.031429 0.000000 0.000000
# 5 0.000000 0.000000 0.000000 0.000000 0.045250 0.000000
# 6 0.000000 0.000000 0.000000 0.000000 0.000000 -0.188017
#
#
# Mechanical properties :
#
#
# Convention : Reuss Voigt Hill
#
# Bulk Modulus (GPa) = 63.22158 70.94863 67.08511
# Shear Modulus (GPa) = -344.98687 18.81781 -163.08453
#
# Velocity S-wave (km/s) = -14.38876 3.36052 -9.89301
# Velocity P-wave (km/s) = 15.43073 7.59182 9.49926
#
# Compressibility (1/GPa) = 0.01581738
#
# Stress axis : x y z
#
# Youngs Moduli (GPa) = 41.11110 79.50467 59.55018
#
# Poissons Ratio (x) = 0.48390 0.45907
# Poissons Ratio (y) = 0.25022 0.30629
# Poissons Ratio (z) = 0.31692 0.40892
#
# Static dielectric constant tensor:
#      x y z
#    x 1.551030 0.000000 0.000000 
#    y 0.000000 1.545150 0.000000 
#    z 0.000000 0.000000 1.560730 
# 
# From -- ./inp_files/4623.got.cif
#   From: 2010.05.17/outbox.cif.g08.bks.cpg/sg47_3_cif.got.tgz:4623.got - 2010.06.03 20:15:42.
