data_PCOD9385214
_publ_section_title
;
Structure prediction by ZEFSAII (Michael W. Deem and Ramdas Pophale) SiO2 
 PCOD9385214
Probable space group: P M M M
;
_chemical_formula_sum "Si O2"
_cell_formula_units_Z 48
_cell_length_a 9.962599
_cell_length_b 19.074829
_cell_length_c 14.263518
_cell_angle_alpha 90.000000
_cell_angle_beta 90.000000
_cell_angle_gamma 90.000000
_cell_volume 2710.565822
_symmetry_space_group_name_H-M "P M M M"
_symmetry_group_IT_number 47
_symmetry_cell_setting 'orthorhombic'
loop_
_space_group_symop_operation_xyz
x,y,z
-x,-y,z
x,-y,-z
-x,y,-z
-x,-y,-z
x,y,-z
-x,y,z
x,-y,z
loop_
_atom_site_type_symbol
_atom_site_label
_atom_site_fract_x
_atom_site_fract_y
_atom_site_fract_z
Si Si1 0.154158 0.576202 0.613754
Si Si2 0.647315 0.692119 0.389972
Si Si3 0.155763 0.579975 0.113551
Si Si4 0.157499 0.084376 0.607587
Si Si5 0.341148 0.287180 0.111980
Si Si6 0.346440 0.172883 0.261822
O O1 0.156934 0.577820 0.500000
O O2 0.206180 0.500000 0.641677
O O3 0.241764 0.639819 0.647463
O O4 0.000000 0.582083 0.641614
O O5 0.669410 0.703963 0.500000
O O6 0.500000 0.659445 0.378942
O O7 0.649125 0.764861 0.337677
O O8 0.192708 0.500000 0.143254
O O9 0.253136 0.644579 0.139267
O O10 0.000000 0.592294 0.141194
O O11 0.157899 0.578755 0.000000
O O12 0.197736 0.105225 0.500000
O O13 0.247039 0.117441 0.690111
O O14 0.000000 0.103727 0.618513
O O15 0.166296 0.000000 0.611274
O O16 0.500000 0.299799 0.132385
O O17 0.304252 0.216018 0.168356
O O18 0.327150 0.277219 0.000000
O O19 0.500000 0.146178 0.249231
#
# Coordination Sequence:
#
# PCOD9385214 Si02
#       6
#     8   8   8   8   8   8
#     4   8  14  25  40  57  79 111 152 193 229 270
#     4   9  17  28  42  62  88 116 147 186 232 281
#     4   8  14  26  45  68  93 123 164 216 269 315
#     4   9  19  36  57  82 110 135 159 191 234 287
#     4   9  18  32  49  70  98 133 173 216 259 301
#     4  10  20  33  50  74 102 130 163 202 243 291
#
# _framework density 17.708479000000001
#
# number of rings (size 3 to 8) (size 9 to 14) (size 15 to 20)
#    0.000    3.167    0.000    2.000    0.000    3.333 
#    0.000    6.667    0.000    5.500    0.000    3.500 
#    0.000    0.000    0.000    0.000    0.000    0.000 
#
# Total GULP energy -267284.145765 kJ/mol
# GULP energy per Si atom -5568.419703 kJ/mol
# Density = 1.766817 g / cm^3
# Si number density = 17.708479 Si / 1000 Ang^3
#
#
#
# Elastic Constant Matrix: (Units=GPa)
#
#
# Indices 1 2 3 4 5 6 
#
# 1 47.6138 38.9917 30.8833 0.0000 0.0000 0.0000
# 2 38.9917 58.1811 28.9656 0.0000 0.0000 0.0000
# 3 30.8833 28.9656 99.8148 0.0000 0.0000 0.0000
# 4 0.0000 0.0000 0.0000 77.1880 0.0000 0.0000
# 5 0.0000 0.0000 0.0000 0.0000 9.1539 0.0000
# 6 0.0000 0.0000 0.0000 0.0000 0.0000 35.9566
#
#
#
# Elastic Compliance Matrix: (Units=1/GPa)
#
#
# Indices 1 2 3 4 5 6 
#
# 1 0.050147 -0.030253 -0.006736 0.000000 0.000000 0.000000
# 2 -0.030253 0.038342 -0.001766 0.000000 0.000000 0.000000
# 3 -0.006736 -0.001766 0.012615 0.000000 0.000000 0.000000
# 4 0.000000 0.000000 0.000000 0.012955 0.000000 0.000000
# 5 0.000000 0.000000 0.000000 0.000000 0.109243 0.000000
# 6 0.000000 0.000000 0.000000 0.000000 0.000000 0.027811
#
#
# Mechanical properties :
#
#
# Convention : Reuss Voigt Hill
#
# Bulk Modulus (GPa) = 42.38645 44.81010 43.59827
# Shear Modulus (GPa) = 14.85930 31.57764 23.21847
#
# Velocity S-wave (km/s) = 2.89988 4.22737 3.62491
# Velocity P-wave (km/s) = 5.93296 7.01333 6.49564
#
# Compressibility (1/GPa) = 0.02359244
#
# Stress axis : x y z
#
# Youngs Moduli (GPa) = 19.94152 26.08099 79.26879
#
# Poissons Ratio (x) = 0.78904 0.53398
# Poissons Ratio (y) = 0.60330 0.13999
# Poissons Ratio (z) = 0.13433 0.04606
#
# Static dielectric constant tensor:
#      x y z
#    x 1.620160 0.000000 0.000000 
#    y 0.000000 1.577720 0.000000 
#    z 0.000000 0.000000 1.677000 
# 
# From -- ./inp_files/21027.got.cif
#   From: 2010.05.17/outbox.cif.g08.bks.cpg/sg47_11_cif.got.tgz:21027.got - 2010.06.03 20:15:42.
