data_PCOD9385865
_publ_section_title
;
Structure prediction by ZEFSAII (Michael W. Deem and Ramdas Pophale) SiO2 
 PCOD9385865
Probable space group: P M M M
;
_chemical_formula_sum "Si O2"
_cell_formula_units_Z 56
_cell_length_a 14.199748
_cell_length_b 8.610574
_cell_length_c 22.314478
_cell_angle_alpha 90.000000
_cell_angle_beta 90.000000
_cell_angle_gamma 90.000000
_cell_volume 2728.346171
_symmetry_space_group_name_H-M "P M M M"
_symmetry_group_IT_number 47
_symmetry_cell_setting 'orthorhombic'
loop_
_space_group_symop_operation_xyz
x,y,z
-x,-y,z
x,-y,-z
-x,y,-z
-x,-y,-z
x,y,-z
-x,y,z
x,-y,z
loop_
_atom_site_type_symbol
_atom_site_label
_atom_site_fract_x
_atom_site_fract_y
_atom_site_fract_z
Si Si1 0.611073 0.684886 0.500000
Si Si2 0.757507 0.320195 0.717417
Si Si3 0.603608 0.680479 0.072647
Si Si4 0.895142 0.686682 0.817454
Si Si5 0.196763 0.184070 0.069468
Si Si6 0.113805 0.323018 0.500000
Si Si7 0.391111 0.814764 0.372164
Si Si8 0.112556 0.823495 0.374550
O O1 0.619736 0.500000 0.500000
O O2 0.500000 0.727985 0.500000
O O3 0.646077 0.748366 0.564074
O O4 0.733118 0.500000 0.726823
O O5 0.807680 0.254584 0.777101
O O6 0.670591 0.238113 0.684518
O O7 0.841524 0.299075 0.669678
O O8 0.500000 0.734784 0.093612
O O9 0.615108 0.500000 0.090622
O O10 0.696213 0.774991 0.089088
O O11 0.600530 0.683342 0.000000
O O12 0.895183 0.500000 0.811426
O O13 0.873697 0.732615 0.885464
O O14 0.000000 0.742712 0.799354
O O15 0.182871 0.000000 0.072237
O O16 0.185959 0.233852 0.000000
O O17 0.150812 0.500000 0.500000
O O18 0.138536 0.227325 0.558715
O O19 0.000000 0.334527 0.500000
O O20 0.500000 0.762922 0.365129
O O21 0.389641 0.000000 0.376405
O O22 0.000000 0.820810 0.369422
O O23 0.144925 0.000000 0.361739
#
# Coordination Sequence:
#
# PCOD9385865 Si02
#       8
#     4   8   8   8   8   4   8   8
#     4   9  17  32  57  88 120 155 197 244 293 342
#     4  11  23  39  60  84 110 143 188 237 282 336
#     4   8  14  27  50  80 114 152 190 225 264 316
#     4  10  23  43  64  85 111 147 192 240 290 348
#     4  10  21  36  57  88 122 153 188 235 292 353
#     4   9  17  30  49  74 106 143 183 230 279 322
#     4  10  21  38  60  87 121 158 196 241 293 348
#     4  10  20  34  53  78 109 144 182 225 276 333
#
# _framework density 20.525254
#
# number of rings (size 3 to 8) (size 9 to 14) (size 15 to 20)
#    0.000    2.286    0.000    3.000    0.000    7.429 
#    0.000    6.429    0.000    0.857    0.000    0.000 
#    0.000    0.000    0.000    0.000    0.000    0.000 
#
# Total GULP energy -312430.640178 kJ/mol
# GULP energy per Si atom -5579.118575 kJ/mol
# Density = 2.047854 g / cm^3
# Si number density = 20.525254 Si / 1000 Ang^3
#
#
#
# Elastic Constant Matrix: (Units=GPa)
#
#
# Indices 1 2 3 4 5 6 
#
# 1 100.4698 7.5175 35.3466 0.0000 0.0000 0.0000
# 2 7.5175 22.5936 4.6586 0.0000 0.0000 0.0000
# 3 35.3466 4.6586 86.8305 0.0000 0.0000 0.0000
# 4 0.0000 0.0000 0.0000 8.5717 0.0000 0.0000
# 5 0.0000 0.0000 0.0000 0.0000 29.3221 0.0000
# 6 0.0000 0.0000 0.0000 0.0000 0.0000 22.9320
#
#
#
# Elastic Compliance Matrix: (Units=1/GPa)
#
#
# Indices 1 2 3 4 5 6 
#
# 1 0.011811 -0.002971 -0.004649 0.000000 0.000000 0.000000
# 2 -0.002971 0.045503 -0.001232 0.000000 0.000000 0.000000
# 3 -0.004649 -0.001232 0.013475 0.000000 0.000000 0.000000
# 4 0.000000 0.000000 0.000000 0.116663 0.000000 0.000000
# 5 0.000000 0.000000 0.000000 0.000000 0.034104 0.000000
# 6 0.000000 0.000000 0.000000 0.000000 0.000000 0.043607
#
#
# Mechanical properties :
#
#
# Convention : Reuss Voigt Hill
#
# Bulk Modulus (GPa) = 18.83745 33.88215 26.35980
# Shear Modulus (GPa) = 16.63550 22.98991 19.81270
#
# Velocity S-wave (km/s) = 2.85000 3.35039 3.11027
# Velocity P-wave (km/s) = 4.47522 5.61339 5.07631
#
# Compressibility (1/GPa) = 0.05308574
#
# Stress axis : x y z
#
# Youngs Moduli (GPa) = 84.66689 21.97661 74.21098
#
# Poissons Ratio (x) = 0.06530 0.34497
# Poissons Ratio (y) = 0.25157 0.09141
# Poissons Ratio (z) = 0.39358 0.02707
#
# Static dielectric constant tensor:
#      x y z
#    x 1.780700 0.000000 0.000000 
#    y 0.000000 1.716940 0.000000 
#    z 0.000000 0.000000 1.735940 
# 
# From -- ./inp_files/31005.got.cif
#   From: 2010.05.17/outbox.cif.g08.bks.cpg/sg47_16_cif.got.tgz:31005.got - 2010.06.03 20:15:42.
