data_PCOD9385204
_publ_section_title
;
Structure prediction by ZEFSAII (Michael W. Deem and Ramdas Pophale) SiO2 
 PCOD9385204
Probable space group: P M M M
;
_chemical_formula_sum "Si O2"
_cell_formula_units_Z 52
_cell_length_a 35.703752
_cell_length_b 9.527965
_cell_length_c 7.548808
_cell_angle_alpha 90.000000
_cell_angle_beta 90.000000
_cell_angle_gamma 90.000000
_cell_volume 2567.984451
_symmetry_space_group_name_H-M "P M M M"
_symmetry_group_IT_number 47
_symmetry_cell_setting 'orthorhombic'
loop_
_space_group_symop_operation_xyz
x,y,z
-x,-y,z
x,-y,-z
-x,y,-z
-x,-y,-z
x,y,-z
-x,y,z
x,-y,z
loop_
_atom_site_type_symbol
_atom_site_label
_atom_site_fract_x
_atom_site_fract_y
_atom_site_fract_z
Si Si1 0.570735 0.341534 0.210453
Si Si2 0.500000 0.838416 0.782707
Si Si3 0.273273 0.837264 0.715955
Si Si4 0.959759 0.337499 0.787872
Si Si5 0.797915 0.335841 0.284067
Si Si6 0.120874 0.661144 0.711587
Si Si7 0.356744 0.839232 0.286565
O O1 0.570540 0.500000 0.282735
O O2 0.536896 0.244810 0.277940
O O3 0.610144 0.264196 0.235984
O O4 0.564664 0.352301 0.000000
O O5 0.500000 0.000000 0.725345
O O6 0.500000 0.840436 0.000000
O O7 0.273131 0.830554 0.500000
O O8 0.238343 0.746804 0.780404
O O9 0.315109 0.794152 0.773331
O O10 0.268440 0.000000 0.764053
O O11 0.958572 0.500000 0.722365
O O12 0.919496 0.270638 0.746828
O O13 0.000000 0.277599 0.726460
O O14 0.961254 0.342892 0.000000
O O15 0.797071 0.329121 0.500000
O O16 0.795766 0.500000 0.236821
O O17 0.839010 0.280293 0.226660
O O18 0.123557 0.652908 0.500000
O O19 0.118997 0.500000 0.780716
O O20 0.355795 0.843890 0.500000
O O21 0.363587 0.000000 0.225234
#
# Coordination Sequence:
#
# PCOD9385204 Si02
#       7
#     8   4   8   8   8   8   8
#     4  10  20  33  50  73  99 124 152 189 230 271
#     4   9  17  31  52  73  92 121 160 194 226 269
#     4   8  14  25  41  61  85 112 142 176 211 249
#     4   8  13  20  29  42  63  93 126 156 189 234
#     4   8  13  21  34  53  76 102 133 167 202 243
#     4   8  13  20  30  46  68  93 122 156 193 234
#     4   9  18  32  49  70  95 122 154 190 226 267
#
# _framework density 20.249343
#
# number of rings (size 3 to 8) (size 9 to 14) (size 15 to 20)
#    0.000    3.462    0.000    3.000    0.000    3.077 
#    0.000    3.462    0.000    3.231    0.000    2.154 
#    0.000    0.615    0.000    7.692    0.000    8.923 
#
# Total GULP energy -289533.000137 kJ/mol
# GULP energy per Si atom -5567.942310 kJ/mol
# Density = 2.020325 g / cm^3
# Si number density = 20.249343 Si / 1000 Ang^3
#
#
#
# Elastic Constant Matrix: (Units=GPa)
#
#
# Indices 1 2 3 4 5 6 
#
# 1 256.8460 104.5202 4.6138 0.0000 0.0000 0.0000
# 2 104.5202 82.1378 4.4307 0.0000 0.0000 0.0000
# 3 4.6138 4.4307 44.9414 0.0000 0.0000 0.0000
# 4 0.0000 0.0000 0.0000 5.7901 0.0000 0.0000
# 5 0.0000 0.0000 0.0000 0.0000 23.5939 0.0000
# 6 0.0000 0.0000 0.0000 0.0000 0.0000 -109.3747
#
#
#
# Elastic Compliance Matrix: (Units=1/GPa)
#
#
# Indices 1 2 3 4 5 6 
#
# 1 0.008076 -0.010287 0.000185 0.000000 0.000000 0.000000
# 2 -0.010287 0.025343 -0.001442 0.000000 0.000000 0.000000
# 3 0.000185 -0.001442 0.022374 0.000000 0.000000 0.000000
# 4 0.000000 0.000000 0.000000 0.172708 0.000000 0.000000
# 5 0.000000 0.000000 0.000000 0.000000 0.042384 0.000000
# 6 0.000000 0.000000 0.000000 0.000000 0.000000 -0.009143
#
#
# Mechanical properties :
#
#
# Convention : Reuss Voigt Hill
#
# Bulk Modulus (GPa) = 30.57674 67.89496 49.23585
# Shear Modulus (GPa) = 16.90720 2.02591 9.46655
#
# Velocity S-wave (km/s) = 2.89269 1.00133 2.16452
# Velocity P-wave (km/s) = 5.12735 5.91093 5.53303
#
# Compressibility (1/GPa) = 0.03270460
#
# Stress axis : x y z
#
# Youngs Moduli (GPa) = 123.82062 39.45928 44.69397
#
# Poissons Ratio (x) = 0.40592 -0.00827
# Poissons Ratio (y) = 1.27373 0.06447
# Poissons Ratio (z) = -0.02291 0.05692
#
# Static dielectric constant tensor:
#      x y z
#    x 1.770370 0.000000 0.000000 
#    y 0.000000 1.683460 0.000000 
#    z 0.000000 0.000000 1.778780 
# 
# From -- ./inp_files/20027.got.cif
#   From: 2010.05.17/outbox.cif.g08.bks.cpg/sg47_11_cif.got.tgz:20027.got - 2010.06.03 20:15:42.
