data_PCOD9385754
_publ_section_title
;
Structure prediction by ZEFSAII (Michael W. Deem and Ramdas Pophale) SiO2 
 PCOD9385754
Probable space group: P M M M
;
_chemical_formula_sum "Si O2"
_cell_formula_units_Z 52
_cell_length_a 14.093487
_cell_length_b 25.815441
_cell_length_c 8.015186
_cell_angle_alpha 90.000000
_cell_angle_beta 90.000000
_cell_angle_gamma 90.000000
_cell_volume 2916.161773
_symmetry_space_group_name_H-M "P M M M"
_symmetry_group_IT_number 47
_symmetry_cell_setting 'orthorhombic'
loop_
_space_group_symop_operation_xyz
x,y,z
-x,-y,z
x,-y,-z
-x,y,-z
-x,-y,-z
x,y,-z
-x,y,z
x,-y,z
loop_
_atom_site_type_symbol
_atom_site_label
_atom_site_fract_x
_atom_site_fract_y
_atom_site_fract_z
Si Si1 0.889821 0.831177 0.202155
Si Si2 0.885340 0.944321 0.801287
Si Si3 0.115798 0.440941 0.500000
Si Si4 0.393028 0.669542 0.300562
Si Si5 0.789568 0.273197 0.300590
Si Si6 0.387395 0.555945 0.200262
Si Si7 0.885884 0.624738 0.182396
O O1 0.855318 0.887921 0.263317
O O2 0.825574 0.783765 0.258661
O O3 0.000000 0.823377 0.255048
O O4 0.890460 0.832500 0.000000
O O5 0.000000 0.943852 0.786340
O O6 0.851990 0.000000 0.731455
O O7 0.864862 0.945002 0.000000
O O8 0.146333 0.500000 0.500000
O O9 0.146675 0.411043 0.334231
O O10 0.000000 0.440475 0.500000
O O11 0.399592 0.673727 0.500000
O O12 0.500000 0.674712 0.231038
O O13 0.316865 0.711963 0.243983
O O14 0.354338 0.611863 0.262562
O O15 0.795249 0.280545 0.500000
O O16 0.855642 0.316467 0.216395
O O17 0.500000 0.555540 0.243371
O O18 0.348345 0.500000 0.259491
O O19 0.380218 0.556390 0.000000
O O20 0.000000 0.622383 0.180754
O O21 0.850906 0.607696 0.000000
#
# Coordination Sequence:
#
# PCOD9385754 Si02
#       7
#     8   8   4   8   8   8   8
#     4   9  17  28  44  69  97 125 160 197 230 273
#     4   7  10  19  37  61  90 123 156 189 225 267
#     4   9  18  34  54  74  97 125 160 202 243 286
#     4   9  19  34  49  65  86 116 154 193 236 287
#     4  11  21  32  47  66  93 127 160 198 243 287
#     4   8  14  26  45  67  87 105 128 165 218 279
#     4  10  20  34  53  75  98 125 157 196 243 292
#
# _framework density 17.831658999999998
#
# number of rings (size 3 to 8) (size 9 to 14) (size 15 to 20)
#    0.000    3.000    0.769    2.769    0.000    4.000 
#    0.000    3.846    0.000    0.462    0.000    2.154 
#    0.000    0.615    0.000    7.692    0.000    0.308 
#
# Total GULP energy -289752.041705 kJ/mol
# GULP energy per Si atom -5572.154648 kJ/mol
# Density = 1.779107 g / cm^3
# Si number density = 17.831659 Si / 1000 Ang^3
#
#
#
# Elastic Constant Matrix: (Units=GPa)
#
#
# Indices 1 2 3 4 5 6 
#
# 1 64.6673 50.1754 15.8262 0.0000 0.0000 0.0000
# 2 50.1754 177.5794 34.3796 0.0000 0.0000 0.0000
# 3 15.8262 34.3796 57.6036 0.0000 0.0000 0.0000
# 4 0.0000 0.0000 0.0000 17.4846 0.0000 0.0000
# 5 0.0000 0.0000 0.0000 0.0000 5.9735 0.0000
# 6 0.0000 0.0000 0.0000 0.0000 0.0000 -8.9763
#
#
#
# Elastic Compliance Matrix: (Units=1/GPa)
#
#
# Indices 1 2 3 4 5 6 
#
# 1 0.020098 -0.005212 -0.002411 0.000000 0.000000 0.000000
# 2 -0.005212 0.007719 -0.003175 0.000000 0.000000 0.000000
# 3 -0.002411 -0.003175 0.019917 0.000000 0.000000 0.000000
# 4 0.000000 0.000000 0.000000 0.057193 0.000000 0.000000
# 5 0.000000 0.000000 0.000000 0.000000 0.167407 0.000000
# 6 0.000000 0.000000 0.000000 0.000000 0.000000 -0.111405
#
#
# Mechanical properties :
#
#
# Convention : Reuss Voigt Hill
#
# Bulk Modulus (GPa) = 38.25837 55.62364 46.94100
# Shear Modulus (GPa) = 26.14554 16.19430 21.16992
#
# Velocity S-wave (km/s) = 3.83331 3.01687 3.44933
# Velocity P-wave (km/s) = 6.41048 6.58762 6.49965
#
# Compressibility (1/GPa) = 0.02613807
#
# Stress axis : x y z
#
# Youngs Moduli (GPa) = 49.75688 129.55828 50.20772
#
# Poissons Ratio (x) = 0.67524 0.12106
# Poissons Ratio (y) = 0.25933 0.15940
# Poissons Ratio (z) = 0.11997 0.41131
#
# Static dielectric constant tensor:
#      x y z
#    x 1.630840 0.000000 0.000000 
#    y 0.000000 1.603680 0.000000 
#    z 0.000000 0.000000 1.640330 
# 
# From -- ./inp_files/7664.got.cif
#   From: 2010.05.17/outbox.cif.g08.bks.cpg/sg47_4_cif.got.tgz:7664.got - 2010.06.03 20:15:42.
