data_PCOD9385973
_publ_section_title
;
Structure prediction by ZEFSAII (Michael W. Deem and Ramdas Pophale) SiO2 
 PCOD9385973
Probable space group: P M M M
;
_chemical_formula_sum "Si O2"
_cell_formula_units_Z 48
_cell_length_a 7.983332
_cell_length_b 32.573638
_cell_length_c 9.267843
_cell_angle_alpha 90.000000
_cell_angle_beta 90.000000
_cell_angle_gamma 90.000000
_cell_volume 2410.067045
_symmetry_space_group_name_H-M "P M M M"
_symmetry_group_IT_number 47
_symmetry_cell_setting 'orthorhombic'
loop_
_space_group_symop_operation_xyz
x,y,z
-x,-y,z
x,-y,-z
-x,y,-z
-x,-y,-z
x,y,-z
-x,y,z
x,-y,z
loop_
_atom_site_type_symbol
_atom_site_label
_atom_site_fract_x
_atom_site_fract_y
_atom_site_fract_z
Si Si1 0.199006 0.412987 0.834548
Si Si2 0.700948 0.324856 0.165583
Si Si3 0.701835 0.081583 0.664503
Si Si4 0.799822 0.000000 0.835655
Si Si5 0.698738 0.500000 0.165296
Si Si6 0.705128 0.244395 0.665904
Si Si7 0.295002 0.162533 0.166202
O O1 0.257776 0.369718 0.771303
O O2 0.248635 0.456617 0.766975
O O3 0.000000 0.411856 0.841713
O O4 0.268919 0.413487 0.000000
O O5 0.500000 0.321760 0.158662
O O6 0.762043 0.286323 0.257761
O O7 0.765409 0.322883 0.000000
O O8 0.764609 0.079909 0.500000
O O9 0.500000 0.084288 0.658251
O O10 0.744826 0.040614 0.751205
O O11 0.761654 0.122195 0.747810
O O12 0.000000 0.000000 0.841449
O O13 0.734097 0.000000 0.000000
O O14 0.500000 0.500000 0.156184
O O15 0.770821 0.500000 0.000000
O O16 0.758439 0.242161 0.500000
O O17 0.500000 0.244632 0.666623
O O18 0.757683 0.204249 0.754602
O O19 0.500000 0.162315 0.166468
O O20 0.241234 0.161546 0.000000
#
# Coordination Sequence:
#
# PCOD9385973 Si02
#       7
#     8   8   8   4   4   8   8
#     4   9  16  25  38  58  86 119 153 189 230 276
#     4   9  16  26  41  62  88 118 152 189 229 274
#     4  10  20  34  54  80 107 135 170 212 257 305
#     4  11  24  39  54  74 102 137 176 215 256 304
#     4   9  15  23  37  59  88 119 150 187 232 280
#     4   9  16  26  42  66  95 124 155 194 238 282
#     4   9  16  27  46  73 103 132 161 198 246 295
#
# _framework density 19.916457000000001
#
# number of rings (size 3 to 8) (size 9 to 14) (size 15 to 20)
#    0.000    2.667    0.000    2.750    0.000    9.667 
#    0.000    0.000    0.000    1.500    0.000    2.917 
#    0.000    4.667    0.000    0.000    0.000    0.000 
#
# Total GULP energy -267739.356021 kJ/mol
# GULP energy per Si atom -5577.903250 kJ/mol
# Density = 1.987113 g / cm^3
# Si number density = 19.916457 Si / 1000 Ang^3
#
#
#
# Elastic Constant Matrix: (Units=GPa)
#
#
# Indices 1 2 3 4 5 6 
#
# 1 18.4888 10.3216 9.4199 0.0000 0.0000 0.0000
# 2 10.3216 248.1687 109.9219 0.0000 0.0000 0.0000
# 3 9.4199 109.9219 139.2245 0.0000 0.0000 0.0000
# 4 0.0000 0.0000 0.0000 10.2032 0.0000 0.0000
# 5 0.0000 0.0000 0.0000 0.0000 5.0279 0.0000
# 6 0.0000 0.0000 0.0000 0.0000 0.0000 -37.6381
#
#
#
# Elastic Compliance Matrix: (Units=1/GPa)
#
#
# Indices 1 2 3 4 5 6 
#
# 1 0.056180 -0.001004 -0.003008 0.000000 0.000000 0.000000
# 2 -0.001004 0.006214 -0.004839 0.000000 0.000000 0.000000
# 3 -0.003008 -0.004839 0.011206 0.000000 0.000000 0.000000
# 4 0.000000 0.000000 0.000000 0.098008 0.000000 0.000000
# 5 0.000000 0.000000 0.000000 0.000000 0.198889 0.000000
# 6 0.000000 0.000000 0.000000 0.000000 0.000000 -0.026569
#
#
# Mechanical properties :
#
#
# Convention : Reuss Voigt Hill
#
# Bulk Modulus (GPa) = 17.88947 73.91207 45.90077
# Shear Modulus (GPa) = 13.14877 13.93320 13.54098
#
# Velocity S-wave (km/s) = 2.57222 2.64783 2.61030
# Velocity P-wave (km/s) = 4.22179 6.82200 5.67288
#
# Compressibility (1/GPa) = 0.05589881
#
# Stress axis : x y z
#
# Youngs Moduli (GPa) = 17.79993 160.91606 89.23508
#
# Poissons Ratio (x) = 0.16157 0.26845
# Poissons Ratio (y) = 0.01787 0.43177
# Poissons Ratio (z) = 0.05355 0.77860
#
# Static dielectric constant tensor:
#      x y z
#    x 1.702060 0.000000 0.000000 
#    y 0.000000 1.705040 0.000000 
#    z 0.000000 0.000000 1.686820 
# 
# From -- ./inp_files/2679.got.cif
#   From: 2010.05.17/outbox.cif.g08.bks.cpg/sg47_2_cif.got.tgz:2679.got - 2010.06.03 20:15:42.
