data_PCOD9385457
_publ_section_title
;
Structure prediction by ZEFSAII (Michael W. Deem and Ramdas Pophale) SiO2 
 PCOD9385457
Probable space group: P M M M
;
_chemical_formula_sum "Si O2"
_cell_formula_units_Z 64
_cell_length_a 19.987635
_cell_length_b 8.911113
_cell_length_c 20.145890
_cell_angle_alpha 90.000000
_cell_angle_beta 90.000000
_cell_angle_gamma 90.000000
_cell_volume 3588.226252
_symmetry_space_group_name_H-M "P M M M"
_symmetry_group_IT_number 47
_symmetry_cell_setting 'orthorhombic'
loop_
_space_group_symop_operation_xyz
x,y,z
-x,-y,z
x,-y,-z
-x,y,-z
-x,-y,-z
x,y,-z
-x,y,z
x,-y,z
loop_
_atom_site_type_symbol
_atom_site_label
_atom_site_fract_x
_atom_site_fract_y
_atom_site_fract_z
Si Si1 0.780325 0.178746 0.074600
Si Si2 0.185831 0.331540 0.306590
Si Si3 0.598375 0.175430 0.426887
Si Si4 0.301424 0.324172 0.196249
Si Si5 0.924371 0.322514 0.899994
Si Si6 0.073895 0.831342 0.761625
Si Si7 0.424048 0.819467 0.723542
Si Si8 0.241047 0.167840 0.424928
O O1 0.732943 0.249517 0.131386
O O2 0.856485 0.243182 0.075859
O O3 0.783789 0.000000 0.085286
O O4 0.754032 0.207331 0.000000
O O5 0.159416 0.500000 0.300816
O O6 0.245289 0.313407 0.253669
O O7 0.129743 0.211758 0.289715
O O8 0.213803 0.296072 0.378458
O O9 0.577639 0.238176 0.500000
O O10 0.579169 0.235939 0.353851
O O11 0.678741 0.177943 0.426499
O O12 0.577518 0.000000 0.427169
O O13 0.313600 0.500000 0.182741
O O14 0.367924 0.250640 0.228358
O O15 0.919423 0.500000 0.912768
O O16 0.922861 0.285542 0.821814
O O17 0.000000 0.273810 0.922267
O O18 0.000000 0.825054 0.732235
O O19 0.083936 0.000000 0.788718
O O20 0.500000 0.792273 0.747073
O O21 0.412757 0.000000 0.721387
O O22 0.216482 0.179284 0.500000
O O23 0.225016 0.000000 0.399147
#
# Coordination Sequence:
#
# PCOD9385457 Si02
#       8
#     8   8   8   8   8   8   8   8
#     4  11  24  40  60  85 112 145 184 229 279 327
#     4  11  21  32  52  80 107 142 184 228 278 327
#     4   8  14  26  46  75 110 145 182 222 264 313
#     4  11  23  38  57  82 111 146 184 225 273 327
#     4  10  20  34  53  80 116 154 188 221 262 319
#     4  10  20  33  52  78 107 142 183 228 277 324
#     4  10  20  34  56  84 113 148 187 230 278 323
#     4   9  17  30  50  75 104 142 185 228 275 324
#
# _framework density 17.836110000000001
#
# number of rings (size 3 to 8) (size 9 to 14) (size 15 to 20)
#    0.000    2.000    2.500    2.625    0.000    4.500 
#    0.000    2.500    0.000    1.125    0.000    6.125 
#    0.000    0.000    0.000    0.000    0.000    0.000 
#
# Total GULP energy -356586.777037 kJ/mol
# GULP energy per Si atom -5571.668391 kJ/mol
# Density = 1.779551 g / cm^3
# Si number density = 17.836110 Si / 1000 Ang^3
#
#
#
# Elastic Constant Matrix: (Units=GPa)
#
#
# Indices 1 2 3 4 5 6 
#
# 1 91.4458 42.9268 56.5923 0.0000 0.0000 0.0000
# 2 42.9268 65.1915 41.5661 0.0000 0.0000 0.0000
# 3 56.5923 41.5661 98.6568 0.0000 0.0000 0.0000
# 4 0.0000 0.0000 0.0000 2.8512 0.0000 0.0000
# 5 0.0000 0.0000 0.0000 0.0000 -329.3890 0.0000
# 6 0.0000 0.0000 0.0000 0.0000 0.0000 17.1839
#
#
#
# Elastic Compliance Matrix: (Units=1/GPa)
#
#
# Indices 1 2 3 4 5 6 
#
# 1 0.019476 -0.007795 -0.007888 0.000000 0.000000 0.000000
# 2 -0.007795 0.024094 -0.005680 0.000000 0.000000 0.000000
# 3 -0.007888 -0.005680 0.017054 0.000000 0.000000 0.000000
# 4 0.000000 0.000000 0.000000 0.350732 0.000000 0.000000
# 5 0.000000 0.000000 0.000000 0.000000 -0.003036 0.000000
# 6 0.000000 0.000000 0.000000 0.000000 0.000000 0.058194
#
#
# Mechanical properties :
#
#
# Convention : Reuss Voigt Hill
#
# Bulk Modulus (GPa) = 55.87111 59.71830 57.79470
# Shear Modulus (GPa) = 9.70488 -54.25687 -22.27599
#
# Velocity S-wave (km/s) = 2.33516 -5.52139 -3.53785
# Velocity P-wave (km/s) = 6.21798 2.66332 3.97304
#
# Compressibility (1/GPa) = 0.01789834
#
# Stress axis : x y z
#
# Youngs Moduli (GPa) = 51.34481 41.50457 58.63827
#
# Poissons Ratio (x) = 0.32354 0.46252
# Poissons Ratio (y) = 0.40025 0.33304
# Poissons Ratio (z) = 0.40500 0.23573
#
# Static dielectric constant tensor:
#      x y z
#    x 1.608250 0.000000 0.000000 
#    y 0.000000 1.618160 0.000000 
#    z 0.000000 0.000000 1.621290 
# 
# From -- ./inp_files/28803.got.cif
#   From: 2010.05.17/outbox.cif.g08.bks.cpg/sg47_15_cif.got.tgz:28803.got - 2010.06.03 20:15:42.
