data_PCOD9385903
_publ_section_title
;
Structure prediction by ZEFSAII (Michael W. Deem and Ramdas Pophale) SiO2 
 PCOD9385903
Probable space group: P M M M
;
_chemical_formula_sum "Si O2"
_cell_formula_units_Z 48
_cell_length_a 8.031683
_cell_length_b 34.020804
_cell_length_c 9.431827
_cell_angle_alpha 90.000000
_cell_angle_beta 90.000000
_cell_angle_gamma 90.000000
_cell_volume 2577.193090
_symmetry_space_group_name_H-M "P M M M"
_symmetry_group_IT_number 47
_symmetry_cell_setting 'orthorhombic'
loop_
_space_group_symop_operation_xyz
x,y,z
-x,-y,z
x,-y,-z
-x,y,-z
-x,-y,-z
x,y,-z
-x,y,z
x,-y,z
loop_
_atom_site_type_symbol
_atom_site_label
_atom_site_fract_x
_atom_site_fract_y
_atom_site_fract_z
Si Si1 0.801816 0.659284 0.161155
Si Si2 0.697973 0.583880 0.338626
Si Si3 0.305043 0.100802 0.170521
Si Si4 0.802012 0.500000 0.662487
Si Si5 0.699856 0.255198 0.837569
Si Si6 0.297383 0.180369 0.661871
Si Si7 0.000000 0.955130 0.827831
O O1 0.754473 0.621515 0.251567
O O2 0.739765 0.701264 0.218066
O O3 0.000000 0.661356 0.154943
O O4 0.735471 0.655353 0.000000
O O5 0.766853 0.585621 0.500000
O O6 0.500000 0.584758 0.346407
O O7 0.747595 0.541609 0.273954
O O8 0.500000 0.091087 0.203070
O O9 0.259792 0.141330 0.248810
O O10 0.168498 0.068204 0.212083
O O11 0.295680 0.106308 0.000000
O O12 0.733107 0.500000 0.500000
O O13 0.000000 0.500000 0.656442
O O14 0.500000 0.251670 0.843847
O O15 0.763017 0.219540 0.741585
O O16 0.763472 0.252429 0.000000
O O17 0.238274 0.178011 0.500000
O O18 0.500000 0.182504 0.657769
O O19 0.000000 0.000000 0.776417
O O20 0.000000 0.956227 0.000000
#
# Coordination Sequence:
#
# PCOD9385903 Si02
#       7
#     8   8   8   4   8   8   4
#     4  10  21  36  52  73 103 137 171 209 256 308
#     4  10  20  34  54  78 102 131 169 211 253 301
#     4   9  17  31  52  76 103 138 176 214 262 315
#     4   9  17  31  52  77 104 133 164 202 252 305
#     4   9  17  31  51  72  97 132 171 209 251 303
#     4   9  17  30  50  75 102 132 168 211 255 301
#     4   9  18  32  51  79 109 135 173 223 265 306
#
# _framework density 18.624915000000001
#
# number of rings (size 3 to 8) (size 9 to 14) (size 15 to 20)
#    0.000    2.667    0.000    1.750    0.000    6.000 
#    1.500    4.167    0.000    3.500    0.000    2.333 
#    0.000    0.000    0.000    0.000    0.000    0.000 
#
# Total GULP energy -267579.060734 kJ/mol
# GULP energy per Si atom -5574.563765 kJ/mol
# Density = 1.858252 g / cm^3
# Si number density = 18.624915 Si / 1000 Ang^3
#
#
#
# Elastic Constant Matrix: (Units=GPa)
#
#
# Indices 1 2 3 4 5 6 
#
# 1 53.8931 52.0184 22.3125 0.0000 0.0000 0.0000
# 2 52.0184 206.6134 69.2153 0.0000 0.0000 0.0000
# 3 22.3125 69.2153 49.3525 0.0000 0.0000 0.0000
# 4 0.0000 0.0000 0.0000 73.0843 0.0000 0.0000
# 5 0.0000 0.0000 0.0000 0.0000 11.7853 0.0000
# 6 0.0000 0.0000 0.0000 0.0000 0.0000 59.0591
#
#
#
# Elastic Compliance Matrix: (Units=1/GPa)
#
#
# Indices 1 2 3 4 5 6 
#
# 1 0.025073 -0.004744 -0.004682 0.000000 0.000000 0.000000
# 2 -0.004744 0.010027 -0.011917 0.000000 0.000000 0.000000
# 3 -0.004682 -0.011917 0.039093 0.000000 0.000000 0.000000
# 4 0.000000 0.000000 0.000000 0.013683 0.000000 0.000000
# 5 0.000000 0.000000 0.000000 0.000000 0.084852 0.000000
# 6 0.000000 0.000000 0.000000 0.000000 0.000000 0.016932
#
#
# Mechanical properties :
#
#
# Convention : Reuss Voigt Hill
#
# Bulk Modulus (GPa) = 31.74077 66.32795 49.03436
# Shear Modulus (GPa) = 20.58906 39.87324 30.23115
#
# Velocity S-wave (km/s) = 3.32845 4.63196 4.03321
# Velocity P-wave (km/s) = 5.64363 8.01851 6.93351
#
# Compressibility (1/GPa) = 0.03150522
#
# Stress axis : x y z
#
# Youngs Moduli (GPa) = 39.88404 99.73503 25.58014
#
# Poissons Ratio (x) = 0.47313 0.11977
# Poissons Ratio (y) = 0.18921 0.30484
# Poissons Ratio (z) = 0.18675 1.18856
#
# Static dielectric constant tensor:
#      x y z
#    x 1.651000 0.000000 0.000000 
#    y 0.000000 1.636120 0.000000 
#    z 0.000000 0.000000 1.666390 
# 
# From -- ./inp_files/2753.got.cif
#   From: 2010.05.17/outbox.cif.g08.bks.cpg/sg47_2_cif.got.tgz:2753.got - 2010.06.03 20:15:42.
