data_PCOD9385780
_publ_section_title
;
Structure prediction by ZEFSAII (Michael W. Deem and Ramdas Pophale) SiO2 
 PCOD9385780
Probable space group: P M M M
;
_chemical_formula_sum "Si O2"
_cell_formula_units_Z 40
_cell_length_a 8.389479
_cell_length_b 28.391903
_cell_length_c 7.593568
_cell_angle_alpha 90.000000
_cell_angle_beta 90.000000
_cell_angle_gamma 90.000000
_cell_volume 1808.736823
_symmetry_space_group_name_H-M "P M M M"
_symmetry_group_IT_number 47
_symmetry_cell_setting 'orthorhombic'
loop_
_space_group_symop_operation_xyz
x,y,z
-x,-y,z
x,-y,-z
-x,y,-z
-x,-y,-z
x,y,-z
-x,y,z
x,-y,z
loop_
_atom_site_type_symbol
_atom_site_label
_atom_site_fract_x
_atom_site_fract_y
_atom_site_fract_z
Si Si1 0.814207 0.696935 0.288028
Si Si2 0.324210 0.102726 0.295868
Si Si3 0.184194 0.800809 0.793389
Si Si4 0.689083 0.597929 0.704873
Si Si5 0.000000 0.944906 0.285420
Si Si6 0.810604 0.500000 0.704511
O O1 0.801085 0.697118 0.500000
O O2 0.752161 0.747765 0.229105
O O3 0.738031 0.648593 0.220239
O O4 0.000000 0.695585 0.238541
O O5 0.331125 0.087649 0.500000
O O6 0.500000 0.092924 0.218483
O O7 0.289091 0.158515 0.290828
O O8 0.164144 0.078846 0.219945
O O9 0.000000 0.802334 0.724931
O O10 0.178248 0.810973 0.000000
O O11 0.747535 0.598519 0.500000
O O12 0.500000 0.595017 0.704371
O O13 0.754382 0.549459 0.784503
O O14 0.000000 0.939346 0.500000
O O15 0.000000 0.000000 0.245185
O O16 0.749409 0.500000 0.500000
O O17 0.000000 0.500000 0.700993
#
# Coordination Sequence:
#
# PCOD9385780 Si02
#       6
#     8   8   8   8   4   4
#     4   9  17  29  46  68  96 130 167 208 254 306
#     4  10  20  34  56  84 112 145 183 220 263 315
#     4  10  20  34  53  76 104 140 179 220 267 315
#     4   9  16  25  38  59  88 120 155 197 245 298
#     4   9  18  34  57  85 117 147 177 220 267 308
#     4   9  15  23  37  57  84 117 152 191 240 298
#
# _framework density 22.114881
#
# number of rings (size 3 to 8) (size 9 to 14) (size 15 to 20)
#    0.000    2.600    1.000    1.500    0.000    6.000 
#    0.000    4.000    0.000    1.200    0.000    2.100 
#    0.000    5.600    0.000    0.000    0.000    0.000 
#
# Total GULP energy -223138.506975 kJ/mol
# GULP energy per Si atom -5578.462674 kJ/mol
# Density = 2.206455 g / cm^3
# Si number density = 22.114881 Si / 1000 Ang^3
#
#
#
# Elastic Constant Matrix: (Units=GPa)
#
#
# Indices 1 2 3 4 5 6 
#
# 1 115.8646 76.2954 12.0016 0.0000 0.0000 0.0000
# 2 76.2954 148.4945 4.0677 0.0000 0.0000 0.0000
# 3 12.0016 4.0677 45.0096 0.0000 0.0000 0.0000
# 4 0.0000 0.0000 0.0000 -58.8298 0.0000 0.0000
# 5 0.0000 0.0000 0.0000 0.0000 -2.7464 0.0000
# 6 0.0000 0.0000 0.0000 0.0000 0.0000 -11.3127
#
#
#
# Elastic Compliance Matrix: (Units=1/GPa)
#
#
# Indices 1 2 3 4 5 6 
#
# 1 0.013427 -0.006818 -0.002964 0.000000 0.000000 0.000000
# 2 -0.006818 0.010213 0.000895 0.000000 0.000000 0.000000
# 3 -0.002964 0.000895 0.022927 0.000000 0.000000 0.000000
# 4 0.000000 0.000000 0.000000 -0.016998 0.000000 0.000000
# 5 0.000000 0.000000 0.000000 0.000000 -0.364110 0.000000
# 6 0.000000 0.000000 0.000000 0.000000 0.000000 -0.088397
#
#
# Mechanical properties :
#
#
# Convention : Reuss Voigt Hill
#
# Bulk Modulus (GPa) = 34.73058 54.89980 44.81519
# Shear Modulus (GPa) = -12.64009 -0.11084 -6.37546
#
# Velocity S-wave (km/s) = -2.39334 -0.22412 -1.69975
# Velocity P-wave (km/s) = 2.84628 4.98114 4.05666
#
# Compressibility (1/GPa) = 0.02879307
#
# Stress axis : x y z
#
# Youngs Moduli (GPa) = 74.47650 97.91885 43.61672
#
# Poissons Ratio (x) = 0.66756 0.12929
# Poissons Ratio (y) = 0.50775 -0.03903
# Poissons Ratio (z) = 0.22076 -0.08763
#
# Static dielectric constant tensor:
#      x y z
#    x 1.796680 0.000000 0.000000 
#    y 0.000000 1.818240 0.000000 
#    z 0.000000 0.000000 1.835380 
# 
# From -- ./inp_files/1833.got.cif
#   From: 2010.05.17/outbox.cif.g08.bks.cpg/sg47_1_cif.got.tgz:1833.got - 2010.06.03 20:15:42.
