data_PCOD9385892
_publ_section_title
;
Structure prediction by ZEFSAII (Michael W. Deem and Ramdas Pophale) SiO2 
 PCOD9385892
Probable space group: P M M M
;
_chemical_formula_sum "Si O2"
_cell_formula_units_Z 52
_cell_length_a 28.441362
_cell_length_b 8.014520
_cell_length_c 13.132578
_cell_angle_alpha 90.000000
_cell_angle_beta 90.000000
_cell_angle_gamma 90.000000
_cell_volume 2993.490581
_symmetry_space_group_name_H-M "P M M M"
_symmetry_group_IT_number 47
_symmetry_cell_setting 'orthorhombic'
loop_
_space_group_symop_operation_xyz
x,y,z
-x,-y,z
x,-y,-z
-x,y,-z
-x,-y,-z
x,y,-z
-x,y,z
x,-y,z
loop_
_atom_site_type_symbol
_atom_site_label
_atom_site_fract_x
_atom_site_fract_y
_atom_site_fract_z
Si Si1 0.208250 0.811651 0.000000
Si Si2 0.225146 0.201843 0.615818
Si Si3 0.894955 0.690757 0.000000
Si Si4 0.053161 0.800659 0.201621
Si Si5 0.380144 0.693703 0.876790
Si Si6 0.883247 0.796213 0.614776
Si Si7 0.274586 0.696299 0.180371
Si Si8 0.445981 0.000000 0.876076
O O1 0.240414 0.783133 0.900940
O O2 0.161438 0.702181 0.000000
O O3 0.190430 0.000000 0.000000
O O4 0.237585 0.252448 0.500000
O O5 0.170858 0.252808 0.634608
O O6 0.257295 0.270027 0.705564
O O7 0.226756 0.000000 0.619346
O O8 0.916774 0.770735 0.899278
O O9 0.909753 0.500000 0.000000
O O10 0.081573 0.734156 0.299066
O O11 0.000000 0.734791 0.192777
O O12 0.049783 0.000000 0.214982
O O13 0.390061 0.500000 0.847164
O O14 0.328764 0.744856 0.836308
O O15 0.418276 0.831875 0.845149
O O16 0.377598 0.695741 0.000000
O O17 0.895915 0.744912 0.500000
O O18 0.883572 0.000000 0.616155
O O19 0.271972 0.500000 0.157542
O O20 0.500000 0.000000 0.841783
O O21 0.446289 0.000000 0.000000
#
# Coordination Sequence:
#
# PCOD9385892 Si02
#       8
#     4   8   4   8   8   8   8   4
#     4  12  24  35  55  78 100 134 169 210 259 312
#     4   9  18  32  50  72 100 139 182 218 254 306
#     4  12  25  39  52  69  98 130 167 209 248 303
#     4  10  20  34  54  77  99 125 161 204 249 302
#     4   9  18  31  47  70 106 142 178 227 270 313
#     4   8  15  30  51  74  99 124 156 201 250 300
#     4  11  21  33  50  76 108 140 176 215 260 316
#     4   9  18  30  48  72 101 143 191 227 264 318
#
# _framework density 17.371023999999998
#
# number of rings (size 3 to 8) (size 9 to 14) (size 15 to 20)
#    0.000    2.231    0.769    3.923    2.154    3.385 
#    0.000    3.077    0.000    1.385    0.000    1.077 
#    0.000    1.231    0.000    3.385    0.000    0.154 
#
# Total GULP energy -290128.508817 kJ/mol
# GULP energy per Si atom -5579.394400 kJ/mol
# Density = 1.733149 g / cm^3
# Si number density = 17.371024 Si / 1000 Ang^3
#
#
#
# Elastic Constant Matrix: (Units=GPa)
#
#
# Indices 1 2 3 4 5 6 
#
# 1 125.1271 31.9446 59.4395 0.0000 0.0000 0.0000
# 2 31.9446 34.5406 14.0364 0.0000 0.0000 0.0000
# 3 59.4395 14.0364 85.3222 0.0000 0.0000 0.0000
# 4 0.0000 0.0000 0.0000 0.1335 0.0000 0.0000
# 5 0.0000 0.0000 0.0000 0.0000 -27.3206 0.0000
# 6 0.0000 0.0000 0.0000 0.0000 0.0000 -4.7503
#
#
#
# Elastic Compliance Matrix: (Units=1/GPa)
#
#
# Indices 1 2 3 4 5 6 
#
# 1 0.014604 -0.010043 -0.008522 0.000000 0.000000 0.000000
# 2 -0.010043 0.037933 0.000756 0.000000 0.000000 0.000000
# 3 -0.008522 0.000756 0.017532 0.000000 0.000000 0.000000
# 4 0.000000 0.000000 0.000000 7.491231 0.000000 0.000000
# 5 0.000000 0.000000 0.000000 0.000000 -0.036602 0.000000
# 6 0.000000 0.000000 0.000000 0.000000 0.000000 -0.210514
#
#
# Mechanical properties :
#
#
# Convention : Reuss Voigt Hill
#
# Bulk Modulus (GPa) = 29.02603 50.64785 39.83694
# Shear Modulus (GPa) = 0.67923 2.91716 1.79820
#
# Velocity S-wave (km/s) = 0.62599 1.29729 1.01854
# Velocity P-wave (km/s) = 4.15550 5.60926 4.93619
#
# Compressibility (1/GPa) = 0.03445184
#
# Stress axis : x y z
#
# Youngs Moduli (GPa) = 68.47461 26.36252 57.03738
#
# Poissons Ratio (x) = 0.26477 0.48605
# Poissons Ratio (y) = 0.68772 -0.04314
# Poissons Ratio (z) = 0.58351 -0.01994
#
# Static dielectric constant tensor:
#      x y z
#    x 1.576010 0.000000 0.000000 
#    y 0.000000 1.631380 0.000000 
#    z 0.000000 0.000000 1.595490 
# 
# From -- ./inp_files/19877.got.cif
#   From: 2010.05.17/outbox.cif.g08.bks.cpg/sg47_10_cif.got.tgz:19877.got - 2010.06.03 20:15:42.
