data_PCOD9385696
_publ_section_title
;
Structure prediction by ZEFSAII (Michael W. Deem and Ramdas Pophale) SiO2 
 PCOD9385696
Probable space group: P M M M
;
_chemical_formula_sum "Si O2"
_cell_formula_units_Z 36
_cell_length_a 12.012281
_cell_length_b 20.102992
_cell_length_c 7.487005
_cell_angle_alpha 90.000000
_cell_angle_beta 90.000000
_cell_angle_gamma 90.000000
_cell_volume 1807.982847
_symmetry_space_group_name_H-M "P M M M"
_symmetry_group_IT_number 47
_symmetry_cell_setting 'orthorhombic'
loop_
_space_group_symop_operation_xyz
x,y,z
-x,-y,z
x,-y,-z
-x,y,-z
-x,-y,-z
x,y,-z
-x,y,z
x,-y,z
loop_
_atom_site_type_symbol
_atom_site_label
_atom_site_fract_x
_atom_site_fract_y
_atom_site_fract_z
Si Si1 0.262576 0.425867 0.208247
Si Si2 0.500000 0.632763 0.706728
Si Si3 0.500000 0.789532 0.214979
Si Si4 0.868715 0.920499 0.500000
Si Si5 0.873003 0.699050 0.217647
Si Si6 0.256684 0.833944 0.215586
O O1 0.255159 0.500000 0.285915
O O2 0.388219 0.398480 0.214584
O O3 0.184111 0.368385 0.285313
O O4 0.231854 0.431183 0.000000
O O5 0.500000 0.615321 0.500000
O O6 0.500000 0.712624 0.725364
O O7 0.386377 0.826348 0.266898
O O8 0.500000 0.786179 0.000000
O O9 0.807598 0.889453 0.672561
O O10 0.000000 0.902537 0.500000
O O11 0.860120 0.000000 0.500000
O O12 0.800753 0.763511 0.263061
O O13 0.000000 0.705665 0.276591
O O14 0.872939 0.696853 0.000000
O O15 0.248523 0.843445 0.000000
#
# Coordination Sequence:
#
# PCOD9385696 Si02
#       6
#     8   4   4   4   8   8
#     4  10  20  34  52  74 107 150 194 245 304 361
#     4  12  23  33  52  79 111 151 196 253 307 359
#     4  10  20  37  63  93 124 156 200 255 306 360
#     4  11  26  45  67  97 130 164 202 244 294 360
#     4   9  17  31  54  83 112 146 193 245 297 355
#     4  10  21  39  65  94 126 164 205 254 305 359
#
# _framework density 19.911694000000001
#
# number of rings (size 3 to 8) (size 9 to 14) (size 15 to 20)
#    0.000    1.889    2.222    2.000    1.556    4.000 
#    0.000    4.444    0.000    2.000    0.000    1.556 
#    0.000    0.000    0.000    0.000    0.000    0.000 
#
# Total GULP energy -201085.520077 kJ/mol
# GULP energy per Si atom -5585.708891 kJ/mol
# Density = 1.986637 g / cm^3
# Si number density = 19.911694 Si / 1000 Ang^3
#
#
#
# Elastic Constant Matrix: (Units=GPa)
#
#
# Indices 1 2 3 4 5 6 
#
# 1 180.5548 79.2353 28.0081 0.0000 0.0000 0.0000
# 2 79.2353 123.9982 36.5252 0.0000 0.0000 0.0000
# 3 28.0081 36.5252 74.9024 0.0000 0.0000 0.0000
# 4 0.0000 0.0000 0.0000 57.9768 0.0000 0.0000
# 5 0.0000 0.0000 0.0000 0.0000 -12.3436 0.0000
# 6 0.0000 0.0000 0.0000 0.0000 0.0000 55.3683
#
#
#
# Elastic Compliance Matrix: (Units=1/GPa)
#
#
# Indices 1 2 3 4 5 6 
#
# 1 0.007717 -0.004766 -0.000562 0.000000 0.000000 0.000000
# 2 -0.004766 0.012361 -0.004245 0.000000 0.000000 0.000000
# 3 -0.000562 -0.004245 0.015631 0.000000 0.000000 0.000000
# 4 0.000000 0.000000 0.000000 0.017248 0.000000 0.000000
# 5 0.000000 0.000000 0.000000 0.000000 -0.081014 0.000000
# 6 0.000000 0.000000 0.000000 0.000000 0.000000 0.018061
#
#
# Mechanical properties :
#
#
# Convention : Reuss Voigt Hill
#
# Bulk Modulus (GPa) = 60.37607 74.11031 67.24319
# Shear Modulus (GPa) = 340.82637 35.91277 188.36957
#
# Velocity S-wave (km/s) = 13.09735 4.25149 9.73693
# Velocity P-wave (km/s) = 16.09685 7.83585 12.65917
#
# Compressibility (1/GPa) = 0.01656285
#
# Stress axis : x y z
#
# Youngs Moduli (GPa) = 129.58341 80.90285 63.97576
#
# Poissons Ratio (x) = 0.38556 0.03593
# Poissons Ratio (y) = 0.61757 0.27160
# Poissons Ratio (z) = 0.07278 0.34346
#
# Static dielectric constant tensor:
#      x y z
#    x 1.692490 0.000000 0.000000 
#    y 0.000000 1.669020 0.000000 
#    z 0.000000 0.000000 1.765030 
# 
# From -- ./inp_files/3967.got.cif
#   From: 2010.05.17/outbox.cif.g08.bks.cpg/sg47_2_cif.got.tgz:3967.got - 2010.06.03 20:15:42.
