data_PCOD9385563
_publ_section_title
;
Structure prediction by ZEFSAII (Michael W. Deem and Ramdas Pophale) SiO2 
 PCOD9385563
Probable space group: P M M M
;
_chemical_formula_sum "Si O2"
_cell_formula_units_Z 48
_cell_length_a 12.210489
_cell_length_b 13.361667
_cell_length_c 15.671498
_cell_angle_alpha 90.000000
_cell_angle_beta 90.000000
_cell_angle_gamma 90.000000
_cell_volume 2556.843888
_symmetry_space_group_name_H-M "P M M M"
_symmetry_group_IT_number 47
_symmetry_cell_setting 'orthorhombic'
loop_
_space_group_symop_operation_xyz
x,y,z
-x,-y,z
x,-y,-z
-x,y,-z
-x,-y,-z
x,y,-z
-x,y,z
x,-y,z
loop_
_atom_site_type_symbol
_atom_site_label
_atom_site_fract_x
_atom_site_fract_y
_atom_site_fract_z
Si Si1 0.153133 0.385454 0.903862
Si Si2 0.620351 0.386817 0.829114
Si Si3 0.128534 0.881647 0.000000
Si Si4 0.874710 0.615118 0.602953
Si Si5 0.500000 0.881186 0.397502
Si Si6 0.123824 0.188624 0.816707
Si Si7 0.296582 0.765656 0.311966
O O1 0.121465 0.500000 0.887790
O O2 0.284139 0.380324 0.897792
O O3 0.115505 0.308438 0.832069
O O4 0.118920 0.358472 0.000000
O O5 0.500000 0.372754 0.865518
O O6 0.626719 0.500000 0.792789
O O7 0.643242 0.306034 0.756321
O O8 0.170863 0.845223 0.908723
O O9 0.000000 0.852906 0.000000
O O10 0.135785 0.000000 0.000000
O O11 0.873862 0.614021 0.500000
O O12 0.854253 0.500000 0.631940
O O13 0.782331 0.692181 0.633594
O O14 0.000000 0.642746 0.629182
O O15 0.500000 0.871480 0.500000
O O16 0.390045 0.827544 0.360988
O O17 0.500000 0.000000 0.376273
O O18 0.209599 0.167974 0.742223
O O19 0.000000 0.149064 0.804105
#
# Coordination Sequence:
#
# PCOD9385563 Si02
#       7
#     8   8   4   8   4   8   8
#     4   9  17  28  44  70 108 153 193 226 263 312
#     4   9  17  29  46  72 106 142 182 228 271 318
#     4   9  18  34  53  74 104 139 177 230 292 340
#     4   9  18  33  55  86 122 154 182 217 270 341
#     4  11  26  46  65  84 108 141 185 242 305 358
#     4  10  20  33  53  82 112 145 186 230 275 331
#     4  11  20  36  58  83 110 147 188 232 280 343
#
# _framework density 18.773143999999998
#
# number of rings (size 3 to 8) (size 9 to 14) (size 15 to 20)
#    0.000    2.333    1.667    2.000    0.000    2.000 
#    0.000    2.500    0.000    4.000    0.000    7.000 
#    0.000    0.000    0.000    0.000    0.000    0.000 
#
# Total GULP energy -267476.422615 kJ/mol
# GULP energy per Si atom -5572.425471 kJ/mol
# Density = 1.873042 g / cm^3
# Si number density = 18.773144 Si / 1000 Ang^3
#
#
#
# Elastic Constant Matrix: (Units=GPa)
#
#
# Indices 1 2 3 4 5 6 
#
# 1 162.3883 45.4526 51.5095 0.0000 0.0000 0.0000
# 2 45.4526 78.6864 34.9083 0.0000 0.0000 0.0000
# 3 51.5095 34.9083 76.0260 0.0000 0.0000 0.0000
# 4 0.0000 0.0000 0.0000 15.0495 0.0000 0.0000
# 5 0.0000 0.0000 0.0000 0.0000 -20.8063 0.0000
# 6 0.0000 0.0000 0.0000 0.0000 0.0000 19.0195
#
#
#
# Elastic Compliance Matrix: (Units=1/GPa)
#
#
# Indices 1 2 3 4 5 6 
#
# 1 0.008340 -0.002902 -0.004318 0.000000 0.000000 0.000000
# 2 -0.002902 0.016969 -0.005826 0.000000 0.000000 0.000000
# 3 -0.004318 -0.005826 0.018754 0.000000 0.000000 0.000000
# 4 0.000000 0.000000 0.000000 0.066447 0.000000 0.000000
# 5 0.000000 0.000000 0.000000 0.000000 -0.048062 0.000000
# 6 0.000000 0.000000 0.000000 0.000000 0.000000 0.052578
#
#
# Mechanical properties :
#
#
# Convention : Reuss Voigt Hill
#
# Bulk Modulus (GPa) = 55.64179 64.53794 60.08986
# Shear Modulus (GPa) = 33.98868 15.00124 24.49496
#
# Velocity S-wave (km/s) = 4.25961 2.82987 3.61610
# Velocity P-wave (km/s) = 7.34137 6.71788 7.03654
#
# Compressibility (1/GPa) = 0.01797210
#
# Stress axis : x y z
#
# Youngs Moduli (GPa) = 119.90375 58.92967 53.32207
#
# Poissons Ratio (x) = 0.17101 0.23025
# Poissons Ratio (y) = 0.34794 0.31063
# Poissons Ratio (z) = 0.51776 0.34330
#
# Static dielectric constant tensor:
#      x y z
#    x 1.680740 0.000000 0.000000 
#    y 0.000000 1.677260 0.000000 
#    z 0.000000 0.000000 1.653210 
# 
# From -- ./inp_files/22743.got.cif
#   From: 2010.05.17/outbox.cif.g08.bks.cpg/sg47_12_cif.got.tgz:22743.got - 2010.06.03 20:15:42.
