data_PCOD9385366
_publ_section_title
;
Structure prediction by ZEFSAII (Michael W. Deem and Ramdas Pophale) SiO2 
 PCOD9385366
Probable space group: P M M M
;
_chemical_formula_sum "Si O2"
_cell_formula_units_Z 40
_cell_length_a 12.677435
_cell_length_b 20.509300
_cell_length_c 8.986023
_cell_angle_alpha 90.000000
_cell_angle_beta 90.000000
_cell_angle_gamma 90.000000
_cell_volume 2336.413764
_symmetry_space_group_name_H-M "P M M M"
_symmetry_group_IT_number 47
_symmetry_cell_setting 'orthorhombic'
loop_
_space_group_symop_operation_xyz
x,y,z
-x,-y,z
x,-y,-z
-x,y,-z
-x,-y,-z
x,y,-z
-x,y,z
x,-y,z
loop_
_atom_site_type_symbol
_atom_site_label
_atom_site_fract_x
_atom_site_fract_y
_atom_site_fract_z
Si Si1 0.718244 0.243492 0.676900
Si Si2 0.500000 0.400996 0.171544
Si Si3 0.500000 0.242755 0.829297
Si Si4 0.871919 0.000000 0.173690
Si Si5 0.124336 0.500000 0.821380
Si Si6 0.720604 0.398089 0.322298
Si Si7 0.875901 0.857201 0.179928
O O1 0.716398 0.235506 0.500000
O O2 0.606220 0.222872 0.746048
O O3 0.732895 0.320736 0.707490
O O4 0.808665 0.199938 0.748912
O O5 0.500000 0.321878 0.171221
O O6 0.607775 0.419803 0.254552
O O7 0.500000 0.422630 0.000000
O O8 0.500000 0.220765 0.000000
O O9 0.839975 0.070616 0.234970
O O10 0.000000 0.000000 0.176178
O O11 0.840855 0.000000 0.000000
O O12 0.185692 0.438232 0.753129
O O13 0.000000 0.500000 0.784563
O O14 0.134784 0.500000 0.000000
O O15 0.720067 0.408107 0.500000
O O16 0.000000 0.849927 0.213926
O O17 0.865841 0.855931 0.000000
#
# Coordination Sequence:
#
# PCOD9385366 Si02
#       7
#     8   4   4   4   4   8   8
#     4  10  20  33  51  77 107 135 165 205 252 301
#     4   9  17  32  56  83 106 126 159 210 257 294
#     4   9  17  31  52  75 100 133 170 206 248 297
#     4   7  12  26  47  70  97 130 169 211 251 291
#     4  11  25  42  57  74  99 133 173 215 256 297
#     4  10  21  37  56  77 103 135 169 205 250 306
#     4   9  17  30  50  75 102 134 172 211 250 295
#
# _framework density 17.120255
#
# number of rings (size 3 to 8) (size 9 to 14) (size 15 to 20)
#    0.000    2.600    0.000    3.300    0.000    7.200 
#    0.000    6.500    0.000    2.400    0.000    4.200 
#    0.000    0.000    0.000    0.000    0.000    0.000 
#
# Total GULP energy -223032.663194 kJ/mol
# GULP energy per Si atom -5575.816580 kJ/mol
# Density = 1.708129 g / cm^3
# Si number density = 17.120255 Si / 1000 Ang^3
#
#
#
# Elastic Constant Matrix: (Units=GPa)
#
#
# Indices 1 2 3 4 5 6 
#
# 1 141.3574 77.3890 75.5269 0.0000 0.0000 0.0000
# 2 77.3890 102.9692 59.2929 0.0000 0.0000 0.0000
# 3 75.5269 59.2929 78.4797 0.0000 0.0000 0.0000
# 4 0.0000 0.0000 0.0000 19.7285 0.0000 0.0000
# 5 0.0000 0.0000 0.0000 0.0000 100.8251 0.0000
# 6 0.0000 0.0000 0.0000 0.0000 0.0000 -59.5422
#
#
#
# Elastic Compliance Matrix: (Units=1/GPa)
#
#
# Indices 1 2 3 4 5 6 
#
# 1 0.016242 -0.005675 -0.011343 0.000000 0.000000 0.000000
# 2 -0.005675 0.019173 -0.009024 0.000000 0.000000 0.000000
# 3 -0.011343 -0.009024 0.030476 0.000000 0.000000 0.000000
# 4 0.000000 0.000000 0.000000 0.050688 0.000000 0.000000
# 5 0.000000 0.000000 0.000000 0.000000 0.009918 0.000000
# 6 0.000000 0.000000 0.000000 0.000000 0.000000 -0.016795
#
#
# Mechanical properties :
#
#
# Convention : Reuss Voigt Hill
#
# Bulk Modulus (GPa) = 72.42834 83.02487 77.72661
# Shear Modulus (GPa) = 30.04994 19.57546 24.81270
#
# Velocity S-wave (km/s) = 4.19409 3.38510 3.81112
# Velocity P-wave (km/s) = 8.11488 7.99243 8.05389
#
# Compressibility (1/GPa) = 0.01380675
#
# Stress axis : x y z
#
# Youngs Moduli (GPa) = 61.56933 52.15561 32.81252
#
# Poissons Ratio (x) = 0.29600 0.37219
# Poissons Ratio (y) = 0.34943 0.29610
# Poissons Ratio (z) = 0.69838 0.47065
#
# Static dielectric constant tensor:
#      x y z
#    x 1.549640 0.000000 0.000000 
#    y 0.000000 1.601930 0.000000 
#    z 0.000000 0.000000 1.570160 
# 
# From -- ./inp_files/4181.got.cif
#   From: 2010.05.17/outbox.cif.g08.bks.cpg/sg47_3_cif.got.tgz:4181.got - 2010.06.03 20:15:42.
