data_PCOD9385851
_publ_section_title
;
Structure prediction by ZEFSAII (Michael W. Deem and Ramdas Pophale) SiO2 
 PCOD9385851
Probable space group: P M M M
;
_chemical_formula_sum "Si O2"
_cell_formula_units_Z 48
_cell_length_a 19.000539
_cell_length_b 8.812496
_cell_length_c 16.634598
_cell_angle_alpha 90.000000
_cell_angle_beta 90.000000
_cell_angle_gamma 90.000000
_cell_volume 2785.333252
_symmetry_space_group_name_H-M "P M M M"
_symmetry_group_IT_number 47
_symmetry_cell_setting 'orthorhombic'
loop_
_space_group_symop_operation_xyz
x,y,z
-x,-y,z
x,-y,-z
-x,y,-z
-x,-y,-z
x,y,-z
-x,y,z
x,-y,z
loop_
_atom_site_type_symbol
_atom_site_label
_atom_site_fract_x
_atom_site_fract_y
_atom_site_fract_z
Si Si1 0.713200 0.682117 0.251988
Si Si2 0.080017 0.182001 0.826801
Si Si3 0.844539 0.818266 0.341281
Si Si4 0.417884 0.818791 0.669066
Si Si5 0.788684 0.682649 0.089196
Si Si6 0.916763 0.682467 0.500000
Si Si7 0.585193 0.672699 0.500000
O O1 0.715442 0.500000 0.257468
O O2 0.768801 0.751066 0.315807
O O3 0.635676 0.742274 0.269821
O O4 0.739165 0.730520 0.163219
O O5 0.105876 0.215392 0.735960
O O6 0.134170 0.258517 0.887510
O O7 0.000000 0.231648 0.838185
O O8 0.083601 0.000000 0.836541
O O9 0.878138 0.747123 0.420937
O O10 0.839386 0.000000 0.350140
O O11 0.500000 0.777151 0.681580
O O12 0.395597 0.760077 0.580824
O O13 0.412588 0.000000 0.672163
O O14 0.789281 0.500000 0.089221
O O15 0.768078 0.734897 0.000000
O O16 0.912478 0.500000 0.500000
O O17 0.000000 0.724913 0.500000
O O18 0.611962 0.500000 0.500000
O O19 0.500000 0.666471 0.500000
#
# Coordination Sequence:
#
# PCOD9385851 Si02
#       7
#     8   8   8   8   8   4   4
#     4  10  20  35  55  77 102 132 168 210 255 304
#     4   9  18  32  50  73 100 129 163 205 251 299
#     4  10  20  35  53  72  98 134 175 214 255 303
#     4  10  20  34  53  78 108 139 171 208 251 299
#     4   9  19  35  53  74 100 130 164 203 250 303
#     4  11  23  36  51  74 104 137 177 223 263 298
#     4   9  17  30  49  74 103 133 165 199 236 280
#
# _framework density 17.233125999999999
#
# number of rings (size 3 to 8) (size 9 to 14) (size 15 to 20)
#    0.000    2.333    0.000    2.500    0.000    6.333 
#    0.000    5.000    0.000    0.500    0.000    3.500 
#    0.000    0.000    0.000    0.000    0.000    0.000 
#
# Total GULP energy -267803.195076 kJ/mol
# GULP energy per Si atom -5579.233231 kJ/mol
# Density = 1.719390 g / cm^3
# Si number density = 17.233126 Si / 1000 Ang^3
#
#
#
# Elastic Constant Matrix: (Units=GPa)
#
#
# Indices 1 2 3 4 5 6 
#
# 1 110.8873 38.1419 64.3077 0.0000 0.0000 0.0000
# 2 38.1419 45.8652 36.9115 0.0000 0.0000 0.0000
# 3 64.3077 36.9115 120.7067 0.0000 0.0000 0.0000
# 4 0.0000 0.0000 0.0000 20.8773 0.0000 0.0000
# 5 0.0000 0.0000 0.0000 0.0000 10.3423 0.0000
# 6 0.0000 0.0000 0.0000 0.0000 0.0000 28.6088
#
#
#
# Elastic Compliance Matrix: (Units=1/GPa)
#
#
# Indices 1 2 3 4 5 6 
#
# 1 0.014980 -0.008005 -0.005533 0.000000 0.000000 0.000000
# 2 -0.008005 0.033198 -0.005887 0.000000 0.000000 0.000000
# 3 -0.005533 -0.005887 0.013033 0.000000 0.000000 0.000000
# 4 0.000000 0.000000 0.000000 0.047899 0.000000 0.000000
# 5 0.000000 0.000000 0.000000 0.000000 0.096690 0.000000
# 6 0.000000 0.000000 0.000000 0.000000 0.000000 0.034954
#
#
# Mechanical properties :
#
#
# Convention : Reuss Voigt Hill
#
# Bulk Modulus (GPa) = 44.72131 61.79791 53.25961
# Shear Modulus (GPa) = 17.41808 21.17223 19.29515
#
# Velocity S-wave (km/s) = 3.18265 3.50891 3.34975
# Velocity P-wave (km/s) = 6.28592 7.23563 6.77743
#
# Compressibility (1/GPa) = 0.02236071
#
# Stress axis : x y z
#
# Youngs Moduli (GPa) = 66.75346 30.12252 76.73072
#
# Poissons Ratio (x) = 0.24113 0.42456
# Poissons Ratio (y) = 0.53436 0.45171
# Poissons Ratio (z) = 0.36936 0.17733
#
# Static dielectric constant tensor:
#      x y z
#    x 1.576470 0.000000 0.000000 
#    y 0.000000 1.578980 0.000000 
#    z 0.000000 0.000000 1.581160 
# 
# From -- ./inp_files/9250.got.cif
#   From: 2010.05.17/outbox.cif.g08.bks.cpg/sg47_5_cif.got.tgz:9250.got - 2010.06.03 20:15:42.
