data_PCOD9385915
_publ_section_title
;
Structure prediction by ZEFSAII (Michael W. Deem and Ramdas Pophale) SiO2 
 PCOD9385915
Probable space group: P M M M
;
_chemical_formula_sum "Si O2"
_cell_formula_units_Z 40
_cell_length_a 8.431965
_cell_length_b 21.027869
_cell_length_c 12.241135
_cell_angle_alpha 90.000000
_cell_angle_beta 90.000000
_cell_angle_gamma 90.000000
_cell_volume 2170.429809
_symmetry_space_group_name_H-M "P M M M"
_symmetry_group_IT_number 47
_symmetry_cell_setting 'orthorhombic'
loop_
_space_group_symop_operation_xyz
x,y,z
-x,-y,z
x,-y,-z
-x,y,-z
-x,-y,-z
x,y,-z
-x,y,z
x,-y,z
loop_
_atom_site_type_symbol
_atom_site_label
_atom_site_fract_x
_atom_site_fract_y
_atom_site_fract_z
Si Si1 0.308560 0.072933 0.875084
Si Si2 0.810530 0.811784 0.267694
Si Si3 0.310627 0.229423 0.500000
Si Si4 0.808274 0.428597 0.269821
Si Si5 0.309620 0.376793 0.500000
Si Si6 0.193741 0.690476 0.125521
O O1 0.500000 0.074934 0.872344
O O2 0.242585 0.123906 0.791214
O O3 0.260533 0.000000 0.851946
O O4 0.259001 0.088177 0.000000
O O5 0.747798 0.803905 0.389999
O O6 0.753780 0.751499 0.195417
O O7 0.000000 0.809398 0.270562
O O8 0.500000 0.230189 0.500000
O O9 0.254728 0.303103 0.500000
O O10 0.755639 0.500000 0.241469
O O11 0.752078 0.410340 0.390877
O O12 0.754582 0.373974 0.186120
O O13 0.000000 0.427988 0.269467
O O14 0.500000 0.377951 0.500000
O O15 0.000000 0.690753 0.125095
O O16 0.246053 0.693805 0.000000
#
# Coordination Sequence:
#
# PCOD9385915 Si02
#       6
#     8   8   4   8   4   8
#     4   9  19  37  60  86 119 157 190 221 263 319
#     4  11  21  35  58  85 114 145 182 234 285 325
#     4  11  23  38  57  80 108 145 188 228 279 344
#     4  10  20  34  54  78 106 142 183 226 273 328
#     4  11  22  36  55  77 105 139 180 231 280 328
#     4   9  18  32  51  78 110 141 176 221 274 327
#
# _framework density 18.429531000000001
#
# number of rings (size 3 to 8) (size 9 to 14) (size 15 to 20)
#    0.000    2.000    2.000    2.700    0.000    4.400 
#    0.000    3.500    0.000    4.800    0.000    1.400 
#    0.000    0.000    0.000    0.000    0.000    0.000 
#
# Total GULP energy -223380.667646 kJ/mol
# GULP energy per Si atom -5584.516691 kJ/mol
# Density = 1.838758 g / cm^3
# Si number density = 18.429531 Si / 1000 Ang^3
#
#
#
# Elastic Constant Matrix: (Units=GPa)
#
#
# Indices 1 2 3 4 5 6 
#
# 1 17.5051 27.8934 22.6099 0.0000 0.0000 0.0000
# 2 27.8934 153.4338 103.7691 0.0000 0.0000 0.0000
# 3 22.6099 103.7691 177.6839 0.0000 0.0000 0.0000
# 4 0.0000 0.0000 0.0000 20.6298 0.0000 0.0000
# 5 0.0000 0.0000 0.0000 0.0000 13.7954 0.0000
# 6 0.0000 0.0000 0.0000 0.0000 0.0000 22.7523
#
#
#
# Elastic Compliance Matrix: (Units=1/GPa)
#
#
# Indices 1 2 3 4 5 6 
#
# 1 0.081276 -0.012861 -0.002832 0.000000 0.000000 0.000000
# 2 -0.012861 0.012807 -0.005843 0.000000 0.000000 0.000000
# 3 -0.002832 -0.005843 0.009401 0.000000 0.000000 0.000000
# 4 0.000000 0.000000 0.000000 0.048474 0.000000 0.000000
# 5 0.000000 0.000000 0.000000 0.000000 0.072488 0.000000
# 6 0.000000 0.000000 0.000000 0.000000 0.000000 0.043952
#
#
# Mechanical properties :
#
#
# Convention : Reuss Voigt Hill
#
# Bulk Modulus (GPa) = 16.55254 73.01862 44.78558
# Shear Modulus (GPa) = 15.07817 24.39218 19.73518
#
# Velocity S-wave (km/s) = 2.86344 3.64199 3.27593
# Velocity P-wave (km/s) = 4.46469 7.57575 6.21793
#
# Compressibility (1/GPa) = 0.06041370
#
# Stress axis : x y z
#
# Youngs Moduli (GPa) = 12.30374 78.08140 106.37554
#
# Poissons Ratio (x) = 1.00417 0.30121
# Poissons Ratio (y) = 0.15823 0.62155
# Poissons Ratio (z) = 0.03484 0.45623
#
# Static dielectric constant tensor:
#      x y z
#    x 1.629380 0.000000 0.000000 
#    y 0.000000 1.630470 0.000000 
#    z 0.000000 0.000000 1.599110 
# 
# From -- ./inp_files/10667.got.cif
#   From: 2010.05.17/outbox.cif.g08.bks.cpg/sg47_6_cif.got.tgz:10667.got - 2010.06.03 20:15:42.
