data_PCOD9385774
_publ_section_title
;
Structure prediction by ZEFSAII (Michael W. Deem and Ramdas Pophale) SiO2 
 PCOD9385774
Probable space group: P M M M
;
_chemical_formula_sum "Si O2"
_cell_formula_units_Z 52
_cell_length_a 21.170922
_cell_length_b 16.735213
_cell_length_c 8.766419
_cell_angle_alpha 90.000000
_cell_angle_beta 90.000000
_cell_angle_gamma 90.000000
_cell_volume 3105.941279
_symmetry_space_group_name_H-M "P M M M"
_symmetry_group_IT_number 47
_symmetry_cell_setting 'orthorhombic'
loop_
_space_group_symop_operation_xyz
x,y,z
-x,-y,z
x,-y,-z
-x,y,-z
-x,-y,-z
x,y,-z
-x,y,z
x,-y,z
loop_
_atom_site_type_symbol
_atom_site_label
_atom_site_fract_x
_atom_site_fract_y
_atom_site_fract_z
Si Si1 0.500000 0.907000 0.814680
Si Si2 0.928127 0.333429 0.683315
Si Si3 0.712270 0.000000 0.682415
Si Si4 0.738155 0.742817 0.317581
Si Si5 0.804945 0.408603 0.817961
Si Si6 0.636978 0.149915 0.816720
Si Si7 0.866747 0.165653 0.682397
Si Si8 0.852781 0.000000 0.819084
O O1 0.435804 0.862309 0.769159
O O2 0.500000 0.000000 0.762854
O O3 0.500000 0.909882 0.000000
O O4 0.920540 0.342711 0.500000
O O5 0.875887 0.386574 0.765726
O O6 0.911969 0.240574 0.717270
O O7 0.000000 0.352376 0.724144
O O8 0.675474 0.923506 0.745169
O O9 0.783224 0.000000 0.744270
O O10 0.713489 0.000000 0.500000
O O11 0.733136 0.744987 0.500000
O O12 0.760215 0.656045 0.262485
O O13 0.673692 0.772420 0.241917
O O14 0.796195 0.802955 0.274932
O O15 0.790556 0.500000 0.776858
O O16 0.800043 0.399638 0.000000
O O17 0.640210 0.145875 0.000000
O O18 0.867009 0.153015 0.500000
O O19 0.883231 0.082904 0.763050
O O20 0.847653 0.000000 0.000000
#
# Coordination Sequence:
#
# PCOD9385774 Si02
#       8
#     4   8   4   8   8   8   8   4
#     4   9  18  32  48  72 105 142 183 220 254 295
#     4   9  19  36  56  76 100 133 170 206 252 310
#     4  12  22  31  45  69 102 136 175 219 262 303
#     4  10  20  34  53  76 103 133 169 212 258 309
#     4  10  21  36  55  81 109 134 164 204 252 308
#     4  11  20  33  52  73 102 141 181 217 255 301
#     4   9  18  32  49  69  97 127 164 213 258 300
#     4  12  22  30  46  70  94 129 174 218 264 307
#
# _framework density 16.742108000000002
#
# number of rings (size 3 to 8) (size 9 to 14) (size 15 to 20)
#    0.000    1.923    2.308    3.692    0.000    4.308 
#    0.000    3.846    0.000    2.308    0.000    0.538 
#    0.000    4.308    0.000    0.000    0.000    0.000 
#
# Total GULP energy -290239.059914 kJ/mol
# GULP energy per Si atom -5581.520383 kJ/mol
# Density = 1.670400 g / cm^3
# Si number density = 16.742108 Si / 1000 Ang^3
#
#
#
# Elastic Constant Matrix: (Units=GPa)
#
#
# Indices 1 2 3 4 5 6 
#
# 1 65.2716 18.8421 13.2996 0.0000 0.0000 0.0000
# 2 18.8421 91.6216 29.5932 0.0000 0.0000 0.0000
# 3 13.2996 29.5932 48.8228 0.0000 0.0000 0.0000
# 4 0.0000 0.0000 0.0000 20.2510 0.0000 0.0000
# 5 0.0000 0.0000 0.0000 0.0000 17.6110 0.0000
# 6 0.0000 0.0000 0.0000 0.0000 0.0000 13.3751
#
#
#
# Elastic Compliance Matrix: (Units=1/GPa)
#
#
# Indices 1 2 3 4 5 6 
#
# 1 0.016647 -0.002436 -0.003058 0.000000 0.000000 0.000000
# 2 -0.002436 0.013928 -0.007779 0.000000 0.000000 0.000000
# 3 -0.003058 -0.007779 0.026030 0.000000 0.000000 0.000000
# 4 0.000000 0.000000 0.000000 0.049380 0.000000 0.000000
# 5 0.000000 0.000000 0.000000 0.000000 0.056783 0.000000
# 6 0.000000 0.000000 0.000000 0.000000 0.000000 0.074766
#
#
# Mechanical properties :
#
#
# Convention : Reuss Voigt Hill
#
# Bulk Modulus (GPa) = 33.26720 36.57620 34.92170
# Shear Modulus (GPa) = 18.24160 19.84617 19.04388
#
# Velocity S-wave (km/s) = 3.30444 3.44671 3.37632
# Velocity P-wave (km/s) = 5.87134 6.14280 6.00860
#
# Compressibility (1/GPa) = 0.03005964
#
# Stress axis : x y z
#
# Youngs Moduli (GPa) = 60.07136 71.79883 38.41686
#
# Poissons Ratio (x) = 0.17487 0.11749
# Poissons Ratio (y) = 0.14631 0.29883
# Poissons Ratio (z) = 0.18372 0.55850
#
# Static dielectric constant tensor:
#      x y z
#    x 1.562410 0.000000 0.000000 
#    y 0.000000 1.576290 0.000000 
#    z 0.000000 0.000000 1.560440 
# 
# From -- ./inp_files/11126.got.cif
#   From: 2010.05.17/outbox.cif.g08.bks.cpg/sg47_6_cif.got.tgz:11126.got - 2010.06.03 20:15:42.
