data_PCOD9385332
_publ_section_title
;
Structure prediction by ZEFSAII (Michael W. Deem and Ramdas Pophale) SiO2 
 PCOD9385332
Probable space group: P M M M
;
_chemical_formula_sum "Si O2"
_cell_formula_units_Z 40
_cell_length_a 8.487217
_cell_length_b 15.821366
_cell_length_c 13.884779
_cell_angle_alpha 90.000000
_cell_angle_beta 90.000000
_cell_angle_gamma 90.000000
_cell_volume 1864.439328
_symmetry_space_group_name_H-M "P M M M"
_symmetry_group_IT_number 47
_symmetry_cell_setting 'orthorhombic'
loop_
_space_group_symop_operation_xyz
x,y,z
-x,-y,z
x,-y,-z
-x,y,-z
-x,-y,-z
x,y,-z
-x,y,z
x,-y,z
loop_
_atom_site_type_symbol
_atom_site_label
_atom_site_fract_x
_atom_site_fract_y
_atom_site_fract_z
Si Si1 0.182342 0.876235 0.391738
Si Si2 0.327413 0.097188 0.193809
Si Si3 0.313117 0.596934 0.199754
Si Si4 0.812720 0.598704 0.000000
Si Si5 0.183320 0.327135 0.605882
Si Si6 0.000000 0.899523 0.114343
O O1 0.220107 0.904245 0.500000
O O2 0.297475 0.905259 0.308181
O O3 0.186957 0.774482 0.392413
O O4 0.000000 0.900706 0.370456
O O5 0.500000 0.135475 0.172793
O O6 0.165497 0.136891 0.153260
O O7 0.332099 0.000000 0.157667
O O8 0.500000 0.595627 0.189890
O O9 0.253364 0.500000 0.205909
O O10 0.245170 0.636103 0.101220
O O11 0.268868 0.640562 0.299538
O O12 0.755678 0.500000 0.000000
O O13 0.000000 0.598873 0.000000
O O14 0.245091 0.354385 0.500000
O O15 0.000000 0.353020 0.611276
O O16 0.000000 0.000000 0.141377
O O17 0.000000 0.893501 0.000000
#
# Coordination Sequence:
#
# PCOD9385332 Si02
#       6
#     8   8   8   4   8   4
#     4   9  18  34  55  76 103 140 175 212 263 318
#     4  10  20  33  53  82 110 138 177 221 265 317
#     4  10  20  33  51  76 106 137 169 212 263 313
#     4   9  17  31  53  77  99 129 170 211 258 313
#     4   9  19  35  54  76 102 137 179 217 258 311
#     4   9  18  34  55  77 105 141 177 218 270 318
#
# _framework density 21.454170000000001
#
# number of rings (size 3 to 8) (size 9 to 14) (size 15 to 20)
#    0.000    2.600    1.000    2.100    0.000    5.200 
#    0.000    8.000    2.200    0.000    0.000    0.000 
#    0.000    0.000    0.000    0.000    0.000    0.000 
#
# Total GULP energy -223122.466116 kJ/mol
# GULP energy per Si atom -5578.061653 kJ/mol
# Density = 2.140534 g / cm^3
# Si number density = 21.454170 Si / 1000 Ang^3
#
#
#
# Elastic Constant Matrix: (Units=GPa)
#
#
# Indices 1 2 3 4 5 6 
#
# 1 124.6970 8.8880 57.7825 0.0000 0.0000 0.0000
# 2 8.8880 29.1059 29.8488 0.0000 0.0000 0.0000
# 3 57.7825 29.8488 147.6739 0.0000 0.0000 0.0000
# 4 0.0000 0.0000 0.0000 16.0757 0.0000 0.0000
# 5 0.0000 0.0000 0.0000 0.0000 -11.3015 0.0000
# 6 0.0000 0.0000 0.0000 0.0000 0.0000 11.0185
#
#
#
# Elastic Compliance Matrix: (Units=1/GPa)
#
#
# Indices 1 2 3 4 5 6 
#
# 1 0.009828 0.001189 -0.004086 0.000000 0.000000 0.000000
# 2 0.001189 0.043485 -0.009255 0.000000 0.000000 0.000000
# 3 -0.004086 -0.009255 0.010241 0.000000 0.000000 0.000000
# 4 0.000000 0.000000 0.000000 0.062206 0.000000 0.000000
# 5 0.000000 0.000000 0.000000 0.000000 -0.088483 0.000000
# 6 0.000000 0.000000 0.000000 0.000000 0.000000 0.090756
#
#
# Mechanical properties :
#
#
# Convention : Reuss Voigt Hill
#
# Bulk Modulus (GPa) = 25.47710 54.94617 40.21164
# Shear Modulus (GPa) = 30.22613 16.82236 23.52424
#
# Velocity S-wave (km/s) = 3.75756 2.80323 3.31492
# Velocity P-wave (km/s) = 5.54316 6.01199 5.78233
#
# Compressibility (1/GPa) = 0.03925094
#
# Stress axis : x y z
#
# Youngs Moduli (GPa) = 101.74987 22.99639 97.64625
#
# Poissons Ratio (x) = -0.02734 0.39897
# Poissons Ratio (y) = -0.12098 0.90369
# Poissons Ratio (z) = 0.41574 0.21283
#
# Static dielectric constant tensor:
#      x y z
#    x 1.777180 0.000000 0.000000 
#    y 0.000000 1.802840 0.000000 
#    z 0.000000 0.000000 1.782660 
# 
# From -- ./inp_files/15093.got.cif
#   From: 2010.05.17/outbox.cif.g08.bks.cpg/sg47_8_cif.got.tgz:15093.got - 2010.06.03 20:15:42.
