data_PCOD9385536
_publ_section_title
;
Structure prediction by ZEFSAII (Michael W. Deem and Ramdas Pophale) SiO2 
 PCOD9385536
Probable space group: P M M M
;
_chemical_formula_sum "Si O2"
_cell_formula_units_Z 49
_cell_length_a 21.080012
_cell_length_b 7.740413
_cell_length_c 15.020234
_cell_angle_alpha 90.000000
_cell_angle_beta 90.000000
_cell_angle_gamma 90.000000
_cell_volume 2450.821525
_symmetry_space_group_name_H-M "P M M M"
_symmetry_group_IT_number 47
_symmetry_cell_setting 'orthorhombic'
loop_
_space_group_symop_operation_xyz
x,y,z
-x,-y,z
x,-y,-z
-x,y,-z
-x,-y,-z
x,y,-z
-x,y,z
x,-y,z
loop_
_atom_site_type_symbol
_atom_site_label
_atom_site_fract_x
_atom_site_fract_y
_atom_site_fract_z
Si Si1 0.658213 0.210451 0.901897
Si Si2 0.000000 0.500000 0.500000
Si Si3 0.500000 0.788675 0.602430
Si Si4 0.000000 0.812585 0.356723
Si Si5 0.193392 0.791297 0.901417
Si Si6 0.624897 0.211650 0.291480
Si Si7 0.750194 0.207976 0.398015
Si Si8 0.128159 0.301150 0.719722
O O1 0.732481 0.257770 0.892736
O O2 0.624279 0.268015 0.811603
O O3 0.655648 0.000000 0.902915
O O4 0.635948 0.268851 0.000000
O O5 0.000000 0.346950 0.423690
O O6 0.500000 0.732524 0.500000
O O7 0.563254 0.733628 0.653892
O O8 0.500000 0.000000 0.601980
O O9 0.936012 0.800084 0.299087
O O10 0.000000 0.000000 0.401086
O O11 0.153818 0.723229 0.819244
O O12 0.191768 0.000000 0.897638
O O13 0.171758 0.737271 0.000000
O O14 0.689375 0.268388 0.341098
O O15 0.625710 0.000000 0.291180
O O16 0.749587 0.271923 0.500000
O O17 0.815040 0.250434 0.347229
O O18 0.745583 0.000000 0.401488
O O19 0.113937 0.500000 0.703819
#
# Coordination Sequence:
#
# PCOD9385536 Si02
#       8
#     8   1   4   4   8   8   8   8
#     4   8  13  23  43  70  99 133 177 231 289 359
#     4  12  26  52  68 102 122 168 230 258 304 378
#     4   9  16  24  37  61 100 146 184 231 296 357
#     4  12  27  47  70  91 130 173 209 260 314 370
#     4   9  17  33  59  86 112 149 195 240 300 372
#     4   9  15  26  43  68 102 138 183 236 291 362
#     4  10  20  33  53  78 104 143 195 245 301 361
#     4  12  24  40  58  87 124 155 199 255 301 364
#
# _framework density 19.993296999999998
#
# number of rings (size 3 to 8) (size 9 to 14) (size 15 to 20)
#    0.000    2.204    2.449    3.061    1.143    2.612 
#    0.000    0.816    0.000    4.898    0.000    0.571 
#    0.000    1.959    0.000    3.592    0.000    3.592 
#
# Total GULP energy -273259.267614 kJ/mol
# GULP energy per Si atom -5576.719747 kJ/mol
# Density = 1.994779 g / cm^3
# Si number density = 19.993297 Si / 1000 Ang^3
#
#
#
# Elastic Constant Matrix: (Units=GPa)
#
#
# Indices 1 2 3 4 5 6 
#
# 1 129.9257 11.3478 93.4528 0.0000 0.0000 0.0000
# 2 11.3478 57.5856 16.9853 0.0000 0.0000 0.0000
# 3 93.4528 16.9853 214.0396 0.0000 0.0000 0.0000
# 4 0.0000 0.0000 0.0000 9.2527 0.0000 0.0000
# 5 0.0000 0.0000 0.0000 0.0000 222.7427 0.0000
# 6 0.0000 0.0000 0.0000 0.0000 0.0000 51.7149
#
#
#
# Elastic Compliance Matrix: (Units=1/GPa)
#
#
# Indices 1 2 3 4 5 6 
#
# 1 0.011255 -0.000787 -0.004852 0.000000 0.000000 0.000000
# 2 -0.000787 0.017837 -0.001072 0.000000 0.000000 0.000000
# 3 -0.004852 -0.001072 0.006875 0.000000 0.000000 0.000000
# 4 0.000000 0.000000 0.000000 0.108076 0.000000 0.000000
# 5 0.000000 0.000000 0.000000 0.000000 0.004489 0.000000
# 6 0.000000 0.000000 0.000000 0.000000 0.000000 0.019337
#
#
# Mechanical properties :
#
#
# Convention : Reuss Voigt Hill
#
# Bulk Modulus (GPa) = 44.35320 71.68028 58.01674
# Shear Modulus (GPa) = 26.48216 75.39307 50.93761
#
# Velocity S-wave (km/s) = 3.64339 6.14744 5.05298
# Velocity P-wave (km/s) = 6.31912 9.29075 7.94510
#
# Compressibility (1/GPa) = 0.02254629
#
# Stress axis : x y z
#
# Youngs Moduli (GPa) = 88.84798 56.06428 145.44549
#
# Poissons Ratio (x) = 0.04412 0.70566
# Poissons Ratio (y) = 0.06991 0.15590
# Poissons Ratio (z) = 0.43107 0.06009
#
# Static dielectric constant tensor:
#      x y z
#    x 1.673470 0.000000 0.000000 
#    y 0.000000 1.725880 0.000000 
#    z 0.000000 0.000000 1.702230 
# 
# From -- ./inp_files/24542.got.cif
#   From: 2010.05.17/outbox.cif.g08.bks.cpg/sg47_13_cif.got.tgz:24542.got - 2010.06.03 20:15:42.
