data_PCOD9385032
_publ_section_title
;
Structure prediction by ZEFSAII (Michael W. Deem and Ramdas Pophale) SiO2 
 PCOD9385032
Probable space group: P M M M
;
_chemical_formula_sum "Si O2"
_cell_formula_units_Z 52
_cell_length_a 14.774485
_cell_length_b 8.737849
_cell_length_c 23.998114
_cell_angle_alpha 90.000000
_cell_angle_beta 90.000000
_cell_angle_gamma 90.000000
_cell_volume 3098.089778
_symmetry_space_group_name_H-M "P M M M"
_symmetry_group_IT_number 47
_symmetry_cell_setting 'orthorhombic'
loop_
_space_group_symop_operation_xyz
x,y,z
-x,-y,z
x,-y,-z
-x,y,-z
-x,-y,-z
x,y,-z
-x,y,z
x,-y,z
loop_
_atom_site_type_symbol
_atom_site_label
_atom_site_fract_x
_atom_site_fract_y
_atom_site_fract_z
Si Si1 0.604069 0.186708 0.330738
Si Si2 0.284796 0.816692 0.221048
Si Si3 0.898052 0.684081 0.394389
Si Si4 0.390244 0.823873 0.000000
Si Si5 0.605701 0.316916 0.117833
Si Si6 0.897711 0.315978 0.262891
Si Si7 0.715187 0.184547 0.561500
O O1 0.500000 0.236611 0.327856
O O2 0.660164 0.234643 0.276345
O O3 0.653126 0.238953 0.387311
O O4 0.604261 0.000000 0.331209
O O5 0.333741 0.750347 0.166944
O O6 0.182237 0.760813 0.228663
O O7 0.287447 0.000000 0.218935
O O8 0.892189 0.500000 0.399516
O O9 0.887095 0.721969 0.328664
O O10 0.817214 0.760515 0.427690
O O11 0.000000 0.729673 0.411264
O O12 0.363217 0.742169 0.942744
O O13 0.500000 0.820648 0.000000
O O14 0.360972 0.000000 0.000000
O O15 0.500000 0.269931 0.125757
O O16 0.608892 0.500000 0.118706
O O17 0.891033 0.500000 0.258376
O O18 0.000000 0.271348 0.246543
O O19 0.684635 0.234532 0.500000
O O20 0.713736 0.000000 0.562650
#
# Coordination Sequence:
#
# PCOD9385032 Si02
#       7
#     8   8   8   4   8   8   8
#     4   9  18  32  48  68  95 126 161 204 252 299
#     4  11  20  31  51  77 104 133 167 211 258 304
#     4   9  18  33  52  71  93 123 156 194 246 308
#     4   9  17  31  51  75 106 143 182 221 257 293
#     4  10  20  33  50  75 109 147 182 214 252 299
#     4   9  18  33  52  73  98 128 162 203 253 309
#     4  10  20  33  49  70  94 122 161 207 253 302
#
# _framework density 16.784535999999999
#
# number of rings (size 3 to 8) (size 9 to 14) (size 15 to 20)
#    0.000    2.385    1.538    2.538    0.000    4.000 
#    0.000    4.615    0.000    1.385    0.000    1.615 
#    0.000    4.308    0.000    0.000    0.000    0.000 
#
# Total GULP energy -290070.833115 kJ/mol
# GULP energy per Si atom -5578.285252 kJ/mol
# Density = 1.674633 g / cm^3
# Si number density = 16.784536 Si / 1000 Ang^3
#
#
#
# Elastic Constant Matrix: (Units=GPa)
#
#
# Indices 1 2 3 4 5 6 
#
# 1 107.6564 25.1877 73.5983 0.0000 0.0000 0.0000
# 2 25.1877 25.2203 36.4749 0.0000 0.0000 0.0000
# 3 73.5983 36.4749 143.0985 0.0000 0.0000 0.0000
# 4 0.0000 0.0000 0.0000 21.4491 0.0000 0.0000
# 5 0.0000 0.0000 0.0000 0.0000 24.8167 0.0000
# 6 0.0000 0.0000 0.0000 0.0000 0.0000 22.7846
#
#
#
# Elastic Compliance Matrix: (Units=1/GPa)
#
#
# Indices 1 2 3 4 5 6 
#
# 1 0.014879 -0.006007 -0.006122 0.000000 0.000000 0.000000
# 2 -0.006007 0.065227 -0.013537 0.000000 0.000000 0.000000
# 3 -0.006122 -0.013537 0.013587 0.000000 0.000000 0.000000
# 4 0.000000 0.000000 0.000000 0.046622 0.000000 0.000000
# 5 0.000000 0.000000 0.000000 0.000000 0.040295 0.000000
# 6 0.000000 0.000000 0.000000 0.000000 0.000000 0.043889
#
#
# Mechanical properties :
#
#
# Convention : Reuss Voigt Hill
#
# Bulk Modulus (GPa) = 23.60524 60.72189 42.16357
# Shear Modulus (GPa) = 17.24434 23.19104 20.21769
#
# Velocity S-wave (km/s) = 3.20878 3.72114 3.47442
# Velocity P-wave (km/s) = 5.27471 7.39719 6.42421
#
# Compressibility (1/GPa) = 0.04236347
#
# Stress axis : x y z
#
# Youngs Moduli (GPa) = 67.20853 15.33110 73.59963
#
# Poissons Ratio (x) = 0.09209 0.45054
# Poissons Ratio (y) = 0.40369 0.99629
# Poissons Ratio (z) = 0.41142 0.20753
#
# Static dielectric constant tensor:
#      x y z
#    x 1.552390 0.000000 0.000000 
#    y 0.000000 1.563810 0.000000 
#    z 0.000000 0.000000 1.559140 
# 
# From -- ./inp_files/6975.got.cif
#   From: 2010.05.17/outbox.cif.g08.bks.cpg/sg47_4_cif.got.tgz:6975.got - 2010.06.03 20:15:42.
