data_PCOD9385113
_publ_section_title
;
Structure prediction by ZEFSAII (Michael W. Deem and Ramdas Pophale) SiO2 
 PCOD9385113
Probable space group: P M M M
;
_chemical_formula_sum "Si O2"
_cell_formula_units_Z 64
_cell_length_a 7.405271
_cell_length_b 19.242752
_cell_length_c 21.104379
_cell_angle_alpha 90.000000
_cell_angle_beta 90.000000
_cell_angle_gamma 90.000000
_cell_volume 3007.327437
_symmetry_space_group_name_H-M "P M M M"
_symmetry_group_IT_number 47
_symmetry_cell_setting 'orthorhombic'
loop_
_space_group_symop_operation_xyz
x,y,z
-x,-y,z
x,-y,-z
-x,y,-z
-x,-y,-z
x,y,-z
-x,y,z
x,-y,z
loop_
_atom_site_type_symbol
_atom_site_label
_atom_site_fract_x
_atom_site_fract_y
_atom_site_fract_z
Si Si1 0.780021 0.579631 0.928367
Si Si2 0.219810 0.079918 0.071629
Si Si3 0.786329 0.668848 0.428826
Si Si4 0.779008 0.580007 0.689176
Si Si5 0.285032 0.171397 0.428556
Si Si6 0.220581 0.670240 0.189846
Si Si7 0.787211 0.078136 0.308611
Si Si8 0.778810 0.829820 0.808760
O O1 0.726277 0.500000 0.914372
O O2 0.720359 0.632497 0.874546
O O3 0.000000 0.580174 0.928187
O O4 0.723096 0.596884 0.000000
O O5 0.278139 0.131461 0.126906
O O6 0.000000 0.080479 0.071715
O O7 0.273833 0.000000 0.084454
O O8 0.276635 0.098278 0.000000
O O9 0.711196 0.660451 0.500000
O O10 0.500000 0.831006 0.431608
O O11 0.715930 0.618014 0.374802
O O12 0.765549 0.749721 0.410419
O O13 0.722753 0.500000 0.692905
O O14 0.723004 0.624809 0.749860
O O15 0.000000 0.580409 0.688855
O O16 0.214578 0.158331 0.500000
O O17 0.229319 0.116736 0.375649
O O18 0.000000 0.344464 0.432801
O O19 0.279044 0.749938 0.194013
O O20 0.000000 0.670413 0.189717
O O21 0.715786 0.126470 0.252123
O O22 0.000000 0.071946 0.295708
O O23 0.712072 0.000000 0.309683
O O24 0.000000 0.829206 0.808376
#
# Coordination Sequence:
#
# PCOD9385113 Si02
#       8
#     8   8   8   8   8   8   8   8
#     4   8  13  20  28  39  61  98 143 185 221 260
#     4   8  13  21  33  50  76 112 150 186 227 275
#     4   9  17  30  49  71  94 120 150 185 225 271
#     4   9  16  25  39  61  88 116 148 188 230 269
#     4  10  21  36  53  72  95 123 153 188 232 280
#     4   9  15  21  31  48  72 104 142 184 226 266
#     4  10  20  33  50  71  95 124 157 193 233 278
#     4   9  16  25  38  58  85 116 151 191 232 274
#
# _framework density 21.281354
#
# number of rings (size 3 to 8) (size 9 to 14) (size 15 to 20)
#    0.000    3.000    0.000    2.625    0.000    7.000 
#    0.000    5.000    0.000    0.375    0.000    1.750 
#    0.000    0.500    0.000    2.875    0.000    4.625 
#
# Total GULP energy -357351.458904 kJ/mol
# GULP energy per Si atom -5583.616545 kJ/mol
# Density = 2.123292 g / cm^3
# Si number density = 21.281354 Si / 1000 Ang^3
#
#
#
# Elastic Constant Matrix: (Units=GPa)
#
#
# Indices 1 2 3 4 5 6 
#
# 1 70.3626 3.5536 3.4345 0.0000 0.0000 0.0000
# 2 3.5536 221.3349 162.1952 0.0000 0.0000 0.0000
# 3 3.4345 162.1952 177.7738 0.0000 0.0000 0.0000
# 4 0.0000 0.0000 0.0000 49.3443 0.0000 0.0000
# 5 0.0000 0.0000 0.0000 0.0000 -55.8923 0.0000
# 6 0.0000 0.0000 0.0000 0.0000 0.0000 -38.8999
#
#
#
# Elastic Compliance Matrix: (Units=1/GPa)
#
#
# Indices 1 2 3 4 5 6 
#
# 1 0.014226 -0.000081 -0.000200 0.000000 0.000000 0.000000
# 2 -0.000081 0.013633 -0.012437 0.000000 0.000000 0.000000
# 3 -0.000200 -0.012437 0.016976 0.000000 0.000000 0.000000
# 4 0.000000 0.000000 0.000000 0.020266 0.000000 0.000000
# 5 0.000000 0.000000 0.000000 0.000000 -0.017892 0.000000
# 6 0.000000 0.000000 0.000000 0.000000 0.000000 -0.025707
#
#
# Mechanical properties :
#
#
# Convention : Reuss Voigt Hill
#
# Bulk Modulus (GPa) = 51.55316 89.75976 70.65646
# Shear Modulus (GPa) = 93.62269 10.92964 52.27616
#
# Velocity S-wave (km/s) = 6.63990 2.26868 4.96162
# Velocity P-wave (km/s) = 9.11381 7.00941 8.12999
#
# Compressibility (1/GPa) = 0.01939745
#
# Stress axis : x y z
#
# Youngs Moduli (GPa) = 70.29382 73.35062 58.90665
#
# Poissons Ratio (x) = 0.00598 0.01181
# Poissons Ratio (y) = 0.00573 0.73261
# Poissons Ratio (z) = 0.01409 0.91225
#
# Static dielectric constant tensor:
#      x y z
#    x 1.808240 0.000000 0.000000 
#    y 0.000000 1.720330 0.000000 
#    z 0.000000 0.000000 1.740910 
# 
# From -- ./inp_files/29957.got.cif
#   From: 2010.05.17/outbox.cif.g08.bks.cpg/sg47_15_cif.got.tgz:29957.got - 2010.06.03 20:15:42.
