data_PCOD9385123
_publ_section_title
;
Structure prediction by ZEFSAII (Michael W. Deem and Ramdas Pophale) SiO2 
 PCOD9385123
Probable space group: P M M M
;
_chemical_formula_sum "Si O2"
_cell_formula_units_Z 40
_cell_length_a 8.671402
_cell_length_b 19.118639
_cell_length_c 13.942243
_cell_angle_alpha 90.000000
_cell_angle_beta 90.000000
_cell_angle_gamma 90.000000
_cell_volume 2311.420395
_symmetry_space_group_name_H-M "P M M M"
_symmetry_group_IT_number 47
_symmetry_cell_setting 'orthorhombic'
loop_
_space_group_symop_operation_xyz
x,y,z
-x,-y,z
x,-y,-z
-x,y,-z
-x,-y,-z
x,y,-z
-x,y,z
x,-y,z
loop_
_atom_site_type_symbol
_atom_site_label
_atom_site_fract_x
_atom_site_fract_y
_atom_site_fract_z
Si Si1 0.815819 0.716091 0.109692
Si Si2 0.184520 0.352991 0.609828
Si Si3 0.684301 0.420365 0.796935
Si Si4 0.185047 0.079703 0.386761
Si Si5 0.317655 0.783522 0.704439
O O1 0.765085 0.637395 0.136998
O O2 0.734829 0.765244 0.187782
O O3 0.000000 0.721865 0.120784
O O4 0.774464 0.731696 0.000000
O O5 0.227043 0.368247 0.500000
O O6 0.265147 0.401921 0.688375
O O7 0.233525 0.274109 0.637743
O O8 0.000000 0.359274 0.619545
O O9 0.500000 0.412555 0.804943
O O10 0.726197 0.500000 0.820433
O O11 0.218883 0.088834 0.500000
O O12 0.268262 0.139528 0.327315
O O13 0.000000 0.086536 0.375499
O O14 0.227479 0.000000 0.360495
O O15 0.500000 0.773806 0.695288
#
# Coordination Sequence:
#
# PCOD9385123 Si02
#       5
#     8   8   8   8   8
#     4  10  21  37  57  77  96 125 167 211 253 299
#     4  10  20  33  50  71  97 133 174 211 246 290
#     4  10  21  35  51  73 101 131 162 202 254 307
#     4   9  18  33  53  77 107 143 177 206 239 283
#     4  11  21  32  51  77 105 135 165 205 254 299
#
# _framework density 17.305375999999999
#
# number of rings (size 3 to 8) (size 9 to 14) (size 15 to 20)
#    0.000    2.000    0.000    7.200    0.000    8.800 
#    0.000    5.000    0.000    0.600    0.000    4.200 
#    0.000    0.000    0.000    0.000    0.000    0.000 
#
# Total GULP energy -223356.295356 kJ/mol
# GULP energy per Si atom -5583.907384 kJ/mol
# Density = 1.726599 g / cm^3
# Si number density = 17.305376 Si / 1000 Ang^3
#
#
#
# Elastic Constant Matrix: (Units=GPa)
#
#
# Indices 1 2 3 4 5 6 
#
# 1 28.7930 8.9075 2.9454 0.0000 0.0000 0.0000
# 2 8.9075 78.1308 6.2139 0.0000 0.0000 0.0000
# 3 2.9454 6.2139 43.3121 0.0000 0.0000 0.0000
# 4 0.0000 0.0000 0.0000 4.5166 0.0000 0.0000
# 5 0.0000 0.0000 0.0000 0.0000 -91.1512 0.0000
# 6 0.0000 0.0000 0.0000 0.0000 0.0000 32.1334
#
#
#
# Elastic Compliance Matrix: (Units=1/GPa)
#
#
# Indices 1 2 3 4 5 6 
#
# 1 0.036152 -0.003971 -0.001889 0.000000 0.000000 0.000000
# 2 -0.003971 0.013383 -0.001650 0.000000 0.000000 0.000000
# 3 -0.001889 -0.001650 0.023453 0.000000 0.000000 0.000000
# 4 0.000000 0.000000 0.000000 0.221405 0.000000 0.000000
# 5 0.000000 0.000000 0.000000 0.000000 -0.010971 0.000000
# 6 0.000000 0.000000 0.000000 0.000000 0.000000 0.031120
#
#
# Mechanical properties :
#
#
# Convention : Reuss Voigt Hill
#
# Bulk Modulus (GPa) = 17.25073 20.70774 18.97923
# Shear Modulus (GPa) = 14.33130 -2.08897 6.12117
#
# Velocity S-wave (km/s) = 2.88087 -1.09988 1.88277
# Velocity P-wave (km/s) = 4.58867 3.22165 3.96453
#
# Compressibility (1/GPa) = 0.05796858
#
# Stress axis : x y z
#
# Youngs Moduli (GPa) = 27.66062 74.72138 42.63776
#
# Poissons Ratio (x) = 0.29675 0.08053
# Poissons Ratio (y) = 0.10985 0.07035
# Poissons Ratio (z) = 0.05224 0.12329
#
# Static dielectric constant tensor:
#      x y z
#    x 1.578820 0.000000 0.000000 
#    y 0.000000 1.575460 0.000000 
#    z 0.000000 0.000000 1.577500 
# 
# From -- ./inp_files/8850.got.cif
#   From: 2010.05.17/outbox.cif.g08.bks.cpg/sg47_5_cif.got.tgz:8850.got - 2010.06.03 20:15:42.
