data_PCOD9385323
_publ_section_title
;
Structure prediction by ZEFSAII (Michael W. Deem and Ramdas Pophale) SiO2 
 PCOD9385323
Probable space group: P M M M
;
_chemical_formula_sum "Si O2"
_cell_formula_units_Z 48
_cell_length_a 33.211492
_cell_length_b 7.926611
_cell_length_c 9.499260
_cell_angle_alpha 90.000000
_cell_angle_beta 90.000000
_cell_angle_gamma 90.000000
_cell_volume 2500.723681
_symmetry_space_group_name_H-M "P M M M"
_symmetry_group_IT_number 47
_symmetry_cell_setting 'orthorhombic'
loop_
_space_group_symop_operation_xyz
x,y,z
-x,-y,z
x,-y,-z
-x,y,-z
-x,-y,-z
x,y,-z
-x,y,z
x,-y,z
loop_
_atom_site_type_symbol
_atom_site_label
_atom_site_fract_x
_atom_site_fract_y
_atom_site_fract_z
Si Si1 0.755522 0.295950 0.837464
Si Si2 0.846680 0.296391 0.160588
Si Si3 0.000000 0.793137 0.161993
Si Si4 0.545964 0.000000 0.828772
Si Si5 0.602028 0.689465 0.832591
Si Si6 0.321397 0.800682 0.338170
Si Si7 0.923239 0.797752 0.340608
O O1 0.754405 0.500000 0.832345
O O2 0.801193 0.241886 0.802287
O O3 0.721483 0.228374 0.735126
O O4 0.747514 0.246482 0.000000
O O5 0.846427 0.500000 0.158971
O O6 0.881001 0.239306 0.266209
O O7 0.855300 0.239419 0.000000
O O8 0.960189 0.736007 0.244795
O O9 0.000000 0.000000 0.161061
O O10 0.000000 0.738210 0.000000
O O11 0.570772 0.166437 0.787115
O O12 0.500000 0.000000 0.778296
O O13 0.544693 0.000000 0.000000
O O14 0.586189 0.500000 0.811830
O O15 0.643656 0.711084 0.749998
O O16 0.609738 0.711656 0.000000
O O17 0.320718 0.743270 0.500000
O O18 0.330220 0.000000 0.335632
O O19 0.924907 0.731292 0.500000
O O20 0.927551 0.000000 0.348121
#
# Coordination Sequence:
#
# PCOD9385323 Si02
#       7
#     8   8   4   4   8   8   8
#     4   9  19  36  56  77 102 136 179 223 269 323
#     4   9  19  36  55  75 102 136 174 216 262 315
#     4   9  17  31  52  75  98 129 170 214 260 313
#     4   9  18  34  57  87 121 151 185 237 291 336
#     4  10  20  35  58  85 113 150 192 232 282 342
#     4  11  23  36  52  78 112 147 184 229 278 328
#     4  10  20  33  51  76 105 134 166 209 261 317
#
# _framework density 19.194445000000002
#
# number of rings (size 3 to 8) (size 9 to 14) (size 15 to 20)
#    0.000    2.333    0.833    2.750    0.000    7.667 
#    0.000    7.083    0.000    3.500    0.000    1.167 
#    0.000    0.000    0.000    0.000    0.000    0.000 
#
# Total GULP energy -267974.990356 kJ/mol
# GULP energy per Si atom -5582.812299 kJ/mol
# Density = 1.915076 g / cm^3
# Si number density = 19.194445 Si / 1000 Ang^3
#
#
#
# Elastic Constant Matrix: (Units=GPa)
#
#
# Indices 1 2 3 4 5 6 
#
# 1 146.1591 38.0956 89.1517 0.0000 0.0000 0.0000
# 2 38.0956 56.9400 37.1154 0.0000 0.0000 0.0000
# 3 89.1517 37.1154 112.2997 0.0000 0.0000 0.0000
# 4 0.0000 0.0000 0.0000 17.0680 0.0000 0.0000
# 5 0.0000 0.0000 0.0000 0.0000 -10.3232 0.0000
# 6 0.0000 0.0000 0.0000 0.0000 0.0000 91.7941
#
#
#
# Elastic Compliance Matrix: (Units=1/GPa)
#
#
# Indices 1 2 3 4 5 6 
#
# 1 0.013565 -0.002621 -0.009903 0.000000 0.000000 0.000000
# 2 -0.002621 0.022891 -0.005485 0.000000 0.000000 0.000000
# 3 -0.009903 -0.005485 0.018579 0.000000 0.000000 0.000000
# 4 0.000000 0.000000 0.000000 0.058589 0.000000 0.000000
# 5 0.000000 0.000000 0.000000 0.000000 -0.096869 0.000000
# 6 0.000000 0.000000 0.000000 0.000000 0.000000 0.010894
#
#
# Mechanical properties :
#
#
# Convention : Reuss Voigt Hill
#
# Bulk Modulus (GPa) = 52.58135 71.56937 62.07536
# Shear Modulus (GPa) = 71.42121 29.77686 50.59903
#
# Velocity S-wave (km/s) = 6.10656 3.94296 5.13989
# Velocity P-wave (km/s) = 8.78485 7.62212 8.22406
#
# Compressibility (1/GPa) = 0.01901815
#
# Stress axis : x y z
#
# Youngs Moduli (GPa) = 73.71658 43.68517 53.82328
#
# Poissons Ratio (x) = 0.11449 0.53302
# Poissons Ratio (y) = 0.19320 0.29522
# Poissons Ratio (z) = 0.73002 0.23961
#
# Static dielectric constant tensor:
#      x y z
#    x 1.634910 0.000000 0.000000 
#    y 0.000000 1.698930 0.000000 
#    z 0.000000 0.000000 1.647750 
# 
# From -- ./inp_files/13840.got.cif
#   From: 2010.05.17/outbox.cif.g08.bks.cpg/sg47_7_cif.got.tgz:13840.got - 2010.06.03 20:15:42.
