data_PCOD9385878
_publ_section_title
;
Structure prediction by ZEFSAII (Michael W. Deem and Ramdas Pophale) SiO2 
 PCOD9385878
Probable space group: P M M M
;
_chemical_formula_sum "Si O2"
_cell_formula_units_Z 44
_cell_length_a 14.943708
_cell_length_b 19.612602
_cell_length_c 8.435324
_cell_angle_alpha 90.000000
_cell_angle_beta 90.000000
_cell_angle_gamma 90.000000
_cell_volume 2472.266913
_symmetry_space_group_name_H-M "P M M M"
_symmetry_group_IT_number 47
_symmetry_cell_setting 'orthorhombic'
loop_
_space_group_symop_operation_xyz
x,y,z
-x,-y,z
x,-y,-z
-x,y,-z
-x,-y,-z
x,y,-z
-x,y,z
x,-y,z
loop_
_atom_site_type_symbol
_atom_site_label
_atom_site_fract_x
_atom_site_fract_y
_atom_site_fract_z
Si Si1 0.867859 0.000000 0.186209
Si Si2 0.396997 0.145122 0.191152
Si Si3 0.670421 0.000000 0.311962
Si Si4 0.107948 0.500000 0.820176
Si Si5 0.237774 0.760234 0.180888
Si Si6 0.896846 0.647440 0.688078
Si Si7 0.099690 0.144924 0.681838
O O1 0.761375 0.000000 0.211454
O O2 0.902894 0.933785 0.275211
O O3 0.890116 0.000000 0.000000
O O4 0.500000 0.163773 0.220162
O O5 0.378239 0.070987 0.267908
O O6 0.328293 0.204405 0.246842
O O7 0.383997 0.137844 0.000000
O O8 0.689939 0.000000 0.500000
O O9 0.130855 0.429220 0.735869
O O10 0.000000 0.500000 0.824837
O O11 0.141959 0.500000 0.000000
O O12 0.180783 0.699166 0.257985
O O13 0.166937 0.821553 0.196205
O O14 0.255672 0.740927 0.000000
O O15 0.903041 0.652600 0.500000
O O16 0.000000 0.659690 0.750784
O O17 0.130513 0.154986 0.500000
O O18 0.000000 0.174337 0.694004
#
# Coordination Sequence:
#
# PCOD9385878 Si02
#       7
#     4   8   4   4   8   8   8
#     4  12  23  36  53  72  96 132 175 217 262 313
#     4  10  22  40  59  78 103 136 174 222 280 333
#     4  12  23  36  57  80 102 130 171 225 280 333
#     4   9  17  31  53  81 112 145 184 223 253 296
#     4  11  22  35  54  78 105 139 178 218 261 315
#     4  10  20  34  53  79 114 152 183 215 258 305
#     4  11  23  37  52  72 101 136 172 215 265 313
#
# _framework density 17.797431
#
# number of rings (size 3 to 8) (size 9 to 14) (size 15 to 20)
#    0.000    1.364    1.818    4.636    0.000    9.091 
#    0.000    0.000    0.000    0.000    0.000    0.636 
#    0.000    5.091    0.000    0.000    0.000    0.000 
#
# Total GULP energy -245426.717015 kJ/mol
# GULP energy per Si atom -5577.879932 kJ/mol
# Density = 1.775692 g / cm^3
# Si number density = 17.797431 Si / 1000 Ang^3
#
#
#
# Elastic Constant Matrix: (Units=GPa)
#
#
# Indices 1 2 3 4 5 6 
#
# 1 107.6966 52.7058 21.5299 0.0000 0.0000 0.0000
# 2 52.7058 129.8230 17.3115 0.0000 0.0000 0.0000
# 3 21.5299 17.3115 48.1296 0.0000 0.0000 0.0000
# 4 0.0000 0.0000 0.0000 35.4557 0.0000 0.0000
# 5 0.0000 0.0000 0.0000 0.0000 20.4745 0.0000
# 6 0.0000 0.0000 0.0000 0.0000 0.0000 2.3015
#
#
#
# Elastic Compliance Matrix: (Units=1/GPa)
#
#
# Indices 1 2 3 4 5 6 
#
# 1 0.012239 -0.004452 -0.003873 0.000000 0.000000 0.000000
# 2 -0.004452 0.009710 -0.001501 0.000000 0.000000 0.000000
# 3 -0.003873 -0.001501 0.023050 0.000000 0.000000 0.000000
# 4 0.000000 0.000000 0.000000 0.028204 0.000000 0.000000
# 5 0.000000 0.000000 0.000000 0.000000 0.048841 0.000000
# 6 0.000000 0.000000 0.000000 0.000000 0.000000 0.434505
#
#
# Mechanical properties :
#
#
# Convention : Reuss Voigt Hill
#
# Bulk Modulus (GPa) = 39.45452 52.08264 45.76858
# Shear Modulus (GPa) = 8.55211 24.58647 16.56929
#
# Velocity S-wave (km/s) = 2.19447 3.72083 3.05453
# Velocity P-wave (km/s) = 5.35142 6.91282 6.18162
#
# Compressibility (1/GPa) = 0.02534564
#
# Stress axis : x y z
#
# Youngs Moduli (GPa) = 81.70932 102.98181 43.38431
#
# Poissons Ratio (x) = 0.45849 0.16804
# Poissons Ratio (y) = 0.36378 0.06513
# Poissons Ratio (z) = 0.31649 0.15459
#
# Static dielectric constant tensor:
#      x y z
#    x 1.630940 0.000000 0.000000 
#    y 0.000000 1.623390 0.000000 
#    z 0.000000 0.000000 1.613600 
# 
# From -- ./inp_files/6258.got.cif
#   From: 2010.05.17/outbox.cif.g08.bks.cpg/sg47_4_cif.got.tgz:6258.got - 2010.06.03 20:15:42.
