data_PCOD9385150
_publ_section_title
;
Structure prediction by ZEFSAII (Michael W. Deem and Ramdas Pophale) SiO2 
 PCOD9385150
Probable space group: P M M M
;
_chemical_formula_sum "Si O2"
_cell_formula_units_Z 44
_cell_length_a 7.710173
_cell_length_b 29.649209
_cell_length_c 9.586139
_cell_angle_alpha 90.000000
_cell_angle_beta 90.000000
_cell_angle_gamma 90.000000
_cell_volume 2191.396463
_symmetry_space_group_name_H-M "P M M M"
_symmetry_group_IT_number 47
_symmetry_cell_setting 'orthorhombic'
loop_
_space_group_symop_operation_xyz
x,y,z
-x,-y,z
x,-y,-z
-x,y,-z
-x,-y,-z
x,y,-z
-x,y,z
x,-y,z
loop_
_atom_site_type_symbol
_atom_site_label
_atom_site_fract_x
_atom_site_fract_y
_atom_site_fract_z
Si Si1 0.701586 0.667091 0.158778
Si Si2 0.788410 0.049921 0.661857
Si Si3 0.786828 0.500000 0.839438
Si Si4 0.204093 0.583973 0.343102
Si Si5 0.202002 0.766625 0.831044
Si Si6 0.212695 0.135416 0.838263
O O1 0.500000 0.655917 0.149737
O O2 0.780404 0.631537 0.264779
O O3 0.716779 0.718937 0.207973
O O4 0.775520 0.664106 0.000000
O O5 0.738549 0.054466 0.500000
O O6 0.728460 0.092428 0.750891
O O7 0.000000 0.050306 0.666076
O O8 0.733721 0.000000 0.711298
O O9 0.726745 0.544236 0.755718
O O10 0.000000 0.500000 0.842819
O O11 0.730028 0.500000 0.000000
O O12 0.277917 0.584665 0.500000
O O13 0.000000 0.574372 0.356423
O O14 0.270952 0.815358 0.783349
O O15 0.000000 0.763835 0.792677
O O16 0.213023 0.768957 0.000000
O O17 0.000000 0.136554 0.835520
O O18 0.263126 0.130571 0.000000
#
# Coordination Sequence:
#
# PCOD9385150 Si02
#       6
#     8   8   4   8   8   8
#     4  10  20  33  50  72  97 127 163 199 236 281
#     4   8  13  20  29  44  71 105 134 163 208 264
#     4   9  17  31  54  81 104 127 158 196 234 273
#     4  10  20  34  53  77 104 132 161 194 234 278
#     4   8  14  26  44  64  87 116 150 190 233 273
#     4   8  13  21  34  52  73 101 139 178 215 259
#
# _framework density 20.078522
#
# number of rings (size 3 to 8) (size 9 to 14) (size 15 to 20)
#    0.000    3.182    0.000    3.000    0.000    3.636 
#    0.000    3.182    0.000    6.000    0.000    0.000 
#    0.000    0.727    0.000    9.091    0.000   10.545 
#
# Total GULP energy -245173.392132 kJ/mol
# GULP energy per Si atom -5572.122548 kJ/mol
# Density = 2.003282 g / cm^3
# Si number density = 20.078522 Si / 1000 Ang^3
#
#
#
# Elastic Constant Matrix: (Units=GPa)
#
#
# Indices 1 2 3 4 5 6 
#
# 1 26.7115 3.6077 5.0364 0.0000 0.0000 0.0000
# 2 3.6077 179.6350 99.4679 0.0000 0.0000 0.0000
# 3 5.0364 99.4679 107.9158 0.0000 0.0000 0.0000
# 4 0.0000 0.0000 0.0000 -21.2644 0.0000 0.0000
# 5 0.0000 0.0000 0.0000 0.0000 1.3760 0.0000
# 6 0.0000 0.0000 0.0000 0.0000 0.0000 -56.8614
#
#
#
# Elastic Compliance Matrix: (Units=1/GPa)
#
#
# Indices 1 2 3 4 5 6 
#
# 1 0.037787 0.000444 -0.002173 0.000000 0.000000 0.000000
# 2 0.000444 0.011375 -0.010505 0.000000 0.000000 0.000000
# 3 -0.002173 -0.010505 0.019051 0.000000 0.000000 0.000000
# 4 0.000000 0.000000 0.000000 -0.047027 0.000000 0.000000
# 5 0.000000 0.000000 0.000000 0.000000 0.726733 0.000000
# 6 0.000000 0.000000 0.000000 0.000000 0.000000 -0.017587
#
#
# Mechanical properties :
#
#
# Convention : Reuss Voigt Hill
#
# Bulk Modulus (GPa) = 22.86000 58.94292 40.90146
# Shear Modulus (GPa) = 6.49873 -1.60661 2.44606
#
# Velocity S-wave (km/s) = 1.80102 -0.89549 1.10494
# Velocity P-wave (km/s) = 3.96673 5.32454 4.69498
#
# Compressibility (1/GPa) = 0.04374454
#
# Stress axis : x y z
#
# Youngs Moduli (GPa) = 26.46433 87.91334 52.49163
#
# Poissons Ratio (x) = -0.03907 0.11407
# Poissons Ratio (y) = -0.01176 0.55143
# Poissons Ratio (z) = 0.05751 0.92354
#
# Static dielectric constant tensor:
#      x y z
#    x 1.735810 0.000000 0.000000 
#    y 0.000000 1.718080 0.000000 
#    z 0.000000 0.000000 1.688780 
# 
# From -- ./inp_files/2266.got.cif
#   From: 2010.05.17/outbox.cif.g08.bks.cpg/sg47_2_cif.got.tgz:2266.got - 2010.06.03 20:15:42.
