data_PCOD9385330
_publ_section_title
;
Structure prediction by ZEFSAII (Michael W. Deem and Ramdas Pophale) SiO2 
 PCOD9385330
Probable space group: P M M M
;
_chemical_formula_sum "Si O2"
_cell_formula_units_Z 64
_cell_length_a 7.772700
_cell_length_b 16.037176
_cell_length_c 24.798470
_cell_angle_alpha 90.000000
_cell_angle_beta 90.000000
_cell_angle_gamma 90.000000
_cell_volume 3091.182798
_symmetry_space_group_name_H-M "P M M M"
_symmetry_group_IT_number 47
_symmetry_cell_setting 'orthorhombic'
loop_
_space_group_symop_operation_xyz
x,y,z
-x,-y,z
x,-y,-z
-x,y,-z
-x,-y,-z
x,y,-z
-x,y,z
x,-y,z
loop_
_atom_site_type_symbol
_atom_site_label
_atom_site_fract_x
_atom_site_fract_y
_atom_site_fract_z
Si Si1 0.788305 0.248234 0.742797
Si Si2 0.210441 0.409064 0.324519
Si Si3 0.293539 0.834077 0.440508
Si Si4 0.293240 0.593484 0.061287
Si Si5 0.203105 0.749987 0.134978
Si Si6 0.205288 0.908455 0.326984
Si Si7 0.293005 0.906622 0.938611
Si Si8 0.203116 0.359893 0.558823
O O1 0.733389 0.331514 0.711439
O O2 0.725926 0.248130 0.804302
O O3 0.729002 0.167003 0.709844
O O4 0.000000 0.247830 0.742211
O O5 0.260409 0.500000 0.303530
O O6 0.272121 0.398795 0.386220
O O7 0.000000 0.406092 0.325882
O O8 0.241887 0.865953 0.500000
O O9 0.500000 0.828955 0.439308
O O10 0.235552 0.887033 0.389570
O O11 0.222538 0.740012 0.435524
O O12 0.500000 0.590177 0.058926
O O13 0.232409 0.500000 0.076479
O O14 0.250074 0.667241 0.101847
O O15 0.231901 0.611249 0.000000
O O16 0.247270 0.832555 0.101317
O O17 0.000000 0.748766 0.140892
O O18 0.000000 0.910917 0.318746
O O19 0.276078 0.000000 0.314120
O O20 0.500000 0.909366 0.940624
O O21 0.232979 0.000000 0.922968
O O22 0.232318 0.889869 0.000000
O O23 0.276529 0.383304 0.500000
O O24 0.000000 0.379828 0.557218
#
# Coordination Sequence:
#
# PCOD9385330 Si02
#       8
#     8   8   8   8   8   8   8   8
#     4   9  19  35  50  73 108 140 174 215 260 308
#     4   9  16  28  50  76 101 131 167 211 260 305
#     4  10  20  33  51  76 106 136 164 203 263 324
#     4   9  19  37  59  81 109 148 189 225 264 315
#     4  11  22  33  53  84 114 144 179 224 276 323
#     4  10  20  36  58  77  96 131 178 220 256 302
#     4   9  19  37  59  81 108 144 182 218 261 319
#     4   9  16  28  50  77 102 129 166 211 256 307
#
# _framework density 20.704046999999999
#
# number of rings (size 3 to 8) (size 9 to 14) (size 15 to 20)
#    0.000    2.500    1.250    1.875    0.000    5.000 
#    0.000    7.500    0.000    0.375    0.000    1.750 
#    0.000    0.000    0.000    0.000    0.000    0.000 
#
# Total GULP energy -357164.022365 kJ/mol
# GULP energy per Si atom -5580.687849 kJ/mol
# Density = 2.065692 g / cm^3
# Si number density = 20.704047 Si / 1000 Ang^3
#
#
#
# Elastic Constant Matrix: (Units=GPa)
#
#
# Indices 1 2 3 4 5 6 
#
# 1 28.2382 6.0699 6.4908 0.0000 0.0000 0.0000
# 2 6.0699 191.3337 130.0870 0.0000 0.0000 0.0000
# 3 6.4908 130.0870 171.1985 0.0000 0.0000 0.0000
# 4 0.0000 0.0000 0.0000 -4.3797 0.0000 0.0000
# 5 0.0000 0.0000 0.0000 0.0000 35.5361 0.0000
# 6 0.0000 0.0000 0.0000 0.0000 0.0000 29.7261
#
#
#
# Elastic Compliance Matrix: (Units=1/GPa)
#
#
# Indices 1 2 3 4 5 6 
#
# 1 0.035742 -0.000440 -0.001021 0.000000 0.000000 0.000000
# 2 -0.000440 0.010818 -0.008203 0.000000 0.000000 0.000000
# 3 -0.001021 -0.008203 0.012113 0.000000 0.000000 0.000000
# 4 0.000000 0.000000 0.000000 -0.228328 0.000000 0.000000
# 5 0.000000 0.000000 0.000000 0.000000 0.028140 0.000000
# 6 0.000000 0.000000 0.000000 0.000000 0.000000 0.033641
#
#
# Mechanical properties :
#
#
# Convention : Reuss Voigt Hill
#
# Bulk Modulus (GPa) = 25.41604 75.11842 50.26723
# Shear Modulus (GPa) = -66.28664 28.71801 -18.78432
#
# Velocity S-wave (km/s) = -5.66443 3.72838 -3.01537
# Velocity P-wave (km/s) = 5.52073 7.40913 3.49405
#
# Compressibility (1/GPa) = 0.03934523
#
# Stress axis : x y z
#
# Youngs Moduli (GPa) = 27.97806 92.43941 82.55356
#
# Poissons Ratio (x) = 0.04065 0.08429
# Poissons Ratio (y) = 0.01230 0.67722
# Poissons Ratio (z) = 0.02857 0.75832
#
# Static dielectric constant tensor:
#      x y z
#    x 1.765950 0.000000 0.000000 
#    y 0.000000 1.777060 0.000000 
#    z 0.000000 0.000000 1.722090 
# 
# From -- ./inp_files/32086.got.cif
#   From: 2010.05.17/outbox.cif.g08.bks.cpg/sg47_17_cif.got.tgz:32086.got - 2010.06.03 20:15:42.
