data_PCOD9385084
_publ_section_title
;
Structure prediction by ZEFSAII (Michael W. Deem and Ramdas Pophale) SiO2 
 PCOD9385084
Probable space group: P M M M
;
_chemical_formula_sum "Si O2"
_cell_formula_units_Z 40
_cell_length_a 7.633361
_cell_length_b 26.798017
_cell_length_c 9.348885
_cell_angle_alpha 90.000000
_cell_angle_beta 90.000000
_cell_angle_gamma 90.000000
_cell_volume 1912.397986
_symmetry_space_group_name_H-M "P M M M"
_symmetry_group_IT_number 47
_symmetry_cell_setting 'orthorhombic'
loop_
_space_group_symop_operation_xyz
x,y,z
-x,-y,z
x,-y,-z
-x,y,-z
-x,-y,-z
x,y,-z
-x,y,z
x,-y,z
loop_
_atom_site_type_symbol
_atom_site_label
_atom_site_fract_x
_atom_site_fract_y
_atom_site_fract_z
Si Si1 0.290298 0.292956 0.661681
Si Si2 0.709326 0.099482 0.337864
Si Si3 0.285184 0.196336 0.835304
Si Si4 0.791365 0.000000 0.837684
Si Si5 0.788559 0.608277 0.836415
Si Si6 0.797221 0.500000 0.174298
O O1 0.220983 0.291348 0.500000
O O2 0.500000 0.287136 0.653670
O O3 0.225906 0.246887 0.757490
O O4 0.255822 0.345613 0.736733
O O5 0.778604 0.096131 0.500000
O O6 0.500000 0.105585 0.348462
O O7 0.774729 0.147843 0.252359
O O8 0.739980 0.049303 0.249048
O O9 0.500000 0.196181 0.835815
O O10 0.229265 0.194497 0.000000
O O11 0.000000 0.000000 0.847140
O O12 0.719782 0.000000 0.000000
O O13 0.721065 0.553901 0.785388
O O14 0.000000 0.604394 0.842011
O O15 0.727755 0.617153 0.000000
O O16 0.000000 0.500000 0.222658
O O17 0.797940 0.500000 0.000000
#
# Coordination Sequence:
#
# PCOD9385084 Si02
#       6
#     8   8   8   4   8   4
#     4  10  20  33  49  72 104 138 168 202 248 300
#     4  10  20  35  57  83 107 133 169 211 253 300
#     4   9  17  31  53  78 102 131 168 209 251 295
#     4  11  24  39  54  76 108 143 176 211 252 296
#     4   9  17  31  52  75  97 125 165 211 255 300
#     4   7  12  26  48  71  94 122 160 207 254 297
#
# _framework density 20.916149000000001
#
# number of rings (size 3 to 8) (size 9 to 14) (size 15 to 20)
#    0.000    2.600    0.000    3.600    0.000    7.200 
#    0.000    2.000    0.000   10.800    0.000    0.000 
#    0.000    0.000    0.000    0.000    0.000    0.000 
#
# Total GULP energy -223287.376059 kJ/mol
# GULP energy per Si atom -5582.184401 kJ/mol
# Density = 2.086854 g / cm^3
# Si number density = 20.916149 Si / 1000 Ang^3
#
#
#
# Elastic Constant Matrix: (Units=GPa)
#
#
# Indices 1 2 3 4 5 6 
#
# 1 40.6692 -0.1431 7.8945 0.0000 0.0000 0.0000
# 2 -0.1431 236.1203 135.6246 0.0000 0.0000 0.0000
# 3 7.8945 135.6246 201.0319 0.0000 0.0000 0.0000
# 4 0.0000 0.0000 0.0000 -42.3384 0.0000 0.0000
# 5 0.0000 0.0000 0.0000 0.0000 4.4616 0.0000
# 6 0.0000 0.0000 0.0000 0.0000 0.0000 26.3288
#
#
#
# Elastic Compliance Matrix: (Units=1/GPa)
#
#
# Indices 1 2 3 4 5 6 
#
# 1 0.024905 0.000942 -0.001613 0.000000 0.000000 0.000000
# 2 0.000942 0.006950 -0.004726 0.000000 0.000000 0.000000
# 3 -0.001613 -0.004726 0.008226 0.000000 0.000000 0.000000
# 4 0.000000 0.000000 0.000000 -0.023619 0.000000 0.000000
# 5 0.000000 0.000000 0.000000 0.000000 0.224137 0.000000
# 6 0.000000 0.000000 0.000000 0.000000 0.000000 0.037981
#
#
# Mechanical properties :
#
#
# Convention : Reuss Voigt Hill
#
# Bulk Modulus (GPa) = 34.14560 84.95260 59.54910
# Shear Modulus (GPa) = 16.71472 19.98675 18.35073
#
# Velocity S-wave (km/s) = 2.82996 3.09458 2.96522
# Velocity P-wave (km/s) = 5.19987 7.31249 6.34473
#
# Compressibility (1/GPa) = 0.02928635
#
# Stress axis : x y z
#
# Youngs Moduli (GPa) = 40.15237 143.88106 121.56624
#
# Poissons Ratio (x) = -0.13551 0.19614
# Poissons Ratio (y) = -0.03782 0.57451
# Poissons Ratio (z) = 0.06478 0.67996
#
# Static dielectric constant tensor:
#      x y z
#    x 1.800500 0.000000 0.000000 
#    y 0.000000 1.735220 0.000000 
#    z 0.000000 0.000000 1.725500 
# 
# From -- ./inp_files/1784.got.cif
#   From: 2010.05.17/outbox.cif.g08.bks.cpg/sg47_1_cif.got.tgz:1784.got - 2010.06.03 20:15:42.
