data_PCOD9385360
_publ_section_title
;
Structure prediction by ZEFSAII (Michael W. Deem and Ramdas Pophale) SiO2 
 PCOD9385360
Probable space group: P M M M
;
_chemical_formula_sum "Si O2"
_cell_formula_units_Z 44
_cell_length_a 9.372384
_cell_length_b 29.119152
_cell_length_c 7.543649
_cell_angle_alpha 90.000000
_cell_angle_beta 90.000000
_cell_angle_gamma 90.000000
_cell_volume 2058.781562
_symmetry_space_group_name_H-M "P M M M"
_symmetry_group_IT_number 47
_symmetry_cell_setting 'orthorhombic'
loop_
_space_group_symop_operation_xyz
x,y,z
-x,-y,z
x,-y,-z
-x,y,-z
-x,-y,-z
x,y,-z
-x,y,z
x,-y,z
loop_
_atom_site_type_symbol
_atom_site_label
_atom_site_fract_x
_atom_site_fract_y
_atom_site_fract_z
Si Si1 0.664898 0.000000 0.717142
Si Si2 0.162511 0.089508 0.712467
Si Si3 0.837293 0.551430 0.286447
Si Si4 0.164055 0.270879 0.217267
Si Si5 0.660320 0.641331 0.789542
Si Si6 0.662271 0.818412 0.787367
O O1 0.748809 0.954559 0.776608
O O2 0.500000 0.000000 0.773430
O O3 0.664141 0.000000 0.500000
O O4 0.153807 0.084867 0.500000
O O5 0.247761 0.136054 0.749205
O O6 0.000000 0.090990 0.780736
O O7 0.840391 0.550414 0.500000
O O8 0.796614 0.500000 0.226112
O O9 0.732735 0.592025 0.234772
O O10 0.000000 0.560620 0.225715
O O11 0.239720 0.317684 0.278372
O O12 0.254476 0.226757 0.276210
O O13 0.000000 0.268315 0.274333
O O14 0.162796 0.270772 0.000000
O O15 0.500000 0.642760 0.716198
O O16 0.649834 0.649033 0.000000
O O17 0.500000 0.821409 0.719363
O O18 0.653734 0.814269 0.000000
#
# Coordination Sequence:
#
# PCOD9385360 Si02
#       6
#     4   8   8   8   8   8
#     4   9  17  31  52  75 100 133 170 208 254 305
#     4  10  20  34  53  77 104 134 170 211 253 299
#     4   9  19  36  55  74  99 133 171 209 251 300
#     4   9  17  31  52  75 100 133 170 206 248 299
#     4  10  20  33  51  77 106 133 165 207 251 296
#     4  10  20  34  53  77 105 136 169 207 253 303
#
# _framework density 21.371865
#
# number of rings (size 3 to 8) (size 9 to 14) (size 15 to 20)
#    0.000    2.455    0.000    3.000    0.000    7.636 
#    0.000    4.091    0.000    8.182    0.000    0.000 
#    0.000    0.000    0.000    0.000    0.000    0.000 
#
# Total GULP energy -245832.575204 kJ/mol
# GULP energy per Si atom -5587.103982 kJ/mol
# Density = 2.132322 g / cm^3
# Si number density = 21.371865 Si / 1000 Ang^3
#
#
#
# Elastic Constant Matrix: (Units=GPa)
#
#
# Indices 1 2 3 4 5 6 
#
# 1 243.8989 145.7757 7.4490 0.0000 0.0000 0.0000
# 2 145.7757 202.3379 -2.3571 0.0000 0.0000 0.0000
# 3 7.4490 -2.3571 50.6136 0.0000 0.0000 0.0000
# 4 0.0000 0.0000 0.0000 25.9457 0.0000 0.0000
# 5 0.0000 0.0000 0.0000 0.0000 10.1150 0.0000
# 6 0.0000 0.0000 0.0000 0.0000 0.0000 53.6269
#
#
#
# Elastic Compliance Matrix: (Units=1/GPa)
#
#
# Indices 1 2 3 4 5 6 
#
# 1 0.007288 -0.005266 -0.001318 0.000000 0.000000 0.000000
# 2 -0.005266 0.008750 0.001182 0.000000 0.000000 0.000000
# 3 -0.001318 0.001182 0.020007 0.000000 0.000000 0.000000
# 4 0.000000 0.000000 0.000000 0.038542 0.000000 0.000000
# 5 0.000000 0.000000 0.000000 0.000000 0.098863 0.000000
# 6 0.000000 0.000000 0.000000 0.000000 0.000000 0.018647
#
#
# Mechanical properties :
#
#
# Convention : Reuss Voigt Hill
#
# Bulk Modulus (GPa) = 39.61690 88.73174 64.17432
# Shear Modulus (GPa) = 23.66167 41.00305 32.33236
#
# Velocity S-wave (km/s) = 3.33098 4.38488 3.89375
# Velocity P-wave (km/s) = 5.77677 8.20027 7.09280
#
# Compressibility (1/GPa) = 0.02524175
#
# Stress axis : x y z
#
# Youngs Moduli (GPa) = 137.21988 114.28919 49.98368
#
# Poissons Ratio (x) = 0.60182 0.06587
# Poissons Ratio (y) = 0.72256 -0.05910
# Poissons Ratio (z) = 0.18082 -0.13514
#
# Static dielectric constant tensor:
#      x y z
#    x 1.747870 0.000000 0.000000 
#    y 0.000000 1.722220 0.000000 
#    z 0.000000 0.000000 1.831260 
# 
# From -- ./inp_files/2271.got.cif
#   From: 2010.05.17/outbox.cif.g08.bks.cpg/sg47_2_cif.got.tgz:2271.got - 2010.06.03 20:15:42.
