data_PCOD9385117
_publ_section_title
;
Structure prediction by ZEFSAII (Michael W. Deem and Ramdas Pophale) SiO2 
 PCOD9385117
Probable space group: P M M M
;
_chemical_formula_sum "Si O2"
_cell_formula_units_Z 48
_cell_length_a 19.160488
_cell_length_b 7.932909
_cell_length_c 13.223169
_cell_angle_alpha 90.000000
_cell_angle_beta 90.000000
_cell_angle_gamma 90.000000
_cell_volume 2009.900633
_symmetry_space_group_name_H-M "P M M M"
_symmetry_group_IT_number 47
_symmetry_cell_setting 'orthorhombic'
loop_
_space_group_symop_operation_xyz
x,y,z
-x,-y,z
x,-y,-z
-x,y,-z
-x,-y,-z
x,y,-z
-x,y,z
x,-y,z
loop_
_atom_site_type_symbol
_atom_site_label
_atom_site_fract_x
_atom_site_fract_y
_atom_site_fract_z
Si Si1 0.083127 0.807461 0.390302
Si Si2 0.078659 0.307101 0.167098
Si Si3 0.272496 0.295437 0.610447
Si Si4 0.377390 0.303478 0.108227
Si Si5 0.229133 0.807605 0.169570
Si Si6 0.424551 0.706080 0.324253
O O1 0.104979 0.737437 0.500000
O O2 0.090142 0.701275 0.288619
O O3 0.000000 0.824273 0.397204
O O4 0.110144 0.000000 0.376976
O O5 0.077340 0.500000 0.133830
O O6 0.151000 0.226900 0.129679
O O7 0.000000 0.235154 0.146574
O O8 0.248548 0.239101 0.500000
O O9 0.267462 0.500000 0.615806
O O10 0.234383 0.224598 0.709159
O O11 0.353932 0.246746 0.619457
O O12 0.397455 0.500000 0.105466
O O13 0.293512 0.296461 0.124124
O O14 0.412982 0.233872 0.208855
O O15 0.395132 0.226150 0.000000
O O16 0.246402 0.000000 0.149105
O O17 0.500000 0.761007 0.362981
O O18 0.424599 0.500000 0.324649
#
# Coordination Sequence:
#
# PCOD9385117 Si02
#       6
#     8   8   8   8   8   8
#     4   8  14  25  40  59  86 119 154 193 238 290
#     4  10  20  33  50  71  95 125 162 207 262 320
#     4   9  18  33  52  74 104 144 187 226 262 303
#     4   9  18  34  56  80 107 139 173 211 258 312
#     4  11  22  35  53  75 102 136 175 220 264 312
#     4   8  14  26  48  82 117 141 169 214 263 308
#
# _framework density 23.881778000000001
#
# number of rings (size 3 to 8) (size 9 to 14) (size 15 to 20)
#    0.000    2.833    0.000    3.500    0.000    3.333 
#    0.000    5.000    0.000    8.500    0.000   12.833 
#    0.000    0.000    0.000    0.000    0.000    0.000 
#
# Total GULP energy -267678.795070 kJ/mol
# GULP energy per Si atom -5576.641564 kJ/mol
# Density = 2.382742 g / cm^3
# Si number density = 23.881778 Si / 1000 Ang^3
#
#
#
# Elastic Constant Matrix: (Units=GPa)
#
#
# Indices 1 2 3 4 5 6 
#
# 1 158.4100 -8.4839 -4.6068 0.0000 0.0000 0.0000
# 2 -8.4839 34.0335 -2.6116 0.0000 0.0000 0.0000
# 3 -4.6068 -2.6116 67.4282 0.0000 0.0000 0.0000
# 4 0.0000 0.0000 0.0000 -0.9032 0.0000 0.0000
# 5 0.0000 0.0000 0.0000 0.0000 -29.9569 0.0000
# 6 0.0000 0.0000 0.0000 0.0000 0.0000 -8.8774
#
#
#
# Elastic Compliance Matrix: (Units=1/GPa)
#
#
# Indices 1 2 3 4 5 6 
#
# 1 0.006415 0.001638 0.000502 0.000000 0.000000 0.000000
# 2 0.001638 0.029888 0.001270 0.000000 0.000000 0.000000
# 3 0.000502 0.001270 0.014914 0.000000 0.000000 0.000000
# 4 0.000000 0.000000 0.000000 -1.107210 0.000000 0.000000
# 5 0.000000 0.000000 0.000000 0.000000 -0.033381 0.000000
# 6 0.000000 0.000000 0.000000 0.000000 0.000000 -0.112645
#
#
# Mechanical properties :
#
#
# Convention : Reuss Voigt Hill
#
# Bulk Modulus (GPa) = 17.23090 25.38524 21.30807
# Shear Modulus (GPa) = -4.20348 10.42408 3.11030
#
# Velocity S-wave (km/s) = -1.32813 2.09149 1.14245
# Velocity P-wave (km/s) = 2.20881 4.06018 3.26833
#
# Compressibility (1/GPa) = 0.05803526
#
# Stress axis : x y z
#
# Youngs Moduli (GPa) = 155.88391 33.45773 67.05092
#
# Poissons Ratio (x) = -0.05479 -0.03364
# Poissons Ratio (y) = -0.25528 -0.08512
# Poissons Ratio (z) = -0.07821 -0.04248
#
# Static dielectric constant tensor:
#      x y z
#    x 1.942150 0.000000 0.000000 
#    y 0.000000 1.892600 0.000000 
#    z 0.000000 0.000000 1.920640 
# 
# From -- ./inp_files/24897.got.cif
#   From: 2010.05.17/outbox.cif.g08.bks.cpg/sg47_13_cif.got.tgz:24897.got - 2010.06.03 20:15:42.
