data_PCOD9385537
_publ_section_title
;
Structure prediction by ZEFSAII (Michael W. Deem and Ramdas Pophale) SiO2 
 PCOD9385537
Probable space group: P M M M
;
_chemical_formula_sum "Si O2"
_cell_formula_units_Z 64
_cell_length_a 16.047048
_cell_length_b 24.758958
_cell_length_c 7.577383
_cell_angle_alpha 90.000000
_cell_angle_beta 90.000000
_cell_angle_gamma 90.000000
_cell_volume 3010.556305
_symmetry_space_group_name_H-M "P M M M"
_symmetry_group_IT_number 47
_symmetry_cell_setting 'orthorhombic'
loop_
_space_group_symop_operation_xyz
x,y,z
-x,-y,z
x,-y,-z
-x,y,-z
-x,-y,-z
x,y,-z
-x,y,z
x,-y,z
loop_
_atom_site_type_symbol
_atom_site_label
_atom_site_fract_x
_atom_site_fract_y
_atom_site_fract_z
Si Si1 0.252227 0.756476 0.788656
Si Si2 0.252830 0.634398 0.789655
Si Si3 0.590163 0.176889 0.791695
Si Si4 0.350840 0.059234 0.712875
Si Si5 0.844458 0.059104 0.285030
Si Si6 0.094028 0.438438 0.712592
Si Si7 0.090685 0.173361 0.712522
Si Si8 0.593930 0.437701 0.215435
O O1 0.249889 0.695383 0.719278
O O2 0.330190 0.791301 0.717824
O O3 0.166660 0.787943 0.757195
O O4 0.261528 0.753588 0.000000
O O5 0.166970 0.602218 0.762766
O O6 0.331656 0.600289 0.720735
O O7 0.264804 0.638215 0.000000
O O8 0.500000 0.191782 0.715633
O O9 0.603429 0.112691 0.774600
O O10 0.587654 0.188839 0.000000
O O11 0.354443 0.059444 0.500000
O O12 0.253209 0.063685 0.762936
O O13 0.381278 0.000000 0.772396
O O14 0.847862 0.059051 0.500000
O O15 0.891108 0.112446 0.223024
O O16 0.875076 0.000000 0.226873
O O17 0.091974 0.439699 0.500000
O O18 0.111832 0.500000 0.773199
O O19 0.000000 0.423894 0.772455
O O20 0.088437 0.170658 0.500000
O O21 0.000000 0.191966 0.775093
O O22 0.500000 0.421603 0.268904
O O23 0.607625 0.500000 0.268718
O O24 0.594868 0.437225 0.000000
#
# Coordination Sequence:
#
# PCOD9385537 Si02
#       8
#     8   8   8   8   8   8   8   8
#     4  10  22  38  52  71 103 140 175 215 260 298
#     4  10  20  33  53  79 104 135 177 218 253 294
#     4  10  21  36  53  73 100 137 178 216 258 310
#     4   9  17  31  53  78 102 129 163 209 265 318
#     4   8  14  27  49  76 102 124 152 200 258 309
#     4   9  19  36  56  79 109 142 172 205 252 307
#     4  10  20  34  55  79 100 129 170 212 255 307
#     4   8  14  26  47  77 108 131 155 197 252 301
#
# _framework density 21.258531000000001
#
# number of rings (size 3 to 8) (size 9 to 14) (size 15 to 20)
#    0.000    2.750    1.250    1.875    0.000    3.750 
#    0.000    8.125    0.000    0.750    0.000    4.375 
#    0.000    0.000    0.000    0.000    0.000    0.000 
#
# Total GULP energy -357181.137526 kJ/mol
# GULP energy per Si atom -5580.955274 kJ/mol
# Density = 2.121015 g / cm^3
# Si number density = 21.258531 Si / 1000 Ang^3
#
#
#
# Elastic Constant Matrix: (Units=GPa)
#
#
# Indices 1 2 3 4 5 6 
#
# 1 191.8988 128.3959 5.3051 0.0000 0.0000 0.0000
# 2 128.3959 169.8208 3.5660 0.0000 0.0000 0.0000
# 3 5.3051 3.5660 46.3927 0.0000 0.0000 0.0000
# 4 0.0000 0.0000 0.0000 13.1737 0.0000 0.0000
# 5 0.0000 0.0000 0.0000 0.0000 29.3895 0.0000
# 6 0.0000 0.0000 0.0000 0.0000 0.0000 -22.4271
#
#
#
# Elastic Compliance Matrix: (Units=1/GPa)
#
#
# Indices 1 2 3 4 5 6 
#
# 1 0.010562 -0.007973 -0.000595 0.000000 0.000000 0.000000
# 2 -0.007973 0.011917 -0.000004 0.000000 0.000000 0.000000
# 3 -0.000595 -0.000004 0.021623 0.000000 0.000000 0.000000
# 4 0.000000 0.000000 0.000000 0.075909 0.000000 0.000000
# 5 0.000000 0.000000 0.000000 0.000000 0.034026 0.000000
# 6 0.000000 0.000000 0.000000 0.000000 0.000000 -0.044589
#
#
# Mechanical properties :
#
#
# Convention : Reuss Voigt Hill
#
# Bulk Modulus (GPa) = 37.09506 75.84960 56.47233
# Shear Modulus (GPa) = 36.87868 22.08357 29.48112
#
# Velocity S-wave (km/s) = 4.16958 3.22655 3.72800
# Velocity P-wave (km/s) = 6.37714 7.04542 6.71959
#
# Compressibility (1/GPa) = 0.02695777
#
# Stress axis : x y z
#
# Youngs Moduli (GPa) = 94.67596 83.91355 46.24605
#
# Poissons Ratio (x) = 0.66907 0.02751
# Poissons Ratio (y) = 0.75488 0.00020
# Poissons Ratio (z) = 0.05633 0.00036
#
# Static dielectric constant tensor:
#      x y z
#    x 1.764530 0.000000 0.000000 
#    y 0.000000 1.746460 0.000000 
#    z 0.000000 0.000000 1.821790 
# 
# From -- ./inp_files/7822.got.cif
#   From: 2010.05.17/outbox.cif.g08.bks.cpg/sg47_4_cif.got.tgz:7822.got - 2010.06.03 20:15:42.
