data_PCOD9385152
_publ_section_title
;
Structure prediction by ZEFSAII (Michael W. Deem and Ramdas Pophale) SiO2 
 PCOD9385152
Probable space group: P M M M
;
_chemical_formula_sum "Si O2"
_cell_formula_units_Z 44
_cell_length_a 29.883342
_cell_length_b 8.491838
_cell_length_c 9.349846
_cell_angle_alpha 90.000000
_cell_angle_beta 90.000000
_cell_angle_gamma 90.000000
_cell_volume 2372.658987
_symmetry_space_group_name_H-M "P M M M"
_symmetry_group_IT_number 47
_symmetry_cell_setting 'orthorhombic'
loop_
_space_group_symop_operation_xyz
x,y,z
-x,-y,z
x,-y,-z
-x,y,-z
-x,-y,-z
x,y,-z
-x,y,z
x,-y,z
loop_
_atom_site_type_symbol
_atom_site_label
_atom_site_fract_x
_atom_site_fract_y
_atom_site_fract_z
Si Si1 0.904461 0.688057 0.833529
Si Si2 0.733553 0.690545 0.164296
Si Si3 0.000000 0.182948 0.173368
Si Si4 0.548139 0.686804 0.673443
Si Si5 0.645653 0.692615 0.666475
Si Si6 0.819203 0.188412 0.335829
O O1 0.901467 0.500000 0.831410
O O2 0.864625 0.758518 0.741063
O O3 0.953591 0.738736 0.779997
O O4 0.899898 0.740058 0.000000
O O5 0.733405 0.500000 0.165222
O O6 0.687715 0.743931 0.240187
O O7 0.776598 0.746682 0.250900
O O8 0.735697 0.743188 0.000000
O O9 0.000000 0.000000 0.212230
O O10 0.000000 0.195675 0.000000
O O11 0.548828 0.697434 0.500000
O O12 0.500000 0.753833 0.721987
O O13 0.547435 0.500000 0.707436
O O14 0.596697 0.748659 0.719800
O O15 0.651556 0.737884 0.500000
O O16 0.644458 0.500000 0.668818
O O17 0.818251 0.244246 0.500000
O O18 0.817243 0.000000 0.335242
#
# Coordination Sequence:
#
# PCOD9385152 Si02
#       6
#     8   8   4   8   8   8
#     4  10  20  35  57  84 111 139 173 210 247 291
#     4  10  20  33  50  72  97 127 164 204 247 299
#     4   9  17  31  54  83 114 147 178 208 244 285
#     4   7   9  14  27  50  80 114 153 194 234 279
#     4   8  13  22  38  60  87 121 159 199 243 288
#     4  11  24  39  54  74 100 130 166 209 256 303
#
# _framework density 18.544595000000001
#
# number of rings (size 3 to 8) (size 9 to 14) (size 15 to 20)
#    0.000    2.818    0.000    4.091    0.000    6.909 
#    0.000    0.455    0.000    3.273    0.000    3.818 
#    0.000    0.727    0.000    8.364    0.000    9.636 
#
# Total GULP energy -245212.846066 kJ/mol
# GULP energy per Si atom -5573.019229 kJ/mol
# Density = 1.850239 g / cm^3
# Si number density = 18.544595 Si / 1000 Ang^3
#
#
#
# Elastic Constant Matrix: (Units=GPa)
#
#
# Indices 1 2 3 4 5 6 
#
# 1 219.2337 23.7652 96.2954 0.0000 0.0000 0.0000
# 2 23.7652 10.4255 17.5334 0.0000 0.0000 0.0000
# 3 96.2954 17.5334 98.0910 0.0000 0.0000 0.0000
# 4 0.0000 0.0000 0.0000 15.5171 0.0000 0.0000
# 5 0.0000 0.0000 0.0000 0.0000 24.6051 0.0000
# 6 0.0000 0.0000 0.0000 0.0000 0.0000 -26.9384
#
#
#
# Elastic Compliance Matrix: (Units=1/GPa)
#
#
# Indices 1 2 3 4 5 6 
#
# 1 0.008417 -0.007564 -0.006911 0.000000 0.000000 0.000000
# 2 -0.007564 0.143943 -0.018304 0.000000 0.000000 0.000000
# 3 -0.006911 -0.018304 0.020250 0.000000 0.000000 0.000000
# 4 0.000000 0.000000 0.000000 0.064445 0.000000 0.000000
# 5 0.000000 0.000000 0.000000 0.000000 0.040642 0.000000
# 6 0.000000 0.000000 0.000000 0.000000 0.000000 -0.037122
#
#
# Mechanical properties :
#
#
# Convention : Reuss Voigt Hill
#
# Bulk Modulus (GPa) = 9.34112 66.99313 38.16712
# Shear Modulus (GPa) = 14.62773 15.31384 14.97078
#
# Velocity S-wave (km/s) = 2.81158 2.87676 2.84436
# Velocity P-wave (km/s) = 3.94817 6.87301 5.60474
#
# Compressibility (1/GPa) = 0.10705357
#
# Stress axis : x y z
#
# Youngs Moduli (GPa) = 118.81212 6.94719 49.38171
#
# Poissons Ratio (x) = 0.05255 0.34126
# Poissons Ratio (y) = 0.89868 0.90387
# Poissons Ratio (z) = 0.82106 0.12716
#
# Static dielectric constant tensor:
#      x y z
#    x 1.658710 0.000000 0.000000 
#    y 0.000000 1.635300 0.000000 
#    z 0.000000 0.000000 1.627890 
# 
# From -- ./inp_files/2147.got.cif
#   From: 2010.05.17/outbox.cif.g08.bks.cpg/sg47_2_cif.got.tgz:2147.got - 2010.06.03 20:15:42.
