data_PCOD9385752
_publ_section_title
;
Structure prediction by ZEFSAII (Michael W. Deem and Ramdas Pophale) SiO2 
 PCOD9385752
Probable space group: P M M M
;
_chemical_formula_sum "Si O2"
_cell_formula_units_Z 52
_cell_length_a 7.455346
_cell_length_b 21.591941
_cell_length_c 13.472172
_cell_angle_alpha 90.000000
_cell_angle_beta 90.000000
_cell_angle_gamma 90.000000
_cell_volume 2168.688155
_symmetry_space_group_name_H-M "P M M M"
_symmetry_group_IT_number 47
_symmetry_cell_setting 'orthorhombic'
loop_
_space_group_symop_operation_xyz
x,y,z
-x,-y,z
x,-y,-z
-x,y,-z
-x,-y,-z
x,y,-z
-x,y,z
x,-y,z
loop_
_atom_site_type_symbol
_atom_site_label
_atom_site_fract_x
_atom_site_fract_y
_atom_site_fract_z
Si Si1 0.280963 0.567132 0.324229
Si Si2 0.791977 0.000000 0.882718
Si Si3 0.293615 0.397183 0.892047
Si Si4 0.717570 0.701024 0.607777
Si Si5 0.716642 0.928601 0.387412
Si Si6 0.207084 0.261977 0.828447
Si Si7 0.208748 0.128798 0.188158
O O1 0.500000 0.568044 0.322878
O O2 0.225431 0.500000 0.362545
O O3 0.217523 0.575483 0.209997
O O4 0.229485 0.628573 0.383017
O O5 0.708419 0.064628 0.849094
O O6 0.000000 0.000000 0.845925
O O7 0.796354 0.000000 0.000000
O O8 0.500000 0.418095 0.895071
O O9 0.293695 0.322849 0.875043
O O10 0.213208 0.411351 0.000000
O O11 0.773725 0.725582 0.500000
O O12 0.500000 0.704598 0.612014
O O13 0.785639 0.731267 0.708790
O O14 0.774104 0.915940 0.500000
O O15 0.500000 0.927121 0.385731
O O16 0.783593 0.880200 0.306742
O O17 0.770069 0.000000 0.363057
O O18 0.284857 0.193934 0.848563
O O19 0.000000 0.263802 0.859992
O O20 0.000000 0.129513 0.156832
#
# Coordination Sequence:
#
# PCOD9385752 Si02
#       7
#     8   4   8   8   8   8   8
#     4   8  14  26  47  77 107 130 160 207 255 296
#     4   9  18  34  54  73  94 120 153 197 248 299
#     4   9  18  33  52  74 101 133 168 206 251 302
#     4   9  18  33  52  74 102 137 173 207 248 296
#     4   9  18  32  50  73 100 129 157 188 236 296
#     4  10  21  34  50  74 101 131 170 212 251 297
#     4  10  20  34  53  75  97 126 164 206 251 294
#
# _framework density 23.977626999999998
#
# number of rings (size 3 to 8) (size 9 to 14) (size 15 to 20)
#    0.000    2.846    0.769    1.846    0.000    4.000 
#    0.000    8.462    0.000    8.308    0.000    8.615 
#    0.000    0.000    0.000    0.000    0.000    0.000 
#
# Total GULP energy -290268.050240 kJ/mol
# GULP energy per Si atom -5582.077889 kJ/mol
# Density = 2.392305 g / cm^3
# Si number density = 23.977627 Si / 1000 Ang^3
#
#
#
# Elastic Constant Matrix: (Units=GPa)
#
#
# Indices 1 2 3 4 5 6 
#
# 1 76.4878 -2.3115 -4.1536 0.0000 0.0000 0.0000
# 2 -2.3115 103.5676 -20.5855 0.0000 0.0000 0.0000
# 3 -4.1536 -20.5855 61.3203 0.0000 0.0000 0.0000
# 4 0.0000 0.0000 0.0000 -3.9134 0.0000 0.0000
# 5 0.0000 0.0000 0.0000 0.0000 -4.3978 0.0000
# 6 0.0000 0.0000 0.0000 0.0000 0.0000 6.1827
#
#
#
# Elastic Compliance Matrix: (Units=1/GPa)
#
#
# Indices 1 2 3 4 5 6 
#
# 1 0.013147 0.000504 0.001060 0.000000 0.000000 0.000000
# 2 0.000504 0.010365 0.003514 0.000000 0.000000 0.000000
# 3 0.001060 0.003514 0.017559 0.000000 0.000000 0.000000
# 4 0.000000 0.000000 0.000000 -0.255530 0.000000 0.000000
# 5 0.000000 0.000000 0.000000 0.000000 -0.227388 0.000000
# 6 0.000000 0.000000 0.000000 0.000000 0.000000 0.161741
#
#
# Mechanical properties :
#
#
# Convention : Reuss Voigt Hill
#
# Bulk Modulus (GPa) = 19.52123 20.80828 20.16475
# Shear Modulus (GPa) = -18.30257 17.46939 -0.41659
#
# Velocity S-wave (km/s) = -2.76582 2.70213 -0.41727
# Velocity P-wave (km/s) = 1.42848 4.29330 2.86285
#
# Compressibility (1/GPa) = 0.05122627
#
# Stress axis : x y z
#
# Youngs Moduli (GPa) = 76.06436 96.47672 56.95026
#
# Poissons Ratio (x) = -0.04863 -0.06035
# Poissons Ratio (y) = -0.03834 -0.20011
# Poissons Ratio (z) = -0.08061 -0.33900
#
# Static dielectric constant tensor:
#      x y z
#    x 1.935410 0.000000 0.000000 
#    y 0.000000 1.925820 0.000000 
#    z 0.000000 0.000000 1.910710 
# 
# From -- ./inp_files/11029.got.cif
#   From: 2010.05.17/outbox.cif.g08.bks.cpg/sg47_6_cif.got.tgz:11029.got - 2010.06.03 20:15:42.
