data_PCOD9385987
_publ_section_title
;
Structure prediction by ZEFSAII (Michael W. Deem and Ramdas Pophale) SiO2 
 PCOD9385987
Probable space group: P M M M
;
_chemical_formula_sum "Si O2"
_cell_formula_units_Z 48
_cell_length_a 9.411402
_cell_length_b 7.827671
_cell_length_c 31.851031
_cell_angle_alpha 90.000000
_cell_angle_beta 90.000000
_cell_angle_gamma 90.000000
_cell_volume 2346.445021
_symmetry_space_group_name_H-M "P M M M"
_symmetry_group_IT_number 47
_symmetry_cell_setting 'orthorhombic'
loop_
_space_group_symop_operation_xyz
x,y,z
-x,-y,z
x,-y,-z
-x,y,-z
-x,-y,-z
x,y,-z
-x,y,z
x,-y,z
loop_
_atom_site_type_symbol
_atom_site_label
_atom_site_fract_x
_atom_site_fract_y
_atom_site_fract_z
Si Si1 0.660268 0.296085 0.580517
Si Si2 0.336565 0.290546 0.163988
Si Si3 0.338057 0.203884 0.000000
Si Si4 0.838084 0.203440 0.338456
Si Si5 0.837469 0.294530 0.244752
Si Si6 0.161773 0.705187 0.917244
Si Si7 0.836644 0.290350 0.500000
O O1 0.500000 0.226612 0.580186
O O2 0.650685 0.500000 0.574807
O O3 0.737968 0.265837 0.624495
O O4 0.754412 0.231771 0.541666
O O5 0.500000 0.236032 0.160921
O O6 0.336429 0.500000 0.163818
O O7 0.262544 0.233961 0.207187
O O8 0.244609 0.232840 0.124058
O O9 0.251929 0.257176 0.958716
O O10 0.500000 0.272070 0.000000
O O11 0.345885 0.000000 0.000000
O O12 0.788375 0.249980 0.291623
O O13 0.000000 0.271555 0.343291
O O14 0.844301 0.000000 0.341182
O O15 0.842432 0.500000 0.241913
O O16 0.000000 0.230739 0.239950
O O17 0.153066 0.500000 0.913537
O O18 0.000000 0.770822 0.919995
O O19 0.837566 0.500000 0.500000
O O20 0.000000 0.235095 0.500000
#
# Coordination Sequence:
#
# PCOD9385987 Si02
#       7
#     8   8   4   8   8   8   4
#     4  10  20  34  54  80 108 137 171 213 261 312
#     4   9  17  30  51  79 107 134 169 216 266 312
#     4  11  24  39  54  76 108 143 178 217 262 312
#     4  10  21  36  53  75 105 141 180 219 259 307
#     4   9  17  31  52  76 102 134 173 217 263 311
#     4  10  20  35  57  83 108 137 176 218 260 310
#     4   9  17  31  54  81 106 133 168 212 260 309
#
# _framework density 20.456477
#
# number of rings (size 3 to 8) (size 9 to 14) (size 15 to 20)
#    0.000    2.333    0.000    2.750    0.000    8.333 
#    0.000    2.917    0.000    5.500    0.000    0.000 
#    0.000    0.000    0.000    0.000    0.000    0.000 
#
# Total GULP energy -268089.839117 kJ/mol
# GULP energy per Si atom -5585.204982 kJ/mol
# Density = 2.040992 g / cm^3
# Si number density = 20.456477 Si / 1000 Ang^3
#
#
#
# Elastic Constant Matrix: (Units=GPa)
#
#
# Indices 1 2 3 4 5 6 
#
# 1 200.6748 8.8607 147.4567 0.0000 0.0000 0.0000
# 2 8.8607 23.1264 -0.1118 0.0000 0.0000 0.0000
# 3 147.4567 -0.1118 214.8540 0.0000 0.0000 0.0000
# 4 0.0000 0.0000 0.0000 -68.8227 0.0000 0.0000
# 5 0.0000 0.0000 0.0000 0.0000 51.4560 0.0000
# 6 0.0000 0.0000 0.0000 0.0000 0.0000 9.2861
#
#
#
# Elastic Compliance Matrix: (Units=1/GPa)
#
#
# Indices 1 2 3 4 5 6 
#
# 1 0.010415 -0.004025 -0.007150 0.000000 0.000000 0.000000
# 2 -0.004025 0.044796 0.002786 0.000000 0.000000 0.000000
# 3 -0.007150 0.002786 0.009563 0.000000 0.000000 0.000000
# 4 0.000000 0.000000 0.000000 -0.014530 0.000000 0.000000
# 5 0.000000 0.000000 0.000000 0.000000 0.019434 0.000000
# 6 0.000000 0.000000 0.000000 0.000000 0.000000 0.107688
#
#
# Mechanical properties :
#
#
# Convention : Reuss Voigt Hill
#
# Bulk Modulus (GPa) = 20.83527 83.45183 52.14355
# Shear Modulus (GPa) = 23.79350 17.21385 20.50367
#
# Velocity S-wave (km/s) = 3.41417 2.90399 3.16936
# Velocity P-wave (km/s) = 5.07438 7.21994 6.24007
#
# Compressibility (1/GPa) = 0.04799553
#
# Stress axis : x y z
#
# Youngs Moduli (GPa) = 96.01969 22.32333 104.57307
#
# Poissons Ratio (x) = 0.08985 0.74767
# Poissons Ratio (y) = 0.38646 -0.29130
# Poissons Ratio (z) = 0.68651 -0.06218
#
# Static dielectric constant tensor:
#      x y z
#    x 1.760840 0.000000 0.000000 
#    y 0.000000 1.741150 0.000000 
#    z 0.000000 0.000000 1.686490 
# 
# From -- ./inp_files/34111.got.cif
#   From: 2010.05.17/outbox.cif.g08.bks.cpg/sg47_18_cif.got.tgz:34111.got - 2010.06.03 20:15:42.
