data_PCOD9385154
_publ_section_title
;
Structure prediction by ZEFSAII (Michael W. Deem and Ramdas Pophale) SiO2 
 PCOD9385154
Probable space group: P M M M
;
_chemical_formula_sum "Si O2"
_cell_formula_units_Z 52
_cell_length_a 16.529871
_cell_length_b 21.018123
_cell_length_c 8.097504
_cell_angle_alpha 90.000000
_cell_angle_beta 90.000000
_cell_angle_gamma 90.000000
_cell_volume 2813.290404
_symmetry_space_group_name_H-M "P M M M"
_symmetry_group_IT_number 47
_symmetry_cell_setting 'orthorhombic'
loop_
_space_group_symop_operation_xyz
x,y,z
-x,-y,z
x,-y,-z
-x,y,-z
-x,-y,-z
x,y,-z
-x,y,z
x,-y,z
loop_
_atom_site_type_symbol
_atom_site_label
_atom_site_fract_x
_atom_site_fract_y
_atom_site_fract_z
Si Si1 0.794451 0.815647 0.694663
Si Si2 0.904757 0.070356 0.198699
Si Si3 0.228448 0.328998 0.298897
Si Si4 0.500000 0.071015 0.697018
Si Si5 0.379435 0.174268 0.187615
Si Si6 0.410690 0.312551 0.693203
Si Si7 0.908749 0.573677 0.701534
O O1 0.775399 0.815878 0.500000
O O2 0.862546 0.867597 0.728035
O O3 0.806269 0.741402 0.740959
O O4 0.715304 0.835868 0.793433
O O5 0.000000 0.072360 0.236515
O O6 0.874089 0.000000 0.253380
O O7 0.896051 0.072742 0.000000
O O8 0.232212 0.332626 0.500000
O O9 0.322348 0.334927 0.239271
O O10 0.164488 0.381674 0.240998
O O11 0.500000 0.068879 0.500000
O O12 0.575830 0.111576 0.755715
O O13 0.500000 0.000000 0.763780
O O14 0.404254 0.235966 0.292660
O O15 0.400936 0.189468 0.000000
O O16 0.411800 0.330216 0.500000
O O17 0.500000 0.331142 0.762632
O O18 0.908176 0.575498 0.500000
O O19 0.897322 0.500000 0.749657
O O20 0.000000 0.593487 0.752480
#
# Coordination Sequence:
#
# PCOD9385154 Si02
#       7
#     8   8   8   4   8   8   8
#     4  10  20  33  50  72  98 127 160 202 251 297
#     4   9  19  36  54  70  92 124 160 200 249 302
#     4   8  15  26  40  64  93 123 162 202 243 292
#     4  11  23  37  51  67  91 123 158 197 242 293
#     4  11  21  33  50  70  93 121 155 197 242 290
#     4   9  16  28  47  65  89 124 157 194 242 293
#     4   8  13  22  38  61  93 133 168 198 239 291
#
# _framework density 18.483694
#
# number of rings (size 3 to 8) (size 9 to 14) (size 15 to 20)
#    0.000    2.692    0.769    3.923    0.000    2.462 
#    0.000    2.308    0.000    0.462    0.000    3.231 
#    0.000   15.385    0.000   49.538    0.000   45.846 
#
# Total GULP energy -289587.819911 kJ/mol
# GULP energy per Si atom -5568.996537 kJ/mol
# Density = 1.844162 g / cm^3
# Si number density = 18.483694 Si / 1000 Ang^3
#
#
#
# Elastic Constant Matrix: (Units=GPa)
#
#
# Indices 1 2 3 4 5 6 
#
# 1 136.6635 85.4043 9.0609 0.0000 0.0000 0.0000
# 2 85.4043 98.6659 7.4893 0.0000 0.0000 0.0000
# 3 9.0609 7.4893 20.1058 0.0000 0.0000 0.0000
# 4 0.0000 0.0000 0.0000 -13.6016 0.0000 0.0000
# 5 0.0000 0.0000 0.0000 0.0000 31.6333 0.0000
# 6 0.0000 0.0000 0.0000 0.0000 0.0000 -114.5255
#
#
#
# Elastic Compliance Matrix: (Units=1/GPa)
#
#
# Indices 1 2 3 4 5 6 
#
# 1 0.016026 -0.013712 -0.002115 0.000000 0.000000 0.000000
# 2 -0.013712 0.022161 -0.002076 0.000000 0.000000 0.000000
# 3 -0.002115 -0.002076 0.051463 0.000000 0.000000 0.000000
# 4 0.000000 0.000000 0.000000 -0.073521 0.000000 0.000000
# 5 0.000000 0.000000 0.000000 0.000000 0.031612 0.000000
# 6 0.000000 0.000000 0.000000 0.000000 0.000000 -0.008732
#
#
# Mechanical properties :
#
#
# Convention : Reuss Voigt Hill
#
# Bulk Modulus (GPa) = 18.57131 51.03823 34.80477
# Shear Modulus (GPa) = 53.90049 -9.06671 22.41689
#
# Velocity S-wave (km/s) = 5.40596 -2.21718 3.48630
# Velocity P-wave (km/s) = 7.00251 4.59543 5.92254
#
# Compressibility (1/GPa) = 0.05384649
#
# Stress axis : x y z
#
# Youngs Moduli (GPa) = 62.39806 45.12354 19.43134
#
# Poissons Ratio (x) = 0.61871 0.04109
# Poissons Ratio (y) = 0.85557 0.04033
# Poissons Ratio (z) = 0.13196 0.09366
#
# Static dielectric constant tensor:
#      x y z
#    x 1.668010 0.000000 0.000000 
#    y 0.000000 1.618670 0.000000 
#    z 0.000000 0.000000 1.658790 
# 
# From -- ./inp_files/7061.got.cif
#   From: 2010.05.17/outbox.cif.g08.bks.cpg/sg47_4_cif.got.tgz:7061.got - 2010.06.03 20:15:42.
