data_PCOD9385779
_publ_section_title
;
Structure prediction by ZEFSAII (Michael W. Deem and Ramdas Pophale) SiO2 
 PCOD9385779
Probable space group: P M M M
;
_chemical_formula_sum "Si O2"
_cell_formula_units_Z 48
_cell_length_a 14.769068
_cell_length_b 8.116748
_cell_length_c 21.327815
_cell_angle_alpha 90.000000
_cell_angle_beta 90.000000
_cell_angle_gamma 90.000000
_cell_volume 2556.710280
_symmetry_space_group_name_H-M "P M M M"
_symmetry_group_IT_number 47
_symmetry_cell_setting 'orthorhombic'
loop_
_space_group_symop_operation_xyz
x,y,z
-x,-y,z
x,-y,-z
-x,y,-z
-x,-y,-z
x,y,-z
-x,y,z
x,-y,z
loop_
_atom_site_type_symbol
_atom_site_label
_atom_site_fract_x
_atom_site_fract_y
_atom_site_fract_z
Si Si1 0.706508 0.304632 0.567946
Si Si2 0.101344 0.693318 0.749463
Si Si3 0.720839 0.196041 0.187508
Si Si4 0.101462 0.807479 0.608875
Si Si5 0.605206 0.699947 0.692331
Si Si6 0.396191 0.798874 0.071195
O O1 0.679512 0.235371 0.500000
O O2 0.688509 0.500000 0.566770
O O3 0.813658 0.279368 0.577379
O O4 0.654072 0.239243 0.628811
O O5 0.106189 0.500000 0.733271
O O6 0.180642 0.732980 0.797393
O O7 0.113737 0.788555 0.683962
O O8 0.000000 0.729452 0.773083
O O9 0.657717 0.236527 0.246963
O O10 0.672213 0.259281 0.124598
O O11 0.729426 0.000000 0.182425
O O12 0.000000 0.744268 0.594042
O O13 0.104449 0.000000 0.592385
O O14 0.500000 0.747167 0.693372
O O15 0.610442 0.500000 0.693420
O O16 0.500000 0.749000 0.085022
O O17 0.395468 0.000000 0.072026
O O18 0.374141 0.748006 0.000000
#
# Coordination Sequence:
#
# PCOD9385779 Si02
#       6
#     8   8   8   8   8   8
#     4  10  21  36  53  73 100 138 179 215 257 311
#     4  10  20  34  53  76 104 138 173 210 256 312
#     4  11  20  31  54  84 109 135 171 216 262 306
#     4  10  20  34  53  77 103 131 166 212 266 316
#     4  10  21  36  53  74 102 137 176 217 260 307
#     4   8  15  29  49  76 111 146 176 207 249 302
#
# _framework density 18.774125999999999
#
# number of rings (size 3 to 8) (size 9 to 14) (size 15 to 20)
#    0.000    2.167    1.667    2.500    0.000    4.000 
#    0.000    3.333    0.000    2.500    0.000   11.667 
#    0.000    0.000    0.000    0.000    0.000    0.000 
#
# Total GULP energy -267906.149716 kJ/mol
# GULP energy per Si atom -5581.378119 kJ/mol
# Density = 1.873140 g / cm^3
# Si number density = 18.774126 Si / 1000 Ang^3
#
#
#
# Elastic Constant Matrix: (Units=GPa)
#
#
# Indices 1 2 3 4 5 6 
#
# 1 91.5180 0.7802 46.7425 0.0000 0.0000 0.0000
# 2 0.7802 15.8607 -1.2286 0.0000 0.0000 0.0000
# 3 46.7425 -1.2286 99.9857 0.0000 0.0000 0.0000
# 4 0.0000 0.0000 0.0000 17.6108 0.0000 0.0000
# 5 0.0000 0.0000 0.0000 0.0000 5.9482 0.0000
# 6 0.0000 0.0000 0.0000 0.0000 0.0000 18.0495
#
#
#
# Elastic Compliance Matrix: (Units=1/GPa)
#
#
# Indices 1 2 3 4 5 6 
#
# 1 0.014378 -0.001229 -0.006737 0.000000 0.000000 0.000000
# 2 -0.001229 0.063214 0.001351 0.000000 0.000000 0.000000
# 3 -0.006737 0.001351 0.013167 0.000000 0.000000 0.000000
# 4 0.000000 0.000000 0.000000 0.056783 0.000000 0.000000
# 5 0.000000 0.000000 0.000000 0.000000 0.168118 0.000000
# 6 0.000000 0.000000 0.000000 0.000000 0.000000 0.055403
#
#
# Mechanical properties :
#
#
# Convention : Reuss Voigt Hill
#
# Bulk Modulus (GPa) = 12.89814 33.32808 23.11311
# Shear Modulus (GPa) = 12.19106 19.05971 15.62539
#
# Velocity S-wave (km/s) = 2.55101 3.18970 2.88806
# Velocity P-wave (km/s) = 3.94486 5.59966 4.84346
#
# Compressibility (1/GPa) = 0.07753056
#
# Stress axis : x y z
#
# Youngs Moduli (GPa) = 69.55045 15.81927 75.94516
#
# Poissons Ratio (x) = 0.01944 0.51162
# Poissons Ratio (y) = 0.08548 -0.10262
# Poissons Ratio (z) = 0.46854 -0.02138
#
# Static dielectric constant tensor:
#      x y z
#    x 1.644630 0.000000 0.000000 
#    y 0.000000 1.672610 0.000000 
#    z 0.000000 0.000000 1.648680 
# 
# From -- ./inp_files/6382.got.cif
#   From: 2010.05.17/outbox.cif.g08.bks.cpg/sg47_4_cif.got.tgz:6382.got - 2010.06.03 20:15:42.
