data_PCOD9385853
_publ_section_title
;
Structure prediction by ZEFSAII (Michael W. Deem and Ramdas Pophale) SiO2 
 PCOD9385853
Probable space group: P M M M
;
_chemical_formula_sum "Si O2"
_cell_formula_units_Z 64
_cell_length_a 7.810551
_cell_length_b 19.871074
_cell_length_c 18.948827
_cell_angle_alpha 90.000000
_cell_angle_beta 90.000000
_cell_angle_gamma 90.000000
_cell_volume 2940.934445
_symmetry_space_group_name_H-M "P M M M"
_symmetry_group_IT_number 47
_symmetry_cell_setting 'orthorhombic'
loop_
_space_group_symop_operation_xyz
x,y,z
-x,-y,z
x,-y,-z
-x,y,-z
-x,-y,-z
x,y,-z
-x,y,z
x,-y,z
loop_
_atom_site_type_symbol
_atom_site_label
_atom_site_fract_x
_atom_site_fract_y
_atom_site_fract_z
Si Si1 0.296087 0.192027 0.419347
Si Si2 0.691751 0.683138 0.184759
Si Si3 0.797558 0.425128 0.083638
Si Si4 0.296063 0.074821 0.148031
Si Si5 0.299239 0.424464 0.290894
Si Si6 0.710492 0.791345 0.921010
Si Si7 0.202244 0.342131 0.580390
Si Si8 0.795653 0.923614 0.691318
O O1 0.231399 0.180653 0.500000
O O2 0.500000 0.196690 0.422435
O O3 0.231310 0.265211 0.394603
O O4 0.252307 0.131674 0.366624
O O5 0.500000 0.702654 0.209372
O O6 0.686118 0.630175 0.120802
O O7 0.777818 0.636872 0.244592
O O8 0.772383 0.746714 0.145277
O O9 0.753805 0.500000 0.109257
O O10 0.000000 0.413759 0.097634
O O11 0.775253 0.423569 0.000000
O O12 0.500000 0.071104 0.137296
O O13 0.234360 0.132764 0.095977
O O14 0.268159 0.093670 0.230061
O O15 0.223193 0.000000 0.137507
O O16 0.500000 0.427735 0.270836
O O17 0.227615 0.500000 0.282550
O O18 0.285954 0.397580 0.370125
O O19 0.500000 0.787663 0.919823
O O20 0.763946 0.769958 0.000000
O O21 0.266895 0.344686 0.500000
O O22 0.000000 0.354710 0.580310
O O23 0.000000 0.925879 0.694438
O O24 0.733288 0.000000 0.674695
#
# Coordination Sequence:
#
# PCOD9385853 Si02
#       8
#     8   8   8   8   8   8   8   8
#     4  10  21  37  59  86 117 154 195 238 284 337
#     4  10  20  34  53  78 108 140 178 226 275 330
#     4   9  18  32  49  70  99 136 175 216 266 323
#     4   9  18  33  54  80 109 146 193 240 287 341
#     4  10  22  38  56  82 114 149 191 236 285 342
#     4   9  18  32  52  81 113 144 182 233 290 339
#     4  10  22  40  61  86 115 147 187 235 288 344
#     4  10  21  36  55  82 118 157 196 241 290 338
#
# _framework density 21.761790000000001
#
# number of rings (size 3 to 8) (size 9 to 14) (size 15 to 20)
#    0.000    2.375    0.000    2.250    1.750    5.250 
#    0.000    5.000    0.000    1.125    0.000    1.750 
#    0.000    0.000    0.000    0.000    0.000    0.000 
#
# Total GULP energy -357079.564917 kJ/mol
# GULP energy per Si atom -5579.368202 kJ/mol
# Density = 2.171226 g / cm^3
# Si number density = 21.761790 Si / 1000 Ang^3
#
#
#
# Elastic Constant Matrix: (Units=GPa)
#
#
# Indices 1 2 3 4 5 6 
#
# 1 30.7331 -0.3013 -6.9062 0.0000 0.0000 0.0000
# 2 -0.3013 101.1194 57.4038 0.0000 0.0000 0.0000
# 3 -6.9062 57.4038 70.2826 0.0000 0.0000 0.0000
# 4 0.0000 0.0000 0.0000 46.8446 0.0000 0.0000
# 5 0.0000 0.0000 0.0000 0.0000 -3.4983 0.0000
# 6 0.0000 0.0000 0.0000 0.0000 0.0000 12.5051
#
#
#
# Elastic Compliance Matrix: (Units=1/GPa)
#
#
# Indices 1 2 3 4 5 6 
#
# 1 0.033865 -0.003334 0.006051 0.000000 0.000000 0.000000
# 2 -0.003334 0.018767 -0.015655 0.000000 0.000000 0.000000
# 3 0.006051 -0.015655 0.027610 0.000000 0.000000 0.000000
# 4 0.000000 0.000000 0.000000 0.021347 0.000000 0.000000
# 5 0.000000 0.000000 0.000000 0.000000 -0.285851 0.000000
# 6 0.000000 0.000000 0.000000 0.000000 0.000000 0.079968
#
#
# Mechanical properties :
#
#
# Convention : Reuss Voigt Hill
#
# Bulk Modulus (GPa) = 18.39448 33.61418 26.00433
# Shear Modulus (GPa) = -82.92392 21.29953 -30.81220
#
# Velocity S-wave (km/s) = -6.17964 3.13191 -3.76691
# Velocity P-wave (km/s) = 6.51509 5.34401 2.63514
#
# Compressibility (1/GPa) = 0.05436414
#
# Stress axis : x y z
#
# Youngs Moduli (GPa) = 29.52881 53.28581 36.21931
#
# Poissons Ratio (x) = 0.17766 -0.21916
# Poissons Ratio (y) = 0.09845 0.56703
# Poissons Ratio (z) = -0.17867 0.83421
#
# Static dielectric constant tensor:
#      x y z
#    x 1.801530 0.000000 0.000000 
#    y 0.000000 1.836030 0.000000 
#    z 0.000000 0.000000 1.810940 
# 
# From -- ./inp_files/27041.got.cif
#   From: 2010.05.17/outbox.cif.g08.bks.cpg/sg47_14_cif.got.tgz:27041.got - 2010.06.03 20:15:42.
