data_PCOD9385434
_publ_section_title
;
Structure prediction by ZEFSAII (Michael W. Deem and Ramdas Pophale) SiO2 
 PCOD9385434
Probable space group: P M M M
;
_chemical_formula_sum "Si O2"
_cell_formula_units_Z 64
_cell_length_a 15.081983
_cell_length_b 24.792888
_cell_length_c 7.790697
_cell_angle_alpha 90.000000
_cell_angle_beta 90.000000
_cell_angle_gamma 90.000000
_cell_volume 2913.143507
_symmetry_space_group_name_H-M "P M M M"
_symmetry_group_IT_number 47
_symmetry_cell_setting 'orthorhombic'
loop_
_space_group_symop_operation_xyz
x,y,z
-x,-y,z
x,-y,-z
-x,y,-z
-x,-y,-z
x,y,-z
-x,y,z
x,-y,z
loop_
_atom_site_type_symbol
_atom_site_label
_atom_site_fract_x
_atom_site_fract_y
_atom_site_fract_z
Si Si1 0.404844 0.064773 0.698229
Si Si2 0.598942 0.219246 0.202574
Si Si3 0.779870 0.826870 0.792474
Si Si4 0.791427 0.939914 0.196578
Si Si5 0.282889 0.558778 0.298823
Si Si6 0.101278 0.724834 0.704501
Si Si7 0.100546 0.396531 0.799955
Si Si8 0.396779 0.658421 0.706771
O O1 0.394283 0.082311 0.500000
O O2 0.500000 0.085752 0.765667
O O3 0.314724 0.071270 0.802090
O O4 0.412634 0.000000 0.692277
O O5 0.500000 0.212158 0.277568
O O6 0.680067 0.184558 0.274523
O O7 0.623275 0.282312 0.221906
O O8 0.593767 0.207513 0.000000
O O9 0.822686 0.882993 0.725606
O O10 0.836687 0.774234 0.752286
O O11 0.776062 0.831382 0.000000
O O12 0.805884 0.000000 0.274122
O O13 0.822552 0.943176 0.000000
O O14 0.306976 0.557019 0.500000
O O15 0.303850 0.500000 0.223485
O O16 0.178273 0.569949 0.286151
O O17 0.335365 0.610209 0.226390
O O18 0.104602 0.717539 0.500000
O O19 0.124321 0.666829 0.783037
O O20 0.000000 0.736987 0.756189
O O21 0.000000 0.403131 0.731397
O O22 0.099415 0.410979 0.000000
O O23 0.386618 0.662599 0.500000
O O24 0.500000 0.646772 0.743842
#
# Coordination Sequence:
#
# PCOD9385434 Si02
#       8
#     8   8   8   8   8   8   8   8
#     4   8  14  25  40  58  83 118 161 206 247 287
#     4   9  18  32  49  71 101 135 170 210 258 309
#     4  10  20  33  52  77 104 136 171 210 257 307
#     4   9  18  31  46  67  96 130 169 210 252 303
#     4  10  21  35  52  77 108 142 180 221 263 305
#     4  10  21  37  58  83 107 130 162 209 263 315
#     4  10  21  37  57  80 107 139 172 208 255 311
#     4   9  18  33  52  73  99 133 174 219 263 305
#
# _framework density 21.969394999999999
#
# number of rings (size 3 to 8) (size 9 to 14) (size 15 to 20)
#    0.000    2.625    0.000    1.875    0.000    6.500 
#    0.000    5.000    0.000    1.875    0.000    5.250 
#    0.000    0.000    0.000    0.000    0.000    0.000 
#
# Total GULP energy -356954.399334 kJ/mol
# GULP energy per Si atom -5577.412490 kJ/mol
# Density = 2.191939 g / cm^3
# Si number density = 21.969395 Si / 1000 Ang^3
#
#
#
# Elastic Constant Matrix: (Units=GPa)
#
#
# Indices 1 2 3 4 5 6 
#
# 1 31.4614 31.7001 -0.2949 0.0000 0.0000 0.0000
# 2 31.7001 103.5107 -2.5707 0.0000 0.0000 0.0000
# 3 -0.2949 -2.5707 34.8718 0.0000 0.0000 0.0000
# 4 0.0000 0.0000 0.0000 16.9744 0.0000 0.0000
# 5 0.0000 0.0000 0.0000 0.0000 18.7792 0.0000
# 6 0.0000 0.0000 0.0000 0.0000 0.0000 0.4777
#
#
#
# Elastic Compliance Matrix: (Units=1/GPa)
#
#
# Indices 1 2 3 4 5 6 
#
# 1 0.045985 -0.014099 -0.000650 0.000000 0.000000 0.000000
# 2 -0.014099 0.014001 0.000913 0.000000 0.000000 0.000000
# 3 -0.000650 0.000913 0.028738 0.000000 0.000000 0.000000
# 4 0.000000 0.000000 0.000000 0.058912 0.000000 0.000000
# 5 0.000000 0.000000 0.000000 0.000000 0.053250 0.000000
# 6 0.000000 0.000000 0.000000 0.000000 0.000000 2.093291
#
#
# Mechanical properties :
#
#
# Convention : Reuss Voigt Hill
#
# Bulk Modulus (GPa) = 16.37965 25.27920 20.82943
# Shear Modulus (GPa) = 2.13474 16.64689 9.39082
#
# Velocity S-wave (km/s) = 0.98681 2.75568 2.06973
# Velocity P-wave (km/s) = 2.96146 4.65366 3.90044
#
# Compressibility (1/GPa) = 0.06105136
#
# Stress axis : x y z
#
# Youngs Moduli (GPa) = 21.74629 71.42183 34.79683
#
# Poissons Ratio (x) = 1.00698 0.02263
# Poissons Ratio (y) = 0.30660 -0.03177
# Poissons Ratio (z) = 0.01415 -0.06520
#
# Static dielectric constant tensor:
#      x y z
#    x 1.826810 0.000000 0.000000 
#    y 0.000000 1.851750 0.000000 
#    z 0.000000 0.000000 1.817680 
# 
# From -- ./inp_files/7803.got.cif
#   From: 2010.05.17/outbox.cif.g08.bks.cpg/sg47_4_cif.got.tgz:7803.got - 2010.06.03 20:15:42.
