data_PCOD9385404
_publ_section_title
;
Structure prediction by ZEFSAII (Michael W. Deem and Ramdas Pophale) SiO2 
 PCOD9385404
Probable space group: P M M M
;
_chemical_formula_sum "Si O2"
_cell_formula_units_Z 40
_cell_length_a 8.060197
_cell_length_b 27.990080
_cell_length_c 9.210300
_cell_angle_alpha 90.000000
_cell_angle_beta 90.000000
_cell_angle_gamma 90.000000
_cell_volume 2077.894879
_symmetry_space_group_name_H-M "P M M M"
_symmetry_group_IT_number 47
_symmetry_cell_setting 'orthorhombic'
loop_
_space_group_symop_operation_xyz
x,y,z
-x,-y,z
x,-y,-z
-x,y,-z
-x,-y,-z
x,y,-z
-x,y,z
x,-y,z
loop_
_atom_site_type_symbol
_atom_site_label
_atom_site_fract_x
_atom_site_fract_y
_atom_site_fract_z
Si Si1 0.799685 0.905258 0.165340
Si Si2 0.190631 0.707185 0.675474
Si Si3 0.000000 0.442804 0.170613
Si Si4 0.698053 0.810458 0.333285
Si Si5 0.203088 0.000000 0.333223
Si Si6 0.686102 0.394636 0.324432
O O1 0.750420 0.856294 0.242595
O O2 0.000000 0.907268 0.162928
O O3 0.741540 0.951938 0.252522
O O4 0.739564 0.906526 0.000000
O O5 0.204691 0.710081 0.500000
O O6 0.239008 0.759798 0.728255
O O7 0.297326 0.661349 0.718348
O O8 0.000000 0.696918 0.712146
O O9 0.164575 0.422277 0.247780
O O10 0.000000 0.500000 0.182766
O O11 0.000000 0.429902 0.000000
O O12 0.759765 0.815854 0.500000
O O13 0.500000 0.807863 0.337836
O O14 0.256118 0.000000 0.500000
O O15 0.000000 0.000000 0.331575
O O16 0.707061 0.397430 0.500000
O O17 0.500000 0.411766 0.289446
#
# Coordination Sequence:
#
# PCOD9385404 Si02
#       6
#     8   8   4   8   4   8
#     4  10  20  34  52  75 104 138 176 220 272 330
#     4   9  16  30  56  87 116 146 183 233 290 344
#     4  11  25  43  61  85 123 169 211 252 301 362
#     4  10  20  33  51  78 110 143 181 224 271 328
#     4   9  17  31  54  79 100 127 170 224 278 333
#     4  10  20  37  64  95 124 156 201 257 311 361
#
# _framework density 19.250250000000001
#
# number of rings (size 3 to 8) (size 9 to 14) (size 15 to 20)
#    0.000    2.200    1.000    2.400    0.000    7.600 
#    0.000    3.500    0.000    5.400    0.000    0.000 
#    0.000    0.000    0.000    0.000    0.000    0.000 
#
# Total GULP energy -223243.324549 kJ/mol
# GULP energy per Si atom -5581.083114 kJ/mol
# Density = 1.920644 g / cm^3
# Si number density = 19.250250 Si / 1000 Ang^3
#
#
#
# Elastic Constant Matrix: (Units=GPa)
#
#
# Indices 1 2 3 4 5 6 
#
# 1 86.0591 53.8854 41.0496 0.0000 0.0000 0.0000
# 2 53.8854 113.8374 57.2005 0.0000 0.0000 0.0000
# 3 41.0496 57.2005 85.7893 0.0000 0.0000 0.0000
# 4 0.0000 0.0000 0.0000 -139.9644 0.0000 0.0000
# 5 0.0000 0.0000 0.0000 0.0000 13.3961 0.0000
# 6 0.0000 0.0000 0.0000 0.0000 0.0000 -5.2451
#
#
#
# Elastic Compliance Matrix: (Units=1/GPa)
#
#
# Indices 1 2 3 4 5 6 
#
# 1 0.017504 -0.006131 -0.004288 0.000000 0.000000 0.000000
# 2 -0.006131 0.015358 -0.007306 0.000000 0.000000 0.000000
# 3 -0.004288 -0.007306 0.018579 0.000000 0.000000 0.000000
# 4 0.000000 0.000000 0.000000 -0.007145 0.000000 0.000000
# 5 0.000000 0.000000 0.000000 0.000000 0.074649 0.000000
# 6 0.000000 0.000000 0.000000 0.000000 0.000000 -0.190653
#
#
# Mechanical properties :
#
#
# Convention : Reuss Voigt Hill
#
# Bulk Modulus (GPa) = 62.53331 65.55074 64.04202
# Shear Modulus (GPa) = -161.67068 -17.45932 -89.56500
#
# Velocity S-wave (km/s) = -9.17420 -3.01485 -6.82845
# Velocity P-wave (km/s) = 8.92560 4.69113 5.36934
#
# Compressibility (1/GPa) = 0.01599148
#
# Stress axis : x y z
#
# Youngs Moduli (GPa) = 57.12952 65.11314 53.82292
#
# Poissons Ratio (x) = 0.39922 0.23077
# Poissons Ratio (y) = 0.35028 0.39324
# Poissons Ratio (z) = 0.24494 0.47573
#
# Static dielectric constant tensor:
#      x y z
#    x 1.682090 0.000000 0.000000 
#    y 0.000000 1.663460 0.000000 
#    z 0.000000 0.000000 1.656950 
# 
# From -- ./inp_files/1708.got.cif
#   From: 2010.05.17/outbox.cif.g08.bks.cpg/sg47_1_cif.got.tgz:1708.got - 2010.06.03 20:15:42.
