data_PCOD9385514
_publ_section_title
;
Structure prediction by ZEFSAII (Michael W. Deem and Ramdas Pophale) SiO2 
 PCOD9385514
Probable space group: P M M M
;
_chemical_formula_sum "Si O2"
_cell_formula_units_Z 56
_cell_length_a 14.863783
_cell_length_b 21.924883
_cell_length_c 8.191634
_cell_angle_alpha 90.000000
_cell_angle_beta 90.000000
_cell_angle_gamma 90.000000
_cell_volume 2669.544598
_symmetry_space_group_name_H-M "P M M M"
_symmetry_group_IT_number 47
_symmetry_cell_setting 'orthorhombic'
loop_
_space_group_symop_operation_xyz
x,y,z
-x,-y,z
x,-y,-z
-x,y,-z
-x,-y,-z
x,y,-z
-x,y,z
x,-y,z
loop_
_atom_site_type_symbol
_atom_site_label
_atom_site_fract_x
_atom_site_fract_y
_atom_site_fract_z
Si Si1 0.098225 0.573012 0.185890
Si Si2 0.292865 0.432107 0.310621
Si Si3 0.101062 0.753500 0.194379
Si Si4 0.397518 0.186403 0.804875
Si Si5 0.900926 0.108057 0.694345
Si Si6 0.284189 0.303010 0.695247
Si Si7 0.708716 0.066793 0.302214
O O1 0.091432 0.500000 0.170233
O O2 0.185281 0.579195 0.297380
O O3 0.000000 0.594338 0.243852
O O4 0.113019 0.597003 0.000000
O O5 0.319813 0.435520 0.500000
O O6 0.311256 0.500000 0.238120
O O7 0.325633 0.367280 0.240080
O O8 0.112874 0.819792 0.275941
O O9 0.182901 0.710370 0.243680
O O10 0.000000 0.732397 0.237288
O O11 0.104418 0.762180 0.000000
O O12 0.500000 0.187216 0.743842
O O13 0.342762 0.244544 0.741539
O O14 0.349107 0.123739 0.755994
O O15 0.398114 0.189891 0.000000
O O16 0.904182 0.097152 0.500000
O O17 0.811866 0.075037 0.756807
O O18 0.000000 0.091720 0.761772
O O19 0.280950 0.307510 0.500000
O O20 0.710019 0.068768 0.500000
O O21 0.674735 0.000000 0.252053
#
# Coordination Sequence:
#
# PCOD9385514 Si02
#       7
#     8   8   8   8   8   8   8
#     4   8  14  25  41  63  95 137 183 226 267 316
#     4   9  19  34  51  75 107 141 179 226 281 342
#     4  10  20  33  52  80 115 155 198 243 288 335
#     4  11  25  44  65  88 114 147 190 240 295 353
#     4   9  17  31  53  82 119 161 201 238 277 326
#     4  11  22  37  60  86 113 149 192 238 291 349
#     4  10  21  37  60  92 127 162 198 236 282 335
#
# _framework density 20.977360000000001
#
# number of rings (size 3 to 8) (size 9 to 14) (size 15 to 20)
#    0.000    2.286    1.429    1.714    0.000    4.857 
#    0.000    7.143    0.000    0.429    0.000    6.000 
#    0.000    0.000    0.000    0.000    0.000    0.000 
#
# Total GULP energy -312258.861843 kJ/mol
# GULP energy per Si atom -5576.051104 kJ/mol
# Density = 2.092961 g / cm^3
# Si number density = 20.977360 Si / 1000 Ang^3
#
#
#
# Elastic Constant Matrix: (Units=GPa)
#
#
# Indices 1 2 3 4 5 6 
#
# 1 84.2252 59.1694 10.8984 0.0000 0.0000 0.0000
# 2 59.1694 149.2427 2.5538 0.0000 0.0000 0.0000
# 3 10.8984 2.5538 19.8964 0.0000 0.0000 0.0000
# 4 0.0000 0.0000 0.0000 -11.0569 0.0000 0.0000
# 5 0.0000 0.0000 0.0000 0.0000 60.8664 0.0000
# 6 0.0000 0.0000 0.0000 0.0000 0.0000 -6.0145
#
#
#
# Elastic Compliance Matrix: (Units=1/GPa)
#
#
# Indices 1 2 3 4 5 6 
#
# 1 0.017907 -0.006947 -0.008917 0.000000 0.000000 0.000000
# 2 -0.006947 0.009410 0.002597 0.000000 0.000000 0.000000
# 3 -0.008917 0.002597 0.054811 0.000000 0.000000 0.000000
# 4 0.000000 0.000000 0.000000 -0.090441 0.000000 0.000000
# 5 0.000000 0.000000 0.000000 0.000000 0.016429 0.000000
# 6 0.000000 0.000000 0.000000 0.000000 0.000000 -0.166266
#
#
# Mechanical properties :
#
#
# Convention : Reuss Voigt Hill
#
# Bulk Modulus (GPa) = 17.98708 44.28974 31.13841
# Shear Modulus (GPa) = -44.21497 20.80851 -11.70323
#
# Velocity S-wave (km/s) = -4.59600 3.15294 -2.36455
# Velocity P-wave (km/s) = 4.42393 5.86632 2.72420
#
# Compressibility (1/GPa) = 0.05559545
#
# Stress axis : x y z
#
# Youngs Moduli (GPa) = 55.84372 106.26688 18.24438
#
# Poissons Ratio (x) = 0.73823 0.16269
# Poissons Ratio (y) = 0.38794 -0.04739
# Poissons Ratio (z) = 0.49796 -0.27602
#
# Static dielectric constant tensor:
#      x y z
#    x 1.759410 0.000000 0.000000 
#    y 0.000000 1.812270 0.000000 
#    z 0.000000 0.000000 1.750110 
# 
# From -- ./inp_files/7307.got.cif
#   From: 2010.05.17/outbox.cif.g08.bks.cpg/sg47_4_cif.got.tgz:7307.got - 2010.06.03 20:15:42.
