data_PCOD9385169
_publ_section_title
;
Structure prediction by ZEFSAII (Michael W. Deem and Ramdas Pophale) SiO2 
 PCOD9385169
Probable space group: P M M M
;
_chemical_formula_sum "Si O2"
_cell_formula_units_Z 44
_cell_length_a 8.153689
_cell_length_b 9.581327
_cell_length_c 29.085695
_cell_angle_alpha 90.000000
_cell_angle_beta 90.000000
_cell_angle_gamma 90.000000
_cell_volume 2272.266421
_symmetry_space_group_name_H-M "P M M M"
_symmetry_group_IT_number 47
_symmetry_cell_setting 'orthorhombic'
loop_
_space_group_symop_operation_xyz
x,y,z
-x,-y,z
x,-y,-z
-x,y,-z
-x,-y,-z
x,y,-z
-x,y,z
x,-y,z
loop_
_atom_site_type_symbol
_atom_site_label
_atom_site_fract_x
_atom_site_fract_y
_atom_site_fract_z
Si Si1 0.195595 0.159800 0.311784
Si Si2 0.696082 0.159454 0.413776
Si Si3 0.700945 0.160530 0.138865
Si Si4 0.804229 0.341771 0.500000
Si Si5 0.700001 0.660719 0.948104
Si Si6 0.302924 0.341198 0.773956
O O1 0.242537 0.203312 0.363442
O O2 0.262456 0.261856 0.273021
O O3 0.000000 0.157213 0.308241
O O4 0.257509 0.000000 0.305126
O O5 0.500000 0.156524 0.412741
O O6 0.750188 0.258882 0.454715
O O7 0.755601 0.000000 0.421819
O O8 0.500000 0.160632 0.138982
O O9 0.754469 0.235886 0.091906
O O10 0.756390 0.250230 0.182734
O O11 0.753726 0.000000 0.141669
O O12 0.739174 0.500000 0.500000
O O13 0.000000 0.347285 0.500000
O O14 0.500000 0.662526 0.948041
O O15 0.748229 0.500000 0.938772
O O16 0.752405 0.697629 0.000000
O O17 0.500000 0.347982 0.777936
O O18 0.239939 0.500000 0.774618
#
# Coordination Sequence:
#
# PCOD9385169 Si02
#       6
#     8   8   8   4   8   8
#     4  10  21  37  57  80 105 134 169 211 260 311
#     4  10  21  38  61  86 110 140 179 219 260 309
#     4   9  16  25  39  60  87 121 162 208 254 301
#     4  11  24  39  56  82 116 151 184 219 260 304
#     4   8  13  21  33  51  80 119 159 199 247 304
#     4  10  20  33  50  72  99 133 171 210 255 308
#
# _framework density 19.363924999999998
#
# number of rings (size 3 to 8) (size 9 to 14) (size 15 to 20)
#    0.000    2.455    0.000    3.273    0.000    8.364 
#    0.000    1.818    0.000    0.000    0.000    0.000 
#    0.000    0.727    0.000    7.636    0.000   10.545 
#
# Total GULP energy -245625.043348 kJ/mol
# GULP energy per Si atom -5582.387349 kJ/mol
# Density = 1.931985 g / cm^3
# Si number density = 19.363925 Si / 1000 Ang^3
#
#
#
# Elastic Constant Matrix: (Units=GPa)
#
#
# Indices 1 2 3 4 5 6 
#
# 1 13.1472 11.8898 6.1601 0.0000 0.0000 0.0000
# 2 11.8898 167.2781 142.7534 0.0000 0.0000 0.0000
# 3 6.1601 142.7534 190.1195 0.0000 0.0000 0.0000
# 4 0.0000 0.0000 0.0000 222.5332 0.0000 0.0000
# 5 0.0000 0.0000 0.0000 0.0000 -58.4934 0.0000
# 6 0.0000 0.0000 0.0000 0.0000 0.0000 14.2576
#
#
#
# Elastic Compliance Matrix: (Units=1/GPa)
#
#
# Indices 1 2 3 4 5 6 
#
# 1 0.082854 -0.010016 0.004836 0.000000 0.000000 0.000000
# 2 -0.010016 0.017853 -0.013080 0.000000 0.000000 0.000000
# 3 0.004836 -0.013080 0.014925 0.000000 0.000000 0.000000
# 4 0.000000 0.000000 0.000000 0.004494 0.000000 0.000000
# 5 0.000000 0.000000 0.000000 0.000000 -0.017096 0.000000
# 6 0.000000 0.000000 0.000000 0.000000 0.000000 0.070138
#
#
# Mechanical properties :
#
#
# Convention : Reuss Voigt Hill
#
# Bulk Modulus (GPa) = 12.64049 76.90569 44.77309
# Shear Modulus (GPa) = 21.18123 49.64224 35.41173
#
# Velocity S-wave (km/s) = 3.31093 5.06874 4.28103
# Velocity P-wave (km/s) = 4.59982 8.60571 6.89988
#
# Compressibility (1/GPa) = 0.07911083
#
# Stress axis : x y z
#
# Youngs Moduli (GPa) = 12.06939 56.01423 67.00333
#
# Poissons Ratio (x) = 0.56106 -0.32405
# Poissons Ratio (y) = 0.12089 0.87642
# Poissons Ratio (z) = -0.05837 0.73268
#
# Static dielectric constant tensor:
#      x y z
#    x 1.681690 0.000000 0.000000 
#    y 0.000000 1.671440 0.000000 
#    z 0.000000 0.000000 1.667480 
# 
# From -- ./inp_files/13662.got.cif
#   From: 2010.05.17/outbox.cif.g08.bks.cpg/sg47_7_cif.got.tgz:13662.got - 2010.06.03 20:15:42.
