data_PCOD9385629
_publ_section_title
;
Structure prediction by ZEFSAII (Michael W. Deem and Ramdas Pophale) SiO2 
 PCOD9385629
Probable space group: P M M M
;
_chemical_formula_sum "Si O2"
_cell_formula_units_Z 48
_cell_length_a 8.079643
_cell_length_b 7.592739
_cell_length_c 35.802274
_cell_angle_alpha 90.000000
_cell_angle_beta 90.000000
_cell_angle_gamma 90.000000
_cell_volume 2196.348517
_symmetry_space_group_name_H-M "P M M M"
_symmetry_group_IT_number 47
_symmetry_cell_setting 'orthorhombic'
loop_
_space_group_symop_operation_xyz
x,y,z
-x,-y,z
x,-y,-z
-x,y,-z
-x,-y,-z
x,y,-z
-x,y,z
x,-y,z
loop_
_atom_site_type_symbol
_atom_site_label
_atom_site_fract_x
_atom_site_fract_y
_atom_site_fract_z
Si Si1 0.189737 0.794173 0.163130
Si Si2 0.698291 0.298743 0.324201
Si Si3 0.677827 0.295292 0.914545
Si Si4 0.000000 0.284860 0.542947
Si Si5 0.801534 0.294920 0.245225
Si Si6 0.000000 0.283984 0.043278
Si Si7 0.691706 0.715894 0.406371
O O1 0.291410 0.709748 0.129865
O O2 0.256334 0.775554 0.205258
O O3 0.000000 0.723934 0.162453
O O4 0.183048 0.000000 0.154693
O O5 0.500000 0.308455 0.325020
O O6 0.766305 0.500000 0.323510
O O7 0.745615 0.214929 0.284673
O O8 0.743240 0.223041 0.364625
O O9 0.500000 0.213971 0.923224
O O10 0.670967 0.500000 0.925691
O O11 0.836825 0.219555 0.935344
O O12 0.832225 0.230194 0.564379
O O13 0.000000 0.500000 0.543335
O O14 0.000000 0.227978 0.500000
O O15 0.751784 0.500000 0.245655
O O16 0.000000 0.281439 0.244897
O O17 0.000000 0.500000 0.045321
O O18 0.000000 0.235643 0.000000
O O19 0.500000 0.768778 0.414052
O O20 0.689670 0.500000 0.405293
#
# Coordination Sequence:
#
# PCOD9385629 Si02
#       7
#     8   8   8   4   8   4   8
#     4  10  20  34  51  71 101 140 175 208 249 295
#     4   8  14  24  37  54  76 103 137 181 232 278
#     4  10  20  34  56  83 108 138 174 209 248 295
#     4   9  16  22  30  45  64  93 132 171 215 267
#     4   9  17  27  43  67  91 118 157 204 246 285
#     4   9  18  34  57  84 113 138 162 205 257 299
#     4   8  14  23  33  46  67  95 129 172 218 264
#
# _framework density 21.854454
#
# number of rings (size 3 to 8) (size 9 to 14) (size 15 to 20)
#    0.000    3.000    0.833    1.500    1.167    2.333 
#    0.000    5.000    0.000    1.000    0.000    1.167 
#    0.000    0.000    0.000    0.000    0.000    1.667 
#
# Total GULP energy -267633.858762 kJ/mol
# GULP energy per Si atom -5575.705391 kJ/mol
# Density = 2.180471 g / cm^3
# Si number density = 21.854454 Si / 1000 Ang^3
#
#
#
# Elastic Constant Matrix: (Units=GPa)
#
#
# Indices 1 2 3 4 5 6 
#
# 1 128.3146 9.8892 92.1561 0.0000 0.0000 0.0000
# 2 9.8892 44.4497 4.2666 0.0000 0.0000 0.0000
# 3 92.1561 4.2666 171.3033 0.0000 0.0000 0.0000
# 4 0.0000 0.0000 0.0000 -59.3910 0.0000 0.0000
# 5 0.0000 0.0000 0.0000 0.0000 -35.1294 0.0000
# 6 0.0000 0.0000 0.0000 0.0000 0.0000 -8.5013
#
#
#
# Elastic Compliance Matrix: (Units=1/GPa)
#
#
# Indices 1 2 3 4 5 6 
#
# 1 0.012914 -0.002212 -0.006892 0.000000 0.000000 0.000000
# 2 -0.002212 0.022930 0.000619 0.000000 0.000000 0.000000
# 3 -0.006892 0.000619 0.009530 0.000000 0.000000 0.000000
# 4 0.000000 0.000000 0.000000 -0.016838 0.000000 0.000000
# 5 0.000000 0.000000 0.000000 0.000000 -0.028466 0.000000
# 6 0.000000 0.000000 0.000000 0.000000 0.000000 -0.117630
#
#
# Mechanical properties :
#
#
# Convention : Reuss Voigt Hill
#
# Bulk Modulus (GPa) = 35.20674 61.85461 48.53068
# Shear Modulus (GPa) = -54.87171 -4.75397 -29.81284
#
# Velocity S-wave (km/s) = -5.01620 -1.47648 -3.69745
# Velocity P-wave (km/s) = 4.17194 5.04557 2.00657
#
# Compressibility (1/GPa) = 0.02840365
#
# Stress axis : x y z
#
# Youngs Moduli (GPa) = 77.43683 43.61098 104.93224
#
# Poissons Ratio (x) = 0.09645 0.72321
# Poissons Ratio (y) = 0.17125 -0.06491
# Poissons Ratio (z) = 0.53371 -0.02698
#
# Static dielectric constant tensor:
#      x y z
#    x 1.793400 0.000000 0.000000 
#    y 0.000000 1.804120 0.000000 
#    z 0.000000 0.000000 1.796730 
# 
# From -- ./inp_files/34113.got.cif
#   From: 2010.05.17/outbox.cif.g08.bks.cpg/sg47_18_cif.got.tgz:34113.got - 2010.06.03 20:15:42.
