data_PCOD9385888
_publ_section_title
;
Structure prediction by ZEFSAII (Michael W. Deem and Ramdas Pophale) SiO2 
 PCOD9385888
Probable space group: P M M M
;
_chemical_formula_sum "Si O2"
_cell_formula_units_Z 45
_cell_length_a 8.209359
_cell_length_b 12.083820
_cell_length_c 26.945119
_cell_angle_alpha 90.000000
_cell_angle_beta 90.000000
_cell_angle_gamma 90.000000
_cell_volume 2672.967027
_symmetry_space_group_name_H-M "P M M M"
_symmetry_group_IT_number 47
_symmetry_cell_setting 'orthorhombic'
loop_
_space_group_symop_operation_xyz
x,y,z
-x,-y,z
x,-y,-z
-x,y,-z
-x,-y,-z
x,y,-z
-x,y,z
x,-y,z
loop_
_atom_site_type_symbol
_atom_site_label
_atom_site_fract_x
_atom_site_fract_y
_atom_site_fract_z
Si Si1 0.686658 0.134049 0.160127
Si Si2 0.000000 0.876891 0.897308
Si Si3 0.000000 0.000000 0.000000
Si Si4 0.806062 0.126418 0.360402
Si Si5 0.307401 0.712477 0.443106
Si Si6 0.185899 0.500000 0.614326
Si Si7 0.310382 0.500000 0.723105
Si Si8 0.696156 0.255982 0.737042
O O1 0.500000 0.168163 0.147046
O O2 0.828721 0.171133 0.122047
O O3 0.728335 0.185391 0.213648
O O4 0.682507 0.000000 0.162764
O O5 0.000000 0.000000 0.873011
O O6 0.000000 0.904729 0.955530
O O7 0.726885 0.183155 0.408212
O O8 0.765486 0.197500 0.311688
O O9 0.000000 0.127245 0.367341
O O10 0.750890 0.000000 0.353587
O O11 0.255714 0.729154 0.500000
O O12 0.500000 0.688879 0.442706
O O13 0.219486 0.607931 0.418365
O O14 0.296147 0.500000 0.663358
O O15 0.000000 0.500000 0.631821
O O16 0.500000 0.500000 0.737826
O O17 0.241214 0.617676 0.740915
O O18 0.500000 0.260173 0.730689
#
# Coordination Sequence:
#
# PCOD9385888 Si02
#       8
#     8   4   1   8   8   4   4   8
#     4   9  17  30  49  75 106 146 187 222 265 314
#     4   8  16  30  48  73 111 149 184 225 260 312
#     4   8  16  32  50  80 116 160 196 220 288 304
#     4  11  24  38  54  78 104 132 170 213 269 329
#     4  11  24  41  60  78  98 129 169 215 268 328
#     4  12  23  37  58  81 104 128 162 215 267 330
#     4  10  20  35  55  78 106 139 171 216 267 318
#     4  10  20  34  54  77 106 141 179 219 266 323
#
# _framework density 16.835225000000001
#
# number of rings (size 3 to 8) (size 9 to 14) (size 15 to 20)
#    0.267    1.600    1.778    2.667    1.244    4.978 
#    0.000    2.667    0.000    0.000    0.000    0.000 
#    0.000    1.422    0.000    5.689    0.000    0.000 
#
# Total GULP energy -250570.475247 kJ/mol
# GULP energy per Si atom -5568.232783 kJ/mol
# Density = 1.679691 g / cm^3
# Si number density = 16.835225 Si / 1000 Ang^3
#
#
#
# Elastic Constant Matrix: (Units=GPa)
#
#
# Indices 1 2 3 4 5 6 
#
# 1 42.9529 6.7369 24.2340 0.0000 0.0000 0.0000
# 2 6.7369 71.0527 8.5874 0.0000 0.0000 0.0000
# 3 24.2340 8.5874 75.8295 0.0000 0.0000 0.0000
# 4 0.0000 0.0000 0.0000 -10.7890 0.0000 0.0000
# 5 0.0000 0.0000 0.0000 0.0000 7.6953 0.0000
# 6 0.0000 0.0000 0.0000 0.0000 0.0000 19.4071
#
#
#
# Elastic Compliance Matrix: (Units=1/GPa)
#
#
# Indices 1 2 3 4 5 6 
#
# 1 0.028587 -0.001629 -0.008952 0.000000 0.000000 0.000000
# 2 -0.001629 0.014362 -0.001106 0.000000 0.000000 0.000000
# 3 -0.008952 -0.001106 0.016174 0.000000 0.000000 0.000000
# 4 0.000000 0.000000 0.000000 -0.092687 0.000000 0.000000
# 5 0.000000 0.000000 0.000000 0.000000 0.129950 0.000000
# 6 0.000000 0.000000 0.000000 0.000000 0.000000 0.051528
#
#
# Mechanical properties :
#
#
# Convention : Reuss Voigt Hill
#
# Bulk Modulus (GPa) = 27.97164 29.88352 28.92758
# Shear Modulus (GPa) = 27.29216 13.28113 20.28665
#
# Velocity S-wave (km/s) = 4.03070 2.81176 3.47509
# Velocity P-wave (km/s) = 6.18976 5.32264 5.77250
#
# Compressibility (1/GPa) = 0.03575049
#
# Stress axis : x y z
#
# Youngs Moduli (GPa) = 34.98062 69.62749 61.82941
#
# Poissons Ratio (x) = 0.11340 0.55347
# Poissons Ratio (y) = 0.05697 0.06838
# Poissons Ratio (z) = 0.31313 0.07701
#
# Static dielectric constant tensor:
#      x y z
#    x 1.615110 0.000000 0.000000 
#    y 0.000000 1.584640 0.000000 
#    z 0.000000 0.000000 1.521530 
# 
# From -- ./inp_files/31894.got.cif
#   From: 2010.05.17/outbox.cif.g08.bks.cpg/sg47_16_cif.got.tgz:31894.got - 2010.06.03 20:15:42.
