data_PCOD9385081
_publ_section_title
;
Structure prediction by ZEFSAII (Michael W. Deem and Ramdas Pophale) SiO2 
 PCOD9385081
Probable space group: P M M M
;
_chemical_formula_sum "Si O2"
_cell_formula_units_Z 52
_cell_length_a 15.022001
_cell_length_b 7.416624
_cell_length_c 21.858488
_cell_angle_alpha 90.000000
_cell_angle_beta 90.000000
_cell_angle_gamma 90.000000
_cell_volume 2435.309519
_symmetry_space_group_name_H-M "P M M M"
_symmetry_group_IT_number 47
_symmetry_cell_setting 'orthorhombic'
loop_
_space_group_symop_operation_xyz
x,y,z
-x,-y,z
x,-y,-z
-x,y,-z
-x,-y,-z
x,y,-z
-x,y,z
x,-y,z
loop_
_atom_site_type_symbol
_atom_site_label
_atom_site_fract_x
_atom_site_fract_y
_atom_site_fract_z
Si Si1 0.402473 0.500000 0.572923
Si Si2 0.787125 0.219186 0.698822
Si Si3 0.792830 0.209257 0.933896
Si Si4 0.402052 0.215556 0.749066
Si Si5 0.402160 0.713987 0.105636
Si Si6 0.102429 0.779397 0.184706
Si Si7 0.253516 0.784418 0.430391
O O1 0.500000 0.500000 0.600950
O O2 0.412571 0.500000 0.500000
O O3 0.344303 0.321968 0.583954
O O4 0.687610 0.282830 0.717105
O O5 0.853997 0.280617 0.751427
O O6 0.807178 0.264318 0.628081
O O7 0.786100 0.000000 0.701742
O O8 0.686375 0.213741 0.925455
O O9 0.839857 0.284334 0.873365
O O10 0.819862 0.000000 0.935825
O O11 0.815818 0.290004 0.000000
O O12 0.500000 0.284164 0.730142
O O13 0.394185 0.249805 0.821718
O O14 0.403063 0.000000 0.740011
O O15 0.500000 0.782398 0.086155
O O16 0.401738 0.500000 0.095867
O O17 0.000000 0.726233 0.179155
O O18 0.105509 0.000000 0.185312
O O19 0.225116 0.736032 0.500000
O O20 0.267293 0.000000 0.429626
#
# Coordination Sequence:
#
# PCOD9385081 Si02
#       7
#     4   8   8   8   8   8   8
#     4   9  18  32  48  72 107 145 186 225 265 319
#     4   9  16  29  50  74 101 134 170 208 257 311
#     4  10  20  34  53  76 100 129 168 210 254 306
#     4   9  16  28  48  71  97 129 166 209 253 299
#     4  10  20  33  49  72 103 136 170 207 250 301
#     4   9  17  31  53  80 106 130 162 210 265 316
#     4   9  18  32  50  73 103 141 183 225 268 316
#
# _framework density 21.352522
#
# number of rings (size 3 to 8) (size 9 to 14) (size 15 to 20)
#    0.000    2.692    1.538    0.462    0.000    2.769 
#    1.385    6.154    0.000    0.923    0.000    4.308 
#    0.000    1.846    0.000    0.154    0.000    0.000 
#
# Total GULP energy -289948.819181 kJ/mol
# GULP energy per Si atom -5575.938830 kJ/mol
# Density = 2.130392 g / cm^3
# Si number density = 21.352522 Si / 1000 Ang^3
#
#
#
# Elastic Constant Matrix: (Units=GPa)
#
#
# Indices 1 2 3 4 5 6 
#
# 1 102.5994 2.3410 78.1576 0.0000 0.0000 0.0000
# 2 2.3410 68.1657 10.8525 0.0000 0.0000 0.0000
# 3 78.1576 10.8525 182.1735 0.0000 0.0000 0.0000
# 4 0.0000 0.0000 0.0000 -13.9403 0.0000 0.0000
# 5 0.0000 0.0000 0.0000 0.0000 0.1321 0.0000
# 6 0.0000 0.0000 0.0000 0.0000 0.0000 -30.2448
#
#
#
# Elastic Compliance Matrix: (Units=1/GPa)
#
#
# Indices 1 2 3 4 5 6 
#
# 1 0.014495 0.000497 -0.006248 0.000000 0.000000 0.000000
# 2 0.000497 0.014828 -0.001097 0.000000 0.000000 0.000000
# 3 -0.006248 -0.001097 0.008235 0.000000 0.000000 0.000000
# 4 0.000000 0.000000 0.000000 -0.071734 0.000000 0.000000
# 5 0.000000 0.000000 0.000000 0.000000 7.571875 0.000000
# 6 0.000000 0.000000 0.000000 0.000000 0.000000 -0.033064
#
#
# Mechanical properties :
#
#
# Convention : Reuss Voigt Hill
#
# Bulk Modulus (GPa) = 41.90728 59.51564 50.71146
# Shear Modulus (GPa) = 0.66434 8.62856 4.64645
#
# Velocity S-wave (km/s) = 0.55839 2.01241 1.47675
# Velocity P-wave (km/s) = 4.48160 5.77348 5.16807
#
# Compressibility (1/GPa) = 0.02386221
#
# Stress axis : x y z
#
# Youngs Moduli (GPa) = 68.98820 67.44161 121.42752
#
# Poissons Ratio (x) = -0.03352 0.75874
# Poissons Ratio (y) = -0.03429 0.13315
# Poissons Ratio (z) = 0.43107 0.07395
#
# Static dielectric constant tensor:
#      x y z
#    x 1.741990 0.000000 0.000000 
#    y 0.000000 1.806760 0.000000 
#    z 0.000000 0.000000 1.823130 
# 
# From -- ./inp_files/30898.got.cif
#   From: 2010.05.17/outbox.cif.g08.bks.cpg/sg47_16_cif.got.tgz:30898.got - 2010.06.03 20:15:42.
