data_PCOD9385990
_publ_section_title
;
Structure prediction by ZEFSAII (Michael W. Deem and Ramdas Pophale) SiO2 
 PCOD9385990
Probable space group: P M M M
;
_chemical_formula_sum "Si O2"
_cell_formula_units_Z 36
_cell_length_a 9.398840
_cell_length_b 23.762867
_cell_length_c 7.649836
_cell_angle_alpha 90.000000
_cell_angle_beta 90.000000
_cell_angle_gamma 90.000000
_cell_volume 1708.540266
_symmetry_space_group_name_H-M "P M M M"
_symmetry_group_IT_number 47
_symmetry_cell_setting 'orthorhombic'
loop_
_space_group_symop_operation_xyz
x,y,z
-x,-y,z
x,-y,-z
-x,y,-z
-x,-y,-z
x,y,-z
-x,y,z
x,-y,z
loop_
_atom_site_type_symbol
_atom_site_label
_atom_site_fract_x
_atom_site_fract_y
_atom_site_fract_z
Si Si1 0.662313 0.563216 0.210801
Si Si2 0.160164 0.327410 0.708269
Si Si3 0.162348 0.890402 0.789837
Si Si4 0.335593 0.000000 0.214117
Si Si5 0.661357 0.778492 0.289823
O O1 0.500000 0.574856 0.270006
O O2 0.701375 0.500000 0.269842
O O3 0.767484 0.612336 0.264685
O O4 0.660077 0.562301 0.000000
O O5 0.150590 0.318704 0.500000
O O6 0.259566 0.277338 0.778127
O O7 0.000000 0.325268 0.779824
O O8 0.251666 0.944336 0.727600
O O9 0.245458 0.833299 0.748822
O O10 0.000000 0.889655 0.723581
O O11 0.155060 0.895056 0.000000
O O12 0.500000 0.000000 0.270006
O O13 0.336298 0.000000 0.000000
O O14 0.652427 0.773696 0.500000
O O15 0.500000 0.783623 0.222606
#
# Coordination Sequence:
#
# PCOD9385990 Si02
#       5
#     8   8   8   4   8
#     4   9  19  36  56  78 105 137 173 213 257 305
#     4  10  21  36  54  77 105 137 173 213 258 309
#     4  10  20  34  54  80 108 138 173 213 259 311
#     4   9  17  31  52  77 106 139 174 214 258 303
#     4  10  21  37  56  77 103 137 176 217 261 308
#
# _framework density 21.070618
#
# number of rings (size 3 to 8) (size 9 to 14) (size 15 to 20)
#    0.000    2.333    0.000    3.000    0.000    7.556 
#    0.000    3.889    0.000    3.333    0.000    0.000 
#    0.000    0.000    0.000    0.000    0.000    0.000 
#
# Total GULP energy -201120.212694 kJ/mol
# GULP energy per Si atom -5586.672575 kJ/mol
# Density = 2.102266 g / cm^3
# Si number density = 21.070618 Si / 1000 Ang^3
#
#
#
# Elastic Constant Matrix: (Units=GPa)
#
#
# Indices 1 2 3 4 5 6 
#
# 1 234.9746 138.9724 8.7316 0.0000 0.0000 0.0000
# 2 138.9724 185.8838 -2.5055 0.0000 0.0000 0.0000
# 3 8.7316 -2.5055 38.2597 0.0000 0.0000 0.0000
# 4 0.0000 0.0000 0.0000 29.9767 0.0000 0.0000
# 5 0.0000 0.0000 0.0000 0.0000 19.2506 0.0000
# 6 0.0000 0.0000 0.0000 0.0000 0.0000 55.2000
#
#
#
# Elastic Compliance Matrix: (Units=1/GPa)
#
#
# Indices 1 2 3 4 5 6 
#
# 1 0.007804 -0.005864 -0.002165 0.000000 0.000000 0.000000
# 2 -0.005864 0.009790 0.001979 0.000000 0.000000 0.000000
# 3 -0.002165 0.001979 0.026761 0.000000 0.000000 0.000000
# 4 0.000000 0.000000 0.000000 0.033359 0.000000 0.000000
# 5 0.000000 0.000000 0.000000 0.000000 0.051946 0.000000
# 6 0.000000 0.000000 0.000000 0.000000 0.000000 0.018116
#
#
# Mechanical properties :
#
#
# Convention : Reuss Voigt Hill
#
# Bulk Modulus (GPa) = 31.00162 83.27945 57.14054
# Shear Modulus (GPa) = 29.30333 41.81342 35.55837
#
# Velocity S-wave (km/s) = 3.73328 4.45954 4.11247
# Velocity P-wave (km/s) = 5.77307 8.13182 7.05176
#
# Compressibility (1/GPa) = 0.03225638
#
# Stress axis : x y z
#
# Youngs Moduli (GPa) = 128.13256 102.13987 37.36796
#
# Poissons Ratio (x) = 0.59895 0.08091
# Poissons Ratio (y) = 0.75137 -0.07397
# Poissons Ratio (z) = 0.27742 -0.20218
#
# Static dielectric constant tensor:
#      x y z
#    x 1.740900 0.000000 0.000000 
#    y 0.000000 1.710040 0.000000 
#    z 0.000000 0.000000 1.800060 
# 
# From -- ./inp_files/1374.got.cif
#   From: 2010.05.17/outbox.cif.g08.bks.cpg/sg47_1_cif.got.tgz:1374.got - 2010.06.03 20:15:42.
