data_PCOD9385151
_publ_section_title
;
Structure prediction by ZEFSAII (Michael W. Deem and Ramdas Pophale) SiO2 
 PCOD9385151
Probable space group: P M M M
;
_chemical_formula_sum "Si O2"
_cell_formula_units_Z 44
_cell_length_a 29.756248
_cell_length_b 7.600155
_cell_length_c 9.314084
_cell_angle_alpha 90.000000
_cell_angle_beta 90.000000
_cell_angle_gamma 90.000000
_cell_volume 2106.399628
_symmetry_space_group_name_H-M "P M M M"
_symmetry_group_IT_number 47
_symmetry_cell_setting 'orthorhombic'
loop_
_space_group_symop_operation_xyz
x,y,z
-x,-y,z
x,-y,-z
-x,y,-z
-x,-y,-z
x,y,-z
-x,y,z
x,-y,z
loop_
_atom_site_type_symbol
_atom_site_label
_atom_site_fract_x
_atom_site_fract_y
_atom_site_fract_z
Si Si1 0.676656 0.209292 0.837677
Si Si2 0.853666 0.284476 0.832698
Si Si3 0.233506 0.289080 0.337743
Si Si4 0.048298 0.288842 0.172844
Si Si5 0.412784 0.290672 0.337892
Si Si6 0.500000 0.715913 0.165374
O O1 0.722515 0.254949 0.756398
O O2 0.633475 0.265302 0.746628
O O3 0.674726 0.000000 0.847272
O O4 0.675836 0.282033 0.000000
O O5 0.854137 0.500000 0.831022
O O6 0.811548 0.223051 0.740005
O O7 0.902842 0.224855 0.777576
O O8 0.848388 0.233765 0.000000
O O9 0.238524 0.221263 0.500000
O O10 0.228908 0.500000 0.346365
O O11 0.047745 0.500000 0.196260
O O12 0.000000 0.219593 0.226582
O O13 0.048686 0.263324 0.000000
O O14 0.410577 0.219167 0.500000
O O15 0.419542 0.500000 0.349552
O O16 0.455355 0.223525 0.248103
O O17 0.500000 0.500000 0.164563
O O18 0.500000 0.771844 0.000000
#
# Coordination Sequence:
#
# PCOD9385151 Si02
#       6
#     8   8   8   8   8   4
#     4  11  24  39  54  74 100 130 166 208 252 297
#     4   8  13  22  38  60  86 118 156 197 239 282
#     4  10  20  33  50  72  97 127 164 204 246 294
#     4   7   9  14  27  50  80 113 149 188 230 277
#     4  10  20  35  57  84 111 138 169 204 243 289
#     4   9  17  31  54  83 112 141 172 206 242 279
#
# _framework density 20.888724
#
# number of rings (size 3 to 8) (size 9 to 14) (size 15 to 20)
#    0.000    2.818    0.000    4.091    0.000    6.909 
#    0.000    0.455    0.000    3.273    0.000    3.818 
#    0.000    0.727    0.000    8.364    0.000    9.636 
#
# Total GULP energy -245454.312646 kJ/mol
# GULP energy per Si atom -5578.507106 kJ/mol
# Density = 2.084118 g / cm^3
# Si number density = 20.888724 Si / 1000 Ang^3
#
#
#
# Elastic Constant Matrix: (Units=GPa)
#
#
# Indices 1 2 3 4 5 6 
#
# 1 246.2781 -0.9161 122.3435 0.0000 0.0000 0.0000
# 2 -0.9161 42.8642 6.3421 0.0000 0.0000 0.0000
# 3 122.3435 6.3421 169.4508 0.0000 0.0000 0.0000
# 4 0.0000 0.0000 0.0000 -2.1677 0.0000 0.0000
# 5 0.0000 0.0000 0.0000 0.0000 -13.6052 0.0000
# 6 0.0000 0.0000 0.0000 0.0000 0.0000 -62.0529
#
#
#
# Elastic Compliance Matrix: (Units=1/GPa)
#
#
# Indices 1 2 3 4 5 6 
#
# 1 0.006360 0.000820 -0.004622 0.000000 0.000000 0.000000
# 2 0.000820 0.023565 -0.001474 0.000000 0.000000 0.000000
# 3 -0.004622 -0.001474 0.009294 0.000000 0.000000 0.000000
# 4 0.000000 0.000000 0.000000 -0.461313 0.000000 0.000000
# 5 0.000000 0.000000 0.000000 0.000000 -0.073501 0.000000
# 6 0.000000 0.000000 0.000000 0.000000 0.000000 -0.016115
#
#
# Mechanical properties :
#
#
# Convention : Reuss Voigt Hill
#
# Bulk Modulus (GPa) = 34.88470 79.34800 57.11635
# Shear Modulus (GPa) = -10.17081 6.48976 -1.84053
#
# Velocity S-wave (km/s) = -2.20899 1.76453 -0.93969
# Velocity P-wave (km/s) = 3.19849 6.49769 5.12105
#
# Compressibility (1/GPa) = 0.02866586
#
# Stress axis : x y z
#
# Youngs Moduli (GPa) = 157.23773 42.43564 107.59635
#
# Poissons Ratio (x) = -0.03479 0.49736
# Poissons Ratio (y) = -0.12891 0.15859
# Poissons Ratio (z) = 0.72682 0.06255
#
# Static dielectric constant tensor:
#      x y z
#    x 1.755770 0.000000 0.000000 
#    y 0.000000 1.782910 0.000000 
#    z 0.000000 0.000000 1.727450 
# 
# From -- ./inp_files/13669.got.cif
#   From: 2010.05.17/outbox.cif.g08.bks.cpg/sg47_7_cif.got.tgz:13669.got - 2010.06.03 20:15:42.
