data_PCOD9385868
_publ_section_title
;
Structure prediction by ZEFSAII (Michael W. Deem and Ramdas Pophale) SiO2 
 PCOD9385868
Probable space group: P M M M
;
_chemical_formula_sum "Si O2"
_cell_formula_units_Z 44
_cell_length_a 16.690504
_cell_length_b 8.345373
_cell_length_c 14.961004
_cell_angle_alpha 90.000000
_cell_angle_beta 90.000000
_cell_angle_gamma 90.000000
_cell_volume 2083.895528
_symmetry_space_group_name_H-M "P M M M"
_symmetry_group_IT_number 47
_symmetry_cell_setting 'orthorhombic'
loop_
_space_group_symop_operation_xyz
x,y,z
-x,-y,z
x,-y,-z
-x,y,-z
-x,-y,-z
x,y,-z
-x,y,z
x,-y,z
loop_
_atom_site_type_symbol
_atom_site_label
_atom_site_fract_x
_atom_site_fract_y
_atom_site_fract_z
Si Si1 0.140597 0.681175 0.268737
Si Si2 0.410596 0.686654 0.364045
Si Si3 0.248878 0.180060 0.401153
Si Si4 0.761541 0.693588 0.899282
Si Si5 0.589252 0.808511 0.836831
Si Si6 0.000000 0.189955 0.604164
O O1 0.113600 0.500000 0.252100
O O2 0.218394 0.690693 0.331630
O O3 0.174312 0.751203 0.175377
O O4 0.075153 0.761614 0.333295
O O5 0.500000 0.724509 0.394301
O O6 0.394607 0.500000 0.383592
O O7 0.343377 0.798535 0.404353
O O8 0.408668 0.717265 0.257611
O O9 0.214221 0.202995 0.500000
O O10 0.228481 0.000000 0.370813
O O11 0.757104 0.500000 0.889344
O O12 0.671216 0.759230 0.885817
O O13 0.787704 0.731334 0.000000
O O14 0.500000 0.775421 0.877469
O O15 0.592663 0.000000 0.821422
O O16 0.000000 0.254021 0.500000
O O17 0.000000 0.000000 0.595586
#
# Coordination Sequence:
#
# PCOD9385868 Si02
#       6
#     8   8   8   8   8   4
#     4  11  23  41  66  94 123 158 199 248 300 358
#     4  10  20  34  53  78 111 154 204 255 305 358
#     4  11  23  37  56  84 119 158 198 245 305 367
#     4  10  22  40  62  90 124 164 209 255 308 366
#     4  10  20  34  55  84 119 161 210 264 318 366
#     4  11  25  45  70  99 130 162 195 239 300 367
#
# _framework density 21.114301000000001
#
# number of rings (size 3 to 8) (size 9 to 14) (size 15 to 20)
#    0.000    1.545    1.818    3.000    0.000    8.364 
#    0.000    4.091    0.000    2.727    0.000    0.000 
#    0.000    0.000    0.000    0.000    0.000    0.000 
#
# Total GULP energy -245421.451752 kJ/mol
# GULP energy per Si atom -5577.760267 kJ/mol
# Density = 2.106624 g / cm^3
# Si number density = 21.114301 Si / 1000 Ang^3
#
#
#
# Elastic Constant Matrix: (Units=GPa)
#
#
# Indices 1 2 3 4 5 6 
#
# 1 107.0378 18.6378 58.5461 0.0000 0.0000 0.0000
# 2 18.6378 38.7070 24.9015 0.0000 0.0000 0.0000
# 3 58.5461 24.9015 138.8822 0.0000 0.0000 0.0000
# 4 0.0000 0.0000 0.0000 12.5854 0.0000 0.0000
# 5 0.0000 0.0000 0.0000 0.0000 3.3621 0.0000
# 6 0.0000 0.0000 0.0000 0.0000 0.0000 33.8632
#
#
#
# Elastic Compliance Matrix: (Units=1/GPa)
#
#
# Indices 1 2 3 4 5 6 
#
# 1 0.012434 -0.002956 -0.004712 0.000000 0.000000 0.000000
# 2 -0.002956 0.029907 -0.004116 0.000000 0.000000 0.000000
# 3 -0.004712 -0.004116 0.009925 0.000000 0.000000 0.000000
# 4 0.000000 0.000000 0.000000 0.079457 0.000000 0.000000
# 5 0.000000 0.000000 0.000000 0.000000 0.297433 0.000000
# 6 0.000000 0.000000 0.000000 0.000000 0.000000 0.029531
#
#
# Mechanical properties :
#
#
# Convention : Reuss Voigt Hill
#
# Bulk Modulus (GPa) = 34.84592 54.31084 44.57838
# Shear Modulus (GPa) = 10.16632 22.13158 16.14895
#
# Velocity S-wave (km/s) = 2.19667 3.24107 2.76857
# Velocity P-wave (km/s) = 4.79303 6.30747 5.60167
#
# Compressibility (1/GPa) = 0.02869776
#
# Stress axis : x y z
#
# Youngs Moduli (GPa) = 80.42226 33.43752 100.75981
#
# Poissons Ratio (x) = 0.09884 0.47475
# Poissons Ratio (y) = 0.23773 0.41474
# Poissons Ratio (z) = 0.37893 0.13763
#
# Static dielectric constant tensor:
#      x y z
#    x 1.832320 0.000000 0.000000 
#    y 0.000000 1.735770 0.000000 
#    z 0.000000 0.000000 1.782630 
# 
# From -- ./inp_files/24284.got.cif
#   From: 2010.05.17/outbox.cif.g08.bks.cpg/sg47_13_cif.got.tgz:24284.got - 2010.06.03 20:15:42.
