data_PCOD9385362
_publ_section_title
;
Structure prediction by ZEFSAII (Michael W. Deem and Ramdas Pophale) SiO2 
 PCOD9385362
Probable space group: P M M M
;
_chemical_formula_sum "Si O2"
_cell_formula_units_Z 36
_cell_length_a 9.498175
_cell_length_b 7.539942
_cell_length_c 25.792732
_cell_angle_alpha 90.000000
_cell_angle_beta 90.000000
_cell_angle_gamma 90.000000
_cell_volume 1847.164263
_symmetry_space_group_name_H-M "P M M M"
_symmetry_group_IT_number 47
_symmetry_cell_setting 'orthorhombic'
loop_
_space_group_symop_operation_xyz
x,y,z
-x,-y,z
x,-y,-z
-x,y,-z
-x,-y,-z
x,y,-z
-x,y,z
x,-y,z
loop_
_atom_site_type_symbol
_atom_site_label
_atom_site_fract_x
_atom_site_fract_y
_atom_site_fract_z
Si Si1 0.329256 0.500000 0.058794
Si Si2 0.160113 0.713697 0.441673
Si Si3 0.332579 0.790231 0.858183
Si Si4 0.341636 0.210569 0.341840
Si Si5 0.838528 0.783435 0.755494
O O1 0.500000 0.500000 0.055958
O O2 0.290596 0.327902 0.092621
O O3 0.275454 0.500000 0.000000
O O4 0.197271 0.773965 0.500000
O O5 0.157129 0.500000 0.442760
O O6 0.266584 0.765901 0.396921
O O7 0.000000 0.774270 0.430200
O O8 0.500000 0.764013 0.848555
O O9 0.245526 0.735552 0.807457
O O10 0.310856 0.000000 0.867365
O O11 0.500000 0.283584 0.341307
O O12 0.244236 0.280374 0.295399
O O13 0.352304 0.000000 0.332938
O O14 0.000000 0.723720 0.756002
O O15 0.840679 0.000000 0.754143
#
# Coordination Sequence:
#
# PCOD9385362 Si02
#       5
#     4   8   8   8   8
#     4   9  18  32  51  79 111 139 174 219 260 305
#     4   9  19  36  54  71  96 132 173 215 258 308
#     4   9  17  31  52  76 104 139 176 216 263 312
#     4  10  20  33  51  77 106 133 166 211 261 314
#     4   9  17  31  52  75 100 132 169 209 255 308
#
# _framework density 19.489332999999998
#
# number of rings (size 3 to 8) (size 9 to 14) (size 15 to 20)
#    0.000    2.778    0.000    2.000    0.000    5.778 
#    2.000    6.111    0.000    1.333    0.000    3.111 
#    0.000    0.000    0.000    0.000    0.000    0.000 
#
# Total GULP energy -200890.456058 kJ/mol
# GULP energy per Si atom -5580.290446 kJ/mol
# Density = 1.944497 g / cm^3
# Si number density = 19.489333 Si / 1000 Ang^3
#
#
#
# Elastic Constant Matrix: (Units=GPa)
#
#
# Indices 1 2 3 4 5 6 
#
# 1 129.0745 32.7579 112.7433 0.0000 0.0000 0.0000
# 2 32.7579 57.0791 35.6933 0.0000 0.0000 0.0000
# 3 112.7433 35.6933 191.1252 0.0000 0.0000 0.0000
# 4 0.0000 0.0000 0.0000 31.8637 0.0000 0.0000
# 5 0.0000 0.0000 0.0000 0.0000 111.5242 0.0000
# 6 0.0000 0.0000 0.0000 0.0000 0.0000 8.5808
#
#
#
# Elastic Compliance Matrix: (Units=1/GPa)
#
#
# Indices 1 2 3 4 5 6 
#
# 1 0.016708 -0.003879 -0.009132 0.000000 0.000000 0.000000
# 2 -0.003879 0.020736 -0.001585 0.000000 0.000000 0.000000
# 3 -0.009132 -0.001585 0.010915 0.000000 0.000000 0.000000
# 4 0.000000 0.000000 0.000000 0.031384 0.000000 0.000000
# 5 0.000000 0.000000 0.000000 0.000000 0.008967 0.000000
# 6 0.000000 0.000000 0.000000 0.000000 0.000000 0.116540
#
#
# Mechanical properties :
#
#
# Convention : Reuss Voigt Hill
#
# Bulk Modulus (GPa) = 52.16600 82.18533 67.17566
# Shear Modulus (GPa) = 20.76164 43.46601 32.11383
#
# Velocity S-wave (km/s) = 3.26741 4.72767 4.06367
# Velocity P-wave (km/s) = 6.40774 8.48894 7.52068
#
# Compressibility (1/GPa) = 0.01916958
#
# Stress axis : x y z
#
# Youngs Moduli (GPa) = 59.85139 48.22437 91.61875
#
# Poissons Ratio (x) = 0.18704 0.83663
# Poissons Ratio (y) = 0.23214 0.14519
# Poissons Ratio (z) = 0.54654 0.07642
#
# Static dielectric constant tensor:
#      x y z
#    x 1.666430 0.000000 0.000000 
#    y 0.000000 1.723560 0.000000 
#    z 0.000000 0.000000 1.649880 
# 
# From -- ./inp_files/1400.got.cif
#   From: 2010.05.17/outbox.cif.g08.bks.cpg/sg47_1_cif.got.tgz:1400.got - 2010.06.03 20:15:42.
