data_PCOD9385960
_publ_section_title
;
Structure prediction by ZEFSAII (Michael W. Deem and Ramdas Pophale) SiO2 
 PCOD9385960
Probable space group: P M M M
;
_chemical_formula_sum "Si O2"
_cell_formula_units_Z 52
_cell_length_a 19.848871
_cell_length_b 16.229171
_cell_length_c 8.334444
_cell_angle_alpha 90.000000
_cell_angle_beta 90.000000
_cell_angle_gamma 90.000000
_cell_volume 2684.780460
_symmetry_space_group_name_H-M "P M M M"
_symmetry_group_IT_number 47
_symmetry_cell_setting 'orthorhombic'
loop_
_space_group_symop_operation_xyz
x,y,z
-x,-y,z
x,-y,-z
-x,y,-z
-x,-y,-z
x,y,-z
-x,y,z
x,-y,z
loop_
_atom_site_type_symbol
_atom_site_label
_atom_site_fract_x
_atom_site_fract_y
_atom_site_fract_z
Si Si1 0.792911 0.091849 0.691754
Si Si2 0.422474 0.320530 0.305399
Si Si3 0.924346 0.177278 0.189601
Si Si4 0.417834 0.500000 0.684681
Si Si5 0.292004 0.245899 0.808413
Si Si6 0.781509 0.411074 0.808552
Si Si7 0.924456 0.362553 0.310447
O O1 0.795662 0.092128 0.500000
O O2 0.866337 0.116028 0.757307
O O3 0.742827 0.163731 0.745728
O O4 0.773753 0.000000 0.746766
O O5 0.421002 0.323617 0.500000
O O6 0.500000 0.305886 0.258247
O O7 0.400345 0.411596 0.242241
O O8 0.369181 0.255345 0.243400
O O9 0.917655 0.264428 0.280061
O O10 0.000000 0.145582 0.218253
O O11 0.917130 0.194818 0.000000
O O12 0.500000 0.500000 0.679013
O O13 0.394305 0.500000 0.500000
O O14 0.253801 0.328273 0.744337
O O15 0.286414 0.245903 0.000000
O O16 0.757031 0.500000 0.744541
O O17 0.861109 0.403673 0.774430
O O18 0.771281 0.411288 0.000000
O O19 0.920504 0.379363 0.500000
O O20 0.000000 0.386050 0.254401
#
# Coordination Sequence:
#
# PCOD9385960 Si02
#       7
#     8   8   8   4   8   8   8
#     4  11  24  41  62  87 114 146 187 236 288 341
#     4   9  18  34  57  84 116 154 193 233 277 329
#     4  10  20  35  57  84 114 148 185 228 283 344
#     4   7  12  26  49  79 113 149 190 229 266 315
#     4  11  23  38  59  85 116 153 189 232 283 337
#     4  10  22  38  54  77 112 154 197 237 284 341
#     4  10  20  34  54  79 108 145 192 244 291 335
#
# _framework density 19.368435999999999
#
# number of rings (size 3 to 8) (size 9 to 14) (size 15 to 20)
#    0.000    2.077    1.538    2.769    1.077    4.923 
#    0.000    3.077    0.000    1.846    0.000    3.231 
#    0.000    0.000    0.000    0.000    0.000    0.000 
#
# Total GULP energy -290327.497776 kJ/mol
# GULP energy per Si atom -5583.221111 kJ/mol
# Density = 1.932435 g / cm^3
# Si number density = 19.368436 Si / 1000 Ang^3
#
#
#
# Elastic Constant Matrix: (Units=GPa)
#
#
# Indices 1 2 3 4 5 6 
#
# 1 91.8985 58.5597 5.1023 0.0000 0.0000 0.0000
# 2 58.5597 123.1338 12.1498 0.0000 0.0000 0.0000
# 3 5.1023 12.1498 18.2266 0.0000 0.0000 0.0000
# 4 0.0000 0.0000 0.0000 16.0168 0.0000 0.0000
# 5 0.0000 0.0000 0.0000 0.0000 1.8208 0.0000
# 6 0.0000 0.0000 0.0000 0.0000 0.0000 15.5176
#
#
#
# Elastic Compliance Matrix: (Units=1/GPa)
#
#
# Indices 1 2 3 4 5 6 
#
# 1 0.015620 -0.007490 0.000620 0.000000 0.000000 0.000000
# 2 -0.007490 0.012284 -0.006092 0.000000 0.000000 0.000000
# 3 0.000620 -0.006092 0.058752 0.000000 0.000000 0.000000
# 4 0.000000 0.000000 0.000000 0.062434 0.000000 0.000000
# 5 0.000000 0.000000 0.000000 0.000000 0.549210 0.000000
# 6 0.000000 0.000000 0.000000 0.000000 0.000000 0.064443
#
#
# Mechanical properties :
#
#
# Convention : Reuss Voigt Hill
#
# Bulk Modulus (GPa) = 16.46556 42.76471 29.61514
# Shear Modulus (GPa) = 6.18115 17.16752 11.67434
#
# Velocity S-wave (km/s) = 1.78837 2.98042 2.45776
# Velocity P-wave (km/s) = 3.57548 5.82850 4.83505
#
# Compressibility (1/GPa) = 0.06073284
#
# Stress axis : x y z
#
# Youngs Moduli (GPa) = 64.02197 81.40529 17.02068
#
# Poissons Ratio (x) = 0.60969 -0.01055
# Poissons Ratio (y) = 0.47949 0.10369
# Poissons Ratio (z) = -0.03969 0.49592
#
# Static dielectric constant tensor:
#      x y z
#    x 1.683870 0.000000 0.000000 
#    y 0.000000 1.694560 0.000000 
#    z 0.000000 0.000000 1.671830 
# 
# From -- ./inp_files/10964.got.cif
#   From: 2010.05.17/outbox.cif.g08.bks.cpg/sg47_6_cif.got.tgz:10964.got - 2010.06.03 20:15:42.
