data_PCOD9385837
_publ_section_title
;
Structure prediction by ZEFSAII (Michael W. Deem and Ramdas Pophale) SiO2 
 PCOD9385837
Probable space group: P M M M
;
_chemical_formula_sum "Si O2"
_cell_formula_units_Z 52
_cell_length_a 8.029399
_cell_length_b 12.522628
_cell_length_c 27.139546
_cell_angle_alpha 90.000000
_cell_angle_beta 90.000000
_cell_angle_gamma 90.000000
_cell_volume 2728.859007
_symmetry_space_group_name_H-M "P M M M"
_symmetry_group_IT_number 47
_symmetry_cell_setting 'orthorhombic'
loop_
_space_group_symop_operation_xyz
x,y,z
-x,-y,z
x,-y,-z
-x,y,-z
-x,-y,-z
x,y,-z
-x,y,z
x,-y,z
loop_
_atom_site_type_symbol
_atom_site_label
_atom_site_fract_x
_atom_site_fract_y
_atom_site_fract_z
Si Si1 0.305766 0.617774 0.077340
Si Si2 0.197921 0.627649 0.371917
Si Si3 0.800878 0.620661 0.811106
Si Si4 0.305119 0.000000 0.863665
Si Si5 0.500000 0.371082 0.444105
Si Si6 0.193026 0.154945 0.052818
Si Si7 0.698861 0.000000 0.247891
Si Si8 0.800448 0.232389 0.723448
O O1 0.500000 0.625534 0.064009
O O2 0.243903 0.500000 0.063041
O O3 0.287395 0.625734 0.136418
O O4 0.211775 0.718348 0.056064
O O5 0.214323 0.500000 0.361434
O O6 0.330511 0.656017 0.414542
O O7 0.244988 0.699153 0.324619
O O8 0.000000 0.645298 0.383496
O O9 0.780478 0.500000 0.791024
O O10 0.737422 0.707137 0.772389
O O11 0.000000 0.635898 0.819665
O O12 0.263420 0.899334 0.898285
O O13 0.230089 0.000000 0.808617
O O14 0.500000 0.000000 0.856233
O O15 0.500000 0.500000 0.446652
O O16 0.500000 0.329411 0.500000
O O17 0.000000 0.126170 0.052242
O O18 0.268249 0.121137 0.000000
O O19 0.751334 0.891020 0.274694
O O20 0.500000 0.000000 0.245900
O O21 0.000000 0.238183 0.725982
#
# Coordination Sequence:
#
# PCOD9385837 Si02
#       8
#     8   8   8   4   4   8   4   8
#     4  10  21  36  53  77 108 138 171 211 260 321
#     4   9  18  33  54  83 118 154 194 240 285 332
#     4   9  17  31  53  78 104 137 174 215 266 325
#     4  11  24  42  61  82 108 134 169 217 268 328
#     4   9  18  32  52  83 121 161 201 236 281 336
#     4  11  24  40  59  81 102 130 171 217 266 320
#     4  11  25  38  52  77 108 143 179 218 267 323
#     4  10  20  34  53  77 107 143 184 226 272 328
#
# _framework density 19.055584
#
# number of rings (size 3 to 8) (size 9 to 14) (size 15 to 20)
#    0.000    2.077    0.000    3.000    1.077    9.846 
#    0.000    3.077    0.000    0.000    0.000    1.077 
#    0.000    2.462    0.000    0.000    0.000    0.000 
#
# Total GULP energy -290200.996546 kJ/mol
# GULP energy per Si atom -5580.788395 kJ/mol
# Density = 1.901221 g / cm^3
# Si number density = 19.055584 Si / 1000 Ang^3
#
#
#
# Elastic Constant Matrix: (Units=GPa)
#
#
# Indices 1 2 3 4 5 6 
#
# 1 43.8442 17.7802 34.1329 0.0000 0.0000 0.0000
# 2 17.7802 112.5073 48.6547 0.0000 0.0000 0.0000
# 3 34.1329 48.6547 113.4418 0.0000 0.0000 0.0000
# 4 0.0000 0.0000 0.0000 13.6107 0.0000 0.0000
# 5 0.0000 0.0000 0.0000 0.0000 22.0560 0.0000
# 6 0.0000 0.0000 0.0000 0.0000 0.0000 21.4975
#
#
#
# Elastic Compliance Matrix: (Units=1/GPa)
#
#
# Indices 1 2 3 4 5 6 
#
# 1 0.029881 -0.001024 -0.008551 0.000000 0.000000 0.000000
# 2 -0.001024 0.010947 -0.004387 0.000000 0.000000 0.000000
# 3 -0.008551 -0.004387 0.013270 0.000000 0.000000 0.000000
# 4 0.000000 0.000000 0.000000 0.073471 0.000000 0.000000
# 5 0.000000 0.000000 0.000000 0.000000 0.045339 0.000000
# 6 0.000000 0.000000 0.000000 0.000000 0.000000 0.046517
#
#
# Mechanical properties :
#
#
# Convention : Reuss Voigt Hill
#
# Bulk Modulus (GPa) = 38.20810 52.32544 45.26677
# Shear Modulus (GPa) = 19.52554 22.71454 21.12004
#
# Velocity S-wave (km/s) = 3.20451 3.45630 3.33278
# Velocity P-wave (km/s) = 5.81259 6.59144 6.21423
#
# Compressibility (1/GPa) = 0.02617246
#
# Stress axis : x y z
#
# Youngs Moduli (GPa) = 33.46649 91.34564 75.35946
#
# Poissons Ratio (x) = 0.09354 0.64443
# Poissons Ratio (y) = 0.03427 0.33062
# Poissons Ratio (z) = 0.28619 0.40075
#
# Static dielectric constant tensor:
#      x y z
#    x 1.668500 0.000000 0.000000 
#    y 0.000000 1.688200 0.000000 
#    z 0.000000 0.000000 1.676100 
# 
# From -- ./inp_files/33344.got.cif
#   From: 2010.05.17/outbox.cif.g08.bks.cpg/sg47_17_cif.got.tgz:33344.got - 2010.06.03 20:15:42.
