data_PCOD9385480
_publ_section_title
;
Structure prediction by ZEFSAII (Michael W. Deem and Ramdas Pophale) SiO2 
 PCOD9385480
Probable space group: P M M M
;
_chemical_formula_sum "Si O2"
_cell_formula_units_Z 44
_cell_length_a 7.978443
_cell_length_b 9.399579
_cell_length_c 29.458174
_cell_angle_alpha 90.000000
_cell_angle_beta 90.000000
_cell_angle_gamma 90.000000
_cell_volume 2209.186456
_symmetry_space_group_name_H-M "P M M M"
_symmetry_group_IT_number 47
_symmetry_cell_setting 'orthorhombic'
loop_
_space_group_symop_operation_xyz
x,y,z
-x,-y,z
x,-y,-z
-x,y,-z
-x,-y,-z
x,y,-z
-x,y,z
x,-y,z
loop_
_atom_site_type_symbol
_atom_site_label
_atom_site_fract_x
_atom_site_fract_y
_atom_site_fract_z
Si Si1 0.299713 0.338003 0.226627
Si Si2 0.798031 0.161812 0.315399
Si Si3 0.204547 0.335559 0.949030
Si Si4 0.202292 0.161690 0.137912
Si Si5 0.699755 0.663573 0.500000
Si Si6 0.798743 0.336503 0.402178
O O1 0.500000 0.343910 0.227347
O O2 0.233853 0.500000 0.227195
O O3 0.242823 0.251468 0.270735
O O4 0.246672 0.256186 0.181253
O O5 0.735251 0.242781 0.360379
O O6 0.000000 0.155130 0.318748
O O7 0.734886 0.000000 0.312215
O O8 0.253800 0.500000 0.941277
O O9 0.263476 0.235630 0.908418
O O10 0.000000 0.333068 0.948802
O O11 0.257442 0.293878 0.000000
O O12 0.000000 0.156460 0.135391
O O13 0.263962 0.000000 0.142723
O O14 0.766044 0.500000 0.500000
O O15 0.500000 0.659889 0.500000
O O16 0.756885 0.724958 0.548125
O O17 0.734551 0.500000 0.399402
O O18 0.000000 0.343213 0.398793
#
# Coordination Sequence:
#
# PCOD9385480 Si02
#       6
#     8   8   8   8   4   8
#     4  11  24  39  55  76 102 135 175 216 259 309
#     4  10  21  37  57  81 107 135 170 213 262 314
#     4   8  14  26  46  73 104 137 173 213 256 301
#     4  10  20  33  52  79 108 138 172 211 258 311
#     4   9  17  29  48  75 104 134 172 217 256 293
#     4   9  17  31  52  76 102 134 171 210 254 303
#
# _framework density 19.916834999999999
#
# number of rings (size 3 to 8) (size 9 to 14) (size 15 to 20)
#    0.000    2.455    0.000    3.000    0.000    8.000 
#    0.000    4.091    0.000    3.273    0.000    3.818 
#    0.000    0.000    0.000    0.000    0.000    0.000 
#
# Total GULP energy -245574.017686 kJ/mol
# GULP energy per Si atom -5581.227675 kJ/mol
# Density = 1.987150 g / cm^3
# Si number density = 19.916835 Si / 1000 Ang^3
#
#
#
# Elastic Constant Matrix: (Units=GPa)
#
#
# Indices 1 2 3 4 5 6 
#
# 1 15.7966 10.7718 5.3441 0.0000 0.0000 0.0000
# 2 10.7718 161.6052 125.0873 0.0000 0.0000 0.0000
# 3 5.3441 125.0873 217.5013 0.0000 0.0000 0.0000
# 4 0.0000 0.0000 0.0000 37.7404 0.0000 0.0000
# 5 0.0000 0.0000 0.0000 0.0000 -83.5706 0.0000
# 6 0.0000 0.0000 0.0000 0.0000 0.0000 10.9466
#
#
#
# Elastic Compliance Matrix: (Units=1/GPa)
#
#
# Indices 1 2 3 4 5 6 
#
# 1 0.066647 -0.005722 0.001653 0.000000 0.000000 0.000000
# 2 -0.005722 0.011644 -0.006556 0.000000 0.000000 0.000000
# 3 0.001653 -0.006556 0.008327 0.000000 0.000000 0.000000
# 4 0.000000 0.000000 0.000000 0.026497 0.000000 0.000000
# 5 0.000000 0.000000 0.000000 0.000000 -0.011966 0.000000
# 6 0.000000 0.000000 0.000000 0.000000 0.000000 0.091353
#
#
# Mechanical properties :
#
#
# Convention : Reuss Voigt Hill
#
# Bulk Modulus (GPa) = 15.29773 75.25662 45.27718
# Shear Modulus (GPa) = 21.22772 9.93661 15.58217
#
# Velocity S-wave (km/s) = 3.26823 2.23604 2.80011
# Velocity P-wave (km/s) = 4.68393 6.67338 5.76512
#
# Compressibility (1/GPa) = 0.06536916
#
# Stress axis : x y z
#
# Youngs Moduli (GPa) = 15.00435 85.88305 120.08568
#
# Poissons Ratio (x) = 0.49143 -0.19853
# Poissons Ratio (y) = 0.08586 0.78726
# Poissons Ratio (z) = -0.02481 0.56304
#
# Static dielectric constant tensor:
#      x y z
#    x 1.710900 0.000000 0.000000 
#    y 0.000000 1.696980 0.000000 
#    z 0.000000 0.000000 1.683780 
# 
# From -- ./inp_files/2186.got.cif
#   From: 2010.05.17/outbox.cif.g08.bks.cpg/sg47_2_cif.got.tgz:2186.got - 2010.06.03 20:15:42.
