data_PCOD9385557
_publ_section_title
;
Structure prediction by ZEFSAII (Michael W. Deem and Ramdas Pophale) SiO2 
 PCOD9385557
Probable space group: P M M M
;
_chemical_formula_sum "Si O2"
_cell_formula_units_Z 48
_cell_length_a 8.710881
_cell_length_b 15.866918
_cell_length_c 18.446617
_cell_angle_alpha 90.000000
_cell_angle_beta 90.000000
_cell_angle_gamma 90.000000
_cell_volume 2549.596116
_symmetry_space_group_name_H-M "P M M M"
_symmetry_group_IT_number 47
_symmetry_cell_setting 'orthorhombic'
loop_
_space_group_symop_operation_xyz
x,y,z
-x,-y,z
x,-y,-z
-x,y,-z
-x,-y,-z
x,y,-z
-x,y,z
x,-y,z
loop_
_atom_site_type_symbol
_atom_site_label
_atom_site_fract_x
_atom_site_fract_y
_atom_site_fract_z
Si Si1 0.677791 0.878043 0.295793
Si Si2 0.183297 0.907171 0.141122
Si Si3 0.183537 0.284584 0.874761
Si Si4 0.315942 0.598228 0.000000
Si Si5 0.324500 0.318517 0.720396
Si Si6 0.178694 0.398809 0.420301
Si Si7 0.313364 0.000000 0.580814
O O1 0.500000 0.902781 0.281280
O O2 0.776692 0.904088 0.226493
O O3 0.679448 0.778609 0.303531
O O4 0.730329 0.921071 0.369614
O O5 0.238421 0.813860 0.114627
O O6 0.000000 0.907055 0.130519
O O7 0.239628 0.000000 0.113603
O O8 0.255915 0.348917 0.931464
O O9 0.227758 0.317304 0.794529
O O10 0.000000 0.283832 0.882633
O O11 0.264687 0.500000 0.000000
O O12 0.500000 0.598244 0.000000
O O13 0.500000 0.342616 0.737456
O O14 0.263634 0.369404 0.651758
O O15 0.238024 0.369856 0.500000
O O16 0.182848 0.500000 0.421394
O O17 0.000000 0.372929 0.415304
O O18 0.500000 0.000000 0.576005
O O19 0.251516 0.000000 0.500000
#
# Coordination Sequence:
#
# PCOD9385557 Si02
#       7
#     8   8   8   4   8   8   4
#     4   9  17  29  46  69  98 137 181 220 263 318
#     4   9  17  31  54  82 111 143 178 222 271 317
#     4  10  21  38  61  88 116 150 192 230 273 339
#     4  11  25  45  66  87 116 150 183 231 290 337
#     4  10  20  33  53  82 112 142 182 232 280 328
#     4   9  19  36  55  74 100 138 183 230 283 342
#     4   9  16  26  41  63  95 136 181 224 263 311
#
# _framework density 18.826512000000001
#
# number of rings (size 3 to 8) (size 9 to 14) (size 15 to 20)
#    0.000    2.500    0.833    1.750    0.000    4.000 
#    0.000    2.917    0.000    3.500    0.000    0.000 
#    0.000    0.000    0.000    0.000    0.000    0.000 
#
# Total GULP energy -267313.759173 kJ/mol
# GULP energy per Si atom -5569.036649 kJ/mol
# Density = 1.878366 g / cm^3
# Si number density = 18.826512 Si / 1000 Ang^3
#
#
#
# Elastic Constant Matrix: (Units=GPa)
#
#
# Indices 1 2 3 4 5 6 
#
# 1 33.1343 29.7154 20.5380 0.0000 0.0000 0.0000
# 2 29.7154 110.1303 67.8680 0.0000 0.0000 0.0000
# 3 20.5380 67.8680 100.0601 0.0000 0.0000 0.0000
# 4 0.0000 0.0000 0.0000 60.3232 0.0000 0.0000
# 5 0.0000 0.0000 0.0000 0.0000 27.8747 0.0000
# 6 0.0000 0.0000 0.0000 0.0000 0.0000 14.7442
#
#
#
# Elastic Compliance Matrix: (Units=1/GPa)
#
#
# Indices 1 2 3 4 5 6 
#
# 1 0.039950 -0.009838 -0.001527 0.000000 0.000000 0.000000
# 2 -0.009838 0.018024 -0.010206 0.000000 0.000000 0.000000
# 3 -0.001527 -0.010206 0.017230 0.000000 0.000000 0.000000
# 4 0.000000 0.000000 0.000000 0.016577 0.000000 0.000000
# 5 0.000000 0.000000 0.000000 0.000000 0.035875 0.000000
# 6 0.000000 0.000000 0.000000 0.000000 0.000000 0.067823
#
#
# Mechanical properties :
#
#
# Convention : Reuss Voigt Hill
#
# Bulk Modulus (GPa) = 31.19011 53.28530 42.23770
# Shear Modulus (GPa) = 20.05546 28.93529 24.49537
#
# Velocity S-wave (km/s) = 3.26740 3.92464 3.61100
# Velocity P-wave (km/s) = 5.55316 6.99299 6.31425
#
# Compressibility (1/GPa) = 0.03206145
#
# Stress axis : x y z
#
# Youngs Moduli (GPa) = 25.03145 55.48122 58.03904
#
# Poissons Ratio (x) = 0.54584 0.08862
# Poissons Ratio (y) = 0.24627 0.59234
# Poissons Ratio (z) = 0.03822 0.56624
#
# Static dielectric constant tensor:
#      x y z
#    x 1.659760 0.000000 0.000000 
#    y 0.000000 1.681440 0.000000 
#    z 0.000000 0.000000 1.639750 
# 
# From -- ./inp_files/26527.got.cif
#   From: 2010.05.17/outbox.cif.g08.bks.cpg/sg47_14_cif.got.tgz:26527.got - 2010.06.03 20:15:42.
