data_PCOD9385460
_publ_section_title
;
Structure prediction by ZEFSAII (Michael W. Deem and Ramdas Pophale) SiO2 
 PCOD9385460
Probable space group: P M M M
;
_chemical_formula_sum "Si O2"
_cell_formula_units_Z 64
_cell_length_a 21.232679
_cell_length_b 20.088363
_cell_length_c 8.722086
_cell_angle_alpha 90.000000
_cell_angle_beta 90.000000
_cell_angle_gamma 90.000000
_cell_volume 3720.229276
_symmetry_space_group_name_H-M "P M M M"
_symmetry_group_IT_number 47
_symmetry_cell_setting 'orthorhombic'
loop_
_space_group_symop_operation_xyz
x,y,z
-x,-y,z
x,-y,-z
-x,y,-z
-x,-y,-z
x,y,-z
-x,y,z
x,-y,z
loop_
_atom_site_type_symbol
_atom_site_label
_atom_site_fract_x
_atom_site_fract_y
_atom_site_fract_z
Si Si1 0.311628 0.205359 0.683898
Si Si2 0.115935 0.075235 0.683447
Si Si3 0.743747 0.924189 0.817706
Si Si4 0.812197 0.710264 0.683189
Si Si5 0.069877 0.210427 0.816865
Si Si6 0.570627 0.715245 0.185637
Si Si7 0.618876 0.426766 0.186060
Si Si8 0.233168 0.425049 0.184603
O O1 0.312207 0.202365 0.500000
O O2 0.301573 0.132218 0.752786
O O3 0.250527 0.249061 0.732355
O O4 0.374478 0.240204 0.744286
O O5 0.112238 0.081605 0.500000
O O6 0.188540 0.082874 0.735739
O O7 0.078246 0.134588 0.761007
O O8 0.095908 0.000000 0.725676
O O9 0.721810 0.000000 0.790762
O O10 0.752560 0.915354 0.000000
O O11 0.814230 0.711559 0.500000
O O12 0.873859 0.746375 0.747067
O O13 0.804663 0.635042 0.741455
O O14 0.000000 0.234113 0.771880
O O15 0.074906 0.212243 0.000000
O O16 0.500000 0.736287 0.227449
O O17 0.581798 0.638547 0.235726
O O18 0.575890 0.717059 0.000000
O O19 0.597645 0.500000 0.240083
O O20 0.692703 0.418511 0.226051
O O21 0.615654 0.428178 0.000000
O O22 0.213215 0.500000 0.228314
O O23 0.229426 0.420041 0.000000
#
# Coordination Sequence:
#
# PCOD9385460 Si02
#       8
#     8   8   8   8   8   8   8   8
#     4  11  22  35  54  80 109 145 183 222 271 323
#     4  10  20  34  53  79 112 148 183 218 262 320
#     4  10  20  34  56  84 110 138 175 223 274 320
#     4  11  22  35  55  82 109 143 183 225 274 324
#     4  11  24  39  56  79 108 145 186 228 274 322
#     4  10  20  33  52  78 108 145 186 228 273 319
#     4   8  14  26  46  74 106 139 177 219 263 311
#     4   9  17  31  54  81 108 141 180 224 273 321
#
# _framework density 17.203240000000001
#
# number of rings (size 3 to 8) (size 9 to 14) (size 15 to 20)
#    0.000    2.000    2.500    2.625    0.000    4.500 
#    0.000    2.500    0.000    1.125    0.000    6.125 
#    0.000    0.000    0.000    0.000    0.000    0.000 
#
# Total GULP energy -357197.298071 kJ/mol
# GULP energy per Si atom -5581.207782 kJ/mol
# Density = 1.716409 g / cm^3
# Si number density = 17.203240 Si / 1000 Ang^3
#
#
#
# Elastic Constant Matrix: (Units=GPa)
#
#
# Indices 1 2 3 4 5 6 
#
# 1 109.6393 64.3646 33.0027 0.0000 0.0000 0.0000
# 2 64.3646 110.3591 32.3726 0.0000 0.0000 0.0000
# 3 33.0027 32.3726 31.0377 0.0000 0.0000 0.0000
# 4 0.0000 0.0000 0.0000 20.7291 0.0000 0.0000
# 5 0.0000 0.0000 0.0000 0.0000 11.2897 0.0000
# 6 0.0000 0.0000 0.0000 0.0000 0.0000 20.4173
#
#
#
# Elastic Compliance Matrix: (Units=1/GPa)
#
#
# Indices 1 2 3 4 5 6 
#
# 1 0.015913 -0.006221 -0.010432 0.000000 0.000000 0.000000
# 2 -0.006221 0.015488 -0.009539 0.000000 0.000000 0.000000
# 3 -0.010432 -0.009539 0.053261 0.000000 0.000000 0.000000
# 4 0.000000 0.000000 0.000000 0.048241 0.000000 0.000000
# 5 0.000000 0.000000 0.000000 0.000000 0.088576 0.000000
# 6 0.000000 0.000000 0.000000 0.000000 0.000000 0.048978
#
#
# Mechanical properties :
#
#
# Convention : Reuss Voigt Hill
#
# Bulk Modulus (GPa) = 30.98145 56.72400 43.85273
# Shear Modulus (GPa) = 14.98801 18.57364 16.78082
#
# Velocity S-wave (km/s) = 2.95487 3.28938 3.12660
# Velocity P-wave (km/s) = 5.44884 6.88993 6.21132
#
# Compressibility (1/GPa) = 0.03227738
#
# Stress axis : x y z
#
# Youngs Moduli (GPa) = 62.84193 64.56754 18.77553
#
# Poissons Ratio (x) = 0.40166 0.19587
# Poissons Ratio (y) = 0.39092 0.17910
# Poissons Ratio (z) = 0.65557 0.61592
#
# Static dielectric constant tensor:
#      x y z
#    x 1.568430 0.000000 0.000000 
#    y 0.000000 1.588660 0.000000 
#    z 0.000000 0.000000 1.578600 
# 
# From -- ./inp_files/10030.got.cif
#   From: 2010.05.17/outbox.cif.g08.bks.cpg/sg47_6_cif.got.tgz:10030.got - 2010.06.03 20:15:42.
