data_PCOD9385622
_publ_section_title
;
Structure prediction by ZEFSAII (Michael W. Deem and Ramdas Pophale) SiO2 
 PCOD9385622
Probable space group: P M M M
;
_chemical_formula_sum "Si O2"
_cell_formula_units_Z 52
_cell_length_a 24.762477
_cell_length_b 14.077462
_cell_length_c 8.973392
_cell_angle_alpha 90.000000
_cell_angle_beta 90.000000
_cell_angle_gamma 90.000000
_cell_volume 3128.060103
_symmetry_space_group_name_H-M "P M M M"
_symmetry_group_IT_number 47
_symmetry_cell_setting 'orthorhombic'
loop_
_space_group_symop_operation_xyz
x,y,z
-x,-y,z
x,-y,-z
-x,y,-z
-x,-y,-z
x,y,-z
-x,y,z
x,-y,z
loop_
_atom_site_type_symbol
_atom_site_label
_atom_site_fract_x
_atom_site_fract_y
_atom_site_fract_z
Si Si1 0.329881 0.888384 0.824523
Si Si2 0.439822 0.115541 0.671131
Si Si3 0.500000 0.615949 0.671914
Si Si4 0.175594 0.610401 0.681898
Si Si5 0.058167 0.615055 0.322961
Si Si6 0.612098 0.385228 0.174291
Si Si7 0.715362 0.286201 0.678182
O O1 0.390650 0.858852 0.777129
O O2 0.290392 0.821565 0.732594
O O3 0.323645 0.000000 0.790299
O O4 0.322732 0.874719 0.000000
O O5 0.428781 0.144954 0.500000
O O6 0.500000 0.147880 0.713572
O O7 0.441502 0.000000 0.670618
O O8 0.500000 0.500000 0.675642
O O9 0.500000 0.645640 0.500000
O O10 0.555641 0.645612 0.750611
O O11 0.174073 0.611961 0.500000
O O12 0.181885 0.500000 0.725322
O O13 0.116754 0.646715 0.735345
O O14 0.227993 0.668599 0.728646
O O15 0.057279 0.636456 0.500000
O O16 0.059118 0.500000 0.311539
O O17 0.000000 0.647410 0.259945
O O18 0.614733 0.500000 0.186264
O O19 0.664487 0.342029 0.253114
O O20 0.611955 0.360247 0.000000
O O21 0.712271 0.292062 0.500000
#
# Coordination Sequence:
#
# PCOD9385622 Si02
#       7
#     8   8   4   8   8   8   8
#     4  10  21  36  51  66  87 115 148 189 237 286
#     4   8  14  27  48  70  88 105 128 164 215 276
#     4   9  17  31  51  71  90 115 150 191 235 279
#     4   8  14  24  39  63  95 127 157 188 221 260
#     4   7   9  15  30  54  87 126 159 182 210 254
#     4  10  20  34  51  70  94 122 152 189 231 274
#     4  11  21  32  48  69  93 122 156 193 231 275
#
# _framework density 16.623719999999999
#
# number of rings (size 3 to 8) (size 9 to 14) (size 15 to 20)
#    0.000    3.000    0.000    3.923    0.000    3.692 
#    1.385    1.538    0.000    0.000    0.000    0.000 
#    0.000    3.077    0.000   25.077    0.000   15.692 
#
# Total GULP energy -289840.601362 kJ/mol
# GULP energy per Si atom -5573.857719 kJ/mol
# Density = 1.658588 g / cm^3
# Si number density = 16.623720 Si / 1000 Ang^3
#
#
#
# Elastic Constant Matrix: (Units=GPa)
#
#
# Indices 1 2 3 4 5 6 
#
# 1 172.3664 48.4210 49.8808 0.0000 0.0000 0.0000
# 2 48.4210 47.4509 25.3771 0.0000 0.0000 0.0000
# 3 49.8808 25.3771 51.2654 0.0000 0.0000 0.0000
# 4 0.0000 0.0000 0.0000 18.1259 0.0000 0.0000
# 5 0.0000 0.0000 0.0000 0.0000 -6.7507 0.0000
# 6 0.0000 0.0000 0.0000 0.0000 0.0000 14.0604
#
#
#
# Elastic Compliance Matrix: (Units=1/GPa)
#
#
# Indices 1 2 3 4 5 6 
#
# 1 0.009286 -0.006315 -0.005909 0.000000 0.000000 0.000000
# 2 -0.006315 0.032958 -0.010170 0.000000 0.000000 0.000000
# 3 -0.005909 -0.010170 0.030289 0.000000 0.000000 0.000000
# 4 0.000000 0.000000 0.000000 0.055170 0.000000 0.000000
# 5 0.000000 0.000000 0.000000 0.000000 -0.148132 0.000000
# 6 0.000000 0.000000 0.000000 0.000000 0.000000 0.071122
#
#
# Mechanical properties :
#
#
# Convention : Reuss Voigt Hill
#
# Bulk Modulus (GPa) = 36.04200 57.60451 46.82325
# Shear Modulus (GPa) = 47.74261 14.91403 31.32832
#
# Velocity S-wave (km/s) = 5.36488 2.99850 4.34586
# Velocity P-wave (km/s) = 7.75268 6.83485 7.30819
#
# Compressibility (1/GPa) = 0.02774541
#
# Stress axis : x y z
#
# Youngs Moduli (GPa) = 107.69369 30.34181 33.01482
#
# Poissons Ratio (x) = 0.19162 0.19507
# Poissons Ratio (y) = 0.68014 0.33575
# Poissons Ratio (z) = 0.63631 0.30857
#
# Static dielectric constant tensor:
#      x y z
#    x 1.583250 0.000000 0.000000 
#    y 0.000000 1.591870 0.000000 
#    z 0.000000 0.000000 1.550380 
# 
# From -- ./inp_files/12515.got.cif
#   From: 2010.05.17/outbox.cif.g08.bks.cpg/sg47_7_cif.got.tgz:12515.got - 2010.06.03 20:15:42.
