data_PCOD9385318
_publ_section_title
;
Structure prediction by ZEFSAII (Michael W. Deem and Ramdas Pophale) SiO2 
 PCOD9385318
Probable space group: P M M M
;
_chemical_formula_sum "Si O2"
_cell_formula_units_Z 52
_cell_length_a 10.056154
_cell_length_b 32.586624
_cell_length_c 7.307001
_cell_angle_alpha 90.000000
_cell_angle_beta 90.000000
_cell_angle_gamma 90.000000
_cell_volume 2394.475798
_symmetry_space_group_name_H-M "P M M M"
_symmetry_group_IT_number 47
_symmetry_cell_setting 'orthorhombic'
loop_
_space_group_symop_operation_xyz
x,y,z
-x,-y,z
x,-y,-z
-x,y,-z
-x,-y,-z
x,y,-z
-x,y,z
x,-y,z
loop_
_atom_site_type_symbol
_atom_site_label
_atom_site_fract_x
_atom_site_fract_y
_atom_site_fract_z
Si Si1 0.749029 0.600227 0.722835
Si Si2 0.000000 0.547501 0.723569
Si Si3 0.849839 0.760395 0.722673
Si Si4 0.652328 0.927218 0.214067
Si Si5 0.149631 0.854537 0.720171
Si Si6 0.500000 0.546591 0.722966
Si Si7 0.345741 0.688989 0.276558
Si Si8 0.844910 0.000000 0.776116
O O1 0.752317 0.601604 0.500000
O O2 0.625834 0.572593 0.779142
O O3 0.726280 0.646936 0.781506
O O4 0.875601 0.574604 0.781845
O O5 0.000000 0.500000 0.783309
O O6 0.000000 0.545924 0.500000
O O7 0.847632 0.760456 0.500000
O O8 0.828746 0.807525 0.780134
O O9 0.738675 0.728381 0.783069
O O10 0.000000 0.748189 0.776348
O O11 0.500000 0.927207 0.287719
O O12 0.730211 0.884218 0.227683
O O13 0.757343 0.960908 0.285683
O O14 0.638876 0.936937 0.000000
O O15 0.145776 0.854401 0.500000
O O16 0.000000 0.867678 0.781679
O O17 0.500000 0.500000 0.786206
O O18 0.500000 0.545345 0.500000
O O19 0.346728 0.689054 0.500000
O O20 0.500000 0.689405 0.219652
O O21 0.000000 0.000000 0.717002
O O22 0.850075 0.000000 0.000000
#
# Coordination Sequence:
#
# PCOD9385318 Si02
#       8
#     8   4   8   8   8   4   8   4
#     4   9  15  21  27  37  51  70 100 140 187 241
#     4   9  16  22  26  34  48  68  98 138 187 242
#     4   8  15  26  40  56  75 101 132 169 215 263
#     4  10  20  33  51  76 104 131 161 198 238 280
#     4   9  18  33  50  70  96 126 161 199 240 287
#     4   9  14  20  28  34  46  70  98 134 185 240
#     4   9  15  22  31  45  63  83 113 153 198 251
#     4   9  17  31  52  75  98 129 166 200 236 277
#
# _framework density 21.716653999999998
#
# number of rings (size 3 to 8) (size 9 to 14) (size 15 to 20)
#    0.000    3.000    0.769    2.077    1.077    4.615 
#    0.000    1.923    0.000    2.308    0.000    0.000 
#    0.000    0.000    0.000    0.000    0.000    0.000 
#
# Total GULP energy -290205.654377 kJ/mol
# GULP energy per Si atom -5580.877969 kJ/mol
# Density = 2.166723 g / cm^3
# Si number density = 21.716654 Si / 1000 Ang^3
#
#
#
# Elastic Constant Matrix: (Units=GPa)
#
#
# Indices 1 2 3 4 5 6 
#
# 1 240.9959 129.0798 5.9363 0.0000 0.0000 0.0000
# 2 129.0798 160.9242 -0.7546 0.0000 0.0000 0.0000
# 3 5.9363 -0.7546 87.5235 0.0000 0.0000 0.0000
# 4 0.0000 0.0000 0.0000 -6.0066 0.0000 0.0000
# 5 0.0000 0.0000 0.0000 0.0000 -4.5494 0.0000
# 6 0.0000 0.0000 0.0000 0.0000 0.0000 39.3160
#
#
#
# Elastic Compliance Matrix: (Units=1/GPa)
#
#
# Indices 1 2 3 4 5 6 
#
# 1 0.007301 -0.005859 -0.000546 0.000000 0.000000 0.000000
# 2 -0.005859 0.010916 0.000491 0.000000 0.000000 0.000000
# 3 -0.000546 0.000491 0.011467 0.000000 0.000000 0.000000
# 4 0.000000 0.000000 0.000000 -0.166483 0.000000 0.000000
# 5 0.000000 0.000000 0.000000 0.000000 -0.219810 0.000000
# 6 0.000000 0.000000 0.000000 0.000000 0.000000 0.025435
#
#
# Mechanical properties :
#
#
# Convention : Reuss Voigt Hill
#
# Bulk Modulus (GPa) = 55.99870 84.21851 70.10860
# Shear Modulus (GPa) = -15.95422 29.43081 6.73829
#
# Velocity S-wave (km/s) = -2.71339 3.68532 1.76339
# Velocity P-wave (km/s) = 4.00317 7.54809 6.04148
#
# Compressibility (1/GPa) = 0.01785756
#
# Stress axis : x y z
#
# Youngs Moduli (GPa) = 136.97015 91.61072 87.20865
#
# Poissons Ratio (x) = 0.53672 0.04759
# Poissons Ratio (y) = 0.80247 -0.04286
# Poissons Ratio (z) = 0.07474 -0.04502
#
# Static dielectric constant tensor:
#      x y z
#    x 1.714960 0.000000 0.000000 
#    y 0.000000 1.750590 0.000000 
#    z 0.000000 0.000000 1.906670 
# 
# From -- ./inp_files/15696.got.cif
#   From: 2010.05.17/outbox.cif.g08.bks.cpg/sg47_8_cif.got.tgz:15696.got - 2010.06.03 20:15:42.
