data_PCOD9385122
_publ_section_title
;
Structure prediction by ZEFSAII (Michael W. Deem and Ramdas Pophale) SiO2 
 PCOD9385122
Probable space group: P M M M
;
_chemical_formula_sum "Si O2"
_cell_formula_units_Z 56
_cell_length_a 7.491911
_cell_length_b 16.522747
_cell_length_c 20.161568
_cell_angle_alpha 90.000000
_cell_angle_beta 90.000000
_cell_angle_gamma 90.000000
_cell_volume 2495.739010
_symmetry_space_group_name_H-M "P M M M"
_symmetry_group_IT_number 47
_symmetry_cell_setting 'orthorhombic'
loop_
_space_group_symop_operation_xyz
x,y,z
-x,-y,z
x,-y,-z
-x,y,-z
-x,-y,-z
x,y,-z
-x,y,z
x,-y,z
loop_
_atom_site_type_symbol
_atom_site_label
_atom_site_fract_x
_atom_site_fract_y
_atom_site_fract_z
Si Si1 0.700514 0.263539 0.925889
Si Si2 0.720207 0.742371 0.216006
Si Si3 0.709984 0.089736 0.718679
Si Si4 0.215633 0.343950 0.573800
Si Si5 0.706372 0.413231 0.708361
Si Si6 0.205071 0.914576 0.920230
Si Si7 0.784481 0.156207 0.574768
O O1 0.500000 0.296515 0.929507
O O2 0.784070 0.288438 0.856507
O O3 0.690958 0.167284 0.910607
O O4 0.780880 0.273448 0.000000
O O5 0.500000 0.745371 0.215055
O O6 0.780538 0.831179 0.241506
O O7 0.781043 0.671134 0.264599
O O8 0.500000 0.086760 0.734186
O O9 0.726575 0.107256 0.639705
O O10 0.785659 0.000000 0.733205
O O11 0.269738 0.367293 0.500000
O O12 0.287090 0.402034 0.629786
O O13 0.271331 0.250059 0.584187
O O14 0.000000 0.344924 0.576890
O O15 0.500000 0.414822 0.730086
O O16 0.786700 0.500000 0.727399
O O17 0.000000 0.905344 0.897902
O O18 0.277359 0.000000 0.894426
O O19 0.198698 0.920853 0.000000
O O20 0.726678 0.130544 0.500000
O O21 0.000000 0.154163 0.574245
#
# Coordination Sequence:
#
# PCOD9385122 Si02
#       7
#     8   8   8   8   8   8   8
#     4   9  17  29  48  71  91 119 161 202 242 293
#     4   9  18  34  51  70 101 131 157 203 256 292
#     4  10  20  33  50  71  96 132 174 208 244 292
#     4   9  18  33  53  77 105 135 165 201 249 298
#     4  10  20  34  54  77  99 130 170 204 242 297
#     4   8  14  25  40  60  90 123 151 186 234 283
#     4   9  18  33  52  73  99 132 168 207 250 290
#
# _framework density 22.438244000000001
#
# number of rings (size 3 to 8) (size 9 to 14) (size 15 to 20)
#    0.000    2.857    1.429    1.286    0.000    2.571 
#    0.000    8.571    0.000    0.429    0.000    3.000 
#    0.000    0.000    0.000    4.857    0.000    5.143 
#
# Total GULP energy -312012.720386 kJ/mol
# GULP energy per Si atom -5571.655721 kJ/mol
# Density = 2.238717 g / cm^3
# Si number density = 22.438244 Si / 1000 Ang^3
#
#
#
# Elastic Constant Matrix: (Units=GPa)
#
#
# Indices 1 2 3 4 5 6 
#
# 1 61.3306 6.2393 -5.8745 0.0000 0.0000 0.0000
# 2 6.2393 108.7245 52.7194 0.0000 0.0000 0.0000
# 3 -5.8745 52.7194 138.3934 0.0000 0.0000 0.0000
# 4 0.0000 0.0000 0.0000 0.0840 0.0000 0.0000
# 5 0.0000 0.0000 0.0000 0.0000 22.5003 0.0000
# 6 0.0000 0.0000 0.0000 0.0000 0.0000 -0.1857
#
#
#
# Elastic Compliance Matrix: (Units=1/GPa)
#
#
# Indices 1 2 3 4 5 6 
#
# 1 0.016592 -0.001587 0.001309 0.000000 0.000000 0.000000
# 2 -0.001587 0.011433 -0.004423 0.000000 0.000000 0.000000
# 3 0.001309 -0.004423 0.008966 0.000000 0.000000 0.000000
# 4 0.000000 0.000000 0.000000 11.905286 0.000000 0.000000
# 5 0.000000 0.000000 0.000000 0.000000 0.044444 0.000000
# 6 0.000000 0.000000 0.000000 0.000000 0.000000 -5.386158
#
#
# Mechanical properties :
#
#
# Convention : Reuss Voigt Hill
#
# Bulk Modulus (GPa) = 36.24537 46.06855 41.15696
# Shear Modulus (GPa) = 0.75538 21.50402 11.12970
#
# Velocity S-wave (km/s) = 0.58084 3.09910 2.22955
# Velocity P-wave (km/s) = 4.07901 5.77770 5.00100
#
# Compressibility (1/GPa) = 0.02758973
#
# Stress axis : x y z
#
# Youngs Moduli (GPa) = 60.27055 87.46512 111.53122
#
# Poissons Ratio (x) = 0.13878 -0.14597
# Poissons Ratio (y) = 0.09563 0.49327
# Poissons Ratio (z) = -0.07888 0.38683
#
# Static dielectric constant tensor:
#      x y z
#    x 3.140280 0.000000 0.000000 
#    y 0.000000 1.856100 0.000000 
#    z 0.000000 0.000000 1.875100 
# 
# From -- ./inp_files/11497.got.cif
#   From: 2010.05.17/outbox.cif.g08.bks.cpg/sg47_6_cif.got.tgz:11497.got - 2010.06.03 20:15:42.
