data_PCOD9385433
_publ_section_title
;
Structure prediction by ZEFSAII (Michael W. Deem and Ramdas Pophale) SiO2 
 PCOD9385433
Probable space group: P M M M
;
_chemical_formula_sum "Si O2"
_cell_formula_units_Z 64
_cell_length_a 7.824799
_cell_length_b 24.563134
_cell_length_c 15.468179
_cell_angle_alpha 90.000000
_cell_angle_beta 90.000000
_cell_angle_gamma 90.000000
_cell_volume 2973.008542
_symmetry_space_group_name_H-M "P M M M"
_symmetry_group_IT_number 47
_symmetry_cell_setting 'orthorhombic'
loop_
_space_group_symop_operation_xyz
x,y,z
-x,-y,z
x,-y,-z
-x,y,-z
-x,-y,-z
x,y,-z
-x,y,z
x,-y,z
loop_
_atom_site_type_symbol
_atom_site_label
_atom_site_fract_x
_atom_site_fract_y
_atom_site_fract_z
Si Si1 0.298805 0.896582 0.596195
Si Si2 0.304092 0.439315 0.716647
Si Si3 0.299657 0.279481 0.096818
Si Si4 0.293225 0.940164 0.224791
Si Si5 0.796181 0.226882 0.401908
Si Si6 0.802979 0.434628 0.092781
Si Si7 0.202489 0.157406 0.902004
Si Si8 0.706833 0.675329 0.724607
O O1 0.224850 0.905815 0.500000
O O2 0.500000 0.909622 0.591071
O O3 0.228256 0.928968 0.677915
O O4 0.281614 0.832357 0.616614
O O5 0.500000 0.442654 0.686769
O O6 0.226900 0.500000 0.702786
O O7 0.301958 0.427787 0.820039
O O8 0.226894 0.382092 0.685269
O O9 0.500000 0.293260 0.091598
O O10 0.285944 0.215423 0.119246
O O11 0.226454 0.312263 0.178227
O O12 0.224731 0.286476 0.000000
O O13 0.500000 0.940010 0.227538
O O14 0.241791 0.891022 0.162963
O O15 0.236992 0.000000 0.194852
O O16 0.744499 0.241850 0.500000
O O17 0.747438 0.273500 0.335245
O O18 0.000000 0.220092 0.399836
O O19 0.809866 0.500000 0.085419
O O20 0.000000 0.416538 0.103426
O O21 0.736243 0.413593 0.000000
O O22 0.000000 0.166996 0.901470
O O23 0.255692 0.142832 0.000000
O O24 0.500000 0.671186 0.728914
#
# Coordination Sequence:
#
# PCOD9385433 Si02
#       8
#     8   8   8   8   8   8   8   8
#     4   9  18  34  56  80 107 138 168 201 247 302
#     4   9  18  31  46  67  96 129 165 204 247 298
#     4   9  18  33  52  74 102 135 170 209 254 304
#     4  10  21  35  52  77 107 139 176 213 248 293
#     4  10  21  36  55  80 106 130 162 208 259 308
#     4   8  14  25  40  58  83 118 160 201 237 277
#     4  10  21  36  53  73  99 133 174 220 266 306
#     4  10  20  33  52  77 103 133 168 207 252 303
#
# _framework density 21.527014999999999
#
# number of rings (size 3 to 8) (size 9 to 14) (size 15 to 20)
#    0.000    2.625    0.000    1.875    0.000    7.500 
#    0.000    5.000    0.000    1.875    0.000    5.250 
#    0.000    0.000    0.000    0.000    0.000    0.000 
#
# Total GULP energy -356890.760174 kJ/mol
# GULP energy per Si atom -5576.418128 kJ/mol
# Density = 2.147802 g / cm^3
# Si number density = 21.527015 Si / 1000 Ang^3
#
#
#
# Elastic Constant Matrix: (Units=GPa)
#
#
# Indices 1 2 3 4 5 6 
#
# 1 33.3723 -4.4721 1.5820 0.0000 0.0000 0.0000
# 2 -4.4721 86.5379 36.5534 0.0000 0.0000 0.0000
# 3 1.5820 36.5534 48.4115 0.0000 0.0000 0.0000
# 4 0.0000 0.0000 0.0000 -6.0530 0.0000 0.0000
# 5 0.0000 0.0000 0.0000 0.0000 16.9014 0.0000
# 6 0.0000 0.0000 0.0000 0.0000 0.0000 -12.3203
#
#
#
# Elastic Compliance Matrix: (Units=1/GPa)
#
#
# Indices 1 2 3 4 5 6 
#
# 1 0.030510 0.002933 -0.003212 0.000000 0.000000 0.000000
# 2 0.002933 0.017249 -0.013120 0.000000 0.000000 0.000000
# 3 -0.003212 -0.013120 0.030667 0.000000 0.000000 0.000000
# 4 0.000000 0.000000 0.000000 -0.165207 0.000000 0.000000
# 5 0.000000 0.000000 0.000000 0.000000 0.059167 0.000000
# 6 0.000000 0.000000 0.000000 0.000000 0.000000 -0.081167
#
#
# Mechanical properties :
#
#
# Convention : Reuss Voigt Hill
#
# Bulk Modulus (GPa) = 19.36855 26.18314 22.77584
# Shear Modulus (GPa) = -77.19155 8.68284 -34.25435
#
# Velocity S-wave (km/s) = -5.99465 2.01053 -3.99335
# Velocity P-wave (km/s) = 6.23679 4.19273 3.26486
#
# Compressibility (1/GPa) = 0.05163010
#
# Stress axis : x y z
#
# Youngs Moduli (GPa) = 32.77574 57.97427 32.60783
#
# Poissons Ratio (x) = -0.17006 0.10474
# Poissons Ratio (y) = -0.09615 0.42781
# Poissons Ratio (z) = 0.10527 0.76061
#
# Static dielectric constant tensor:
#      x y z
#    x 1.792030 0.000000 0.000000 
#    y 0.000000 1.803870 0.000000 
#    z 0.000000 0.000000 1.809590 
# 
# From -- ./inp_files/7959.got.cif
#   From: 2010.05.17/outbox.cif.g08.bks.cpg/sg47_4_cif.got.tgz:7959.got - 2010.06.03 20:15:42.
