data_PCOD9385255
_publ_section_title
;
Structure prediction by ZEFSAII (Michael W. Deem and Ramdas Pophale) SiO2 
 PCOD9385255
Probable space group: P M M M
;
_chemical_formula_sum "Si O2"
_cell_formula_units_Z 64
_cell_length_a 7.892042
_cell_length_b 14.962837
_cell_length_c 26.369761
_cell_angle_alpha 90.000000
_cell_angle_beta 90.000000
_cell_angle_gamma 90.000000
_cell_volume 3113.934881
_symmetry_space_group_name_H-M "P M M M"
_symmetry_group_IT_number 47
_symmetry_cell_setting 'orthorhombic'
loop_
_space_group_symop_operation_xyz
x,y,z
-x,-y,z
x,-y,-z
-x,y,-z
-x,-y,-z
x,y,-z
-x,y,z
x,-y,z
loop_
_atom_site_type_symbol
_atom_site_label
_atom_site_fract_x
_atom_site_fract_y
_atom_site_fract_z
Si Si1 0.298500 0.210131 0.942513
Si Si2 0.704127 0.598757 0.716338
Si Si3 0.704873 0.400247 0.598473
Si Si4 0.799451 0.788510 0.752752
Si Si5 0.702760 0.900562 0.849717
Si Si6 0.796419 0.595786 0.060170
Si Si7 0.792328 0.896238 0.346135
Si Si8 0.798020 0.788555 0.555670
O O1 0.500000 0.196455 0.946517
O O2 0.228207 0.140148 0.902158
O O3 0.272272 0.310253 0.920973
O O4 0.228013 0.204681 0.000000
O O5 0.500000 0.597960 0.716266
O O6 0.762315 0.500000 0.733204
O O7 0.757992 0.610593 0.657454
O O8 0.761157 0.683767 0.747944
O O9 0.500000 0.398560 0.597162
O O10 0.758348 0.500000 0.581689
O O11 0.768971 0.315911 0.567418
O O12 0.734224 0.834499 0.803354
O O13 0.732889 0.840302 0.702784
O O14 0.000000 0.799767 0.752570
O O15 0.500000 0.906593 0.855407
O O16 0.769202 0.000000 0.839145
O O17 0.736786 0.500000 0.081475
O O18 0.000000 0.597997 0.064321
O O19 0.754568 0.594851 0.000000
O O20 0.732457 0.847324 0.397405
O O21 0.000000 0.894156 0.346209
O O22 0.742061 0.000000 0.343636
O O23 0.728358 0.810893 0.500000
O O24 0.000000 0.803346 0.554283
#
# Coordination Sequence:
#
# PCOD9385255 Si02
#       8
#     8   8   8   8   8   8   8   8
#     4   9  18  33  54  80 108 140 180 223 266 314
#     4   9  18  34  57  83 110 141 177 217 264 321
#     4   9  18  33  53  76 104 140 177 213 259 318
#     4  11  21  35  58  84 110 139 174 222 272 320
#     4  10  22  39  57  79 109 144 181 223 272 323
#     4   8  14  26  46  73 105 140 175 211 255 308
#     4   9  18  33  52  75 102 133 172 218 268 318
#     4  10  20  33  50  75 106 139 178 224 270 316
#
# _framework density 20.552776000000001
#
# number of rings (size 3 to 8) (size 9 to 14) (size 15 to 20)
#    0.000    2.625    1.250    1.875    0.000    3.000 
#    0.000    6.875    0.000    1.875    0.000    3.500 
#    0.000    0.000    0.000    0.000    0.000    0.000 
#
# Total GULP energy -356983.644321 kJ/mol
# GULP energy per Si atom -5577.869443 kJ/mol
# Density = 2.050600 g / cm^3
# Si number density = 20.552776 Si / 1000 Ang^3
#
#
#
# Elastic Constant Matrix: (Units=GPa)
#
#
# Indices 1 2 3 4 5 6 
#
# 1 16.2732 1.6525 6.7316 0.0000 0.0000 0.0000
# 2 1.6525 134.6608 76.1557 0.0000 0.0000 0.0000
# 3 6.7316 76.1557 108.5067 0.0000 0.0000 0.0000
# 4 0.0000 0.0000 0.0000 2.7109 0.0000 0.0000
# 5 0.0000 0.0000 0.0000 0.0000 12.7951 0.0000
# 6 0.0000 0.0000 0.0000 0.0000 0.0000 25.2159
#
#
#
# Elastic Compliance Matrix: (Units=1/GPa)
#
#
# Indices 1 2 3 4 5 6 
#
# 1 0.063535 0.002403 -0.005628 0.000000 0.000000 0.000000
# 2 0.002403 0.012405 -0.008855 0.000000 0.000000 0.000000
# 3 -0.005628 -0.008855 0.015780 0.000000 0.000000 0.000000
# 4 0.000000 0.000000 0.000000 0.368883 0.000000 0.000000
# 5 0.000000 0.000000 0.000000 0.000000 0.078155 0.000000
# 6 0.000000 0.000000 0.000000 0.000000 0.000000 0.039658
#
#
# Mechanical properties :
#
#
# Convention : Reuss Voigt Hill
#
# Bulk Modulus (GPa) = 14.80185 47.61335 31.20760
# Shear Modulus (GPa) = 7.99877 19.80443 13.90160
#
# Velocity S-wave (km/s) = 1.97491 3.10754 2.60356
# Velocity P-wave (km/s) = 3.52390 6.00770 4.92495
#
# Compressibility (1/GPa) = 0.06755912
#
# Stress axis : x y z
#
# Youngs Moduli (GPa) = 15.73939 80.61553 63.37019
#
# Poissons Ratio (x) = -0.19375 0.35667
# Poissons Ratio (y) = -0.03783 0.56116
# Poissons Ratio (z) = 0.08859 0.71387
#
# Static dielectric constant tensor:
#      x y z
#    x 1.749940 0.000000 0.000000 
#    y 0.000000 1.742600 0.000000 
#    z 0.000000 0.000000 1.736230 
# 
# From -- ./inp_files/7788.got.cif
#   From: 2010.05.17/outbox.cif.g08.bks.cpg/sg47_4_cif.got.tgz:7788.got - 2010.06.03 20:15:42.
