data_PCOD9385921
_publ_section_title
;
Structure prediction by ZEFSAII (Michael W. Deem and Ramdas Pophale) SiO2 
 PCOD9385921
Probable space group: P M M M
;
_chemical_formula_sum "Si O2"
_cell_formula_units_Z 40
_cell_length_a 9.327473
_cell_length_b 28.823396
_cell_length_c 7.592614
_cell_angle_alpha 90.000000
_cell_angle_beta 90.000000
_cell_angle_gamma 90.000000
_cell_volume 2041.270082
_symmetry_space_group_name_H-M "P M M M"
_symmetry_group_IT_number 47
_symmetry_cell_setting 'orthorhombic'
loop_
_space_group_symop_operation_xyz
x,y,z
-x,-y,z
x,-y,-z
-x,y,-z
-x,-y,-z
x,y,-z
-x,y,z
x,-y,z
loop_
_atom_site_type_symbol
_atom_site_label
_atom_site_fract_x
_atom_site_fract_y
_atom_site_fract_z
Si Si1 0.675110 0.946855 0.500000
Si Si2 0.665134 0.773194 0.214948
Si Si3 0.837824 0.500000 0.709625
Si Si4 0.835369 0.317663 0.215763
Si Si5 0.674778 0.876126 0.798229
Si Si6 0.661922 0.592556 0.789717
O O1 0.500000 0.947572 0.500000
O O2 0.720117 0.917247 0.670211
O O3 0.723647 0.000000 0.500000
O O4 0.500000 0.766615 0.271183
O O5 0.761701 0.730305 0.271845
O O6 0.716420 0.824619 0.266675
O O7 0.663896 0.773747 0.000000
O O8 0.847461 0.500000 0.500000
O O9 0.751610 0.545993 0.760590
O O10 0.000000 0.500000 0.782267
O O11 0.745318 0.362164 0.277025
O O12 0.000000 0.320842 0.271298
O O13 0.834159 0.317838 0.000000
O O14 0.500000 0.875287 0.799577
O O15 0.721714 0.882653 0.000000
O O16 0.500000 0.588748 0.719662
O O17 0.651147 0.598506 0.000000
#
# Coordination Sequence:
#
# PCOD9385921 Si02
#       6
#     4   8   4   8   8   8
#     4   9  16  24  36  58  89 123 159 200 245 294
#     4   8  13  23  40  61  87 121 157 191 233 288
#     4  11  24  39  54  72  98 133 168 207 256 302
#     4   9  16  26  44  72 101 125 154 197 246 293
#     4   8  14  24  38  57  84 120 159 198 242 293
#     4  10  20  34  54  79 103 129 166 208 247 296
#
# _framework density 19.595642999999999
#
# number of rings (size 3 to 8) (size 9 to 14) (size 15 to 20)
#    0.000    3.000    0.000    3.000    0.000    6.000 
#    0.000    2.000    2.200    0.000    0.000    0.000 
#    0.000    1.600    0.000    7.800    0.000    8.000 
#
# Total GULP energy -223145.783300 kJ/mol
# GULP energy per Si atom -5578.644583 kJ/mol
# Density = 1.955104 g / cm^3
# Si number density = 19.595643 Si / 1000 Ang^3
#
#
#
# Elastic Constant Matrix: (Units=GPa)
#
#
# Indices 1 2 3 4 5 6 
#
# 1 115.6322 92.5844 20.9658 0.0000 0.0000 0.0000
# 2 92.5844 228.8048 43.9436 0.0000 0.0000 0.0000
# 3 20.9658 43.9436 59.0829 0.0000 0.0000 0.0000
# 4 0.0000 0.0000 0.0000 110.8515 0.0000 0.0000
# 5 0.0000 0.0000 0.0000 0.0000 1.7023 0.0000
# 6 0.0000 0.0000 0.0000 0.0000 0.0000 -5.2386
#
#
#
# Elastic Compliance Matrix: (Units=1/GPa)
#
#
# Indices 1 2 3 4 5 6 
#
# 1 0.012826 -0.005035 -0.000806 0.000000 0.000000 0.000000
# 2 -0.005035 0.007075 -0.003476 0.000000 0.000000 0.000000
# 3 -0.000806 -0.003476 0.019797 0.000000 0.000000 0.000000
# 4 0.000000 0.000000 0.000000 0.009021 0.000000 0.000000
# 5 0.000000 0.000000 0.000000 0.000000 0.587435 0.000000
# 6 0.000000 0.000000 0.000000 0.000000 0.000000 -0.190890
#
#
# Mechanical properties :
#
#
# Convention : Reuss Voigt Hill
#
# Bulk Modulus (GPa) = 47.47549 79.83415 63.65482
# Shear Modulus (GPa) = 10.61754 37.86478 24.24116
#
# Velocity S-wave (km/s) = 2.33025 4.40057 3.52101
# Velocity P-wave (km/s) = 5.61429 8.16390 7.00605
#
# Compressibility (1/GPa) = 0.02106350
#
# Stress axis : x y z
#
# Youngs Moduli (GPa) = 77.96826 141.33372 50.51351
#
# Poissons Ratio (x) = 0.71161 0.04074
# Poissons Ratio (y) = 0.39257 0.17557
# Poissons Ratio (z) = 0.06288 0.49124
#
# Static dielectric constant tensor:
#      x y z
#    x 1.664300 0.000000 0.000000 
#    y 0.000000 1.668840 0.000000 
#    z 0.000000 0.000000 1.736850 
# 
# From -- ./inp_files/1774.got.cif
#   From: 2010.05.17/outbox.cif.g08.bks.cpg/sg47_1_cif.got.tgz:1774.got - 2010.06.03 20:15:42.
