data_PCOD9385936
_publ_section_title
;
Structure prediction by ZEFSAII (Michael W. Deem and Ramdas Pophale) SiO2 
 PCOD9385936
Probable space group: P M M M
;
_chemical_formula_sum "Si O2"
_cell_formula_units_Z 48
_cell_length_a 9.324719
_cell_length_b 7.683298
_cell_length_c 33.973380
_cell_angle_alpha 90.000000
_cell_angle_beta 90.000000
_cell_angle_gamma 90.000000
_cell_volume 2434.009046
_symmetry_space_group_name_H-M "P M M M"
_symmetry_group_IT_number 47
_symmetry_cell_setting 'orthorhombic'
loop_
_space_group_symop_operation_xyz
x,y,z
-x,-y,z
x,-y,-z
-x,y,-z
-x,-y,-z
x,y,-z
-x,y,z
x,-y,z
loop_
_atom_site_type_symbol
_atom_site_label
_atom_site_fract_x
_atom_site_fract_y
_atom_site_fract_z
Si Si1 0.834553 0.786793 0.500000
Si Si2 0.825195 0.199737 0.103976
Si Si3 0.336669 0.209348 0.577161
Si Si4 0.163266 0.790456 0.191127
Si Si5 0.824840 0.500000 0.954849
Si Si6 0.338009 0.708454 0.268863
Si Si7 0.837365 0.709366 0.344095
O O1 0.751361 0.728600 0.539117
O O2 0.000000 0.731261 0.500000
O O3 0.834693 0.000000 0.500000
O O4 0.784585 0.264683 0.147742
O O5 0.779673 0.330216 0.069787
O O6 0.000000 0.197336 0.104494
O O7 0.777919 0.000000 0.098179
O O8 0.500000 0.275425 0.577791
O O9 0.253654 0.250980 0.617146
O O10 0.343517 0.000000 0.574043
O O11 0.262964 0.742103 0.227280
O O12 0.000000 0.726201 0.197590
O O13 0.156597 0.000000 0.189091
O O14 0.000000 0.500000 0.955221
O O15 0.776918 0.500000 0.000000
O O16 0.500000 0.777524 0.270083
O O17 0.345954 0.500000 0.273603
O O18 0.242478 0.776202 0.305037
O O19 0.845369 0.500000 0.340843
O O20 0.000000 0.776123 0.347178
#
# Coordination Sequence:
#
# PCOD9385936 Si02
#       7
#     4   8   8   8   4   8   8
#     4   9  17  31  52  77 104 133 168 212 258 305
#     4   8  15  27  41  62  94 129 168 215 262 311
#     4  10  20  34  54  79 105 134 168 208 257 309
#     4   9  18  32  50  72  97 129 170 211 253 303
#     4   9  16  24  38  64  95 133 177 213 259 320
#     4  10  21  35  51  73 100 130 165 205 252 305
#     4  10  21  37  55  75 101 135 173 210 252 304
#
# _framework density 19.720548999999998
#
# number of rings (size 3 to 8) (size 9 to 14) (size 15 to 20)
#    0.000    2.667    0.000    2.750    1.167    5.333 
#    0.000    2.083    0.000    2.500    0.000    0.000 
#    0.000    1.333    0.000    3.667    0.000    3.667 
#
# Total GULP energy -267888.223411 kJ/mol
# GULP energy per Si atom -5581.004654 kJ/mol
# Density = 1.967566 g / cm^3
# Si number density = 19.720549 Si / 1000 Ang^3
#
#
#
# Elastic Constant Matrix: (Units=GPa)
#
#
# Indices 1 2 3 4 5 6 
#
# 1 138.5000 21.6704 98.9785 0.0000 0.0000 0.0000
# 2 21.6704 48.8356 36.3176 0.0000 0.0000 0.0000
# 3 98.9785 36.3176 215.9207 0.0000 0.0000 0.0000
# 4 0.0000 0.0000 0.0000 29.7608 0.0000 0.0000
# 5 0.0000 0.0000 0.0000 0.0000 -33.1976 0.0000
# 6 0.0000 0.0000 0.0000 0.0000 0.0000 13.6224
#
#
#
# Elastic Compliance Matrix: (Units=1/GPa)
#
#
# Indices 1 2 3 4 5 6 
#
# 1 0.010806 -0.001270 -0.004740 0.000000 0.000000 0.000000
# 2 -0.001270 0.023554 -0.003379 0.000000 0.000000 0.000000
# 3 -0.004740 -0.003379 0.007373 0.000000 0.000000 0.000000
# 4 0.000000 0.000000 0.000000 0.033601 0.000000 0.000000
# 5 0.000000 0.000000 0.000000 0.000000 -0.030123 0.000000
# 6 0.000000 0.000000 0.000000 0.000000 0.000000 0.073409
#
#
# Mechanical properties :
#
#
# Convention : Reuss Voigt Hill
#
# Bulk Modulus (GPa) = 43.56671 79.68770 61.62721
# Shear Modulus (GPa) = 34.47079 18.45644 26.46361
#
# Velocity S-wave (km/s) = 4.18540 3.06256 3.66721
# Velocity P-wave (km/s) = 6.74513 7.28024 7.01779
#
# Compressibility (1/GPa) = 0.02295330
#
# Stress axis : x y z
#
# Youngs Moduli (GPa) = 92.53765 42.45620 135.63771
#
# Poissons Ratio (x) = 0.05393 0.64293
# Poissons Ratio (y) = 0.11755 0.45838
# Poissons Ratio (z) = 0.43863 0.14348
#
# Static dielectric constant tensor:
#      x y z
#    x 1.675070 0.000000 0.000000 
#    y 0.000000 1.732210 0.000000 
#    z 0.000000 0.000000 1.666280 
# 
# From -- ./inp_files/34151.got.cif
#   From: 2010.05.17/outbox.cif.g08.bks.cpg/sg47_18_cif.got.tgz:34151.got - 2010.06.03 20:15:42.
