data_PCOD9385663
_publ_section_title
;
Structure prediction by ZEFSAII (Michael W. Deem and Ramdas Pophale) SiO2 
 PCOD9385663
Probable space group: P M M M
;
_chemical_formula_sum "Si O2"
_cell_formula_units_Z 52
_cell_length_a 8.859038
_cell_length_b 14.152580
_cell_length_c 24.693149
_cell_angle_alpha 90.000000
_cell_angle_beta 90.000000
_cell_angle_gamma 90.000000
_cell_volume 3095.983661
_symmetry_space_group_name_H-M "P M M M"
_symmetry_group_IT_number 47
_symmetry_cell_setting 'orthorhombic'
loop_
_space_group_symop_operation_xyz
x,y,z
-x,-y,z
x,-y,-z
-x,y,-z
-x,-y,-z
x,y,-z
-x,y,z
x,-y,z
loop_
_atom_site_type_symbol
_atom_site_label
_atom_site_fract_x
_atom_site_fract_y
_atom_site_fract_z
Si Si1 0.817295 0.609933 0.323771
Si Si2 0.179697 0.113623 0.940892
Si Si3 0.681537 0.890232 0.829514
Si Si4 0.822657 0.614927 0.442670
Si Si5 0.324509 0.115525 0.500000
Si Si6 0.680889 0.211546 0.280695
Si Si7 0.176869 0.885966 0.613929
O O1 0.779401 0.500000 0.315443
O O2 0.761952 0.641267 0.384009
O O3 0.743557 0.682373 0.282935
O O4 0.000000 0.616930 0.323240
O O5 0.255737 0.149555 0.886086
O O6 0.000000 0.128256 0.937844
O O7 0.205054 0.000000 0.941356
O O8 0.232841 0.149213 0.000000
O O9 0.500000 0.887905 0.831788
O O10 0.730286 0.837564 0.775106
O O11 0.728702 0.000000 0.824994
O O12 0.753482 0.646259 0.500000
O O13 0.819327 0.500000 0.442466
O O14 0.000000 0.640967 0.443367
O O15 0.500000 0.142235 0.500000
O O16 0.245279 0.145799 0.443943
O O17 0.317035 0.000000 0.500000
O O18 0.500000 0.210310 0.283117
O O19 0.744412 0.157321 0.333357
O O20 0.000000 0.861814 0.615006
O O21 0.191636 0.000000 0.616214
#
# Coordination Sequence:
#
# PCOD9385663 Si02
#       7
#     8   8   8   8   4   8   8
#     4   9  18  33  51  69  90 117 153 198 245 294
#     4   8  14  25  42  66  96 128 159 190 227 270
#     4   9  18  31  46  66  94 129 167 201 231 269
#     4   7  10  20  41  65  83 100 127 168 222 280
#     4   9  17  31  51  71  92 119 150 191 245 293
#     4  11  22  34  48  68  96 129 162 198 242 289
#     4  10  20  34  52  72  93 120 158 200 239 285
#
# _framework density 16.795954999999999
#
# number of rings (size 3 to 8) (size 9 to 14) (size 15 to 20)
#    0.000    3.000    0.000    3.462    0.000    4.308 
#    1.385    3.077    0.000    0.000    0.000    2.154 
#    0.000    0.615    0.000    6.769    0.000    5.231 
#
# Total GULP energy -289786.482077 kJ/mol
# GULP energy per Si atom -5572.816963 kJ/mol
# Density = 1.675773 g / cm^3
# Si number density = 16.795955 Si / 1000 Ang^3
#
#
#
# Elastic Constant Matrix: (Units=GPa)
#
#
# Indices 1 2 3 4 5 6 
#
# 1 37.7278 22.8063 46.7595 0.0000 0.0000 0.0000
# 2 22.8063 54.6521 55.7718 0.0000 0.0000 0.0000
# 3 46.7595 55.7718 171.8859 0.0000 0.0000 0.0000
# 4 0.0000 0.0000 0.0000 13.0409 0.0000 0.0000
# 5 0.0000 0.0000 0.0000 0.0000 28.3003 0.0000
# 6 0.0000 0.0000 0.0000 0.0000 0.0000 16.9317
#
#
#
# Elastic Compliance Matrix: (Units=1/GPa)
#
#
# Indices 1 2 3 4 5 6 
#
# 1 0.042711 -0.008920 -0.008725 0.000000 0.000000 0.000000
# 2 -0.008920 0.029218 -0.007054 0.000000 0.000000 0.000000
# 3 -0.008725 -0.007054 0.010480 0.000000 0.000000 0.000000
# 4 0.000000 0.000000 0.000000 0.076682 0.000000 0.000000
# 5 0.000000 0.000000 0.000000 0.000000 0.035335 0.000000
# 6 0.000000 0.000000 0.000000 0.000000 0.000000 0.059061
#
#
# Mechanical properties :
#
#
# Convention : Reuss Voigt Hill
#
# Bulk Modulus (GPa) = 30.29165 57.21565 43.75365
# Shear Modulus (GPa) = 15.92922 20.91645 18.42283
#
# Velocity S-wave (km/s) = 3.08294 3.53275 3.31548
# Velocity P-wave (km/s) = 5.54500 7.12597 6.38461
#
# Compressibility (1/GPa) = 0.03301240
#
# Stress axis : x y z
#
# Youngs Moduli (GPa) = 23.41317 34.22528 95.41904
#
# Poissons Ratio (x) = 0.30528 0.83252
# Poissons Ratio (y) = 0.20884 0.67308
# Poissons Ratio (z) = 0.20428 0.24142
#
# Static dielectric constant tensor:
#      x y z
#    x 1.564670 0.000000 0.000000 
#    y 0.000000 1.587910 0.000000 
#    z 0.000000 0.000000 1.590030 
# 
# From -- ./inp_files/25029.got.cif
#   From: 2010.05.17/outbox.cif.g08.bks.cpg/sg47_13_cif.got.tgz:25029.got - 2010.06.03 20:15:42.
