data_PCOD9385289
_publ_section_title
;
Structure prediction by ZEFSAII (Michael W. Deem and Ramdas Pophale) SiO2 
 PCOD9385289
Probable space group: P M M M
;
_chemical_formula_sum "Si O2"
_cell_formula_units_Z 48
_cell_length_a 14.958161
_cell_length_b 21.221414
_cell_length_c 8.322569
_cell_angle_alpha 90.000000
_cell_angle_beta 90.000000
_cell_angle_gamma 90.000000
_cell_volume 2641.860769
_symmetry_space_group_name_H-M "P M M M"
_symmetry_group_IT_number 47
_symmetry_cell_setting 'orthorhombic'
loop_
_space_group_symop_operation_xyz
x,y,z
-x,-y,z
x,-y,-z
-x,y,-z
-x,-y,-z
x,y,-z
-x,y,z
x,-y,z
loop_
_atom_site_type_symbol
_atom_site_label
_atom_site_fract_x
_atom_site_fract_y
_atom_site_fract_z
Si Si1 0.210163 0.930396 0.805473
Si Si2 0.102597 0.191252 0.694043
Si Si3 0.784318 0.688171 0.691315
Si Si4 0.898138 0.428464 0.193738
Si Si5 0.401188 0.117186 0.195556
Si Si6 0.599165 0.264405 0.806424
O O1 0.149676 0.873342 0.745440
O O2 0.312942 0.919319 0.751577
O O3 0.179845 0.000000 0.754498
O O4 0.209815 0.928540 0.000000
O O5 0.101968 0.193434 0.500000
O O6 0.159784 0.251168 0.753665
O O7 0.000000 0.194556 0.750082
O O8 0.788376 0.689869 0.500000
O O9 0.830376 0.624301 0.748696
O O10 0.682092 0.696277 0.743519
O O11 0.876827 0.500000 0.246389
O O12 0.000000 0.413868 0.247122
O O13 0.898362 0.428463 0.000000
O O14 0.500000 0.095631 0.249551
O O15 0.390465 0.190785 0.240942
O O16 0.402309 0.114605 0.000000
O O17 0.500000 0.285058 0.753693
O O18 0.600908 0.265721 0.000000
#
# Coordination Sequence:
#
# PCOD9385289 Si02
#       6
#     8   8   8   8   8   8
#     4  10  20  33  51  75 100 127 166 218 268 311
#     4  10  22  38  52  69  97 135 176 213 254 309
#     4  11  21  33  54  82 110 139 173 217 263 308
#     4   9  19  36  57  82 112 145 179 213 254 308
#     4   8  14  27  48  73 100 128 160 203 256 311
#     4   9  17  31  53  78 104 137 176 215 257 311
#
# _framework density 18.169011000000001
#
# number of rings (size 3 to 8) (size 9 to 14) (size 15 to 20)
#    0.000    2.500    1.667    2.500    0.000    3.667 
#    0.000    4.167    0.000    1.000    0.000    4.667 
#    0.000    0.000    0.000    0.000    0.000    0.000 
#
# Total GULP energy -267747.105130 kJ/mol
# GULP energy per Si atom -5578.064690 kJ/mol
# Density = 1.812766 g / cm^3
# Si number density = 18.169011 Si / 1000 Ang^3
#
#
#
# Elastic Constant Matrix: (Units=GPa)
#
#
# Indices 1 2 3 4 5 6 
#
# 1 144.4302 84.2184 19.4993 0.0000 0.0000 0.0000
# 2 84.2184 119.3337 17.9989 0.0000 0.0000 0.0000
# 3 19.4993 17.9989 9.9542 0.0000 0.0000 0.0000
# 4 0.0000 0.0000 0.0000 18.6229 0.0000 0.0000
# 5 0.0000 0.0000 0.0000 0.0000 11.0788 0.0000
# 6 0.0000 0.0000 0.0000 0.0000 0.0000 20.9105
#
#
#
# Elastic Compliance Matrix: (Units=1/GPa)
#
#
# Indices 1 2 3 4 5 6 
#
# 1 0.012721 -0.007176 -0.011943 0.000000 0.000000 0.000000
# 2 -0.007176 0.015571 -0.014097 0.000000 0.000000 0.000000
# 3 -0.011943 -0.014097 0.149345 0.000000 0.000000 0.000000
# 4 0.000000 0.000000 0.000000 0.053697 0.000000 0.000000
# 5 0.000000 0.000000 0.000000 0.000000 0.090263 0.000000
# 6 0.000000 0.000000 0.000000 0.000000 0.000000 0.047823
#
#
# Mechanical properties :
#
#
# Convention : Reuss Voigt Hill
#
# Bulk Modulus (GPa) = 8.99246 57.46125 33.22685
# Shear Modulus (GPa) = 10.57264 20.25586 15.41425
#
# Velocity S-wave (km/s) = 2.41489 3.34257 2.91586
# Velocity P-wave (km/s) = 3.56871 6.82581 5.44644
#
# Compressibility (1/GPa) = 0.11120426
#
# Stress axis : x y z
#
# Youngs Moduli (GPa) = 78.61287 64.22373 6.69591
#
# Poissons Ratio (x) = 0.46088 0.07997
# Poissons Ratio (y) = 0.56413 0.09439
# Poissons Ratio (z) = 0.93885 0.90537
#
# Static dielectric constant tensor:
#      x y z
#    x 1.628130 0.000000 0.000000 
#    y 0.000000 1.605860 0.000000 
#    z 0.000000 0.000000 1.635050 
# 
# From -- ./inp_files/6326.got.cif
#   From: 2010.05.17/outbox.cif.g08.bks.cpg/sg47_4_cif.got.tgz:6326.got - 2010.06.03 20:15:42.
