data_PCOD9385867
_publ_section_title
;
Structure prediction by ZEFSAII (Michael W. Deem and Ramdas Pophale) SiO2 
 PCOD9385867
Probable space group: P M M M
;
_chemical_formula_sum "Si O2"
_cell_formula_units_Z 52
_cell_length_a 14.377370
_cell_length_b 23.627752
_cell_length_c 9.025699
_cell_angle_alpha 90.000000
_cell_angle_beta 90.000000
_cell_angle_gamma 90.000000
_cell_volume 3066.074472
_symmetry_space_group_name_H-M "P M M M"
_symmetry_group_IT_number 47
_symmetry_cell_setting 'orthorhombic'
loop_
_space_group_symop_operation_xyz
x,y,z
-x,-y,z
x,-y,-z
-x,y,-z
-x,-y,-z
x,y,-z
-x,y,z
x,-y,z
loop_
_atom_site_type_symbol
_atom_site_label
_atom_site_fract_x
_atom_site_fract_y
_atom_site_fract_z
Si Si1 0.106703 0.764607 0.825141
Si Si2 0.612857 0.500000 0.329412
Si Si3 0.291997 0.936063 0.324219
Si Si4 0.611248 0.830435 0.172845
Si Si5 0.611097 0.617534 0.176451
Si Si6 0.893624 0.900566 0.175131
Si Si7 0.289097 0.724132 0.323675
O O1 0.116234 0.832591 0.805555
O O2 0.183310 0.732996 0.729519
O O3 0.000000 0.749959 0.788865
O O4 0.121761 0.753400 0.000000
O O5 0.500000 0.500000 0.330154
O O6 0.644189 0.500000 0.500000
O O7 0.640223 0.557288 0.245319
O O8 0.297794 0.926032 0.500000
O O9 0.350234 0.888878 0.238162
O O10 0.185585 0.929762 0.270497
O O11 0.324087 0.000000 0.293202
O O12 0.500000 0.828424 0.183127
O O13 0.655676 0.778547 0.261627
O O14 0.638337 0.825540 0.000000
O O15 0.500000 0.624788 0.202982
O O16 0.665811 0.668550 0.252091
O O17 0.625343 0.617758 0.000000
O O18 0.000000 0.915914 0.213266
O O19 0.880200 0.912594 0.000000
O O20 0.295317 0.721872 0.500000
#
# Coordination Sequence:
#
# PCOD9385867 Si02
#       7
#     8   4   8   8   8   8   8
#     4   9  18  34  56  80 107 139 174 214 262 318
#     4   9  17  31  51  77 112 149 186 231 277 315
#     4  11  24  39  55  78 106 135 169 213 267 324
#     4  11  24  41  59  77 100 134 177 222 266 316
#     4  10  20  34  53  78 111 153 195 228 262 312
#     4   9  18  34  57  81 104 134 171 211 258 315
#     4  12  23  34  54  84 114 142 175 220 272 320
#
# _framework density 16.959796999999998
#
# number of rings (size 3 to 8) (size 9 to 14) (size 15 to 20)
#    0.000    1.769    1.538    4.385    0.000    7.385 
#    0.000    4.615    0.000    0.000    0.000    0.538 
#    0.000    4.308    0.000    0.000    0.000    0.000 
#
# Total GULP energy -290497.594078 kJ/mol
# GULP energy per Si atom -5586.492194 kJ/mol
# Density = 1.692120 g / cm^3
# Si number density = 16.959797 Si / 1000 Ang^3
#
#
#
# Elastic Constant Matrix: (Units=GPa)
#
#
# Indices 1 2 3 4 5 6 
#
# 1 70.0550 51.0733 56.2089 0.0000 0.0000 0.0000
# 2 51.0733 118.6119 74.5969 0.0000 0.0000 0.0000
# 3 56.2089 74.5969 112.4672 0.0000 0.0000 0.0000
# 4 0.0000 0.0000 0.0000 32.8396 0.0000 0.0000
# 5 0.0000 0.0000 0.0000 0.0000 0.4485 0.0000
# 6 0.0000 0.0000 0.0000 0.0000 0.0000 25.0450
#
#
#
# Elastic Compliance Matrix: (Units=1/GPa)
#
#
# Indices 1 2 3 4 5 6 
#
# 1 0.025503 -0.005087 -0.009371 0.000000 0.000000 0.000000
# 2 -0.005087 0.015480 -0.007725 0.000000 0.000000 0.000000
# 3 -0.009371 -0.007725 0.018699 0.000000 0.000000 0.000000
# 4 0.000000 0.000000 0.000000 0.030451 0.000000 0.000000
# 5 0.000000 0.000000 0.000000 0.000000 2.229519 0.000000
# 6 0.000000 0.000000 0.000000 0.000000 0.000000 0.039928
#
#
# Mechanical properties :
#
#
# Convention : Reuss Voigt Hill
#
# Bulk Modulus (GPa) = 65.29957 73.87693 69.58825
# Shear Modulus (GPa) = 2.07551 19.61697 10.84624
#
# Velocity S-wave (km/s) = 1.10745 3.40468 2.53163
# Velocity P-wave (km/s) = 6.34203 7.68833 7.04740
#
# Compressibility (1/GPa) = 0.01531404
#
# Stress axis : x y z
#
# Youngs Moduli (GPa) = 39.21174 64.60100 53.47966
#
# Poissons Ratio (x) = 0.32865 0.50118
# Poissons Ratio (y) = 0.19949 0.41311
# Poissons Ratio (z) = 0.36747 0.49902
#
# Static dielectric constant tensor:
#      x y z
#    x 1.568310 0.000000 0.000000 
#    y 0.000000 1.555130 0.000000 
#    z 0.000000 0.000000 1.561960 
# 
# From -- ./inp_files/6928.got.cif
#   From: 2010.05.17/outbox.cif.g08.bks.cpg/sg47_4_cif.got.tgz:6928.got - 2010.06.03 20:15:42.
