data_PCOD9385186
_publ_section_title
;
Structure prediction by ZEFSAII (Michael W. Deem and Ramdas Pophale) SiO2 
 PCOD9385186
Probable space group: P M M M
;
_chemical_formula_sum "Si O2"
_cell_formula_units_Z 52
_cell_length_a 15.666909
_cell_length_b 21.286749
_cell_length_c 8.869287
_cell_angle_alpha 90.000000
_cell_angle_beta 90.000000
_cell_angle_gamma 90.000000
_cell_volume 2957.885569
_symmetry_space_group_name_H-M "P M M M"
_symmetry_group_IT_number 47
_symmetry_cell_setting 'orthorhombic'
loop_
_space_group_symop_operation_xyz
x,y,z
-x,-y,z
x,-y,-z
-x,y,-z
-x,-y,-z
x,y,-z
-x,y,z
x,-y,z
loop_
_atom_site_type_symbol
_atom_site_label
_atom_site_fract_x
_atom_site_fract_y
_atom_site_fract_z
Si Si1 0.593229 0.814914 0.177652
Si Si2 0.752091 0.595577 0.681702
Si Si3 0.837705 0.139695 0.180552
Si Si4 0.754878 0.732842 0.180995
Si Si5 0.099764 0.500000 0.683266
Si Si6 0.398281 0.500000 0.683318
Si Si7 0.000000 0.072935 0.680457
Si Si8 0.673857 0.072269 0.679583
O O1 0.500000 0.787051 0.196552
O O2 0.665729 0.766222 0.222852
O O3 0.601841 0.879188 0.269128
O O4 0.606480 0.829322 0.000000
O O5 0.750684 0.595458 0.500000
O O6 0.759356 0.665777 0.742293
O O7 0.838535 0.558171 0.727881
O O8 0.663974 0.559043 0.728221
O O9 0.823493 0.213070 0.221547
O O10 0.756910 0.099679 0.237295
O O11 0.918636 0.108797 0.256294
O O12 0.842595 0.136176 0.000000
O O13 0.757339 0.724932 0.000000
O O14 0.095897 0.500000 0.500000
O O15 0.000000 0.500000 0.735121
O O16 0.500000 0.500000 0.732165
O O17 0.401510 0.500000 0.500000
O O18 0.000000 0.073944 0.500000
O O19 0.000000 0.000000 0.729093
O O20 0.686523 0.075327 0.500000
O O21 0.657765 0.000000 0.720751
#
# Coordination Sequence:
#
# PCOD9385186 Si02
#       8
#     8   8   8   8   4   4   4   8
#     4   9  19  35  52  70  95 132 176 213 250 307
#     4   9  17  30  52  77  99 132 173 209 250 305
#     4  10  21  37  55  74 100 138 178 210 252 315
#     4   9  19  35  52  72 103 137 166 209 259 299
#     4   8  15  31  52  74 102 130 164 208 246 290
#     4   8  15  29  48  74 108 138 168 212 259 305
#     4  11  23  37  55  81 109 132 163 218 277 317
#     4  10  20  33  50  73 101 130 163 212 269 313
#
# _framework density 17.580124999999999
#
# number of rings (size 3 to 8) (size 9 to 14) (size 15 to 20)
#    0.000    2.692    0.000    3.462    0.000    8.000 
#    1.385    3.077    0.000    0.923    0.000    0.000 
#    0.000    0.000    0.000    0.000    0.000    0.000 
#
# Total GULP energy -289594.158245 kJ/mol
# GULP energy per Si atom -5569.118428 kJ/mol
# Density = 1.754011 g / cm^3
# Si number density = 17.580125 Si / 1000 Ang^3
#
#
#
# Elastic Constant Matrix: (Units=GPa)
#
#
# Indices 1 2 3 4 5 6 
#
# 1 137.6561 72.2614 26.1995 0.0000 0.0000 0.0000
# 2 72.2614 170.0850 41.3466 0.0000 0.0000 0.0000
# 3 26.1995 41.3466 24.6660 0.0000 0.0000 0.0000
# 4 0.0000 0.0000 0.0000 46.5891 0.0000 0.0000
# 5 0.0000 0.0000 0.0000 0.0000 24.3319 0.0000
# 6 0.0000 0.0000 0.0000 0.0000 0.0000 4.6690
#
#
#
# Elastic Compliance Matrix: (Units=1/GPa)
#
#
# Indices 1 2 3 4 5 6 
#
# 1 0.009818 -0.002761 -0.005799 0.000000 0.000000 0.000000
# 2 -0.002761 0.010700 -0.015002 0.000000 0.000000 0.000000
# 3 -0.005799 -0.015002 0.071849 0.000000 0.000000 0.000000
# 4 0.000000 0.000000 0.000000 0.021464 0.000000 0.000000
# 5 0.000000 0.000000 0.000000 0.000000 0.041098 0.000000
# 6 0.000000 0.000000 0.000000 0.000000 0.000000 0.214178
#
#
# Mechanical properties :
#
#
# Convention : Reuss Voigt Hill
#
# Bulk Modulus (GPa) = 22.10406 68.00246 45.05326
# Shear Modulus (GPa) = 11.59252 27.95798 19.77525
#
# Velocity S-wave (km/s) = 2.57068 3.99220 3.35754
# Velocity P-wave (km/s) = 4.62729 7.74698 6.38073
#
# Compressibility (1/GPa) = 0.04524056
#
# Stress axis : x y z
#
# Youngs Moduli (GPa) = 101.85583 93.46229 13.91806
#
# Poissons Ratio (x) = 0.25808 0.08072
# Poissons Ratio (y) = 0.28126 0.20880
# Poissons Ratio (z) = 0.59071 1.40213
#
# Static dielectric constant tensor:
#      x y z
#    x 0.706340 0.000000 0.000000 
#    y 0.000000 1.584690 0.000000 
#    z 0.000000 0.000000 1.590790 
# 
# From -- ./inp_files/7174.got.cif
#   From: 2010.05.17/outbox.cif.g08.bks.cpg/sg47_4_cif.got.tgz:7174.got - 2010.06.03 20:15:42.
