data_PCOD9385517
_publ_section_title
;
Structure prediction by ZEFSAII (Michael W. Deem and Ramdas Pophale) SiO2 
 PCOD9385517
Probable space group: P M M M
;
_chemical_formula_sum "Si O2"
_cell_formula_units_Z 44
_cell_length_a 10.460684
_cell_length_b 9.063150
_cell_length_c 26.201508
_cell_angle_alpha 90.000000
_cell_angle_beta 90.000000
_cell_angle_gamma 90.000000
_cell_volume 2484.079771
_symmetry_space_group_name_H-M "P M M M"
_symmetry_group_IT_number 47
_symmetry_cell_setting 'orthorhombic'
loop_
_space_group_symop_operation_xyz
x,y,z
-x,-y,z
x,-y,-z
-x,y,-z
-x,-y,-z
x,y,-z
-x,y,z
x,-y,z
loop_
_atom_site_type_symbol
_atom_site_label
_atom_site_fract_x
_atom_site_fract_y
_atom_site_fract_z
Si Si1 0.351568 0.164070 0.843448
Si Si2 0.000000 0.167143 0.938825
Si Si3 0.151116 0.176363 0.661727
Si Si4 0.154700 0.329713 0.556713
Si Si5 0.264695 0.676353 0.940788
Si Si6 0.347407 0.676530 0.740740
O O1 0.500000 0.146146 0.831905
O O2 0.346209 0.244973 0.897678
O O3 0.304293 0.261657 0.796222
O O4 0.292278 0.000000 0.845969
O O5 0.875564 0.262161 0.927372
O O6 0.000000 0.000000 0.917721
O O7 0.000000 0.152286 0.000000
O O8 0.187579 0.228487 0.604539
O O9 0.251190 0.252006 0.699984
O O10 0.000000 0.217596 0.670437
O O11 0.159232 0.000000 0.666184
O O12 0.199151 0.283574 0.500000
O O13 0.194911 0.500000 0.565347
O O14 0.000000 0.330469 0.554911
O O15 0.271154 0.500000 0.937094
O O16 0.294239 0.715896 0.000000
O O17 0.500000 0.710700 0.731911
O O18 0.336543 0.500000 0.740013
#
# Coordination Sequence:
#
# PCOD9385517 Si02
#       6
#     8   4   8   8   8   8
#     4  10  21  37  56  77 102 132 168 212 260 311
#     4   9  17  31  51  73  99 131 165 201 244 297
#     4  10  20  33  52  81 114 144 178 222 268 316
#     4   8  14  26  46  73 106 144 182 219 263 314
#     4  10  20  34  53  77 105 135 168 207 252 306
#     4  10  21  38  59  79 102 138 182 224 270 325
#
# _framework density 17.712796999999998
#
# number of rings (size 3 to 8) (size 9 to 14) (size 15 to 20)
#    0.000    2.455    0.000    3.000    0.000    6.182 
#    1.636    3.636    0.000    0.545    0.000    3.818 
#    0.000    0.000    0.000    0.000    0.000    0.000 
#
# Total GULP energy -244942.607494 kJ/mol
# GULP energy per Si atom -5566.877443 kJ/mol
# Density = 1.767248 g / cm^3
# Si number density = 17.712797 Si / 1000 Ang^3
#
#
#
# Elastic Constant Matrix: (Units=GPa)
#
#
# Indices 1 2 3 4 5 6 
#
# 1 49.5831 39.7912 46.2672 0.0000 0.0000 0.0000
# 2 39.7912 104.2861 75.6763 0.0000 0.0000 0.0000
# 3 46.2672 75.6763 137.6539 0.0000 0.0000 0.0000
# 4 0.0000 0.0000 0.0000 24.9304 0.0000 0.0000
# 5 0.0000 0.0000 0.0000 0.0000 37.5884 0.0000
# 6 0.0000 0.0000 0.0000 0.0000 0.0000 30.7445
#
#
#
# Elastic Compliance Matrix: (Units=1/GPa)
#
#
# Indices 1 2 3 4 5 6 
#
# 1 0.032526 -0.007449 -0.006837 0.000000 0.000000 0.000000
# 2 -0.007449 0.017659 -0.007205 0.000000 0.000000 0.000000
# 3 -0.006837 -0.007205 0.013524 0.000000 0.000000 0.000000
# 4 0.000000 0.000000 0.000000 0.040112 0.000000 0.000000
# 5 0.000000 0.000000 0.000000 0.000000 0.026604 0.000000
# 6 0.000000 0.000000 0.000000 0.000000 0.000000 0.032526
#
#
# Mechanical properties :
#
#
# Convention : Reuss Voigt Hill
#
# Bulk Modulus (GPa) = 48.24613 68.33251 58.28932
# Shear Modulus (GPa) = 23.49160 27.30520 25.39840
#
# Velocity S-wave (km/s) = 3.64572 3.93052 3.79080
# Velocity P-wave (km/s) = 6.70961 7.69808 7.22078
#
# Compressibility (1/GPa) = 0.02072705
#
# Stress axis : x y z
#
# Youngs Moduli (GPa) = 30.74451 56.62704 73.94523
#
# Poissons Ratio (x) = 0.42182 0.50558
# Poissons Ratio (y) = 0.22902 0.53275
# Poissons Ratio (z) = 0.21021 0.40798
#
# Static dielectric constant tensor:
#      x y z
#    x 1.690600 0.000000 0.000000 
#    y 0.000000 1.615550 0.000000 
#    z 0.000000 0.000000 1.604340 
# 
# From -- ./inp_files/32368.got.cif
#   From: 2010.05.17/outbox.cif.g08.bks.cpg/sg47_17_cif.got.tgz:32368.got - 2010.06.03 20:15:42.
