data_PCOD9385510
_publ_section_title
;
Structure prediction by ZEFSAII (Michael W. Deem and Ramdas Pophale) SiO2 
 PCOD9385510
Probable space group: P M M M
;
_chemical_formula_sum "Si O2"
_cell_formula_units_Z 64
_cell_length_a 8.790885
_cell_length_b 21.160021
_cell_length_c 20.034816
_cell_angle_alpha 90.000000
_cell_angle_beta 90.000000
_cell_angle_gamma 90.000000
_cell_volume 3726.782533
_symmetry_space_group_name_H-M "P M M M"
_symmetry_group_IT_number 47
_symmetry_cell_setting 'orthorhombic'
loop_
_space_group_symop_operation_xyz
x,y,z
-x,-y,z
x,-y,-z
-x,y,-z
-x,-y,-z
x,y,-z
-x,y,z
x,-y,z
loop_
_atom_site_type_symbol
_atom_site_label
_atom_site_fract_x
_atom_site_fract_y
_atom_site_fract_z
Si Si1 0.180910 0.249673 0.425158
Si Si2 0.819100 0.429322 0.288667
Si Si3 0.680845 0.311989 0.790313
Si Si4 0.181727 0.808972 0.286418
Si Si5 0.681117 0.388588 0.575571
Si Si6 0.683517 0.070791 0.213421
Si Si7 0.682583 0.869292 0.074597
Si Si8 0.818476 0.270777 0.075997
O O1 0.208215 0.224567 0.500000
O O2 0.218023 0.203603 0.364252
O O3 0.273009 0.314794 0.418111
O O4 0.000000 0.264814 0.420067
O O5 0.782902 0.500000 0.264265
O O6 0.737388 0.374184 0.247800
O O7 0.766897 0.423742 0.365428
O O8 0.000000 0.419637 0.284752
O O9 0.500000 0.307630 0.787631
O O10 0.750774 0.250221 0.754382
O O11 0.738344 0.310432 0.866383
O O12 0.247759 0.873935 0.258304
O O13 0.000000 0.808660 0.278359
O O14 0.721933 0.408437 0.500000
O O15 0.500000 0.395684 0.583560
O O16 0.500000 0.073421 0.218291
O O17 0.723351 0.086176 0.136253
O O18 0.733315 0.000000 0.231177
O O19 0.500000 0.858992 0.077444
O O20 0.763049 0.801715 0.083254
O O21 0.718520 0.893439 0.000000
O O22 0.000000 0.273286 0.084440
O O23 0.781136 0.290221 0.000000
#
# Coordination Sequence:
#
# PCOD9385510 Si02
#       8
#     8   8   8   8   8   8   8   8
#     4   9  18  33  54  79 107 139 178 227 277 325
#     4  11  24  40  57  79 110 149 190 230 275 327
#     4  12  23  36  58  84 112 145 182 227 276 327
#     4  11  21  34  56  82 108 141 183 228 276 330
#     4  10  20  33  52  80 113 148 185 225 270 323
#     4  10  21  35  51  75 109 148 187 228 276 328
#     4   9  17  30  49  74 106 144 183 221 265 318
#     4  10  20  34  55  83 113 143 179 225 272 320
#
# _framework density 17.172989999999999
#
# number of rings (size 3 to 8) (size 9 to 14) (size 15 to 20)
#    0.000    1.750    2.500    2.625    0.000    3.750 
#    0.000    2.500    0.000    0.750    0.000    7.875 
#    0.000    0.000    0.000    0.000    0.000    0.000 
#
# Total GULP energy -357306.470025 kJ/mol
# GULP energy per Si atom -5582.913594 kJ/mol
# Density = 1.713390 g / cm^3
# Si number density = 17.172990 Si / 1000 Ang^3
#
#
#
# Elastic Constant Matrix: (Units=GPa)
#
#
# Indices 1 2 3 4 5 6 
#
# 1 45.3915 38.4118 41.6264 0.0000 0.0000 0.0000
# 2 38.4118 101.3644 62.4758 0.0000 0.0000 0.0000
# 3 41.6264 62.4758 109.8729 0.0000 0.0000 0.0000
# 4 0.0000 0.0000 0.0000 19.2028 0.0000 0.0000
# 5 0.0000 0.0000 0.0000 0.0000 27.6500 0.0000
# 6 0.0000 0.0000 0.0000 0.0000 0.0000 23.5603
#
#
#
# Elastic Compliance Matrix: (Units=1/GPa)
#
#
# Indices 1 2 3 4 5 6 
#
# 1 0.037994 -0.008507 -0.009557 0.000000 0.000000 0.000000
# 2 -0.008507 0.017093 -0.006496 0.000000 0.000000 0.000000
# 3 -0.009557 -0.006496 0.016416 0.000000 0.000000 0.000000
# 4 0.000000 0.000000 0.000000 0.052076 0.000000 0.000000
# 5 0.000000 0.000000 0.000000 0.000000 0.036166 0.000000
# 6 0.000000 0.000000 0.000000 0.000000 0.000000 0.042444
#
#
# Mechanical properties :
#
#
# Convention : Reuss Voigt Hill
#
# Bulk Modulus (GPa) = 44.67890 60.18410 52.43150
# Shear Modulus (GPa) = 19.32202 21.69028 20.50615
#
# Velocity S-wave (km/s) = 3.35795 3.55779 3.45931
# Velocity P-wave (km/s) = 6.41154 7.21104 6.82301
#
# Compressibility (1/GPa) = 0.02238193
#
# Stress axis : x y z
#
# Youngs Moduli (GPa) = 26.31998 58.50242 60.91541
#
# Poissons Ratio (x) = 0.49770 0.58217
# Poissons Ratio (y) = 0.22391 0.39574
# Poissons Ratio (z) = 0.25154 0.38006
#
# Static dielectric constant tensor:
#      x y z
#    x 1.574870 0.000000 0.000000 
#    y 0.000000 1.555370 0.000000 
#    z 0.000000 0.000000 1.603850 
# 
# From -- ./inp_files/30021.got.cif
#   From: 2010.05.17/outbox.cif.g08.bks.cpg/sg47_16_cif.got.tgz:30021.got - 2010.06.03 20:15:42.
