data_PCOD9385222
_publ_section_title
;
Structure prediction by ZEFSAII (Michael W. Deem and Ramdas Pophale) SiO2 
 PCOD9385222
Probable space group: P M M M
;
_chemical_formula_sum "Si O2"
_cell_formula_units_Z 48
_cell_length_a 8.013010
_cell_length_b 32.310431
_cell_length_c 9.435624
_cell_angle_alpha 90.000000
_cell_angle_beta 90.000000
_cell_angle_gamma 90.000000
_cell_volume 2442.918972
_symmetry_space_group_name_H-M "P M M M"
_symmetry_group_IT_number 47
_symmetry_cell_setting 'orthorhombic'
loop_
_space_group_symop_operation_xyz
x,y,z
-x,-y,z
x,-y,-z
-x,y,-z
-x,-y,-z
x,y,-z
-x,y,z
x,-y,z
loop_
_atom_site_type_symbol
_atom_site_label
_atom_site_fract_x
_atom_site_fract_y
_atom_site_fract_z
Si Si1 0.300896 0.169298 0.838874
Si Si2 0.300269 0.661077 0.339137
Si Si3 0.805173 0.000000 0.327043
Si Si4 0.198211 0.259719 0.837390
Si Si5 0.201699 0.910496 0.337634
Si Si6 0.295636 0.581472 0.836338
Si Si7 0.703917 0.500000 0.336277
O O1 0.500000 0.171085 0.842549
O O2 0.238890 0.213615 0.783318
O O3 0.249661 0.129250 0.751574
O O4 0.236019 0.165501 0.000000
O O5 0.234188 0.660362 0.500000
O O6 0.500000 0.656095 0.347794
O O7 0.266321 0.704162 0.261062
O O8 0.238016 0.622840 0.244069
O O9 0.734197 0.044641 0.283277
O O10 0.801969 0.000000 0.500000
O O11 0.000000 0.000000 0.284084
O O12 0.000000 0.264151 0.843105
O O13 0.264197 0.263053 0.000000
O O14 0.258658 0.905394 0.500000
O O15 0.000000 0.913199 0.339954
O O16 0.500000 0.581691 0.837791
O O17 0.243999 0.540997 0.748466
O O18 0.241602 0.580299 0.000000
O O19 0.500000 0.500000 0.338104
O O20 0.758655 0.500000 0.500000
#
# Coordination Sequence:
#
# PCOD9385222 Si02
#       7
#     8   8   4   8   8   8   4
#     4  10  21  36  53  74 102 135 168 204 250 302
#     4  10  20  33  50  74 103 133 165 204 252 302
#     4   7  12  26  48  73 100 130 166 207 248 291
#     4  10  21  37  56  75  95 125 166 208 250 299
#     4   9  17  31  53  78 102 131 169 211 252 295
#     4   9  16  26  42  65  95 132 171 208 248 296
#     4   9  15  23  37  61  96 133 168 209 254 297
#
# _framework density 19.648626
#
# number of rings (size 3 to 8) (size 9 to 14) (size 15 to 20)
#    0.000    2.667    0.000    3.250    0.000    7.000 
#    0.000    0.833    0.000    4.000    0.000    0.583 
#    0.000    4.667    0.000    0.000    0.000    0.000 
#
# Total GULP energy -267741.321508 kJ/mol
# GULP energy per Si atom -5577.944198 kJ/mol
# Density = 1.960390 g / cm^3
# Si number density = 19.648626 Si / 1000 Ang^3
#
#
#
# Elastic Constant Matrix: (Units=GPa)
#
#
# Indices 1 2 3 4 5 6 
#
# 1 13.9044 2.8135 7.8394 0.0000 0.0000 0.0000
# 2 2.8135 214.3176 113.2308 0.0000 0.0000 0.0000
# 3 7.8394 113.2308 130.6453 0.0000 0.0000 0.0000
# 4 0.0000 0.0000 0.0000 38.1290 0.0000 0.0000
# 5 0.0000 0.0000 0.0000 0.0000 14.0835 0.0000
# 6 0.0000 0.0000 0.0000 0.0000 0.0000 25.6251
#
#
#
# Elastic Compliance Matrix: (Units=1/GPa)
#
#
# Indices 1 2 3 4 5 6 
#
# 1 0.075202 0.002577 -0.006746 0.000000 0.000000 0.000000
# 2 0.002577 0.008696 -0.007691 0.000000 0.000000 0.000000
# 3 -0.006746 -0.007691 0.014725 0.000000 0.000000 0.000000
# 4 0.000000 0.000000 0.000000 0.026227 0.000000 0.000000
# 5 0.000000 0.000000 0.000000 0.000000 0.071005 0.000000
# 6 0.000000 0.000000 0.000000 0.000000 0.000000 0.039024
#
#
# Mechanical properties :
#
#
# Convention : Reuss Voigt Hill
#
# Bulk Modulus (GPa) = 13.35079 67.40384 40.37732
# Shear Modulus (GPa) = 17.63257 31.23308 24.43282
#
# Velocity S-wave (km/s) = 2.99890 3.99128 3.53014
# Velocity P-wave (km/s) = 4.33598 7.45785 6.10001
#
# Compressibility (1/GPa) = 0.07490194
#
# Stress axis : x y z
#
# Youngs Moduli (GPa) = 13.29760 115.00027 67.91144
#
# Poissons Ratio (x) = -0.29633 0.45812
# Poissons Ratio (y) = -0.03427 0.52232
# Poissons Ratio (z) = 0.08970 0.88449
#
# Static dielectric constant tensor:
#      x y z
#    x 1.715710 0.000000 0.000000 
#    y 0.000000 1.683020 0.000000 
#    z 0.000000 0.000000 1.682530 
# 
# From -- ./inp_files/2766.got.cif
#   From: 2010.05.17/outbox.cif.g08.bks.cpg/sg47_2_cif.got.tgz:2766.got - 2010.06.03 20:15:42.
