data_PCOD9385148
_publ_section_title
;
Structure prediction by ZEFSAII (Michael W. Deem and Ramdas Pophale) SiO2 
 PCOD9385148
Probable space group: P M M M
;
_chemical_formula_sum "Si O2"
_cell_formula_units_Z 53
_cell_length_a 8.239112
_cell_length_b 14.635179
_cell_length_c 27.546197
_cell_angle_alpha 90.000000
_cell_angle_beta 90.000000
_cell_angle_gamma 90.000000
_cell_volume 3321.544645
_symmetry_space_group_name_H-M "P M M M"
_symmetry_group_IT_number 47
_symmetry_cell_setting 'orthorhombic'
loop_
_space_group_symop_operation_xyz
x,y,z
-x,-y,z
x,-y,-z
-x,y,-z
-x,-y,-z
x,y,-z
-x,y,z
x,-y,z
loop_
_atom_site_type_symbol
_atom_site_label
_atom_site_fract_x
_atom_site_fract_y
_atom_site_fract_z
Si Si1 0.803914 0.604191 0.647719
Si Si2 0.806199 0.289130 0.446727
Si Si3 0.692552 0.102929 0.594929
Si Si4 0.000000 0.601400 0.899503
Si Si5 0.000000 0.500000 0.000000
Si Si6 0.806751 0.897126 0.295118
Si Si7 0.687780 0.389261 0.157321
Si Si8 0.693022 0.287568 0.742664
O O1 0.746321 0.500000 0.651109
O O2 0.741867 0.652775 0.598734
O O3 0.757349 0.660401 0.695287
O O4 0.000000 0.603287 0.645411
O O5 0.740727 0.313293 0.500000
O O6 0.773855 0.183180 0.435213
O O7 0.000000 0.303198 0.447848
O O8 0.500000 0.106432 0.586917
O O9 0.727103 0.118688 0.652096
O O10 0.750447 0.000000 0.583552
O O11 0.171836 0.640250 0.880749
O O12 0.000000 0.500000 0.875645
O O13 0.000000 0.578638 0.956490
O O14 0.758213 0.815687 0.259574
O O15 0.000000 0.894296 0.302346
O O16 0.761638 0.000000 0.279190
O O17 0.500000 0.363305 0.144873
O O18 0.685146 0.500000 0.161537
O O19 0.732750 0.343236 0.208621
O O20 0.500000 0.283939 0.739272
#
# Coordination Sequence:
#
# PCOD9385148 Si02
#       8
#     8   8   8   4   1   8   8   8
#     4  10  21  35  51  71  92 119 160 198 244 306
#     4  10  21  36  52  69  90 117 150 194 245 301
#     4  10  20  34  52  72  93 117 146 187 240 298
#     4   8  16  30  48  70 105 141 184 229 251 294
#     4   8  16  32  50  80 104 150 206 224 268 296
#     4  10  20  33  50  72  97 125 160 197 242 305
#     4   9  18  31  46  71 105 141 180 218 259 299
#     4  11  21  32  50  74 100 131 165 204 251 302
#
# _framework density 15.956431
#
# number of rings (size 3 to 8) (size 9 to 14) (size 15 to 20)
#    0.226    1.962    1.509    1.811    2.113    3.623 
#    0.000    3.774    0.000    0.000    0.000    2.113 
#    0.000    0.000    0.000    1.358    0.000    5.736 
#
# Total GULP energy -295037.001408 kJ/mol
# GULP energy per Si atom -5566.735876 kJ/mol
# Density = 1.592011 g / cm^3
# Si number density = 15.956431 Si / 1000 Ang^3
#
#
#
# Elastic Constant Matrix: (Units=GPa)
#
#
# Indices 1 2 3 4 5 6 
#
# 1 37.0906 15.9957 41.5204 0.0000 0.0000 0.0000
# 2 15.9957 70.0107 38.1364 0.0000 0.0000 0.0000
# 3 41.5204 38.1364 103.7196 0.0000 0.0000 0.0000
# 4 0.0000 0.0000 0.0000 8.8980 0.0000 0.0000
# 5 0.0000 0.0000 0.0000 0.0000 16.7951 0.0000
# 6 0.0000 0.0000 0.0000 0.0000 0.0000 14.9298
#
#
#
# Elastic Compliance Matrix: (Units=1/GPa)
#
#
# Indices 1 2 3 4 5 6 
#
# 1 0.048876 -0.000637 -0.019332 0.000000 0.000000 0.000000
# 2 -0.000637 0.017869 -0.006315 0.000000 0.000000 0.000000
# 3 -0.019332 -0.006315 0.019702 0.000000 0.000000 0.000000
# 4 0.000000 0.000000 0.000000 0.112385 0.000000 0.000000
# 5 0.000000 0.000000 0.000000 0.000000 0.059541 0.000000
# 6 0.000000 0.000000 0.000000 0.000000 0.000000 0.066980
#
#
# Mechanical properties :
#
#
# Convention : Reuss Voigt Hill
#
# Bulk Modulus (GPa) = 29.51586 44.68064 37.09825
# Shear Modulus (GPa) = 12.84640 15.80249 14.32445
#
# Velocity S-wave (km/s) = 2.84049 3.15040 2.99945
# Velocity P-wave (km/s) = 5.41256 6.42618 5.94103
#
# Compressibility (1/GPa) = 0.03388009
#
# Stress axis : x y z
#
# Youngs Moduli (GPa) = 20.45989 55.96249 50.75563
#
# Poissons Ratio (x) = 0.03562 0.98119
# Poissons Ratio (y) = 0.01302 0.32054
# Poissons Ratio (z) = 0.39553 0.35343
#
# Static dielectric constant tensor:
#      x y z
#    x 1.575330 0.000000 0.000000 
#    y 0.000000 1.560490 0.000000 
#    z 0.000000 0.000000 1.509130 
# 
# From -- ./inp_files/33429.got.cif
#   From: 2010.05.17/outbox.cif.g08.bks.cpg/sg47_17_cif.got.tgz:33429.got - 2010.06.03 20:15:42.
