data_PCOD9385187
_publ_section_title
;
Structure prediction by ZEFSAII (Michael W. Deem and Ramdas Pophale) SiO2 
 PCOD9385187
Probable space group: P M M M
;
_chemical_formula_sum "Si O2"
_cell_formula_units_Z 40
_cell_length_a 9.478016
_cell_length_b 7.915518
_cell_length_c 28.771605
_cell_angle_alpha 90.000000
_cell_angle_beta 90.000000
_cell_angle_gamma 90.000000
_cell_volume 2158.543810
_symmetry_space_group_name_H-M "P M M M"
_symmetry_group_IT_number 47
_symmetry_cell_setting 'orthorhombic'
loop_
_space_group_symop_operation_xyz
x,y,z
-x,-y,z
x,-y,-z
-x,y,-z
-x,-y,-z
x,y,-z
-x,y,z
x,-y,z
loop_
_atom_site_type_symbol
_atom_site_label
_atom_site_fract_x
_atom_site_fract_y
_atom_site_fract_z
Si Si1 0.328044 0.805896 0.118980
Si Si2 0.338615 0.299394 0.399716
Si Si3 0.672279 0.500000 0.946511
Si Si4 0.338221 0.206119 0.776713
Si Si5 0.338451 0.201238 0.500000
Si Si6 0.841055 0.202336 0.689364
O O1 0.500000 0.808933 0.119238
O O2 0.283060 0.668142 0.081293
O O3 0.287619 0.751283 0.171330
O O4 0.282275 0.000000 0.110352
O O5 0.500000 0.230353 0.397204
O O6 0.346495 0.500000 0.396033
O O7 0.277078 0.256802 0.450640
O O8 0.246114 0.235180 0.357293
O O9 0.500000 0.500000 0.946355
O O10 0.717999 0.500000 0.000000
O O11 0.500000 0.263551 0.770586
O O12 0.241973 0.267455 0.734612
O O13 0.341259 0.000000 0.775731
O O14 0.500000 0.270128 0.500000
O O15 0.343306 0.000000 0.500000
O O16 0.000000 0.269511 0.686271
O O17 0.849298 0.000000 0.694808
#
# Coordination Sequence:
#
# PCOD9385187 Si02
#       6
#     8   8   4   8   4   8
#     4   8  14  25  40  59  86 122 161 200 244 293
#     4  10  20  34  52  75 102 131 163 199 242 292
#     4   9  16  24  36  60  93 125 157 196 243 296
#     4   8  14  27  47  67  90 124 163 201 242 289
#     4   9  17  31  54  79  98 121 158 204 246 285
#     4  10  20  33  50  73 101 131 163 203 250 299
#
# _framework density 18.531012
#
# number of rings (size 3 to 8) (size 9 to 14) (size 15 to 20)
#    0.000    3.000    0.000    2.700    0.000    4.000 
#    1.800    2.500    0.000    3.000    0.000    0.000 
#    0.000    1.600    0.000    7.800    0.000    8.000 
#
# Total GULP energy -222892.130990 kJ/mol
# GULP energy per Si atom -5572.303275 kJ/mol
# Density = 1.848883 g / cm^3
# Si number density = 18.531012 Si / 1000 Ang^3
#
#
#
# Elastic Constant Matrix: (Units=GPa)
#
#
# Indices 1 2 3 4 5 6 
#
# 1 54.5781 18.5772 64.2906 0.0000 0.0000 0.0000
# 2 18.5772 52.9771 49.7573 0.0000 0.0000 0.0000
# 3 64.2906 49.7573 203.7771 0.0000 0.0000 0.0000
# 4 0.0000 0.0000 0.0000 61.3113 0.0000 0.0000
# 5 0.0000 0.0000 0.0000 0.0000 -3.2728 0.0000
# 6 0.0000 0.0000 0.0000 0.0000 0.0000 7.3291
#
#
#
# Elastic Compliance Matrix: (Units=1/GPa)
#
#
# Indices 1 2 3 4 5 6 
#
# 1 0.029333 -0.002068 -0.008749 0.000000 0.000000 0.000000
# 2 -0.002068 0.024639 -0.005364 0.000000 0.000000 0.000000
# 3 -0.008749 -0.005364 0.008977 0.000000 0.000000 0.000000
# 4 0.000000 0.000000 0.000000 0.016310 0.000000 0.000000
# 5 0.000000 0.000000 0.000000 0.000000 -0.305548 0.000000
# 6 0.000000 0.000000 0.000000 0.000000 0.000000 0.136443
#
#
# Mechanical properties :
#
#
# Convention : Reuss Voigt Hill
#
# Bulk Modulus (GPa) = 32.69430 64.06473 48.37951
# Shear Modulus (GPa) = -105.73518 24.98732 -40.37393
#
# Velocity S-wave (km/s) = -7.56190 3.67605 -4.67274
# Velocity P-wave (km/s) = 7.65257 7.25703 1.71718
#
# Compressibility (1/GPa) = 0.03058637
#
# Stress axis : x y z
#
# Youngs Moduli (GPa) = 34.09170 40.58592 111.39157
#
# Poissons Ratio (x) = 0.08395 0.97459
# Poissons Ratio (y) = 0.07052 0.59747
# Poissons Ratio (z) = 0.29828 0.21769
#
# Static dielectric constant tensor:
#      x y z
#    x 1.625600 0.000000 0.000000 
#    y 0.000000 1.657500 0.000000 
#    z 0.000000 0.000000 1.642740 
# 
# From -- ./inp_files/1745.got.cif
#   From: 2010.05.17/outbox.cif.g08.bks.cpg/sg47_1_cif.got.tgz:1745.got - 2010.06.03 20:15:42.
