data_PCOD9385167
_publ_section_title
;
Structure prediction by ZEFSAII (Michael W. Deem and Ramdas Pophale) SiO2 
 PCOD9385167
Probable space group: P M M M
;
_chemical_formula_sum "Si O2"
_cell_formula_units_Z 48
_cell_length_a 7.502640
_cell_length_b 13.359163
_cell_length_c 18.940961
_cell_angle_alpha 90.000000
_cell_angle_beta 90.000000
_cell_angle_gamma 90.000000
_cell_volume 1898.433404
_symmetry_space_group_name_H-M "P M M M"
_symmetry_group_IT_number 47
_symmetry_cell_setting 'orthorhombic'
loop_
_space_group_symop_operation_xyz
x,y,z
-x,-y,z
x,-y,-z
-x,y,-z
-x,-y,-z
x,y,-z
-x,y,z
x,-y,z
loop_
_atom_site_type_symbol
_atom_site_label
_atom_site_fract_x
_atom_site_fract_y
_atom_site_fract_z
Si Si1 0.785402 0.326906 0.920843
Si Si2 0.292893 0.892002 0.730311
Si Si3 0.288062 0.672211 0.768347
Si Si4 0.795104 0.893991 0.084465
Si Si5 0.216644 0.825864 0.576819
Si Si6 0.793071 0.606736 0.614562
O O1 0.747598 0.375971 0.845087
O O2 0.710503 0.214724 0.906695
O O3 0.000000 0.321176 0.925754
O O4 0.726275 0.361147 0.000000
O O5 0.500000 0.893956 0.751686
O O6 0.217552 0.787743 0.761066
O O7 0.283849 0.881217 0.645872
O O8 0.211165 0.000000 0.748068
O O9 0.500000 0.675496 0.758712
O O10 0.214333 0.616737 0.699691
O O11 0.000000 0.891467 0.110430
O O12 0.711783 0.000000 0.106752
O O13 0.806934 0.898903 0.000000
O O14 0.267974 0.865216 0.500000
O O15 0.279577 0.710547 0.584576
O O16 0.000000 0.827149 0.580866
O O17 0.712801 0.500000 0.593936
O O18 0.000000 0.605268 0.593135
#
# Coordination Sequence:
#
# PCOD9385167 Si02
#       6
#     8   8   8   8   8   8
#     4   9  17  29  46  68  94 125 161 203 253 307
#     4   9  19  35  51  68  97 141 186 217 243 284
#     4  10  20  33  50  72  99 131 168 212 256 297
#     4   7  10  18  33  54  80 109 143 184 228 274
#     4   9  18  32  51  79 111 135 161 204 252 295
#     4   9  18  34  56  78 100 130 165 199 243 303
#
# _framework density 25.284003999999999
#
# number of rings (size 3 to 8) (size 9 to 14) (size 15 to 20)
#    0.000    3.167    0.000    2.000    0.000    3.333 
#    0.000    3.333    0.000    0.500    0.000   12.833 
#    0.000    0.000    0.000    0.000    0.000    0.000 
#
# Total GULP energy -267662.137985 kJ/mol
# GULP energy per Si atom -5576.294541 kJ/mol
# Density = 2.522646 g / cm^3
# Si number density = 25.284004 Si / 1000 Ang^3
#
#
#
# Elastic Constant Matrix: (Units=GPa)
#
#
# Indices 1 2 3 4 5 6 
#
# 1 81.6705 2.1366 -7.4373 0.0000 0.0000 0.0000
# 2 2.1366 89.6590 1.3571 0.0000 0.0000 0.0000
# 3 -7.4373 1.3571 172.2568 0.0000 0.0000 0.0000
# 4 0.0000 0.0000 0.0000 -17.0200 0.0000 0.0000
# 5 0.0000 0.0000 0.0000 0.0000 29.5936 0.0000
# 6 0.0000 0.0000 0.0000 0.0000 0.0000 -0.5137
#
#
#
# Elastic Compliance Matrix: (Units=1/GPa)
#
#
# Indices 1 2 3 4 5 6 
#
# 1 0.012301 -0.000301 0.000533 0.000000 0.000000 0.000000
# 2 -0.000301 0.011162 -0.000101 0.000000 0.000000 0.000000
# 3 0.000533 -0.000101 0.005829 0.000000 0.000000 0.000000
# 4 0.000000 0.000000 0.000000 -0.058754 0.000000 0.000000
# 5 0.000000 0.000000 0.000000 0.000000 0.033791 0.000000
# 6 0.000000 0.000000 0.000000 0.000000 0.000000 -1.946687
#
#
# Mechanical properties :
#
#
# Convention : Reuss Voigt Hill
#
# Bulk Modulus (GPa) = 33.83568 37.29991 35.56779
# Shear Modulus (GPa) = -2.58696 25.58063 11.49683
#
# Velocity S-wave (km/s) = -1.01261 3.18422 2.13470
# Velocity P-wave (km/s) = 3.47046 5.32010 4.49152
#
# Compressibility (1/GPa) = 0.02955460
#
# Stress axis : x y z
#
# Youngs Moduli (GPa) = 81.29565 89.58907 171.55266
#
# Poissons Ratio (x) = 0.02699 -0.09152
# Poissons Ratio (y) = 0.02449 0.01732
# Poissons Ratio (z) = -0.04337 0.00904
#
# Static dielectric constant tensor:
#      x y z
#    x 1.970240 0.000000 0.000000 
#    y 0.000000 2.529340 0.000000 
#    z 0.000000 0.000000 1.998680 
# 
# From -- ./inp_files/26476.got.cif
#   From: 2010.05.17/outbox.cif.g08.bks.cpg/sg47_14_cif.got.tgz:26476.got - 2010.06.03 20:15:42.
