data_PCOD9385010
_publ_section_title
;
Structure prediction by ZEFSAII (Michael W. Deem and Ramdas Pophale) SiO2 
 PCOD9385010
Probable space group: P M M M
;
_chemical_formula_sum "Si O2"
_cell_formula_units_Z 48
_cell_length_a 8.565693
_cell_length_b 18.026886
_cell_length_c 15.851602
_cell_angle_alpha 90.000000
_cell_angle_beta 90.000000
_cell_angle_gamma 90.000000
_cell_volume 2447.689793
_symmetry_space_group_name_H-M "P M M M"
_symmetry_group_IT_number 47
_symmetry_cell_setting 'orthorhombic'
loop_
_space_group_symop_operation_xyz
x,y,z
-x,-y,z
x,-y,-z
-x,y,-z
-x,-y,-z
x,y,-z
-x,y,z
x,-y,z
loop_
_atom_site_type_symbol
_atom_site_label
_atom_site_fract_x
_atom_site_fract_y
_atom_site_fract_z
Si Si1 0.677892 0.132678 0.594083
Si Si2 0.314810 0.169886 0.092386
Si Si3 0.317291 0.000000 0.137563
Si Si4 0.312422 0.414541 0.901797
Si Si5 0.814346 0.711002 0.219104
Si Si6 0.816675 0.290967 0.407113
Si Si7 0.176970 0.000000 0.690270
O O1 0.680593 0.099626 0.500000
O O2 0.500000 0.157614 0.610772
O O3 0.791479 0.202465 0.593862
O O4 0.732890 0.071814 0.658406
O O5 0.500000 0.184855 0.094524
O O6 0.297129 0.080414 0.094753
O O7 0.245755 0.214124 0.172364
O O8 0.254693 0.196020 0.000000
O O9 0.190562 0.000000 0.210468
O O10 0.500000 0.000000 0.167516
O O11 0.500000 0.406216 0.894094
O O12 0.273492 0.500000 0.881056
O O13 0.229995 0.355802 0.842565
O O14 0.272971 0.402149 0.000000
O O15 0.752265 0.690671 0.313565
O O16 0.000000 0.718914 0.227181
O O17 0.751586 0.315720 0.500000
O O18 0.000000 0.310062 0.408197
O O19 0.000000 0.000000 0.659234
#
# Coordination Sequence:
#
# PCOD9385010 Si02
#       7
#     8   8   4   8   8   8   4
#     4  10  20  33  49  69  92 121 165 221 273 318
#     4  10  21  37  56  77 104 141 183 225 272 326
#     4  10  21  37  55  72  95 133 182 231 269 306
#     4   9  19  37  60  85 114 148 182 216 262 321
#     4  11  22  34  54  85 114 142 180 223 268 319
#     4   9  19  36  54  73 103 141 177 214 259 313
#     4  12  23  32  45  66  93 126 165 209 267 335
#
# _framework density 19.610327999999999
#
# number of rings (size 3 to 8) (size 9 to 14) (size 15 to 20)
#    0.000    2.000    0.000    4.250    0.000   10.667 
#    0.000    0.833    0.000    2.000    0.000    3.500 
#    0.000    0.000    0.000    0.000    0.000    0.000 
#
# Total GULP energy -267477.117264 kJ/mol
# GULP energy per Si atom -5572.439943 kJ/mol
# Density = 1.956569 g / cm^3
# Si number density = 19.610328 Si / 1000 Ang^3
#
#
#
# Elastic Constant Matrix: (Units=GPa)
#
#
# Indices 1 2 3 4 5 6 
#
# 1 17.0253 9.3734 23.1507 0.0000 0.0000 0.0000
# 2 9.3734 59.8305 40.6782 0.0000 0.0000 0.0000
# 3 23.1507 40.6782 121.3090 0.0000 0.0000 0.0000
# 4 0.0000 0.0000 0.0000 20.7416 0.0000 0.0000
# 5 0.0000 0.0000 0.0000 0.0000 19.5336 0.0000
# 6 0.0000 0.0000 0.0000 0.0000 0.0000 60.2400
#
#
#
# Elastic Compliance Matrix: (Units=1/GPa)
#
#
# Indices 1 2 3 4 5 6 
#
# 1 0.079675 -0.002778 -0.014274 0.000000 0.000000 0.000000
# 2 -0.002778 0.021747 -0.006762 0.000000 0.000000 0.000000
# 3 -0.014274 -0.006762 0.013235 0.000000 0.000000 0.000000
# 4 0.000000 0.000000 0.000000 0.048212 0.000000 0.000000
# 5 0.000000 0.000000 0.000000 0.000000 0.051194 0.000000
# 6 0.000000 0.000000 0.000000 0.000000 0.000000 0.016600
#
#
# Mechanical properties :
#
#
# Convention : Reuss Voigt Hill
#
# Bulk Modulus (GPa) = 14.91891 38.28549 26.60220
# Shear Modulus (GPa) = 16.63158 28.43387 22.53273
#
# Velocity S-wave (km/s) = 2.91538 3.81194 3.39340
# Velocity P-wave (km/s) = 4.35394 6.24020 5.38037
#
# Compressibility (1/GPa) = 0.06702903
#
# Stress axis : x y z
#
# Youngs Moduli (GPa) = 12.55103 45.98430 75.55764
#
# Poissons Ratio (x) = 0.12774 1.07849
# Poissons Ratio (y) = 0.03486 0.51093
# Poissons Ratio (z) = 0.17915 0.31095
#
# Static dielectric constant tensor:
#      x y z
#    x 1.685360 0.000000 0.000000 
#    y 0.000000 1.649880 0.000000 
#    z 0.000000 0.000000 1.768770 
# 
# From -- ./inp_files/21128.got.cif
#   From: 2010.05.17/outbox.cif.g08.bks.cpg/sg47_11_cif.got.tgz:21128.got - 2010.06.03 20:15:42.
