data_PCOD9385429
_publ_section_title
;
Structure prediction by ZEFSAII (Michael W. Deem and Ramdas Pophale) SiO2 
 PCOD9385429
Probable space group: P M M M
;
_chemical_formula_sum "Si O2"
_cell_formula_units_Z 44
_cell_length_a 34.822955
_cell_length_b 7.911036
_cell_length_c 7.777989
_cell_angle_alpha 90.000000
_cell_angle_beta 90.000000
_cell_angle_gamma 90.000000
_cell_volume 2142.724360
_symmetry_space_group_name_H-M "P M M M"
_symmetry_group_IT_number 47
_symmetry_cell_setting 'orthorhombic'
loop_
_space_group_symop_operation_xyz
x,y,z
-x,-y,z
x,-y,-z
-x,y,-z
-x,-y,-z
x,y,-z
-x,y,z
x,-y,z
loop_
_atom_site_type_symbol
_atom_site_label
_atom_site_fract_x
_atom_site_fract_y
_atom_site_fract_z
Si Si1 0.098030 0.794111 0.691034
Si Si2 0.542058 0.301464 0.707404
Si Si3 0.815452 0.194317 0.208143
Si Si4 0.673094 0.500000 0.788415
Si Si5 0.044090 0.792630 0.000000
Si Si6 0.625191 0.818548 0.796094
Si Si7 0.761520 0.500000 0.789812
O O1 0.088159 0.736776 0.500000
O O2 0.141996 0.750583 0.734583
O O3 0.097186 0.000000 0.693648
O O4 0.068092 0.736455 0.833919
O O5 0.542638 0.291602 0.500000
O O6 0.500000 0.238873 0.765020
O O7 0.544737 0.500000 0.754341
O O8 0.579856 0.211340 0.773360
O O9 0.784276 0.331590 0.265223
O O10 0.808612 0.000000 0.265937
O O11 0.815512 0.191564 0.000000
O O12 0.649742 0.663429 0.726928
O O13 0.717314 0.500000 0.735507
O O14 0.672411 0.500000 0.000000
O O15 0.000000 0.737964 0.000000
O O16 0.044010 0.000000 0.000000
O O17 0.635772 0.000000 0.721337
O O18 0.632568 0.822768 0.000000
O O19 0.761785 0.500000 0.000000
#
# Coordination Sequence:
#
# PCOD9385429 Si02
#       7
#     8   8   8   4   4   8   4
#     4   9  16  27  45  69 101 142 182 224 276 327
#     4   9  18  33  53  76 101 131 171 218 265 312
#     4   9  16  29  49  73 102 132 169 220 270 317
#     4   9  18  34  50  72 107 134 166 218 259 305
#     4   9  16  26  42  69 107 147 188 231 271 322
#     4  10  20  33  52  76 103 140 178 211 256 312
#     4   9  18  30  51  80 102 131 175 214 260 320
#
# _framework density 20.534607999999999
#
# number of rings (size 3 to 8) (size 9 to 14) (size 15 to 20)
#    0.000    2.818    1.818    0.545    0.000    2.182 
#    0.000    8.636    0.000    2.182    0.000    3.818 
#    0.000    1.455    0.000    0.182    0.000    0.000 
#
# Total GULP energy -245558.087287 kJ/mol
# GULP energy per Si atom -5580.865620 kJ/mol
# Density = 2.048787 g / cm^3
# Si number density = 20.534608 Si / 1000 Ang^3
#
#
#
# Elastic Constant Matrix: (Units=GPa)
#
#
# Indices 1 2 3 4 5 6 
#
# 1 183.2289 89.6404 36.9248 0.0000 0.0000 0.0000
# 2 89.6404 112.8540 26.9297 0.0000 0.0000 0.0000
# 3 36.9248 26.9297 53.8943 0.0000 0.0000 0.0000
# 4 0.0000 0.0000 0.0000 -0.2975 0.0000 0.0000
# 5 0.0000 0.0000 0.0000 0.0000 -65.8876 0.0000
# 6 0.0000 0.0000 0.0000 0.0000 0.0000 -6.8643
#
#
#
# Elastic Compliance Matrix: (Units=1/GPa)
#
#
# Indices 1 2 3 4 5 6 
#
# 1 0.009351 -0.006697 -0.003060 0.000000 0.000000 0.000000
# 2 -0.006697 0.014857 -0.002835 0.000000 0.000000 0.000000
# 3 -0.003060 -0.002835 0.022068 0.000000 0.000000 0.000000
# 4 0.000000 0.000000 0.000000 -3.361880 0.000000 0.000000
# 5 0.000000 0.000000 0.000000 0.000000 -0.015177 0.000000
# 6 0.000000 0.000000 0.000000 0.000000 0.000000 -0.145682
#
#
# Mechanical properties :
#
#
# Convention : Reuss Voigt Hill
#
# Bulk Modulus (GPa) = 47.41378 72.99633 60.20505
# Shear Modulus (GPa) = -1.45170 -1.51104 -1.48137
#
# Velocity S-wave (km/s) = -0.84172 -0.85875 -0.85027
# Velocity P-wave (km/s) = 4.71118 5.88573 5.33090
#
# Compressibility (1/GPa) = 0.02109092
#
# Stress axis : x y z
#
# Youngs Moduli (GPa) = 106.94333 67.30768 45.31412
#
# Poissons Ratio (x) = 0.45077 0.13867
# Poissons Ratio (y) = 0.71621 0.12848
# Poissons Ratio (z) = 0.32726 0.19084
#
# Static dielectric constant tensor:
#      x y z
#    x 1.681280 0.000000 0.000000 
#    y 0.000000 1.750910 0.000000 
#    z 0.000000 0.000000 1.740800 
# 
# From -- ./inp_files/13737.got.cif
#   From: 2010.05.17/outbox.cif.g08.bks.cpg/sg47_7_cif.got.tgz:13737.got - 2010.06.03 20:15:42.
