data_PCOD9385487
_publ_section_title
;
Structure prediction by ZEFSAII (Michael W. Deem and Ramdas Pophale) SiO2 
 PCOD9385487
Probable space group: P M M M
;
_chemical_formula_sum "Si O2"
_cell_formula_units_Z 33
_cell_length_a 7.514243
_cell_length_b 26.272774
_cell_length_c 8.111987
_cell_angle_alpha 90.000000
_cell_angle_beta 90.000000
_cell_angle_gamma 90.000000
_cell_volume 1601.468539
_symmetry_space_group_name_H-M "P M M M"
_symmetry_group_IT_number 47
_symmetry_cell_setting 'orthorhombic'
loop_
_space_group_symop_operation_xyz
x,y,z
-x,-y,z
x,-y,-z
-x,y,-z
-x,-y,-z
x,y,-z
-x,y,z
x,-y,z
loop_
_atom_site_type_symbol
_atom_site_label
_atom_site_fract_x
_atom_site_fract_y
_atom_site_fract_z
Si Si1 0.285145 0.278460 0.314635
Si Si2 0.000000 0.000000 0.500000
Si Si3 0.791005 0.384666 0.176223
Si Si4 0.703290 0.168693 0.196394
Si Si5 0.218043 0.559029 0.500000
Si Si6 0.000000 0.084341 0.200048
O O1 0.228691 0.291289 0.500000
O O2 0.500000 0.277415 0.307041
O O3 0.223957 0.323993 0.199507
O O4 0.226923 0.221414 0.271791
O O5 0.000000 0.956356 0.348332
O O6 0.716492 0.412332 0.336648
O O7 0.000000 0.397314 0.172313
O O8 0.712662 0.399452 0.000000
O O9 0.500000 0.159797 0.254150
O O10 0.828679 0.120655 0.224561
O O11 0.698015 0.176920 0.000000
O O12 0.266597 0.500000 0.500000
O O13 0.000000 0.561726 0.500000
O O14 0.000000 0.068501 0.000000
#
# Coordination Sequence:
#
# PCOD9385487 Si02
#       6
#     8   1   8   8   4   4
#     4  10  20  33  53  82 116 149 181 222 277 342
#     4  12  26  44  66  94 116 162 206 240 308 338
#     4  10  20  33  52  79 108 142 182 224 278 342
#     4   9  19  37  60  87 120 158 195 235 290 349
#     4   9  18  34  52  73 103 138 182 239 287 326
#     4  10  23  43  65  90 123 157 198 249 287 340
#
# _framework density 20.606088
#
# number of rings (size 3 to 8) (size 9 to 14) (size 15 to 20)
#    0.000    2.303    1.212    0.909    3.394    1.939 
#    0.000    3.636    0.000    4.364    0.000    1.697 
#    0.000    0.000    0.000    0.000    0.000    0.000 
#
# Total GULP energy -183873.486091 kJ/mol
# GULP energy per Si atom -5571.923821 kJ/mol
# Density = 2.055919 g / cm^3
# Si number density = 20.606088 Si / 1000 Ang^3
#
#
#
# Elastic Constant Matrix: (Units=GPa)
#
#
# Indices 1 2 3 4 5 6 
#
# 1 64.9937 15.1114 22.2068 0.0000 0.0000 0.0000
# 2 15.1114 116.2218 89.4160 0.0000 0.0000 0.0000
# 3 22.2068 89.4160 177.8302 0.0000 0.0000 0.0000
# 4 0.0000 0.0000 0.0000 -99.7298 0.0000 0.0000
# 5 0.0000 0.0000 0.0000 0.0000 -36.8662 0.0000
# 6 0.0000 0.0000 0.0000 0.0000 0.0000 -15.1837
#
#
#
# Elastic Compliance Matrix: (Units=1/GPa)
#
#
# Indices 1 2 3 4 5 6 
#
# 1 0.016128 -0.000893 -0.001565 0.000000 0.000000 0.000000
# 2 -0.000893 0.014082 -0.006969 0.000000 0.000000 0.000000
# 3 -0.001565 -0.006969 0.009323 0.000000 0.000000 0.000000
# 4 0.000000 0.000000 0.000000 -0.010027 0.000000 0.000000
# 5 0.000000 0.000000 0.000000 0.000000 -0.027125 0.000000
# 6 0.000000 0.000000 0.000000 0.000000 0.000000 -0.065860
#
#
# Mechanical properties :
#
#
# Convention : Reuss Voigt Hill
#
# Bulk Modulus (GPa) = 48.35792 68.05711 58.20752
# Shear Modulus (GPa) = -132.51763 -14.86852 -73.69307
#
# Velocity S-wave (km/s) = -8.02805 -2.68910 -5.98669
# Velocity P-wave (km/s) = 7.90025 4.84331 4.41341
#
# Compressibility (1/GPa) = 0.02067914
#
# Stress axis : x y z
#
# Youngs Moduli (GPa) = 62.00218 71.01176 107.26115
#
# Poissons Ratio (x) = 0.06341 0.16787
# Poissons Ratio (y) = 0.05536 0.74753
# Poissons Ratio (z) = 0.09704 0.49490
#
# Static dielectric constant tensor:
#      x y z
#    x 1.768750 0.000000 0.000000 
#    y 0.000000 1.686310 0.000000 
#    z 0.000000 0.000000 1.770700 
# 
# From -- ./inp_files/1329.got.cif
#   From: 2010.05.17/outbox.cif.g08.bks.cpg/sg47_1_cif.got.tgz:1329.got - 2010.06.03 20:15:42.
