data_PCOD9385189
_publ_section_title
;
Structure prediction by ZEFSAII (Michael W. Deem and Ramdas Pophale) SiO2 
 PCOD9385189
Probable space group: P M M M
;
_chemical_formula_sum "Si O2"
_cell_formula_units_Z 36
_cell_length_a 24.472285
_cell_length_b 9.304966
_cell_length_c 7.866125
_cell_angle_alpha 90.000000
_cell_angle_beta 90.000000
_cell_angle_gamma 90.000000
_cell_volume 1791.225057
_symmetry_space_group_name_H-M "P M M M"
_symmetry_group_IT_number 47
_symmetry_cell_setting 'orthorhombic'
loop_
_space_group_symop_operation_xyz
x,y,z
-x,-y,z
x,-y,-z
-x,y,-z
-x,-y,-z
x,y,-z
-x,y,z
x,-y,z
loop_
_atom_site_type_symbol
_atom_site_label
_atom_site_fract_x
_atom_site_fract_y
_atom_site_fract_z
Si Si1 0.941268 0.826296 0.296888
Si Si2 0.500000 0.662923 0.702630
Si Si3 0.177846 0.832573 0.291594
Si Si4 0.716026 0.662325 0.703970
Si Si5 0.391718 0.837344 0.202411
O O1 0.942045 0.797947 0.500000
O O2 0.881923 0.777930 0.232798
O O3 0.000000 0.774878 0.227144
O O4 0.940608 0.000000 0.278333
O O5 0.500000 0.500000 0.772340
O O6 0.500000 0.653284 0.500000
O O7 0.554130 0.748801 0.753392
O O8 0.177016 0.830334 0.500000
O O9 0.229179 0.740232 0.232136
O O10 0.184440 0.000000 0.243036
O O11 0.721444 0.654133 0.500000
O O12 0.710350 0.500000 0.770040
O O13 0.662354 0.755023 0.739067
O O14 0.394079 0.000000 0.272175
O O15 0.389116 0.846479 0.000000
#
# Coordination Sequence:
#
# PCOD9385189 Si02
#       5
#     8   4   8   8   8
#     4   7   9  14  27  50  80 114 154 199 245 293
#     4  11  24  41  62  88 114 139 168 199 236 288
#     4   8  13  22  38  60  87 122 163 206 251 296
#     4  10  20  33  50  73 101 134 172 211 252 301
#     4  11  24  40  58  81 107 135 170 210 250 292
#
# _framework density 20.097978000000001
#
# number of rings (size 3 to 8) (size 9 to 14) (size 15 to 20)
#    0.000    2.778    0.000    4.667    0.000    8.000 
#    0.000    0.000    0.000    0.667    0.000    4.667 
#    0.000    0.889    0.000   10.222    0.000   11.778 
#
# Total GULP energy -200719.647099 kJ/mol
# GULP energy per Si atom -5575.545753 kJ/mol
# Density = 2.005223 g / cm^3
# Si number density = 20.097978 Si / 1000 Ang^3
#
#
#
# Elastic Constant Matrix: (Units=GPa)
#
#
# Indices 1 2 3 4 5 6 
#
# 1 248.2791 111.2139 4.8086 0.0000 0.0000 0.0000
# 2 111.2139 141.3720 7.7226 0.0000 0.0000 0.0000
# 3 4.8086 7.7226 22.8721 0.0000 0.0000 0.0000
# 4 0.0000 0.0000 0.0000 34.1591 0.0000 0.0000
# 5 0.0000 0.0000 0.0000 0.0000 -59.0088 0.0000
# 6 0.0000 0.0000 0.0000 0.0000 0.0000 -19.8908
#
#
#
# Elastic Compliance Matrix: (Units=1/GPa)
#
#
# Indices 1 2 3 4 5 6 
#
# 1 0.006222 -0.004914 0.000351 0.000000 0.000000 0.000000
# 2 -0.004914 0.011087 -0.002710 0.000000 0.000000 0.000000
# 3 0.000351 -0.002710 0.044563 0.000000 0.000000 0.000000
# 4 0.000000 0.000000 0.000000 0.029275 0.000000 0.000000
# 5 0.000000 0.000000 0.000000 0.000000 -0.016947 0.000000
# 6 0.000000 0.000000 0.000000 0.000000 0.000000 -0.050275
#
#
# Mechanical properties :
#
#
# Convention : Reuss Voigt Hill
#
# Bulk Modulus (GPa) = 21.13030 73.33480 47.23255
# Shear Modulus (GPa) = 92.17049 10.30380 51.23714
#
# Velocity S-wave (km/s) = 6.77939 2.26670 5.05460
# Velocity P-wave (km/s) = 8.47447 6.58926 7.59062
#
# Compressibility (1/GPa) = 0.04732541
#
# Stress axis : x y z
#
# Youngs Moduli (GPa) = 160.71843 90.19368 22.44029
#
# Poissons Ratio (x) = 0.44320 -0.00788
# Poissons Ratio (y) = 0.78976 0.06082
# Poissons Ratio (z) = -0.05642 0.24446
#
# Static dielectric constant tensor:
#      x y z
#    x 1.671450 0.000000 0.000000 
#    y 0.000000 1.700940 0.000000 
#    z 0.000000 0.000000 1.733040 
# 
# From -- ./inp_files/12075.got.cif
#   From: 2010.05.17/outbox.cif.g08.bks.cpg/sg47_7_cif.got.tgz:12075.got - 2010.06.03 20:15:42.
