data_PCOD9385177
_publ_section_title
;
Structure prediction by ZEFSAII (Michael W. Deem and Ramdas Pophale) SiO2 
 PCOD9385177
Probable space group: P M M M
;
_chemical_formula_sum "Si O2"
_cell_formula_units_Z 52
_cell_length_a 14.827350
_cell_length_b 23.760208
_cell_length_c 7.813484
_cell_angle_alpha 90.000000
_cell_angle_beta 90.000000
_cell_angle_gamma 90.000000
_cell_volume 2752.697602
_symmetry_space_group_name_H-M "P M M M"
_symmetry_group_IT_number 47
_symmetry_cell_setting 'orthorhombic'
loop_
_space_group_symop_operation_xyz
x,y,z
-x,-y,z
x,-y,-z
-x,y,-z
-x,-y,-z
x,y,-z
-x,y,z
x,-y,z
loop_
_atom_site_type_symbol
_atom_site_label
_atom_site_fract_x
_atom_site_fract_y
_atom_site_fract_z
Si Si1 0.399490 0.276193 0.201533
Si Si2 0.895836 0.000000 0.709353
Si Si3 0.399491 0.149132 0.700649
Si Si4 0.219881 0.669401 0.297388
Si Si5 0.898212 0.563859 0.206180
Si Si6 0.790811 0.888090 0.290127
Si Si7 0.103790 0.775448 0.709343
O O1 0.500000 0.294095 0.257165
O O2 0.379273 0.215995 0.287564
O O3 0.321007 0.320557 0.233836
O O4 0.402101 0.264769 0.000000
O O5 0.842985 0.944027 0.763771
O O6 0.896713 0.000000 0.500000
O O7 0.000000 0.000000 0.764737
O O8 0.404865 0.134792 0.500000
O O9 0.500000 0.140116 0.775410
O O10 0.312529 0.116920 0.771341
O O11 0.223169 0.675886 0.500000
O O12 0.173828 0.610208 0.257907
O O13 0.157305 0.720346 0.229636
O O14 0.878759 0.500000 0.264746
O O15 0.000000 0.578950 0.265447
O O16 0.900401 0.562729 0.000000
O O17 0.789025 0.887962 0.500000
O O18 0.844988 0.832165 0.238007
O O19 0.103519 0.774811 0.500000
O O20 0.000000 0.774989 0.764810
#
# Coordination Sequence:
#
# PCOD9385177 Si02
#       7
#     8   4   8   8   8   8   8
#     4  10  20  33  50  73 100 130 166 207 252 307
#     4   9  16  24  37  59  90 129 167 201 240 294
#     4   9  16  28  46  67  93 124 157 199 255 310
#     4  11  20  31  50  77 105 133 167 208 256 304
#     4   9  19  36  55  75 105 145 180 209 246 292
#     4   9  15  25  39  60  91 127 163 199 243 296
#     4   9  16  25  39  63  95 126 156 196 245 292
#
# _framework density 18.890560000000001
#
# number of rings (size 3 to 8) (size 9 to 14) (size 15 to 20)
#    0.000    2.538    1.538    2.308    0.000    4.000 
#    0.000    1.154    0.000    2.769    0.000    3.769 
#    0.000    3.077    0.000    0.000    0.000    0.000 
#
# Total GULP energy -290084.474152 kJ/mol
# GULP energy per Si atom -5578.547580 kJ/mol
# Density = 1.884756 g / cm^3
# Si number density = 18.890560 Si / 1000 Ang^3
#
#
#
# Elastic Constant Matrix: (Units=GPa)
#
#
# Indices 1 2 3 4 5 6 
#
# 1 185.5547 88.8673 6.2166 0.0000 0.0000 0.0000
# 2 88.8673 106.0817 0.6701 0.0000 0.0000 0.0000
# 3 6.2166 0.6701 25.2581 0.0000 0.0000 0.0000
# 4 0.0000 0.0000 0.0000 96.4762 0.0000 0.0000
# 5 0.0000 0.0000 0.0000 0.0000 10.0524 0.0000
# 6 0.0000 0.0000 0.0000 0.0000 0.0000 28.7157
#
#
#
# Elastic Compliance Matrix: (Units=1/GPa)
#
#
# Indices 1 2 3 4 5 6 
#
# 1 0.009104 -0.007614 -0.002039 0.000000 0.000000 0.000000
# 2 -0.007614 0.015796 0.001455 0.000000 0.000000 0.000000
# 3 -0.002039 0.001455 0.040054 0.000000 0.000000 0.000000
# 4 0.000000 0.000000 0.000000 0.010365 0.000000 0.000000
# 5 0.000000 0.000000 0.000000 0.000000 0.099479 0.000000
# 6 0.000000 0.000000 0.000000 0.000000 0.000000 0.034824
#
#
# Mechanical properties :
#
#
# Convention : Reuss Voigt Hill
#
# Bulk Modulus (GPa) = 20.59355 56.48918 38.54136
# Shear Modulus (GPa) = 20.64377 41.79157 31.21767
#
# Velocity S-wave (km/s) = 3.30935 4.70861 4.06957
# Velocity P-wave (km/s) = 5.05248 7.71555 6.52140
#
# Compressibility (1/GPa) = 0.04855889
#
# Stress axis : x y z
#
# Youngs Moduli (GPa) = 109.84192 63.30821 24.96605
#
# Poissons Ratio (x) = 0.48201 0.05090
# Poissons Ratio (y) = 0.83631 -0.03632
# Poissons Ratio (z) = 0.22394 -0.09210
#
# Static dielectric constant tensor:
#      x y z
#    x 1.682050 0.000000 0.000000 
#    y 0.000000 1.621220 0.000000 
#    z 0.000000 0.000000 1.710390 
# 
# From -- ./inp_files/6912.got.cif
#   From: 2010.05.17/outbox.cif.g08.bks.cpg/sg47_4_cif.got.tgz:6912.got - 2010.06.03 20:15:42.
