data_PCOD9385349
_publ_section_title
;
Structure prediction by ZEFSAII (Michael W. Deem and Ramdas Pophale) SiO2 
 PCOD9385349
Probable space group: P M M M
;
_chemical_formula_sum "Si O2"
_cell_formula_units_Z 44
_cell_length_a 18.555918
_cell_length_b 14.070973
_cell_length_c 9.748281
_cell_angle_alpha 90.000000
_cell_angle_beta 90.000000
_cell_angle_gamma 90.000000
_cell_volume 2545.274426
_symmetry_space_group_name_H-M "P M M M"
_symmetry_group_IT_number 47
_symmetry_cell_setting 'orthorhombic'
loop_
_space_group_symop_operation_xyz
x,y,z
-x,-y,z
x,-y,-z
-x,y,-z
-x,-y,-z
x,y,-z
-x,y,z
x,-y,z
loop_
_atom_site_type_symbol
_atom_site_label
_atom_site_fract_x
_atom_site_fract_y
_atom_site_fract_z
Si Si1 0.708022 0.204681 0.662833
Si Si2 0.784040 0.390679 0.337256
Si Si3 0.582006 0.113945 0.161513
Si Si4 0.000000 0.116148 0.158552
Si Si5 0.863566 0.885134 0.658629
Si Si6 0.080390 0.384262 0.157140
O O1 0.695731 0.191476 0.500000
O O2 0.721183 0.316054 0.691442
O O3 0.642874 0.162853 0.748705
O O4 0.784598 0.154167 0.694998
O O5 0.798356 0.387047 0.500000
O O6 0.767863 0.500000 0.300337
O O7 0.855500 0.358106 0.257741
O O8 0.500000 0.141330 0.199533
O O9 0.587525 0.000000 0.177413
O O10 0.591866 0.134842 0.000000
O O11 0.927796 0.145109 0.240108
O O12 0.000000 0.000000 0.158538
O O13 0.000000 0.146943 0.000000
O O14 0.879113 0.857275 0.500000
O O15 0.860565 0.000000 0.662356
O O16 0.078824 0.500000 0.157702
O O17 0.000000 0.352516 0.196912
O O18 0.094307 0.355012 0.000000
#
# Coordination Sequence:
#
# PCOD9385349 Si02
#       6
#     8   8   8   4   8   8
#     4  10  20  33  51  77 103 131 170 210 248 297
#     4   9  18  32  48  68  97 132 170 213 258 299
#     4   9  19  36  57  82 111 137 158 189 242 304
#     4   9  17  29  45  65  90 123 164 204 241 287
#     4   9  17  30  47  66  92 126 160 198 246 295
#     4   8  14  26  44  64  87 119 162 212 262 307
#
# _framework density 17.286937000000002
#
# number of rings (size 3 to 8) (size 9 to 14) (size 15 to 20)
#    0.000    3.000    0.000    1.909    0.000    4.364 
#    1.636    4.545    0.000    0.545    0.000    3.818 
#    0.000    0.000    0.000    0.000    0.000    0.000 
#
# Total GULP energy -245433.095274 kJ/mol
# GULP energy per Si atom -5578.024893 kJ/mol
# Density = 1.724759 g / cm^3
# Si number density = 17.286937 Si / 1000 Ang^3
#
#
#
# Elastic Constant Matrix: (Units=GPa)
#
#
# Indices 1 2 3 4 5 6 
#
# 1 163.9042 61.4774 98.2167 0.0000 0.0000 0.0000
# 2 61.4774 60.9339 43.8367 0.0000 0.0000 0.0000
# 3 98.2167 43.8367 77.3982 0.0000 0.0000 0.0000
# 4 0.0000 0.0000 0.0000 15.2768 0.0000 0.0000
# 5 0.0000 0.0000 0.0000 0.0000 38.6891 0.0000
# 6 0.0000 0.0000 0.0000 0.0000 0.0000 27.3368
#
#
#
# Elastic Compliance Matrix: (Units=1/GPa)
#
#
# Indices 1 2 3 4 5 6 
#
# 1 0.026095 -0.004228 -0.030720 0.000000 0.000000 0.000000
# 2 -0.004228 0.028381 -0.010710 0.000000 0.000000 0.000000
# 3 -0.030720 -0.010710 0.057968 0.000000 0.000000 0.000000
# 4 0.000000 0.000000 0.000000 0.065459 0.000000 0.000000
# 5 0.000000 0.000000 0.000000 0.000000 0.025847 0.000000
# 6 0.000000 0.000000 0.000000 0.000000 0.000000 0.036581
#
#
# Mechanical properties :
#
#
# Convention : Reuss Voigt Hill
#
# Bulk Modulus (GPa) = 47.32419 78.81089 63.06754
# Shear Modulus (GPa) = 14.76281 22.84092 18.80186
#
# Velocity S-wave (km/s) = 2.92547 3.63889 3.30151
# Velocity P-wave (km/s) = 6.23268 7.95890 7.14809
#
# Compressibility (1/GPa) = 0.02113084
#
# Stress axis : x y z
#
# Youngs Moduli (GPa) = 38.32149 35.23438 17.25076
#
# Poissons Ratio (x) = 0.14896 0.52994
# Poissons Ratio (y) = 0.16201 0.18475
# Poissons Ratio (z) = 1.17722 0.37735
#
# Static dielectric constant tensor:
#      x y z
#    x 1.546010 0.000000 0.000000 
#    y 0.000000 1.636110 0.000000 
#    z 0.000000 0.000000 1.577010 
# 
# From -- ./inp_files/8953.got.cif
#   From: 2010.05.17/outbox.cif.g08.bks.cpg/sg47_5_cif.got.tgz:8953.got - 2010.06.03 20:15:42.
