data_PCOD9385948
_publ_section_title
;
Structure prediction by ZEFSAII (Michael W. Deem and Ramdas Pophale) SiO2 
 PCOD9385948
Probable space group: P M M M
;
_chemical_formula_sum "Si O2"
_cell_formula_units_Z 64
_cell_length_a 18.903884
_cell_length_b 21.430985
_cell_length_c 8.835300
_cell_angle_alpha 90.000000
_cell_angle_beta 90.000000
_cell_angle_gamma 90.000000
_cell_volume 3579.434968
_symmetry_space_group_name_H-M "P M M M"
_symmetry_group_IT_number 47
_symmetry_cell_setting 'orthorhombic'
loop_
_space_group_symop_operation_xyz
x,y,z
-x,-y,z
x,-y,-z
-x,y,-z
-x,-y,-z
x,y,-z
-x,y,z
x,-y,z
loop_
_atom_site_type_symbol
_atom_site_label
_atom_site_fract_x
_atom_site_fract_y
_atom_site_fract_z
Si Si1 0.418210 0.427305 0.318157
Si Si2 0.085745 0.068752 0.322104
Si Si3 0.916178 0.801158 0.180167
Si Si4 0.414179 0.933121 0.179067
Si Si5 0.676310 0.319913 0.818421
Si Si6 0.418130 0.202558 0.184877
Si Si7 0.831959 0.314350 0.679807
Si Si8 0.915970 0.571215 0.180766
O O1 0.411732 0.420819 0.500000
O O2 0.500000 0.412918 0.277910
O O3 0.405254 0.500000 0.281259
O O4 0.365085 0.381040 0.236658
O O5 0.103014 0.074932 0.500000
O O6 0.108873 0.130243 0.233329
O O7 0.000000 0.067731 0.311258
O O8 0.110542 0.000000 0.269313
O O9 0.873477 0.746058 0.258935
O O10 0.000000 0.795488 0.217494
O O11 0.909010 0.795765 0.000000
O O12 0.500000 0.932160 0.187665
O O13 0.391743 0.865579 0.239581
O O14 0.390279 0.000000 0.244670
O O15 0.396762 0.934098 0.000000
O O16 0.630711 0.259639 0.768830
O O17 0.753937 0.316514 0.749461
O O18 0.680711 0.319707 0.000000
O O19 0.500000 0.211741 0.231136
O O20 0.418357 0.200555 0.000000
O O21 0.828338 0.312015 0.500000
O O22 0.873346 0.376188 0.732661
O O23 0.896229 0.500000 0.221730
O O24 0.000000 0.578278 0.207728
O O25 0.904820 0.578382 0.000000
#
# Coordination Sequence:
#
# PCOD9385948 Si02
#       8
#     8   8   8   8   8   8   8   8
#     4   9  19  37  59  81 106 135 167 207 255 307
#     4   8  14  26  46  74 107 139 171 210 258 313
#     4  10  20  34  54  79 106 136 173 220 270 317
#     4   7   9  15  31  58  92 125 153 186 235 293
#     4  11  22  35  52  74 103 138 174 215 260 304
#     4   8  14  25  43  69  98 127 162 204 249 297
#     4  12  25  38  53  74 104 142 180 217 258 309
#     4   9  19  38  63  87 109 132 160 200 252 308
#
# _framework density 17.879916999999999
#
# number of rings (size 3 to 8) (size 9 to 14) (size 15 to 20)
#    0.000    2.750    0.000    4.875    0.000    4.500 
#    0.000    2.500    0.000    0.750    0.000    1.750 
#    0.000    1.500    0.000   14.125    0.000   11.500 
#
# Total GULP energy -356733.955741 kJ/mol
# GULP energy per Si atom -5573.968058 kJ/mol
# Density = 1.783922 g / cm^3
# Si number density = 17.879917 Si / 1000 Ang^3
#
#
#
# Elastic Constant Matrix: (Units=GPa)
#
#
# Indices 1 2 3 4 5 6 
#
# 1 75.0236 87.8144 48.6768 0.0000 0.0000 0.0000
# 2 87.8144 175.9200 69.3001 0.0000 0.0000 0.0000
# 3 48.6768 69.3001 50.0210 0.0000 0.0000 0.0000
# 4 0.0000 0.0000 0.0000 24.2308 0.0000 0.0000
# 5 0.0000 0.0000 0.0000 0.0000 9.5065 0.0000
# 6 0.0000 0.0000 0.0000 0.0000 0.0000 -7.8767
#
#
#
# Elastic Compliance Matrix: (Units=1/GPa)
#
#
# Indices 1 2 3 4 5 6 
#
# 1 0.044525 -0.011354 -0.027599 0.000000 0.000000 0.000000
# 2 -0.011354 0.015409 -0.010300 0.000000 0.000000 0.000000
# 3 -0.027599 -0.010300 0.061118 0.000000 0.000000 0.000000
# 4 0.000000 0.000000 0.000000 0.041270 0.000000 0.000000
# 5 0.000000 0.000000 0.000000 0.000000 0.105191 0.000000
# 6 0.000000 0.000000 0.000000 0.000000 0.000000 -0.126956
#
#
# Mechanical properties :
#
#
# Convention : Reuss Voigt Hill
#
# Bulk Modulus (GPa) = 44.34992 79.17191 61.76091
# Shear Modulus (GPa) = 20.27748 11.51701 15.89724
#
# Velocity S-wave (km/s) = 3.37128 2.54073 2.98503
# Velocity P-wave (km/s) = 6.32552 7.27894 6.81892
#
# Compressibility (1/GPa) = 0.02254796
#
# Stress axis : x y z
#
# Youngs Moduli (GPa) = 22.45908 64.89647 16.36168
#
# Poissons Ratio (x) = 0.73681 0.45157
# Poissons Ratio (y) = 0.25499 0.16852
# Poissons Ratio (z) = 0.61985 0.66841
#
# Static dielectric constant tensor:
#      x y z
#    x 1.581660 0.000000 0.000000 
#    y 0.000000 1.638610 0.000000 
#    z 0.000000 0.000000 1.598110 
# 
# From -- ./inp_files/10007.got.cif
#   From: 2010.05.17/outbox.cif.g08.bks.cpg/sg47_6_cif.got.tgz:10007.got - 2010.06.03 20:15:42.
