data_PCOD9385869
_publ_section_title
;
Structure prediction by ZEFSAII (Michael W. Deem and Ramdas Pophale) SiO2 
 PCOD9385869
Probable space group: P M M M
;
_chemical_formula_sum "Si O2"
_cell_formula_units_Z 52
_cell_length_a 11.166846
_cell_length_b 8.972482
_cell_length_c 31.310278
_cell_angle_alpha 90.000000
_cell_angle_beta 90.000000
_cell_angle_gamma 90.000000
_cell_volume 3137.112161
_symmetry_space_group_name_H-M "P M M M"
_symmetry_group_IT_number 47
_symmetry_cell_setting 'orthorhombic'
loop_
_space_group_symop_operation_xyz
x,y,z
-x,-y,z
x,-y,-z
-x,y,-z
-x,-y,-z
x,y,-z
-x,y,z
x,-y,z
loop_
_atom_site_type_symbol
_atom_site_label
_atom_site_fract_x
_atom_site_fract_y
_atom_site_fract_z
Si Si1 0.644615 0.170002 0.756244
Si Si2 0.764612 0.179135 0.413471
Si Si3 0.644210 0.324607 0.668497
Si Si4 0.000000 0.678553 0.449506
Si Si5 0.855914 0.831212 0.000000
Si Si6 0.631103 0.180617 0.500000
Si Si7 0.359848 0.679855 0.152974
Si Si8 0.140606 0.679779 0.910044
O O1 0.500000 0.164552 0.753541
O O2 0.684683 0.256323 0.713829
O O3 0.669354 0.253844 0.800449
O O4 0.689082 0.000000 0.756889
O O5 0.704146 0.239686 0.370795
O O6 0.889113 0.255612 0.423932
O O7 0.690792 0.222338 0.455755
O O8 0.774426 0.000000 0.411540
O O9 0.500000 0.307457 0.665491
O O10 0.671222 0.500000 0.666811
O O11 0.000000 0.500000 0.449334
O O12 0.000000 0.726357 0.500000
O O13 0.826768 0.745164 0.956487
O O14 0.000000 0.840138 0.000000
O O15 0.807996 0.000000 0.000000
O O16 0.500000 0.244066 0.500000
O O17 0.628103 0.000000 0.500000
O O18 0.500000 0.723643 0.141981
O O19 0.360224 0.500000 0.154934
O O20 0.249616 0.724118 0.121741
O O21 0.139885 0.500000 0.911833
O O22 0.000000 0.724036 0.899793
#
# Coordination Sequence:
#
# PCOD9385869 Si02
#       8
#     8   8   8   4   4   4   8   8
#     4   9  17  30  50  75 101 131 167 205 246 296
#     4  11  21  35  56  78 103 133 171 211 248 295
#     4  10  20  34  53  79 109 137 166 205 255 305
#     4  11  23  39  57  75 101 135 173 209 247 296
#     4   9  17  29  46  69  96 128 168 211 252 294
#     4   9  18  31  49  76 106 131 156 195 248 297
#     4   9  17  30  49  73 100 130 165 207 254 303
#     4   9  17  30  49  71  96 129 168 207 249 301
#
# _framework density 16.575755000000001
#
# number of rings (size 3 to 8) (size 9 to 14) (size 15 to 20)
#    0.000    2.385    0.769    2.308    0.000    5.231 
#    0.000    0.385    1.692    4.154    0.000    0.000 
#    0.000    0.000    0.000    0.000    0.000    0.000 
#
# Total GULP energy -289541.038561 kJ/mol
# GULP energy per Si atom -5568.096895 kJ/mol
# Density = 1.653803 g / cm^3
# Si number density = 16.575755 Si / 1000 Ang^3
#
#
#
# Elastic Constant Matrix: (Units=GPa)
#
#
# Indices 1 2 3 4 5 6 
#
# 1 91.6431 40.3181 70.2897 0.0000 0.0000 0.0000
# 2 40.3181 56.0030 55.1060 0.0000 0.0000 0.0000
# 3 70.2897 55.1060 158.6707 0.0000 0.0000 0.0000
# 4 0.0000 0.0000 0.0000 28.3402 0.0000 0.0000
# 5 0.0000 0.0000 0.0000 0.0000 56.1693 0.0000
# 6 0.0000 0.0000 0.0000 0.0000 0.0000 2.9529
#
#
#
# Elastic Compliance Matrix: (Units=1/GPa)
#
#
# Indices 1 2 3 4 5 6 
#
# 1 0.018642 -0.008044 -0.005465 0.000000 0.000000 0.000000
# 2 -0.008044 0.030597 -0.007063 0.000000 0.000000 0.000000
# 3 -0.005465 -0.007063 0.011176 0.000000 0.000000 0.000000
# 4 0.000000 0.000000 0.000000 0.035286 0.000000 0.000000
# 5 0.000000 0.000000 0.000000 0.000000 0.017803 0.000000
# 6 0.000000 0.000000 0.000000 0.000000 0.000000 0.338644
#
#
# Mechanical properties :
#
#
# Convention : Reuss Voigt Hill
#
# Bulk Modulus (GPa) = 51.88788 70.86049 61.37419
# Shear Modulus (GPa) = 10.00570 26.86604 18.43587
#
# Velocity S-wave (km/s) = 2.45956 4.03029 3.33861
# Velocity P-wave (km/s) = 6.27992 8.03118 7.20893
#
# Compressibility (1/GPa) = 0.01927232
#
# Stress axis : x y z
#
# Youngs Moduli (GPa) = 53.64199 32.68307 89.47651
#
# Poissons Ratio (x) = 0.26289 0.48896
# Poissons Ratio (y) = 0.43148 0.63197
# Poissons Ratio (z) = 0.29314 0.23084
#
# Static dielectric constant tensor:
#      x y z
#    x -0.251060 0.000000 0.000000 
#    y 0.000000 1.559300 0.000000 
#    z 0.000000 0.000000 1.521280 
# 
# From -- ./inp_files/33692.got.cif
#   From: 2010.05.17/outbox.cif.g08.bks.cpg/sg47_17_cif.got.tgz:33692.got - 2010.06.03 20:15:42.
