data_PCOD9385758
_publ_section_title
;
Structure prediction by ZEFSAII (Michael W. Deem and Ramdas Pophale) SiO2 
 PCOD9385758
Probable space group: P M M M
;
_chemical_formula_sum "Si O2"
_cell_formula_units_Z 52
_cell_length_a 8.884973
_cell_length_b 24.038429
_cell_length_c 14.621696
_cell_angle_alpha 90.000000
_cell_angle_beta 90.000000
_cell_angle_gamma 90.000000
_cell_volume 3122.913421
_symmetry_space_group_name_H-M "P M M M"
_symmetry_group_IT_number 47
_symmetry_cell_setting 'orthorhombic'
loop_
_space_group_symop_operation_xyz
x,y,z
-x,-y,z
x,-y,-z
-x,y,-z
-x,-y,-z
x,y,-z
-x,y,z
x,-y,z
loop_
_atom_site_type_symbol
_atom_site_label
_atom_site_fract_x
_atom_site_fract_y
_atom_site_fract_z
Si Si1 0.681109 0.438607 0.716601
Si Si2 0.180747 0.225272 0.282259
Si Si3 0.818911 0.884238 0.606293
Si Si4 0.673915 0.000000 0.388982
Si Si5 0.180143 0.607542 0.103585
Si Si6 0.318477 0.328349 0.392817
Si Si7 0.679135 0.269409 0.895317
O O1 0.500000 0.436283 0.724654
O O2 0.721803 0.500000 0.681239
O O3 0.751730 0.429395 0.816295
O O4 0.726621 0.387133 0.652476
O O5 0.226394 0.168552 0.333343
O O6 0.241721 0.277851 0.339362
O O7 0.248617 0.230579 0.181142
O O8 0.000000 0.227620 0.278635
O O9 0.772881 0.875602 0.500000
O O10 0.752455 0.942745 0.639906
O O11 0.000000 0.887972 0.607480
O O12 0.500000 0.000000 0.362418
O O13 0.682862 0.000000 0.500000
O O14 0.248377 0.669371 0.114887
O O15 0.000000 0.610212 0.111966
O O16 0.216649 0.588740 0.000000
O O17 0.280929 0.326893 0.500000
O O18 0.500000 0.323158 0.383979
O O19 0.500000 0.274009 0.881067
O O20 0.706197 0.251315 0.000000
#
# Coordination Sequence:
#
# PCOD9385758 Si02
#       7
#     8   8   8   4   8   8   8
#     4  10  21  36  53  73  98 131 170 209 254 310
#     4  11  21  33  53  80 107 136 171 211 255 304
#     4   9  18  32  49  72 106 146 179 207 247 298
#     4   9  17  29  47  73 104 139 180 221 253 284
#     4  10  20  34  53  76 100 127 160 202 255 311
#     4  10  21  36  53  73  99 133 171 212 258 304
#     4  10  20  34  53  76 103 134 166 204 254 310
#
# _framework density 16.651116999999999
#
# number of rings (size 3 to 8) (size 9 to 14) (size 15 to 20)
#    0.000    2.077    1.538    2.077    0.000    5.846 
#    0.000    4.615    0.000    0.000    0.000    2.692 
#    0.000    4.308    0.000    0.000    0.000    0.000 
#
# Total GULP energy -290191.065671 kJ/mol
# GULP energy per Si atom -5580.597417 kJ/mol
# Density = 1.661322 g / cm^3
# Si number density = 16.651117 Si / 1000 Ang^3
#
#
#
# Elastic Constant Matrix: (Units=GPa)
#
#
# Indices 1 2 3 4 5 6 
#
# 1 26.3196 38.5776 30.2994 0.0000 0.0000 0.0000
# 2 38.5776 137.4830 61.7719 0.0000 0.0000 0.0000
# 3 30.2994 61.7719 89.6838 0.0000 0.0000 0.0000
# 4 0.0000 0.0000 0.0000 24.5937 0.0000 0.0000
# 5 0.0000 0.0000 0.0000 0.0000 23.8905 0.0000
# 6 0.0000 0.0000 0.0000 0.0000 0.0000 25.2078
#
#
#
# Elastic Compliance Matrix: (Units=1/GPa)
#
#
# Indices 1 2 3 4 5 6 
#
# 1 0.078247 -0.014595 -0.016383 0.000000 0.000000 0.000000
# 2 -0.014595 0.013256 -0.004199 0.000000 0.000000 0.000000
# 3 -0.016383 -0.004199 0.019578 0.000000 0.000000 0.000000
# 4 0.000000 0.000000 0.000000 0.040661 0.000000 0.000000
# 5 0.000000 0.000000 0.000000 0.000000 0.041858 0.000000
# 6 0.000000 0.000000 0.000000 0.000000 0.000000 0.039670
#
#
# Mechanical properties :
#
#
# Convention : Reuss Voigt Hill
#
# Bulk Modulus (GPa) = 24.55434 57.19827 40.87630
# Shear Modulus (GPa) = 15.76294 22.92755 19.34524
#
# Velocity S-wave (km/s) = 3.08012 3.71474 3.41221
# Velocity P-wave (km/s) = 5.23717 7.26805 6.33453
#
# Compressibility (1/GPa) = 0.04072600
#
# Stress axis : x y z
#
# Youngs Moduli (GPa) = 12.77997 75.43861 51.07891
#
# Poissons Ratio (x) = 1.10105 0.83682
# Poissons Ratio (y) = 0.18653 0.21450
# Poissons Ratio (z) = 0.20937 0.31679
#
# Static dielectric constant tensor:
#      x y z
#    x 1.558290 0.000000 0.000000 
#    y 0.000000 1.548440 0.000000 
#    z 0.000000 0.000000 1.558610 
# 
# From -- ./inp_files/6932.got.cif
#   From: 2010.05.17/outbox.cif.g08.bks.cpg/sg47_4_cif.got.tgz:6932.got - 2010.06.03 20:15:42.
