data_PCOD9385053
_publ_section_title
;
Structure prediction by ZEFSAII (Michael W. Deem and Ramdas Pophale) SiO2 
 PCOD9385053
Probable space group: P M M M
;
_chemical_formula_sum "Si O2"
_cell_formula_units_Z 44
_cell_length_a 9.045573
_cell_length_b 14.173337
_cell_length_c 21.310787
_cell_angle_alpha 90.000000
_cell_angle_beta 90.000000
_cell_angle_gamma 90.000000
_cell_volume 2732.169788
_symmetry_space_group_name_H-M "P M M M"
_symmetry_group_IT_number 47
_symmetry_cell_setting 'orthorhombic'
loop_
_space_group_symop_operation_xyz
x,y,z
-x,-y,z
x,-y,-z
-x,y,-z
-x,-y,-z
x,y,-z
-x,y,z
x,-y,z
loop_
_atom_site_type_symbol
_atom_site_label
_atom_site_fract_x
_atom_site_fract_y
_atom_site_fract_z
Si Si1 0.175840 0.782075 0.313051
Si Si2 0.325708 0.113606 0.571218
Si Si3 0.168954 0.614477 0.500000
Si Si4 0.674124 0.886765 0.197663
Si Si5 0.675991 0.388838 0.369408
Si Si6 0.827775 0.885555 0.930280
O O1 0.232494 0.838644 0.374310
O O2 0.236228 0.835183 0.252013
O O3 0.247129 0.678523 0.319316
O O4 0.000000 0.776965 0.312697
O O5 0.282334 0.140558 0.500000
O O6 0.500000 0.136905 0.579315
O O7 0.313387 0.000000 0.575708
O O8 0.162023 0.500000 0.500000
O O9 0.256462 0.639353 0.437050
O O10 0.000000 0.649988 0.500000
O O11 0.500000 0.868668 0.204761
O O12 0.730860 0.856077 0.128947
O O13 0.696790 0.000000 0.203018
O O14 0.500000 0.375377 0.370065
O O15 0.705892 0.500000 0.359658
O O16 0.000000 0.859395 0.921381
O O17 0.822961 0.000000 0.931233
O O18 0.780166 0.853699 0.000000
#
# Coordination Sequence:
#
# PCOD9385053 Si02
#       6
#     8   8   4   8   8   8
#     4  12  24  34  49  71  97 127 160 202 249 295
#     4   9  19  36  54  69  89 121 161 203 244 287
#     4   9  17  31  51  73  94 113 140 185 239 291
#     4  10  20  33  49  70  99 134 171 207 240 281
#     4  10  21  37  55  72  92 121 156 196 245 300
#     4   8  14  26  45  69  98 131 164 198 238 283
#
# _framework density 16.104416000000001
#
# number of rings (size 3 to 8) (size 9 to 14) (size 15 to 20)
#    0.000    2.273    0.000    4.636    1.273    6.545 
#    0.000    2.727    0.000    0.000    0.000    0.000 
#    0.000    0.727    0.000    7.636    0.000    3.636 
#
# Total GULP energy -245576.903406 kJ/mol
# GULP energy per Si atom -5581.293259 kJ/mol
# Density = 1.606776 g / cm^3
# Si number density = 16.104416 Si / 1000 Ang^3
#
#
#
# Elastic Constant Matrix: (Units=GPa)
#
#
# Indices 1 2 3 4 5 6 
#
# 1 113.4958 43.3731 71.9754 0.0000 0.0000 0.0000
# 2 43.3731 51.3338 42.1477 0.0000 0.0000 0.0000
# 3 71.9754 42.1477 111.8013 0.0000 0.0000 0.0000
# 4 0.0000 0.0000 0.0000 9.5381 0.0000 0.0000
# 5 0.0000 0.0000 0.0000 0.0000 30.6963 0.0000
# 6 0.0000 0.0000 0.0000 0.0000 0.0000 20.0638
#
#
#
# Elastic Compliance Matrix: (Units=1/GPa)
#
#
# Indices 1 2 3 4 5 6 
#
# 1 0.016745 -0.007672 -0.007888 0.000000 0.000000 0.000000
# 2 -0.007672 0.031728 -0.007022 0.000000 0.000000 0.000000
# 3 -0.007888 -0.007022 0.016670 0.000000 0.000000 0.000000
# 4 0.000000 0.000000 0.000000 0.104842 0.000000 0.000000
# 5 0.000000 0.000000 0.000000 0.000000 0.032577 0.000000
# 6 0.000000 0.000000 0.000000 0.000000 0.000000 0.049841
#
#
# Mechanical properties :
#
#
# Convention : Reuss Voigt Hill
#
# Bulk Modulus (GPa) = 50.05241 65.73593 57.89417
# Shear Modulus (GPa) = 16.43510 20.00194 18.21852
#
# Velocity S-wave (km/s) = 3.19805 3.52805 3.36709
# Velocity P-wave (km/s) = 6.69209 7.58310 7.15148
#
# Compressibility (1/GPa) = 0.01997906
#
# Stress axis : x y z
#
# Youngs Moduli (GPa) = 59.71927 31.51795 59.98888
#
# Poissons Ratio (x) = 0.24180 0.47319
# Poissons Ratio (y) = 0.45816 0.42125
# Poissons Ratio (z) = 0.47106 0.22132
#
# Static dielectric constant tensor:
#      x y z
#    x 1.535630 0.000000 0.000000 
#    y 0.000000 1.553380 0.000000 
#    z 0.000000 0.000000 1.533900 
# 
# From -- ./inp_files/29447.got.cif
#   From: 2010.05.17/outbox.cif.g08.bks.cpg/sg47_15_cif.got.tgz:29447.got - 2010.06.03 20:15:42.
