data_PCOD9385306
_publ_section_title
;
Structure prediction by ZEFSAII (Michael W. Deem and Ramdas Pophale) SiO2 
 PCOD9385306
Probable space group: P M M M
;
_chemical_formula_sum "Si O2"
_cell_formula_units_Z 64
_cell_length_a 9.033248
_cell_length_b 23.311630
_cell_length_c 18.253814
_cell_angle_alpha 90.000000
_cell_angle_beta 90.000000
_cell_angle_gamma 90.000000
_cell_volume 3843.883316
_symmetry_space_group_name_H-M "P M M M"
_symmetry_group_IT_number 47
_symmetry_cell_setting 'orthorhombic'
loop_
_space_group_symop_operation_xyz
x,y,z
-x,-y,z
x,-y,-z
-x,y,-z
-x,-y,-z
x,y,-z
-x,y,z
x,-y,z
loop_
_atom_site_type_symbol
_atom_site_label
_atom_site_fract_x
_atom_site_fract_y
_atom_site_fract_z
Si Si1 0.331912 0.348656 0.193074
Si Si2 0.662308 0.242561 0.916572
Si Si3 0.173380 0.818815 0.587636
Si Si4 0.672175 0.936238 0.410954
Si Si5 0.822443 0.432262 0.917427
Si Si6 0.322543 0.067444 0.916313
Si Si7 0.172217 0.838779 0.823747
Si Si8 0.677943 0.752494 0.291448
O O1 0.500000 0.367905 0.209046
O O2 0.337848 0.298492 0.132544
O O3 0.243446 0.398296 0.151662
O O4 0.274265 0.310686 0.262056
O O5 0.500000 0.213411 0.904959
O O6 0.795461 0.202324 0.893094
O O7 0.672448 0.258787 0.000000
O O8 0.192502 0.815357 0.500000
O O9 0.232827 0.881566 0.612055
O O10 0.264032 0.769792 0.629065
O O11 0.000000 0.813949 0.604557
O O12 0.676089 0.937115 0.500000
O O13 0.500000 0.928426 0.389814
O O14 0.720819 0.000000 0.386412
O O15 0.788793 0.500000 0.911747
O O16 0.000000 0.425671 0.916337
O O17 0.771951 0.413442 0.000000
O O18 0.500000 0.073272 0.910099
O O19 0.244306 0.102334 0.851533
O O20 0.287195 0.000000 0.911688
O O21 0.282873 0.086719 0.000000
O O22 0.255737 0.802898 0.760407
O O23 0.000000 0.844546 0.806696
O O24 0.500000 0.753978 0.286938
#
# Coordination Sequence:
#
# PCOD9385306 Si02
#       8
#     8   8   8   8   8   8   8   8
#     4   9  18  31  47  68  92 122 162 204 239 268
#     4   9  17  29  44  62  87 119 154 190 227 272
#     4  10  20  33  51  76 102 124 151 194 246 296
#     4   8  14  26  45  68  93 122 154 183 216 269
#     4   9  18  31  46  68 101 139 174 205 239 281
#     4   9  18  33  51  67  85 115 154 193 236 288
#     4  11  21  31  45  66  91 115 144 188 239 284
#     4  10  21  37  53  68  92 126 161 195 234 286
#
# _framework density 16.649829
#
# number of rings (size 3 to 8) (size 9 to 14) (size 15 to 20)
#    0.000    2.625    0.000    4.500    0.000    6.750 
#    0.000    3.125    0.000    3.750    0.000    0.000 
#    0.000    0.500    0.000    5.500    0.000    4.000 
#
# Total GULP energy -356344.270695 kJ/mol
# GULP energy per Si atom -5567.879230 kJ/mol
# Density = 1.661193 g / cm^3
# Si number density = 16.649829 Si / 1000 Ang^3
#
#
#
# Elastic Constant Matrix: (Units=GPa)
#
#
# Indices 1 2 3 4 5 6 
#
# 1 57.8342 32.7115 24.5819 0.0000 0.0000 0.0000
# 2 32.7115 69.6044 24.1838 0.0000 0.0000 0.0000
# 3 24.5819 24.1838 33.3290 0.0000 0.0000 0.0000
# 4 0.0000 0.0000 0.0000 26.7449 0.0000 0.0000
# 5 0.0000 0.0000 0.0000 0.0000 20.2266 0.0000
# 6 0.0000 0.0000 0.0000 0.0000 0.0000 30.2558
#
#
#
# Elastic Compliance Matrix: (Units=1/GPa)
#
#
# Indices 1 2 3 4 5 6 
#
# 1 0.028206 -0.008060 -0.014955 0.000000 0.000000 0.000000
# 2 -0.008060 0.021513 -0.009665 0.000000 0.000000 0.000000
# 3 -0.014955 -0.009665 0.048047 0.000000 0.000000 0.000000
# 4 0.000000 0.000000 0.000000 0.037390 0.000000 0.000000
# 5 0.000000 0.000000 0.000000 0.000000 0.049440 0.000000
# 6 0.000000 0.000000 0.000000 0.000000 0.000000 0.033051
#
#
# Mechanical properties :
#
#
# Convention : Reuss Voigt Hill
#
# Bulk Modulus (GPa) = 30.85886 35.96909 33.41397
# Shear Modulus (GPa) = 17.01776 20.73149 18.87463
#
# Velocity S-wave (km/s) = 3.20050 3.53249 3.37058
# Velocity P-wave (km/s) = 5.67731 6.18774 5.93801
#
# Compressibility (1/GPa) = 0.03240560
#
# Stress axis : x y z
#
# Youngs Moduli (GPa) = 35.45348 46.48384 20.81275
#
# Poissons Ratio (x) = 0.37464 0.31126
# Poissons Ratio (y) = 0.28574 0.20117
# Poissons Ratio (z) = 0.53022 0.44929
#
# Static dielectric constant tensor:
#      x y z
#    x 1.581920 0.000000 0.000000 
#    y 0.000000 1.575820 0.000000 
#    z 0.000000 0.000000 1.611800 
# 
# From -- ./inp_files/27139.got.cif
#   From: 2010.05.17/outbox.cif.g08.bks.cpg/sg47_14_cif.got.tgz:27139.got - 2010.06.03 20:15:42.
