data_PCOD9385529
_publ_section_title
;
Structure prediction by ZEFSAII (Michael W. Deem and Ramdas Pophale) SiO2 
 PCOD9385529
Probable space group: P M M M
;
_chemical_formula_sum "Si O2"
_cell_formula_units_Z 48
_cell_length_a 17.263016
_cell_length_b 9.678544
_cell_length_c 15.589092
_cell_angle_alpha 90.000000
_cell_angle_beta 90.000000
_cell_angle_gamma 90.000000
_cell_volume 2604.638897
_symmetry_space_group_name_H-M "P M M M"
_symmetry_group_IT_number 47
_symmetry_cell_setting 'orthorhombic'
loop_
_space_group_symop_operation_xyz
x,y,z
-x,-y,z
x,-y,-z
-x,y,-z
-x,-y,-z
x,y,-z
-x,y,z
x,-y,z
loop_
_atom_site_type_symbol
_atom_site_label
_atom_site_fract_x
_atom_site_fract_y
_atom_site_fract_z
Si Si1 0.595144 0.157032 0.000000
Si Si2 0.089512 0.667821 0.902872
Si Si3 0.348142 0.664711 0.335931
Si Si4 0.406362 0.164987 0.500000
Si Si5 0.907108 0.157303 0.595846
Si Si6 0.176098 0.664936 0.734582
Si Si7 0.409099 0.346698 0.846594
O O1 0.621921 0.238903 0.915453
O O2 0.500000 0.153828 0.000000
O O3 0.621506 0.000000 0.000000
O O4 0.090438 0.500000 0.904456
O O5 0.149785 0.711603 0.829545
O O6 0.000000 0.707473 0.881970
O O7 0.106954 0.714721 0.000000
O O8 0.353508 0.500000 0.357669
O O9 0.371489 0.758380 0.416276
O O10 0.262815 0.693450 0.297889
O O11 0.401119 0.691631 0.252694
O O12 0.500000 0.181635 0.500000
O O13 0.389695 0.000000 0.500000
O O14 0.879761 0.195584 0.500000
O O15 0.878518 0.261256 0.666612
O O16 0.000000 0.156176 0.594444
O O17 0.881052 0.000000 0.613333
O O18 0.165988 0.500000 0.731667
O O19 0.500000 0.358187 0.865728
O O20 0.373170 0.500000 0.857137
#
# Coordination Sequence:
#
# PCOD9385529 Si02
#       7
#     4   8   8   4   8   8   8
#     4   9  17  29  49  77 105 133 168 217 268 309
#     4   8  14  27  49  77 110 147 184 223 268 315
#     4  10  22  38  56  83 114 144 178 226 286 339
#     4  11  25  43  63  85 106 139 190 235 275 338
#     4   9  19  35  53  74 103 143 186 222 264 322
#     4  10  20  33  52  82 113 140 179 228 274 323
#     4   9  17  32  53  75 102 139 180 216 260 326
#
# _framework density 18.428657000000001
#
# number of rings (size 3 to 8) (size 9 to 14) (size 15 to 20)
#    0.000    2.667    0.000    2.500    1.167    5.000 
#    1.500    2.500    0.000    0.500    0.000    2.333 
#    0.000    0.000    0.000    0.000    0.000    0.000 
#
# Total GULP energy -267432.783828 kJ/mol
# GULP energy per Si atom -5571.516330 kJ/mol
# Density = 1.838671 g / cm^3
# Si number density = 18.428657 Si / 1000 Ang^3
#
#
#
# Elastic Constant Matrix: (Units=GPa)
#
#
# Indices 1 2 3 4 5 6 
#
# 1 49.2322 34.7780 52.5393 0.0000 0.0000 0.0000
# 2 34.7780 71.4432 82.5241 0.0000 0.0000 0.0000
# 3 52.5393 82.5241 156.4769 0.0000 0.0000 0.0000
# 4 0.0000 0.0000 0.0000 -21.8129 0.0000 0.0000
# 5 0.0000 0.0000 0.0000 0.0000 19.9944 0.0000
# 6 0.0000 0.0000 0.0000 0.0000 0.0000 13.8383
#
#
#
# Elastic Compliance Matrix: (Units=1/GPa)
#
#
# Indices 1 2 3 4 5 6 
#
# 1 0.033555 -0.008496 -0.006786 0.000000 0.000000 0.000000
# 2 -0.008496 0.037967 -0.017170 0.000000 0.000000 0.000000
# 3 -0.006786 -0.017170 0.017725 0.000000 0.000000 0.000000
# 4 0.000000 0.000000 0.000000 -0.045844 0.000000 0.000000
# 5 0.000000 0.000000 0.000000 0.000000 0.050014 0.000000
# 6 0.000000 0.000000 0.000000 0.000000 0.000000 0.072263
#
#
# Mechanical properties :
#
#
# Convention : Reuss Voigt Hill
#
# Bulk Modulus (GPa) = 41.08176 68.53725 54.80950
# Shear Modulus (GPa) = 20.94695 9.55803 15.25249
#
# Velocity S-wave (km/s) = 3.37508 2.27986 2.88001
# Velocity P-wave (km/s) = 6.12609 6.64843 6.39260
#
# Compressibility (1/GPa) = 0.02434171
#
# Stress axis : x y z
#
# Youngs Moduli (GPa) = 29.80153 26.33898 56.41836
#
# Poissons Ratio (x) = 0.22378 0.38285
# Poissons Ratio (y) = 0.25319 0.96873
# Poissons Ratio (z) = 0.20223 0.45225
#
# Static dielectric constant tensor:
#      x y z
#    x 2.829710 0.000000 0.000000 
#    y 0.000000 1.623760 0.000000 
#    z 0.000000 0.000000 1.635210 
# 
# From -- ./inp_files/24497.got.cif
#   From: 2010.05.17/outbox.cif.g08.bks.cpg/sg47_13_cif.got.tgz:24497.got - 2010.06.03 20:15:42.
