data_PCOD9385584
_publ_section_title
;
Structure prediction by ZEFSAII (Michael W. Deem and Ramdas Pophale) SiO2 
 PCOD9385584
Probable space group: P M M M
;
_chemical_formula_sum "Si O2"
_cell_formula_units_Z 64
_cell_length_a 23.956146
_cell_length_b 9.844023
_cell_length_c 14.695303
_cell_angle_alpha 90.000000
_cell_angle_beta 90.000000
_cell_angle_gamma 90.000000
_cell_volume 3465.517658
_symmetry_space_group_name_H-M "P M M M"
_symmetry_group_IT_number 47
_symmetry_cell_setting 'orthorhombic'
loop_
_space_group_symop_operation_xyz
x,y,z
-x,-y,z
x,-y,-z
-x,y,-z
-x,-y,-z
x,y,-z
-x,y,z
x,-y,z
loop_
_atom_site_type_symbol
_atom_site_label
_atom_site_fract_x
_atom_site_fract_y
_atom_site_fract_z
Si Si1 0.659874 0.351420 0.393770
Si Si2 0.670575 0.656260 0.108310
Si Si3 0.139485 0.156015 0.267869
Si Si4 0.563101 0.148945 0.637737
Si Si5 0.067089 0.340021 0.396142
Si Si6 0.248343 0.150045 0.608463
Si Si7 0.436301 0.154853 0.856275
Si Si8 0.777425 0.161336 0.891190
O O1 0.673618 0.364282 0.500000
O O2 0.654784 0.500000 0.353354
O O3 0.603346 0.268200 0.389532
O O4 0.709261 0.261379 0.354315
O O5 0.669694 0.500000 0.143189
O O6 0.612748 0.738741 0.123110
O O7 0.724179 0.747007 0.136982
O O8 0.676559 0.646496 0.000000
O O9 0.094863 0.254084 0.315409
O O10 0.190794 0.156811 0.338879
O O11 0.168718 0.194222 0.171657
O O12 0.118834 0.000000 0.260500
O O13 0.500000 0.167897 0.605752
O O14 0.561745 0.147681 0.746985
O O15 0.582922 0.000000 0.607162
O O16 0.083941 0.297379 0.500000
O O17 0.081400 0.500000 0.387384
O O18 0.000000 0.328455 0.391946
O O19 0.239495 0.165464 0.500000
O O20 0.273146 0.000000 0.622823
O O21 0.500000 0.190157 0.886588
O O22 0.423855 0.000000 0.888736
O O23 0.765203 0.000000 0.875856
O O24 0.787333 0.178641 0.000000
#
# Coordination Sequence:
#
# PCOD9385584 Si02
#       8
#     8   8   8   8   8   8   8   8
#     4  10  21  34  47  67  95 125 158 200 252 308
#     4  10  21  35  51  74 103 132 165 210 265 324
#     4  10  20  33  55  85 110 142 188 232 271 311
#     4   9  19  35  52  68  87 116 157 203 250 304
#     4   9  19  36  57  84 121 160 191 221 264 320
#     4   9  18  32  48  70 103 136 167 210 261 312
#     4   9  19  35  53  72  94 123 162 208 259 321
#     4   9  19  36  55  77 109 147 186 229 276 325
#
# _framework density 18.467659000000001
#
# number of rings (size 3 to 8) (size 9 to 14) (size 15 to 20)
#    0.000    2.625    0.000    2.250    1.750    5.000 
#    0.000    5.625    0.000    0.375    0.000    2.625 
#    0.000    0.000    0.000    0.000    0.000    0.000 
#
# Total GULP energy -356690.617427 kJ/mol
# GULP energy per Si atom -5573.290897 kJ/mol
# Density = 1.842563 g / cm^3
# Si number density = 18.467659 Si / 1000 Ang^3
#
#
#
# Elastic Constant Matrix: (Units=GPa)
#
#
# Indices 1 2 3 4 5 6 
#
# 1 64.9760 51.5567 30.0585 0.0000 0.0000 0.0000
# 2 51.5567 104.6390 40.3539 0.0000 0.0000 0.0000
# 3 30.0585 40.3539 88.0376 0.0000 0.0000 0.0000
# 4 0.0000 0.0000 0.0000 -326.2037 0.0000 0.0000
# 5 0.0000 0.0000 0.0000 0.0000 31.3460 0.0000
# 6 0.0000 0.0000 0.0000 0.0000 0.0000 43.8639
#
#
#
# Elastic Compliance Matrix: (Units=1/GPa)
#
#
# Indices 1 2 3 4 5 6 
#
# 1 0.026216 -0.011497 -0.003681 0.000000 0.000000 0.000000
# 2 -0.011497 0.016651 -0.003707 0.000000 0.000000 0.000000
# 3 -0.003681 -0.003707 0.014315 0.000000 0.000000 0.000000
# 4 0.000000 0.000000 0.000000 -0.003066 0.000000 0.000000
# 5 0.000000 0.000000 0.000000 0.000000 0.031902 0.000000
# 6 0.000000 0.000000 0.000000 0.000000 0.000000 0.022798
#
#
# Mechanical properties :
#
#
# Convention : Reuss Voigt Hill
#
# Bulk Modulus (GPa) = 51.51556 55.73231 53.62394
# Shear Modulus (GPa) = 32.66766 -41.15322 -4.24278
#
# Velocity S-wave (km/s) = 4.21041 -4.72571 -1.51737
# Velocity P-wave (km/s) = 7.18278 0.68368 5.10195
#
# Compressibility (1/GPa) = 0.01941161
#
# Stress axis : x y z
#
# Youngs Moduli (GPa) = 38.14470 60.05607 69.85857
#
# Poissons Ratio (x) = 0.69049 0.25714
# Poissons Ratio (y) = 0.43856 0.25896
# Poissons Ratio (z) = 0.14040 0.22262
#
# Static dielectric constant tensor:
#      x y z
#    x 1.611390 0.000000 0.000000 
#    y 0.000000 1.668850 0.000000 
#    z 0.000000 0.000000 1.681870 
# 
# From -- ./inp_files/7814.got.cif
#   From: 2010.05.17/outbox.cif.g08.bks.cpg/sg47_4_cif.got.tgz:7814.got - 2010.06.03 20:15:42.
