data_PCOD9385375
_publ_section_title
;
Structure prediction by ZEFSAII (Michael W. Deem and Ramdas Pophale) SiO2 
 PCOD9385375
Probable space group: P M M M
;
_chemical_formula_sum "Si O2"
_cell_formula_units_Z 44
_cell_length_a 8.241992
_cell_length_b 29.070960
_cell_length_c 9.575393
_cell_angle_alpha 90.000000
_cell_angle_beta 90.000000
_cell_angle_gamma 90.000000
_cell_volume 2294.289248
_symmetry_space_group_name_H-M "P M M M"
_symmetry_group_IT_number 47
_symmetry_cell_setting 'orthorhombic'
loop_
_space_group_symop_operation_xyz
x,y,z
-x,-y,z
x,-y,-z
-x,y,-z
-x,-y,-z
x,y,-z
-x,y,z
x,-y,z
loop_
_atom_site_type_symbol
_atom_site_label
_atom_site_fract_x
_atom_site_fract_y
_atom_site_fract_z
Si Si1 0.695405 0.362338 0.840812
Si Si2 0.195915 0.552371 0.659951
Si Si3 0.806130 0.914117 0.159950
Si Si4 0.698653 0.725216 0.339267
Si Si5 0.695765 0.812686 0.160650
Si Si6 0.693619 0.000000 0.658433
O O1 0.500000 0.359382 0.845603
O O2 0.741032 0.409665 0.765621
O O3 0.752903 0.319284 0.748011
O O4 0.755845 0.360136 0.000000
O O5 0.247430 0.562629 0.500000
O O6 0.247235 0.500000 0.693083
O O7 0.000000 0.553111 0.662014
O O8 0.750288 0.863412 0.205540
O O9 0.000000 0.914958 0.156837
O O10 0.747424 0.954740 0.258517
O O11 0.746270 0.920997 0.000000
O O12 0.751359 0.723442 0.500000
O O13 0.500000 0.725078 0.339375
O O14 0.751160 0.771663 0.260711
O O15 0.500000 0.811919 0.159495
O O16 0.750971 0.805499 0.000000
O O17 0.500000 0.000000 0.652844
O O18 0.757916 0.000000 0.500000
#
# Coordination Sequence:
#
# PCOD9385375 Si02
#       6
#     8   8   8   8   8   4
#     4  10  20  33  51  77 107 137 172 215 260 307
#     4   9  19  36  55  74  99 133 172 213 259 313
#     4  10  21  37  57  81 109 141 176 214 259 311
#     4   9  17  30  50  75 102 134 173 216 260 305
#     4   9  17  31  52  76 102 134 172 213 257 306
#     4  11  24  39  56  80 108 139 178 221 262 308
#
# _framework density 19.178052000000001
#
# number of rings (size 3 to 8) (size 9 to 14) (size 15 to 20)
#    0.000    2.455    0.000    2.727    0.000    8.000 
#    0.000    5.455    0.000    3.273    0.000    0.000 
#    0.000    0.000    0.000    0.000    0.000    0.000 
#
# Total GULP energy -245624.185455 kJ/mol
# GULP energy per Si atom -5582.367851 kJ/mol
# Density = 1.913440 g / cm^3
# Si number density = 19.178052 Si / 1000 Ang^3
#
#
#
# Elastic Constant Matrix: (Units=GPa)
#
#
# Indices 1 2 3 4 5 6 
#
# 1 9.1344 15.6842 16.3936 0.0000 0.0000 0.0000
# 2 15.6842 193.1898 142.2107 0.0000 0.0000 0.0000
# 3 16.3936 142.2107 167.3056 0.0000 0.0000 0.0000
# 4 0.0000 0.0000 0.0000 -171.1499 0.0000 0.0000
# 5 0.0000 0.0000 0.0000 0.0000 17.9153 0.0000
# 6 0.0000 0.0000 0.0000 0.0000 0.0000 128.6983
#
#
#
# Elastic Compliance Matrix: (Units=1/GPa)
#
#
# Indices 1 2 3 4 5 6 
#
# 1 0.133588 -0.003232 -0.010342 0.000000 0.000000 0.000000
# 2 -0.003232 0.013908 -0.011505 0.000000 0.000000 0.000000
# 3 -0.010342 -0.011505 0.016770 0.000000 0.000000 0.000000
# 4 0.000000 0.000000 0.000000 -0.005843 0.000000 0.000000
# 5 0.000000 0.000000 0.000000 0.000000 0.055818 0.000000
# 6 0.000000 0.000000 0.000000 0.000000 0.000000 0.007770
#
#
# Mechanical properties :
#
#
# Convention : Reuss Voigt Hill
#
# Bulk Modulus (GPa) = 8.76376 79.80074 44.28225
# Shear Modulus (GPa) = 16.11840 8.11549 12.11695
#
# Velocity S-wave (km/s) = 2.90221 2.05933 2.51632
# Velocity P-wave (km/s) = 3.97619 6.88151 5.61984
#
# Compressibility (1/GPa) = 0.11410626
#
# Stress axis : x y z
#
# Youngs Moduli (GPa) = 7.48572 71.90318 59.63147
#
# Poissons Ratio (x) = 0.23240 0.61673
# Poissons Ratio (y) = 0.02419 0.68605
# Poissons Ratio (z) = 0.07742 0.82723
#
# Static dielectric constant tensor:
#      x y z
#    x 1.669020 0.000000 0.000000 
#    y 0.000000 1.637690 0.000000 
#    z 0.000000 0.000000 1.662990 
# 
# From -- ./inp_files/2013.got.cif
#   From: 2010.05.17/outbox.cif.g08.bks.cpg/sg47_2_cif.got.tgz:2013.got - 2010.06.03 20:15:42.
