data_PCOD9385196
_publ_section_title
;
Structure prediction by ZEFSAII (Michael W. Deem and Ramdas Pophale) SiO2 
 PCOD9385196
Probable space group: P M M M
;
_chemical_formula_sum "Si O2"
_cell_formula_units_Z 64
_cell_length_a 7.677572
_cell_length_b 15.084973
_cell_length_c 26.102139
_cell_angle_alpha 90.000000
_cell_angle_beta 90.000000
_cell_angle_gamma 90.000000
_cell_volume 3023.044451
_symmetry_space_group_name_H-M "P M M M"
_symmetry_group_IT_number 47
_symmetry_cell_setting 'orthorhombic'
loop_
_space_group_symop_operation_xyz
x,y,z
-x,-y,z
x,-y,-z
-x,y,-z
-x,-y,-z
x,y,-z
-x,y,z
x,-y,z
loop_
_atom_site_type_symbol
_atom_site_label
_atom_site_fract_x
_atom_site_fract_y
_atom_site_fract_z
Si Si1 0.709751 0.404926 0.439789
Si Si2 0.294417 0.788541 0.943848
Si Si3 0.792250 0.401728 0.902922
Si Si4 0.704882 0.098581 0.652824
Si Si5 0.290344 0.597198 0.217712
Si Si6 0.286351 0.784607 0.254084
Si Si7 0.713050 0.102582 0.845722
Si Si8 0.795520 0.211028 0.558179
O O1 0.761195 0.405063 0.500000
O O2 0.500000 0.404427 0.437728
O O3 0.769091 0.500000 0.417822
O O4 0.769754 0.310352 0.419648
O O5 0.500000 0.808496 0.945808
O O6 0.277422 0.684140 0.931756
O O7 0.224387 0.845962 0.896468
O O8 0.219287 0.807783 0.000000
O O9 0.727884 0.500000 0.918859
O O10 0.749731 0.391813 0.842623
O O11 0.000000 0.401323 0.908981
O O12 0.500000 0.091273 0.664536
O O13 0.776481 0.166324 0.694978
O O14 0.719895 0.139764 0.596670
O O15 0.780740 0.000000 0.655922
O O16 0.500000 0.595662 0.222626
O O17 0.224024 0.500000 0.233632
O O18 0.225704 0.683604 0.247294
O O19 0.500000 0.781598 0.254602
O O20 0.235323 0.842513 0.204606
O O21 0.500000 0.103138 0.846079
O O22 0.767516 0.000000 0.844146
O O23 0.722864 0.208431 0.500000
O O24 0.000000 0.194849 0.554945
#
# Coordination Sequence:
#
# PCOD9385196 Si02
#       8
#     8   8   8   8   8   8   8   8
#     4   8  14  27  50  79 108 138 174 216 258 301
#     4  10  20  33  50  75 105 136 173 217 263 311
#     4  10  20  33  50  73 102 137 175 213 256 309
#     4  10  21  36  55  79 105 136 178 228 276 320
#     4   9  16  29  53  81 107 135 168 208 255 309
#     4   9  16  30  53  80 106 132 167 212 263 314
#     4   9  16  28  50  78 104 131 166 212 263 309
#     4  10  21  36  54  77 108 147 184 218 264 322
#
# _framework density 21.170712000000002
#
# number of rings (size 3 to 8) (size 9 to 14) (size 15 to 20)
#    0.000    2.625    1.250    1.500    0.000    4.500 
#    0.000    6.250    0.000    2.625    0.000    0.875 
#    0.000    0.000    0.000    0.000    0.000    0.000 
#
# Total GULP energy -357025.969645 kJ/mol
# GULP energy per Si atom -5578.530776 kJ/mol
# Density = 2.112253 g / cm^3
# Si number density = 21.170712 Si / 1000 Ang^3
#
#
#
# Elastic Constant Matrix: (Units=GPa)
#
#
# Indices 1 2 3 4 5 6 
#
# 1 34.5863 -0.6487 -1.3835 0.0000 0.0000 0.0000
# 2 -0.6487 113.0992 65.2697 0.0000 0.0000 0.0000
# 3 -1.3835 65.2697 95.7568 0.0000 0.0000 0.0000
# 4 0.0000 0.0000 0.0000 4.6000 0.0000 0.0000
# 5 0.0000 0.0000 0.0000 0.0000 -29.8096 0.0000
# 6 0.0000 0.0000 0.0000 0.0000 0.0000 -73.0830
#
#
#
# Elastic Compliance Matrix: (Units=1/GPa)
#
#
# Indices 1 2 3 4 5 6 
#
# 1 0.028931 -0.000124 0.000503 0.000000 0.000000 0.000000
# 2 -0.000124 0.014576 -0.009937 0.000000 0.000000 0.000000
# 3 0.000503 -0.009937 0.017224 0.000000 0.000000 0.000000
# 4 0.000000 0.000000 0.000000 0.217392 0.000000 0.000000
# 5 0.000000 0.000000 0.000000 0.000000 -0.033546 0.000000
# 6 0.000000 0.000000 0.000000 0.000000 0.000000 -0.013683
#
#
# Mechanical properties :
#
#
# Convention : Reuss Voigt Hill
#
# Bulk Modulus (GPa) = 24.03068 41.10192 32.56630
# Shear Modulus (GPa) = 18.94793 -7.64487 5.65153
#
# Velocity S-wave (km/s) = 2.99491 -1.90234 1.63563
# Velocity P-wave (km/s) = 4.83062 3.82511 4.35697
#
# Compressibility (1/GPa) = 0.04161346
#
# Stress axis : x y z
#
# Youngs Moduli (GPa) = 34.56501 68.60756 58.06009
#
# Poissons Ratio (x) = 0.00851 -0.02918
# Poissons Ratio (y) = 0.00429 0.57693
# Poissons Ratio (z) = -0.01737 0.68174
#
# Static dielectric constant tensor:
#      x y z
#    x 1.799470 0.000000 0.000000 
#    y 0.000000 1.772940 0.000000 
#    z 0.000000 0.000000 1.752860 
# 
# From -- ./inp_files/25614.got.cif
#   From: 2010.05.17/outbox.cif.g08.bks.cpg/sg47_13_cif.got.tgz:25614.got - 2010.06.03 20:15:42.
