data_PCOD9385465
_publ_section_title
;
Structure prediction by ZEFSAII (Michael W. Deem and Ramdas Pophale) SiO2 
 PCOD9385465
Probable space group: P M M M
;
_chemical_formula_sum "Si O2"
_cell_formula_units_Z 36
_cell_length_a 7.583712
_cell_length_b 10.053229
_cell_length_c 25.709692
_cell_angle_alpha 90.000000
_cell_angle_beta 90.000000
_cell_angle_gamma 90.000000
_cell_volume 1960.127316
_symmetry_space_group_name_H-M "P M M M"
_symmetry_group_IT_number 47
_symmetry_cell_setting 'orthorhombic'
loop_
_space_group_symop_operation_xyz
x,y,z
-x,-y,z
x,-y,-z
-x,y,-z
-x,-y,-z
x,y,-z
-x,y,z
x,-y,z
loop_
_atom_site_type_symbol
_atom_site_label
_atom_site_fract_x
_atom_site_fract_y
_atom_site_fract_z
Si Si1 0.784772 0.846795 0.558442
Si Si2 0.786612 0.346528 0.766863
Si Si3 0.784752 0.652647 0.649286
Si Si4 0.701024 0.845446 0.860966
Si Si5 0.000000 0.838543 0.940953
O O1 0.730608 0.806684 0.500000
O O2 0.723279 0.750810 0.604220
O O3 0.000000 0.844663 0.558942
O O4 0.732010 0.000000 0.566770
O O5 0.733213 0.500000 0.776550
O O6 0.730775 0.310622 0.708033
O O7 0.721300 0.246230 0.810501
O O8 0.000000 0.343365 0.768004
O O9 0.731947 0.500000 0.639703
O O10 0.000000 0.654756 0.648985
O O11 0.500000 0.841226 0.879041
O O12 0.831211 0.800278 0.906625
O O13 0.744235 0.000000 0.848016
O O14 0.000000 0.000000 0.943794
O O15 0.000000 0.788330 0.000000
#
# Coordination Sequence:
#
# PCOD9385465 Si02
#       5
#     8   8   8   8   4
#     4   8  13  20  29  45  74 112 153 197 246 298
#     4   9  17  30  48  69  96 131 169 210 258 309
#     4   8  14  23  35  54  79 111 155 201 245 296
#     4  10  20  33  52  79 106 134 172 212 251 301
#     4   9  18  34  55  79 109 141 170 207 254 295
#
# _framework density 18.366154999999999
#
# number of rings (size 3 to 8) (size 9 to 14) (size 15 to 20)
#    0.000    3.222    1.111    2.000    0.000    2.222 
#    0.000    6.667    0.000    1.333    0.000    1.556 
#    0.000    0.889    0.000    9.778    0.000   16.000 
#
# Total GULP energy -200687.082054 kJ/mol
# GULP energy per Si atom -5574.641168 kJ/mol
# Density = 1.832435 g / cm^3
# Si number density = 18.366155 Si / 1000 Ang^3
#
#
#
# Elastic Constant Matrix: (Units=GPa)
#
#
# Indices 1 2 3 4 5 6 
#
# 1 60.4872 27.4080 45.0456 0.0000 0.0000 0.0000
# 2 27.4080 73.4065 98.2516 0.0000 0.0000 0.0000
# 3 45.0456 98.2516 192.2895 0.0000 0.0000 0.0000
# 4 0.0000 0.0000 0.0000 -31.2805 0.0000 0.0000
# 5 0.0000 0.0000 0.0000 0.0000 -14.4373 0.0000
# 6 0.0000 0.0000 0.0000 0.0000 0.0000 5.9854
#
#
#
# Elastic Compliance Matrix: (Units=1/GPa)
#
#
# Indices 1 2 3 4 5 6 
#
# 1 0.020365 -0.003854 -0.002801 0.000000 0.000000 0.000000
# 2 -0.003854 0.043825 -0.021490 0.000000 0.000000 0.000000
# 3 -0.002801 -0.021490 0.016837 0.000000 0.000000 0.000000
# 4 0.000000 0.000000 0.000000 -0.031969 0.000000 0.000000
# 5 0.000000 0.000000 0.000000 0.000000 -0.069265 0.000000
# 6 0.000000 0.000000 0.000000 0.000000 0.000000 0.167074
#
#
# Mechanical properties :
#
#
# Convention : Reuss Voigt Hill
#
# Bulk Modulus (GPa) = 40.42631 74.17707 57.30169
# Shear Modulus (GPa) = 23.65143 2.41873 13.03508
#
# Velocity S-wave (km/s) = 3.59245 1.14883 2.66697
# Velocity P-wave (km/s) = 6.26631 6.49887 6.38365
#
# Compressibility (1/GPa) = 0.02473636
#
# Stress axis : x y z
#
# Youngs Moduli (GPa) = 49.10370 22.81796 59.39268
#
# Poissons Ratio (x) = 0.08795 0.16638
# Poissons Ratio (y) = 0.18926 1.27634
# Poissons Ratio (z) = 0.13755 0.49035
#
# Static dielectric constant tensor:
#      x y z
#    x 1.705270 0.000000 0.000000 
#    y 0.000000 1.608460 0.000000 
#    z 0.000000 0.000000 1.605330 
# 
# From -- ./inp_files/31776.got.cif
#   From: 2010.05.17/outbox.cif.g08.bks.cpg/sg47_16_cif.got.tgz:31776.got - 2010.06.03 20:15:42.
