data_PCOD9385426
_publ_section_title
;
Structure prediction by ZEFSAII (Michael W. Deem and Ramdas Pophale) SiO2 
 PCOD9385426
Probable space group: P M M M
;
_chemical_formula_sum "Si O2"
_cell_formula_units_Z 48
_cell_length_a 8.757433
_cell_length_b 10.156712
_cell_length_c 29.677940
_cell_angle_alpha 90.000000
_cell_angle_beta 90.000000
_cell_angle_gamma 90.000000
_cell_volume 2639.755563
_symmetry_space_group_name_H-M "P M M M"
_symmetry_group_IT_number 47
_symmetry_cell_setting 'orthorhombic'
loop_
_space_group_symop_operation_xyz
x,y,z
-x,-y,z
x,-y,-z
-x,y,-z
-x,-y,-z
x,y,-z
-x,y,z
x,-y,z
loop_
_atom_site_type_symbol
_atom_site_label
_atom_site_fract_x
_atom_site_fract_y
_atom_site_fract_z
Si Si1 0.181628 0.000000 0.053661
Si Si2 0.681226 0.748229 0.896800
Si Si3 0.182972 0.500000 0.947792
Si Si4 0.814067 0.849513 0.703891
Si Si5 0.316201 0.148981 0.553038
Si Si6 0.182356 0.844261 0.193038
Si Si7 0.184738 0.346976 0.625137
O O1 0.256180 0.874342 0.076688
O O2 0.000000 0.000000 0.062230
O O3 0.205448 0.000000 0.000000
O O4 0.500000 0.742301 0.899183
O O5 0.754819 0.625171 0.921566
O O6 0.733939 0.762079 0.845102
O O7 0.000000 0.500000 0.947331
O O8 0.233054 0.500000 0.000000
O O9 0.769789 0.818354 0.755397
O O10 0.764202 0.739160 0.668483
O O11 0.000000 0.851893 0.703335
O O12 0.764359 0.000000 0.692945
O O13 0.280377 0.163338 0.500000
O O14 0.500000 0.154975 0.557550
O O15 0.242099 0.263361 0.582473
O O16 0.267808 0.000000 0.566942
O O17 0.000000 0.822842 0.189607
O O18 0.209382 0.000000 0.184685
O O19 0.235167 0.500000 0.625616
O O20 0.000000 0.347830 0.624994
#
# Coordination Sequence:
#
# PCOD9385426 Si02
#       7
#     4   8   4   8   8   8   8
#     4  11  23  39  61  87 115 151 195 235 272 331
#     4  12  24  38  59  88 121 150 182 233 292 340
#     4  11  25  45  65  83 109 151 197 233 274 339
#     4   8  15  30  53  78 104 142 189 232 270 315
#     4   9  19  36  56  77 103 140 189 238 282 334
#     4   9  17  33  58  83 110 146 190 232 272 328
#     4  10  20  33  51  80 117 148 181 228 280 333
#
# _framework density 18.183502000000001
#
# number of rings (size 3 to 8) (size 9 to 14) (size 15 to 20)
#    0.000    2.167    0.833    4.500    0.000    5.333 
#    1.500    3.333    0.000    1.000    0.000    0.000 
#    0.000    0.000    0.000    0.000    0.000    0.000 
#
# Total GULP energy -267913.089834 kJ/mol
# GULP energy per Si atom -5581.522705 kJ/mol
# Density = 1.814212 g / cm^3
# Si number density = 18.183502 Si / 1000 Ang^3
#
#
#
# Elastic Constant Matrix: (Units=GPa)
#
#
# Indices 1 2 3 4 5 6 
#
# 1 34.8358 42.0349 42.9528 0.0000 0.0000 0.0000
# 2 42.0349 176.9635 100.9464 0.0000 0.0000 0.0000
# 3 42.9528 100.9464 133.5916 0.0000 0.0000 0.0000
# 4 0.0000 0.0000 0.0000 27.4317 0.0000 0.0000
# 5 0.0000 0.0000 0.0000 0.0000 -89.1128 0.0000
# 6 0.0000 0.0000 0.0000 0.0000 0.0000 23.0510
#
#
#
# Elastic Compliance Matrix: (Units=1/GPa)
#
#
# Indices 1 2 3 4 5 6 
#
# 1 0.049716 -0.004730 -0.012411 0.000000 0.000000 0.000000
# 2 -0.004730 0.010382 -0.006324 0.000000 0.000000 0.000000
# 3 -0.012411 -0.006324 0.016255 0.000000 0.000000 0.000000
# 4 0.000000 0.000000 0.000000 0.036454 0.000000 0.000000
# 5 0.000000 0.000000 0.000000 0.000000 -0.011222 0.000000
# 6 0.000000 0.000000 0.000000 0.000000 0.000000 0.043382
#
#
# Mechanical properties :
#
#
# Convention : Reuss Voigt Hill
#
# Bulk Modulus (GPa) = 33.98704 79.69545 56.84125
# Shear Modulus (GPa) = 24.78873 2.90442 13.84657
#
# Velocity S-wave (km/s) = 3.69623 1.26521 2.76251
# Velocity P-wave (km/s) = 6.07848 6.78660 6.44228
#
# Compressibility (1/GPa) = 0.02942298
#
# Stress axis : x y z
#
# Youngs Moduli (GPa) = 20.11425 96.32148 61.52053
#
# Poissons Ratio (x) = 0.45556 0.76353
# Poissons Ratio (y) = 0.09513 0.38907
# Poissons Ratio (z) = 0.24964 0.60916
#
# Static dielectric constant tensor:
#      x y z
#    x 1.606510 0.000000 0.000000 
#    y 0.000000 1.592450 0.000000 
#    z 0.000000 0.000000 1.625710 
# 
# From -- ./inp_files/34192.got.cif
#   From: 2010.05.17/outbox.cif.g08.bks.cpg/sg47_18_cif.got.tgz:34192.got - 2010.06.03 20:15:42.
