data_PCOD9385723
_publ_section_title
;
Structure prediction by ZEFSAII (Michael W. Deem and Ramdas Pophale) SiO2 
 PCOD9385723
Probable space group: P M M M
;
_chemical_formula_sum "Si O2"
_cell_formula_units_Z 36
_cell_length_a 13.960005
_cell_length_b 14.931636
_cell_length_c 8.508231
_cell_angle_alpha 90.000000
_cell_angle_beta 90.000000
_cell_angle_gamma 90.000000
_cell_volume 1773.504279
_symmetry_space_group_name_H-M "P M M M"
_symmetry_group_IT_number 47
_symmetry_cell_setting 'orthorhombic'
loop_
_space_group_symop_operation_xyz
x,y,z
-x,-y,z
x,-y,-z
-x,y,-z
-x,-y,-z
x,y,-z
-x,y,z
x,-y,z
loop_
_atom_site_type_symbol
_atom_site_label
_atom_site_fract_x
_atom_site_fract_y
_atom_site_fract_z
Si Si1 0.889294 0.306119 0.812310
Si Si2 0.613695 0.000000 0.692538
Si Si3 0.385901 0.313561 0.175390
Si Si4 0.111522 0.500000 0.312218
Si Si5 0.734862 0.172131 0.679499
Si Si6 0.384343 0.500000 0.678599
O O1 0.852980 0.402672 0.747031
O O2 0.824928 0.221265 0.760919
O O3 0.000000 0.294649 0.758691
O O4 0.888766 0.312049 0.000000
O O5 0.677754 0.914518 0.743683
O O6 0.500000 0.000000 0.742197
O O7 0.610519 0.000000 0.500000
O O8 0.500000 0.307485 0.172253
O O9 0.345246 0.248547 0.305811
O O10 0.358982 0.413194 0.223169
O O11 0.349846 0.290739 0.000000
O O12 0.116525 0.500000 0.500000
O O13 0.000000 0.500000 0.260836
O O14 0.761375 0.152811 0.500000
O O15 0.500000 0.500000 0.666119
O O16 0.346241 0.500000 0.500000
#
# Coordination Sequence:
#
# PCOD9385723 Si02
#       6
#     8   4   8   4   8   4
#     4  10  21  38  59  85 121 161 197 237 288 345
#     4   9  20  40  64  89 116 146 185 239 300 355
#     4  10  20  34  52  77 111 147 182 225 279 339
#     4   9  17  32  57  88 120 155 197 242 285 334
#     4  11  22  37  60  86 111 144 190 241 291 345
#     4   9  17  30  49  74 106 145 187 228 273 330
#
# _framework density 20.298794000000001
#
# number of rings (size 3 to 8) (size 9 to 14) (size 15 to 20)
#    0.000    2.111    0.000    3.333    0.000    7.111 
#    0.000    7.222    0.000    7.333    0.000    0.000 
#    0.000    0.000    0.000    0.000    0.000    0.000 
#
# Total GULP energy -200703.024634 kJ/mol
# GULP energy per Si atom -5575.084018 kJ/mol
# Density = 2.025259 g / cm^3
# Si number density = 20.298794 Si / 1000 Ang^3
#
#
#
# Elastic Constant Matrix: (Units=GPa)
#
#
# Indices 1 2 3 4 5 6 
#
# 1 137.2005 51.8295 9.7970 0.0000 0.0000 0.0000
# 2 51.8295 143.8480 3.5792 0.0000 0.0000 0.0000
# 3 9.7970 3.5792 44.8947 0.0000 0.0000 0.0000
# 4 0.0000 0.0000 0.0000 12.2446 0.0000 0.0000
# 5 0.0000 0.0000 0.0000 0.0000 22.8892 0.0000
# 6 0.0000 0.0000 0.0000 0.0000 0.0000 27.9512
#
#
#
# Elastic Compliance Matrix: (Units=1/GPa)
#
#
# Indices 1 2 3 4 5 6 
#
# 1 0.008554 -0.003041 -0.001624 0.000000 0.000000 0.000000
# 2 -0.003041 0.008047 0.000022 0.000000 0.000000 0.000000
# 3 -0.001624 0.000022 0.022627 0.000000 0.000000 0.000000
# 4 0.000000 0.000000 0.000000 0.081669 0.000000 0.000000
# 5 0.000000 0.000000 0.000000 0.000000 0.043689 0.000000
# 6 0.000000 0.000000 0.000000 0.000000 0.000000 0.035777
#
#
# Mechanical properties :
#
#
# Convention : Reuss Voigt Hill
#
# Bulk Modulus (GPa) = 33.39924 50.70607 42.05265
# Shear Modulus (GPa) = 22.76567 29.99948 26.38258
#
# Velocity S-wave (km/s) = 3.35256 3.84851 3.60906
# Velocity P-wave (km/s) = 5.61032 6.69194 6.17486
#
# Compressibility (1/GPa) = 0.02994080
#
# Stress axis : x y z
#
# Youngs Moduli (GPa) = 116.91065 124.26831 44.19501
#
# Poissons Ratio (x) = 0.37796 0.07178
# Poissons Ratio (y) = 0.35558 -0.00098
# Poissons Ratio (z) = 0.18987 -0.00276
#
# Static dielectric constant tensor:
#      x y z
#    x 1.790250 0.000000 0.000000 
#    y 0.000000 1.690660 0.000000 
#    z 0.000000 0.000000 1.773670 
# 
# From -- ./inp_files/5624.got.cif
#   From: 2010.05.17/outbox.cif.g08.bks.cpg/sg47_3_cif.got.tgz:5624.got - 2010.06.03 20:15:42.
