data_PCOD9385133
_publ_section_title
;
Structure prediction by ZEFSAII (Michael W. Deem and Ramdas Pophale) SiO2 
 PCOD9385133
Probable space group: P M M M
;
_chemical_formula_sum "Si O2"
_cell_formula_units_Z 36
_cell_length_a 9.298476
_cell_length_b 24.977319
_cell_length_c 7.427756
_cell_angle_alpha 90.000000
_cell_angle_beta 90.000000
_cell_angle_gamma 90.000000
_cell_volume 1725.103768
_symmetry_space_group_name_H-M "P M M M"
_symmetry_group_IT_number 47
_symmetry_cell_setting 'orthorhombic'
loop_
_space_group_symop_operation_xyz
x,y,z
-x,-y,z
x,-y,-z
-x,y,-z
-x,-y,-z
x,y,-z
-x,y,z
x,-y,z
loop_
_atom_site_type_symbol
_atom_site_label
_atom_site_fract_x
_atom_site_fract_y
_atom_site_fract_z
Si Si1 0.827503 0.327100 0.716529
Si Si2 0.161668 0.000000 0.213656
Si Si3 0.828468 0.442321 0.718397
Si Si4 0.661345 0.107138 0.713960
Si Si5 0.832564 0.789599 0.279694
O O1 0.808528 0.327599 0.500000
O O2 0.771130 0.384690 0.783233
O O3 0.776027 0.268914 0.779947
O O4 0.000000 0.326812 0.748502
O O5 0.247432 0.946563 0.262465
O O6 0.000000 0.000000 0.289486
O O7 0.150728 0.000000 0.000000
O O8 0.816433 0.442199 0.500000
O O9 0.770229 0.500000 0.781379
O O10 0.000000 0.442426 0.757424
O O11 0.650087 0.115220 0.500000
O O12 0.500000 0.101023 0.786125
O O13 0.742288 0.159728 0.784413
O O14 0.831205 0.789236 0.500000
O O15 0.000000 0.795188 0.227630
#
# Coordination Sequence:
#
# PCOD9385133 Si02
#       5
#     8   4   8   8   8
#     4   7   9  13  22  38  61  90 125 164 205 246
#     4  11  24  39  54  72  92 115 144 175 210 256
#     4   7   8   9  14  27  51  84 120 158 200 243
#     4  10  20  33  50  72  95 118 146 179 215 256
#     4   8  13  22  37  56  78 105 137 174 214 252
#
# _framework density 20.868309
#
# number of rings (size 3 to 8) (size 9 to 14) (size 15 to 20)
#    0.000    3.667    0.000    4.667    0.000    3.556 
#    0.000    0.000    0.000    0.000    0.000    0.000 
#    0.000    0.889    0.000   12.444    0.000   12.222 
#
# Total GULP energy -200416.491968 kJ/mol
# GULP energy per Si atom -5567.124777 kJ/mol
# Density = 2.082081 g / cm^3
# Si number density = 20.868309 Si / 1000 Ang^3
#
#
#
# Elastic Constant Matrix: (Units=GPa)
#
#
# Indices 1 2 3 4 5 6 
#
# 1 80.5049 89.7201 3.9501 0.0000 0.0000 0.0000
# 2 89.7201 290.3964 3.5466 0.0000 0.0000 0.0000
# 3 3.9501 3.5466 62.5103 0.0000 0.0000 0.0000
# 4 0.0000 0.0000 0.0000 -44.4923 0.0000 0.0000
# 5 0.0000 0.0000 0.0000 0.0000 24.3182 0.0000
# 6 0.0000 0.0000 0.0000 0.0000 0.0000 -6.8349
#
#
#
# Elastic Compliance Matrix: (Units=1/GPa)
#
#
# Indices 1 2 3 4 5 6 
#
# 1 0.018992 -0.005857 -0.000868 0.000000 0.000000 0.000000
# 2 -0.005857 0.005252 0.000072 0.000000 0.000000 0.000000
# 3 -0.000868 0.000072 0.016048 0.000000 0.000000 0.000000
# 4 0.000000 0.000000 0.000000 -0.022476 0.000000 0.000000
# 5 0.000000 0.000000 0.000000 0.000000 0.041121 0.000000
# 6 0.000000 0.000000 0.000000 0.000000 0.000000 -0.146307
#
#
# Mechanical properties :
#
#
# Convention : Reuss Voigt Hill
#
# Bulk Modulus (GPa) = 37.05541 69.76058 53.40800
# Shear Modulus (GPa) = -76.84220 17.01118 -29.91551
#
# Velocity S-wave (km/s) = -6.07473 2.85821 -3.79032
# Velocity P-wave (km/s) = 5.60427 6.66288 2.54816
#
# Compressibility (1/GPa) = 0.02698661
#
# Stress axis : x y z
#
# Youngs Moduli (GPa) = 52.65475 190.39447 62.31266
#
# Poissons Ratio (x) = 1.11514 0.05408
# Poissons Ratio (y) = 0.30840 -0.00449
# Poissons Ratio (z) = 0.04569 -0.01373
#
# Static dielectric constant tensor:
#      x y z
#    x 1.702130 0.000000 0.000000 
#    y 0.000000 1.826530 0.000000 
#    z 0.000000 0.000000 1.797610 
# 
# From -- ./inp_files/1358.got.cif
#   From: 2010.05.17/outbox.cif.g08.bks.cpg/sg47_1_cif.got.tgz:1358.got - 2010.06.03 20:15:42.
