data_PCOD9385692
_publ_section_title
;
Structure prediction by ZEFSAII (Michael W. Deem and Ramdas Pophale) SiO2 
 PCOD9385692
Probable space group: P M M M
;
_chemical_formula_sum "Si O2"
_cell_formula_units_Z 44
_cell_length_a 8.535333
_cell_length_b 17.741053
_cell_length_c 15.575831
_cell_angle_alpha 90.000000
_cell_angle_beta 90.000000
_cell_angle_gamma 90.000000
_cell_volume 2358.582594
_symmetry_space_group_name_H-M "P M M M"
_symmetry_group_IT_number 47
_symmetry_cell_setting 'orthorhombic'
loop_
_space_group_symop_operation_xyz
x,y,z
-x,-y,z
x,-y,-z
-x,y,-z
-x,-y,-z
x,y,-z
-x,y,z
x,-y,z
loop_
_atom_site_type_symbol
_atom_site_label
_atom_site_fract_x
_atom_site_fract_y
_atom_site_fract_z
Si Si1 0.818008 0.367203 0.319417
Si Si2 0.314644 0.416600 0.855000
Si Si3 0.811789 0.910850 0.402356
Si Si4 0.186591 0.745794 0.096507
Si Si5 0.323101 0.589703 0.500000
Si Si6 0.683894 0.208539 0.728471
O O1 0.717673 0.409849 0.247003
O O2 0.766258 0.387056 0.414512
O O3 0.784039 0.279054 0.305830
O O4 0.000000 0.384180 0.305010
O O5 0.500000 0.410296 0.871562
O O6 0.262352 0.500000 0.884289
O O7 0.231381 0.342763 0.892911
O O8 0.766538 0.887638 0.500000
O O9 0.728803 0.863024 0.328698
O O10 0.000000 0.900981 0.395364
O O11 0.779341 0.000000 0.394257
O O12 0.272451 0.792770 0.170807
O O13 0.000000 0.752614 0.108181
O O14 0.228209 0.769199 0.000000
O O15 0.333157 0.500000 0.500000
O O16 0.500000 0.621370 0.500000
O O17 0.500000 0.225258 0.719926
#
# Coordination Sequence:
#
# PCOD9385692 Si02
#       6
#     8   8   8   8   4   8
#     4  11  22  35  52  73 100 138 183 228 271 323
#     4  10  20  34  52  74 103 138 176 224 282 338
#     4   9  19  37  61  88 119 153 186 221 263 315
#     4  10  21  37  57  80 106 140 186 235 280 331
#     4  11  23  37  51  69  98 135 178 229 281 329
#     4  11  22  36  57  83 114 148 181 224 273 325
#
# _framework density 18.655273000000001
#
# number of rings (size 3 to 8) (size 9 to 14) (size 15 to 20)
#    0.000    1.727    0.000    7.909    1.273    6.909 
#    0.000    2.727    0.000    0.545    0.000    3.818 
#    0.000    0.000    0.000    0.000    0.000    0.000 
#
# Total GULP energy -245738.762832 kJ/mol
# GULP energy per Si atom -5584.971883 kJ/mol
# Density = 1.861281 g / cm^3
# Si number density = 18.655273 Si / 1000 Ang^3
#
#
#
# Elastic Constant Matrix: (Units=GPa)
#
#
# Indices 1 2 3 4 5 6 
#
# 1 42.4667 7.6600 11.9597 0.0000 0.0000 0.0000
# 2 7.6600 48.0872 31.8744 0.0000 0.0000 0.0000
# 3 11.9597 31.8744 114.6492 0.0000 0.0000 0.0000
# 4 0.0000 0.0000 0.0000 53.4341 0.0000 0.0000
# 5 0.0000 0.0000 0.0000 0.0000 4.1735 0.0000
# 6 0.0000 0.0000 0.0000 0.0000 0.0000 25.6897
#
#
#
# Elastic Compliance Matrix: (Units=1/GPa)
#
#
# Indices 1 2 3 4 5 6 
#
# 1 0.024546 -0.002713 -0.001806 0.000000 0.000000 0.000000
# 2 -0.002713 0.025793 -0.006888 0.000000 0.000000 0.000000
# 3 -0.001806 -0.006888 0.010826 0.000000 0.000000 0.000000
# 4 0.000000 0.000000 0.000000 0.018715 0.000000 0.000000
# 5 0.000000 0.000000 0.000000 0.000000 0.239608 0.000000
# 6 0.000000 0.000000 0.000000 0.000000 0.000000 0.038926
#
#
# Mechanical properties :
#
#
# Convention : Reuss Voigt Hill
#
# Bulk Modulus (GPa) = 26.07503 34.24346 30.15925
# Shear Modulus (GPa) = 12.68998 26.90673 19.79836
#
# Velocity S-wave (km/s) = 2.61096 3.80190 3.26125
# Velocity P-wave (km/s) = 4.80595 6.13745 5.51205
#
# Compressibility (1/GPa) = 0.03835086
#
# Stress axis : x y z
#
# Youngs Moduli (GPa) = 40.74006 38.76965 92.37307
#
# Poissons Ratio (x) = 0.10517 0.16686
# Poissons Ratio (y) = 0.11051 0.63627
# Poissons Ratio (z) = 0.07359 0.26705
#
# Static dielectric constant tensor:
#      x y z
#    x 1.632620 0.000000 0.000000 
#    y 0.000000 1.630890 0.000000 
#    z 0.000000 0.000000 1.715110 
# 
# From -- ./inp_files/20945.got.cif
#   From: 2010.05.17/outbox.cif.g08.bks.cpg/sg47_11_cif.got.tgz:20945.got - 2010.06.03 20:15:42.
