data_PCOD9385927
_publ_section_title
;
Structure prediction by ZEFSAII (Michael W. Deem and Ramdas Pophale) SiO2 
 PCOD9385927
Probable space group: P M M M
;
_chemical_formula_sum "Si O2"
_cell_formula_units_Z 56
_cell_length_a 14.865373
_cell_length_b 14.359655
_cell_length_c 15.149829
_cell_angle_alpha 90.000000
_cell_angle_beta 90.000000
_cell_angle_gamma 90.000000
_cell_volume 3233.907158
_symmetry_space_group_name_H-M "P M M M"
_symmetry_group_IT_number 47
_symmetry_cell_setting 'orthorhombic'
loop_
_space_group_symop_operation_xyz
x,y,z
-x,-y,z
x,-y,-z
-x,y,-z
-x,-y,-z
x,y,-z
-x,y,z
x,-y,z
loop_
_atom_site_type_symbol
_atom_site_label
_atom_site_fract_x
_atom_site_fract_y
_atom_site_fract_z
Si Si1 0.600874 0.307091 0.605805
Si Si2 0.642797 0.100935 0.396004
Si Si3 0.397587 0.386829 0.899150
Si Si4 0.897133 0.250426 0.248441
Si Si5 0.890723 0.104387 0.898538
Si Si6 0.860027 0.104726 0.397298
Si Si7 0.735193 0.610410 0.742747
O O1 0.616550 0.308038 0.500000
O O2 0.500000 0.342840 0.622239
O O3 0.606193 0.199134 0.637323
O O4 0.675417 0.364368 0.657572
O O5 0.618756 0.098518 0.500000
O O6 0.751232 0.106346 0.391096
O O7 0.615067 0.000000 0.358113
O O8 0.500000 0.357213 0.877243
O O9 0.398159 0.500000 0.898499
O O10 0.324668 0.358163 0.827077
O O11 0.377431 0.357996 0.000000
O O12 0.863402 0.184079 0.168836
O O13 0.896247 0.183881 0.333979
O O14 0.828301 0.334300 0.259944
O O15 0.000000 0.279930 0.230914
O O16 0.000000 0.103147 0.896681
O O17 0.860660 0.000000 0.872680
O O18 0.863910 0.121226 0.000000
O O19 0.883377 0.118869 0.500000
O O20 0.889307 0.000000 0.371720
O O21 0.749379 0.500000 0.748222
#
# Coordination Sequence:
#
# PCOD9385927 Si02
#       7
#     8   8   8   8   8   8   8
#     4  10  20  34  54  79 104 132 168 208 257 318
#     4   8  14  27  48  73 102 133 160 191 241 307
#     4   8  15  31  56  81  99 117 150 202 262 314
#     4  11  22  34  51  74 101 138 180 216 255 305
#     4   8  15  30  52  77 104 131 160 200 251 305
#     4   9  17  31  52  76 102 131 165 210 262 311
#     4  11  23  37  52  71 100 137 177 223 267 301
#
# _framework density 17.316516
#
# number of rings (size 3 to 8) (size 9 to 14) (size 15 to 20)
#    0.000    2.714    1.429    2.571    0.000    3.429 
#    0.000    2.857    0.000    0.000    0.000    6.000 
#    0.000    0.000    0.000    9.429    0.000    1.143 
#
# Total GULP energy -312085.578365 kJ/mol
# GULP energy per Si atom -5572.956757 kJ/mol
# Density = 1.727710 g / cm^3
# Si number density = 17.316516 Si / 1000 Ang^3
#
#
#
# Elastic Constant Matrix: (Units=GPa)
#
#
# Indices 1 2 3 4 5 6 
#
# 1 90.6512 48.2890 39.1465 0.0000 0.0000 0.0000
# 2 48.2890 85.3781 39.9928 0.0000 0.0000 0.0000
# 3 39.1465 39.9928 62.2452 0.0000 0.0000 0.0000
# 4 0.0000 0.0000 0.0000 16.5509 0.0000 0.0000
# 5 0.0000 0.0000 0.0000 0.0000 17.4093 0.0000
# 6 0.0000 0.0000 0.0000 0.0000 0.0000 343.9287
#
#
#
# Elastic Compliance Matrix: (Units=1/GPa)
#
#
# Indices 1 2 3 4 5 6 
#
# 1 0.017525 -0.006794 -0.006656 0.000000 0.000000 0.000000
# 2 -0.006794 0.019389 -0.008185 0.000000 0.000000 0.000000
# 3 -0.006656 -0.008185 0.025511 0.000000 0.000000 0.000000
# 4 0.000000 0.000000 0.000000 0.060420 0.000000 0.000000
# 5 0.000000 0.000000 0.000000 0.000000 0.057441 0.000000
# 6 0.000000 0.000000 0.000000 0.000000 0.000000 0.002908
#
#
# Mechanical properties :
#
#
# Convention : Reuss Voigt Hill
#
# Bulk Modulus (GPa) = 52.20784 54.79235 53.50009
# Shear Modulus (GPa) = 21.47330 82.96753 52.22042
#
# Velocity S-wave (km/s) = 3.52525 6.92939 5.49744
# Velocity P-wave (km/s) = 6.83992 9.78428 8.44147
#
# Compressibility (1/GPa) = 0.01915421
#
# Stress axis : x y z
#
# Youngs Moduli (GPa) = 57.06207 51.57537 39.19944
#
# Poissons Ratio (x) = 0.35040 0.26093
# Poissons Ratio (y) = 0.38767 0.32084
# Poissons Ratio (z) = 0.37983 0.42214
#
# Static dielectric constant tensor:
#      x y z
#    x 1.609190 0.000000 0.000000 
#    y 0.000000 1.596970 0.000000 
#    z 0.000000 0.000000 1.595300 
# 
# From -- ./inp_files/23803.got.cif
#   From: 2010.05.17/outbox.cif.g08.bks.cpg/sg47_12_cif.got.tgz:23803.got - 2010.06.03 20:15:42.
