data_PCOD9385600
_publ_section_title
;
Structure prediction by ZEFSAII (Michael W. Deem and Ramdas Pophale) SiO2 
 PCOD9385600
Probable space group: P M M M
;
_chemical_formula_sum "Si O2"
_cell_formula_units_Z 48
_cell_length_a 20.889320
_cell_length_b 8.800363
_cell_length_c 15.487819
_cell_angle_alpha 90.000000
_cell_angle_beta 90.000000
_cell_angle_gamma 90.000000
_cell_volume 2847.181505
_symmetry_space_group_name_H-M "P M M M"
_symmetry_group_IT_number 47
_symmetry_cell_setting 'orthorhombic'
loop_
_space_group_symop_operation_xyz
x,y,z
-x,-y,z
x,-y,-z
-x,y,-z
-x,-y,-z
x,y,-z
-x,y,z
x,-y,z
loop_
_atom_site_type_symbol
_atom_site_label
_atom_site_fract_x
_atom_site_fract_y
_atom_site_fract_z
Si Si1 0.569843 0.681644 0.357082
Si Si2 0.759058 0.819615 0.229661
Si Si3 0.374242 0.679530 0.827033
Si Si4 0.287271 0.316677 0.596938
Si Si5 0.423959 0.172492 0.000000
Si Si6 0.864115 0.317837 0.898860
Si Si7 0.000000 0.826646 0.104285
O O1 0.500000 0.742475 0.384838
O O2 0.568527 0.500000 0.374407
O O3 0.578621 0.703004 0.254210
O O4 0.637972 0.735808 0.394809
O O5 0.690654 0.769512 0.191432
O O6 0.754978 0.755224 0.327332
O O7 0.812802 0.749197 0.167560
O O8 0.765595 0.000000 0.231242
O O9 0.360029 0.500000 0.830397
O O10 0.402714 0.738363 0.915422
O O11 0.265118 0.283537 0.500000
O O12 0.287863 0.500000 0.609281
O O13 0.500000 0.163752 0.000000
O O14 0.397897 0.000000 0.000000
O O15 0.862357 0.500000 0.896045
O O16 0.934603 0.258907 0.873012
O O17 0.852089 0.272572 0.000000
O O18 0.000000 0.000000 0.136501
O O19 0.000000 0.831952 0.000000
#
# Coordination Sequence:
#
# PCOD9385600 Si02
#       7
#     8   8   8   8   4   8   4
#     4   8  14  26  46  71  94 117 153 204 258 309
#     4  11  22  35  52  75 104 136 173 218 267 313
#     4  10  20  34  50  67  92 127 171 214 255 307
#     4   9  18  33  52  74 101 132 169 215 265 321
#     4  11  23  35  47  67  95 126 163 210 265 317
#     4  10  20  34  54  79 110 146 182 214 251 300
#     4   9  17  31  51  79 114 147 178 211 249 291
#
# _framework density 16.858778000000001
#
# number of rings (size 3 to 8) (size 9 to 14) (size 15 to 20)
#    0.000    2.333    0.000    4.500    1.167    4.000 
#    0.000    1.667    0.000    4.500    0.000    5.250 
#    0.000    4.667    0.000    0.000    0.000    0.000 
#
# Total GULP energy -267625.559378 kJ/mol
# GULP energy per Si atom -5575.532487 kJ/mol
# Density = 1.682041 g / cm^3
# Si number density = 16.858778 Si / 1000 Ang^3
#
#
#
# Elastic Constant Matrix: (Units=GPa)
#
#
# Indices 1 2 3 4 5 6 
#
# 1 100.4356 38.0704 46.7070 0.0000 0.0000 0.0000
# 2 38.0704 70.4896 47.9085 0.0000 0.0000 0.0000
# 3 46.7070 47.9085 112.4309 0.0000 0.0000 0.0000
# 4 0.0000 0.0000 0.0000 18.1101 0.0000 0.0000
# 5 0.0000 0.0000 0.0000 0.0000 49.5420 0.0000
# 6 0.0000 0.0000 0.0000 0.0000 0.0000 20.3178
#
#
#
# Elastic Compliance Matrix: (Units=1/GPa)
#
#
# Indices 1 2 3 4 5 6 
#
# 1 0.013434 -0.004874 -0.003504 0.000000 0.000000 0.000000
# 2 -0.004874 0.021738 -0.007238 0.000000 0.000000 0.000000
# 3 -0.003504 -0.007238 0.013434 0.000000 0.000000 0.000000
# 4 0.000000 0.000000 0.000000 0.055218 0.000000 0.000000
# 5 0.000000 0.000000 0.000000 0.000000 0.020185 0.000000
# 6 0.000000 0.000000 0.000000 0.000000 0.000000 0.049218
#
#
# Mechanical properties :
#
#
# Convention : Reuss Voigt Hill
#
# Bulk Modulus (GPa) = 57.55674 60.96977 59.26326
# Shear Modulus (GPa) = 23.78122 27.63868 25.70995
#
# Velocity S-wave (km/s) = 3.75989 4.05337 3.90939
# Velocity P-wave (km/s) = 7.28448 7.62561 7.45700
#
# Compressibility (1/GPa) = 0.01737416
#
# Stress axis : x y z
#
# Youngs Moduli (GPa) = 74.44070 46.00177 74.43632
#
# Poissons Ratio (x) = 0.22420 0.26081
# Poissons Ratio (y) = 0.36281 0.53879
# Poissons Ratio (z) = 0.26083 0.33297
#
# Static dielectric constant tensor:
#      x y z
#    x 1.559080 0.000000 0.000000 
#    y 0.000000 1.571950 0.000000 
#    z 0.000000 0.000000 1.571090 
# 
# From -- ./inp_files/24475.got.cif
#   From: 2010.05.17/outbox.cif.g08.bks.cpg/sg47_13_cif.got.tgz:24475.got - 2010.06.03 20:15:42.
