data_PCOD9385394
_publ_section_title
;
Structure prediction by ZEFSAII (Michael W. Deem and Ramdas Pophale) SiO2 
 PCOD9385394
Probable space group: P M M M
;
_chemical_formula_sum "Si O2"
_cell_formula_units_Z 64
_cell_length_a 15.328879
_cell_length_b 7.944721
_cell_length_c 24.397521
_cell_angle_alpha 90.000000
_cell_angle_beta 90.000000
_cell_angle_gamma 90.000000
_cell_volume 2971.219571
_symmetry_space_group_name_H-M "P M M M"
_symmetry_group_IT_number 47
_symmetry_cell_setting 'orthorhombic'
loop_
_space_group_symop_operation_xyz
x,y,z
-x,-y,z
x,-y,-z
-x,y,-z
-x,-y,-z
x,y,-z
-x,y,z
x,-y,z
loop_
_atom_site_type_symbol
_atom_site_label
_atom_site_fract_x
_atom_site_fract_y
_atom_site_fract_z
Si Si1 0.651870 0.703808 0.441508
Si Si2 0.853438 0.197308 0.438871
Si Si3 0.285792 0.299883 0.062905
Si Si4 0.400806 0.803077 0.159351
Si Si5 0.905007 0.797362 0.935395
Si Si6 0.739255 0.702058 0.249580
Si Si7 0.904121 0.297645 0.684907
Si Si8 0.409415 0.705250 0.673027
O O1 0.613618 0.750367 0.500000
O O2 0.659769 0.500000 0.439378
O O3 0.749240 0.775171 0.437955
O O4 0.596822 0.755725 0.389679
O O5 0.882205 0.264466 0.500000
O O6 0.884800 0.266359 0.379978
O O7 0.874444 0.000000 0.438937
O O8 0.296552 0.500000 0.062543
O O9 0.363612 0.223969 0.098352
O O10 0.188187 0.263976 0.086623
O O11 0.286832 0.237253 0.000000
O O12 0.500000 0.731330 0.166340
O O13 0.320140 0.737343 0.196445
O O14 0.406725 0.000000 0.170894
O O15 0.000000 0.740337 0.912713
O O16 0.903960 0.000000 0.932515
O O17 0.905360 0.749326 0.000000
O O18 0.745859 0.500000 0.251192
O O19 0.833358 0.765781 0.270358
O O20 0.675321 0.766582 0.297110
O O21 0.905361 0.500000 0.690070
O O22 0.000000 0.229431 0.696823
O O23 0.500000 0.762401 0.698767
O O24 0.408030 0.500000 0.675657
#
# Coordination Sequence:
#
# PCOD9385394 Si02
#       8
#     8   8   8   8   8   8   8   8
#     4   9  16  28  47  71 103 141 181 225 275 333
#     4  10  20  33  51  77 111 150 190 233 284 342
#     4  10  21  37  60  92 127 162 201 246 295 346
#     4  11  25  43  63  88 117 153 197 241 290 352
#     4   8  14  27  50  81 119 163 204 238 276 325
#     4  10  20  38  61  83 110 145 185 234 289 343
#     4  10  21  38  61  87 113 145 188 237 290 347
#     4   9  16  27  48  78 105 133 175 225 278 333
#
# _framework density 21.539974999999998
#
# number of rings (size 3 to 8) (size 9 to 14) (size 15 to 20)
#    0.000    2.375    1.250    1.875    0.000    4.750 
#    0.000    5.625    0.000    2.625    0.000    1.750 
#    0.000    0.000    0.000    0.000    0.000    0.000 
#
# Total GULP energy -356396.055508 kJ/mol
# GULP energy per Si atom -5568.688367 kJ/mol
# Density = 2.149095 g / cm^3
# Si number density = 21.539975 Si / 1000 Ang^3
#
#
#
# Elastic Constant Matrix: (Units=GPa)
#
#
# Indices 1 2 3 4 5 6 
#
# 1 165.3763 9.5592 61.6140 0.0000 0.0000 0.0000
# 2 9.5592 18.5830 2.3229 0.0000 0.0000 0.0000
# 3 61.6140 2.3229 78.2348 0.0000 0.0000 0.0000
# 4 0.0000 0.0000 0.0000 6.5287 0.0000 0.0000
# 5 0.0000 0.0000 0.0000 0.0000 60.8578 0.0000
# 6 0.0000 0.0000 0.0000 0.0000 0.0000 -8.1258
#
#
#
# Elastic Compliance Matrix: (Units=1/GPa)
#
#
# Indices 1 2 3 4 5 6 
#
# 1 0.008801 -0.003674 -0.006822 0.000000 0.000000 0.000000
# 2 -0.003674 0.055547 0.001245 0.000000 0.000000 0.000000
# 3 -0.006822 0.001245 0.018118 0.000000 0.000000 0.000000
# 4 0.000000 0.000000 0.000000 0.153171 0.000000 0.000000
# 5 0.000000 0.000000 0.000000 0.000000 0.016432 0.000000
# 6 0.000000 0.000000 0.000000 0.000000 0.000000 -0.123065
#
#
# Mechanical properties :
#
#
# Convention : Reuss Voigt Hill
#
# Bulk Modulus (GPa) = 15.63425 45.46513 30.54969
# Shear Modulus (GPa) = 29.61598 24.43201 27.02400
#
# Velocity S-wave (km/s) = 3.71203 3.37154 3.54587
# Velocity P-wave (km/s) = 5.06421 6.02574 5.56578
#
# Compressibility (1/GPa) = 0.06396214
#
# Stress axis : x y z
#
# Youngs Moduli (GPa) = 113.62474 18.00267 55.19427
#
# Poissons Ratio (x) = 0.06615 0.37654
# Poissons Ratio (y) = 0.41751 -0.06869
# Poissons Ratio (z) = 0.77516 -0.02241
#
# Static dielectric constant tensor:
#      x y z
#    x 1.808070 0.000000 0.000000 
#    y 0.000000 1.770840 0.000000 
#    z 0.000000 0.000000 1.834630 
# 
# From -- ./inp_files/32750.got.cif
#   From: 2010.05.17/outbox.cif.g08.bks.cpg/sg47_17_cif.got.tgz:32750.got - 2010.06.03 20:15:42.
