data_PCOD9385207
_publ_section_title
;
Structure prediction by ZEFSAII (Michael W. Deem and Ramdas Pophale) SiO2 
 PCOD9385207
Probable space group: P M M M
;
_chemical_formula_sum "Si O2"
_cell_formula_units_Z 48
_cell_length_a 7.530919
_cell_length_b 9.598420
_cell_length_c 32.011705
_cell_angle_alpha 90.000000
_cell_angle_beta 90.000000
_cell_angle_gamma 90.000000
_cell_volume 2313.963649
_symmetry_space_group_name_H-M "P M M M"
_symmetry_group_IT_number 47
_symmetry_cell_setting 'orthorhombic'
loop_
_space_group_symop_operation_xyz
x,y,z
-x,-y,z
x,-y,-z
-x,y,-z
-x,-y,-z
x,y,-z
-x,y,z
x,-y,z
loop_
_atom_site_type_symbol
_atom_site_label
_atom_site_fract_x
_atom_site_fract_y
_atom_site_fract_z
Si Si1 0.717894 0.339646 0.830438
Si Si2 0.216453 0.660194 0.578613
Si Si3 0.289320 0.157230 0.247664
Si Si4 0.710514 0.840725 0.091352
Si Si5 0.213904 0.341352 0.327372
Si Si6 0.782495 0.840299 0.500000
Si Si7 0.210955 0.841417 0.000000
O O1 0.500000 0.341394 0.830388
O O2 0.775145 0.500000 0.829559
O O3 0.778858 0.254301 0.789774
O O4 0.777853 0.257656 0.871866
O O5 0.268029 0.500000 0.570544
O O6 0.273675 0.697015 0.625715
O O7 0.276271 0.760125 0.541659
O O8 0.000000 0.663179 0.578548
O O9 0.500000 0.146184 0.240581
O O10 0.265067 0.234189 0.291645
O O11 0.216587 0.000000 0.247434
O O12 0.500000 0.852186 0.097844
O O13 0.783073 0.000000 0.092784
O O14 0.736445 0.780749 0.044730
O O15 0.275190 0.500000 0.318211
O O16 0.000000 0.345487 0.328344
O O17 0.000000 0.838016 0.500000
O O18 0.726704 0.000000 0.500000
O O19 0.000000 0.848719 0.000000
O O20 0.285507 0.000000 0.000000
#
# Coordination Sequence:
#
# PCOD9385207 Si02
#       7
#     8   8   8   8   8   4   4
#     4   9  17  30  49  71  93 119 154 196 237 274
#     4   8  14  25  40  58  84 118 152 187 230 279
#     4  10  20  33  50  73  99 127 160 197 238 286
#     4   9  16  28  48  71  92 116 150 190 228 268
#     4   9  18  32  49  70  96 126 160 197 238 285
#     4   9  15  21  33  57  86 115 150 191 232 274
#     4   9  17  29  46  69  96 124 152 183 222 270
#
# _framework density 20.743627
#
# number of rings (size 3 to 8) (size 9 to 14) (size 15 to 20)
#    0.000    3.000    0.000    2.500    0.000    6.000 
#    0.000    2.917    0.000    6.000    0.000    0.583 
#    0.000    4.667    0.000    0.000    0.000    0.000 
#
# Total GULP energy -267800.121163 kJ/mol
# GULP energy per Si atom -5579.169191 kJ/mol
# Density = 2.069641 g / cm^3
# Si number density = 20.743627 Si / 1000 Ang^3
#
#
#
# Elastic Constant Matrix: (Units=GPa)
#
#
# Indices 1 2 3 4 5 6 
#
# 1 50.4714 6.3707 -0.7596 0.0000 0.0000 0.0000
# 2 6.3707 168.1272 145.6277 0.0000 0.0000 0.0000
# 3 -0.7596 145.6277 215.8521 0.0000 0.0000 0.0000
# 4 0.0000 0.0000 0.0000 32.7710 0.0000 0.0000
# 5 0.0000 0.0000 0.0000 0.0000 14.0140 0.0000
# 6 0.0000 0.0000 0.0000 0.0000 0.0000 5.9784
#
#
#
# Elastic Compliance Matrix: (Units=1/GPa)
#
#
# Indices 1 2 3 4 5 6 
#
# 1 0.020084 -0.001978 0.001405 0.000000 0.000000 0.000000
# 2 -0.001978 0.014506 -0.009793 0.000000 0.000000 0.000000
# 3 0.001405 -0.009793 0.011245 0.000000 0.000000 0.000000
# 4 0.000000 0.000000 0.000000 0.030515 0.000000 0.000000
# 5 0.000000 0.000000 0.000000 0.000000 0.071357 0.000000
# 6 0.000000 0.000000 0.000000 0.000000 0.000000 0.167268
#
#
# Mechanical properties :
#
#
# Convention : Reuss Voigt Hill
#
# Bulk Modulus (GPa) = 39.83748 81.88094 60.85921
# Shear Modulus (GPa) = 14.53172 29.43347 21.98260
#
# Velocity S-wave (km/s) = 2.64964 3.77094 3.25888
# Velocity P-wave (km/s) = 5.34857 7.64974 6.60021
#
# Compressibility (1/GPa) = 0.02510199
#
# Stress axis : x y z
#
# Youngs Moduli (GPa) = 49.79074 68.93858 88.92826
#
# Poissons Ratio (x) = 0.13638 -0.12498
# Poissons Ratio (y) = 0.09850 0.87091
# Poissons Ratio (z) = -0.06998 0.67514
#
# Static dielectric constant tensor:
#      x y z
#    x 1.813130 0.000000 0.000000 
#    y 0.000000 1.713940 0.000000 
#    z 0.000000 0.000000 1.729050 
# 
# From -- ./inp_files/34045.got.cif
#   From: 2010.05.17/outbox.cif.g08.bks.cpg/sg47_18_cif.got.tgz:34045.got - 2010.06.03 20:15:42.
