data_PCOD9385722
_publ_section_title
;
Structure prediction by ZEFSAII (Michael W. Deem and Ramdas Pophale) SiO2 
 PCOD9385722
Probable space group: P M M M
;
_chemical_formula_sum "Si O2"
_cell_formula_units_Z 52
_cell_length_a 28.626528
_cell_length_b 12.058441
_cell_length_c 8.789682
_cell_angle_alpha 90.000000
_cell_angle_beta 90.000000
_cell_angle_gamma 90.000000
_cell_volume 3034.121747
_symmetry_space_group_name_H-M "P M M M"
_symmetry_group_IT_number 47
_symmetry_cell_setting 'orthorhombic'
loop_
_space_group_symop_operation_xyz
x,y,z
-x,-y,z
x,-y,-z
-x,y,-z
-x,-y,-z
x,y,-z
-x,y,z
x,-y,z
loop_
_atom_site_type_symbol
_atom_site_label
_atom_site_fract_x
_atom_site_fract_y
_atom_site_fract_z
Si Si1 0.142903 0.228108 0.317325
Si Si2 0.223805 0.629700 0.817667
Si Si3 0.054261 0.128583 0.816990
Si Si4 0.700451 0.000000 0.684842
Si Si5 0.500000 0.634866 0.675780
Si Si6 0.402167 0.633280 0.178215
Si Si7 0.313905 0.246047 0.317567
Si Si8 0.807861 0.000000 0.315567
O O1 0.144049 0.235533 0.500000
O O2 0.174996 0.323963 0.247420
O O3 0.090166 0.213125 0.259407
O O4 0.167134 0.112300 0.267028
O O5 0.230119 0.500000 0.778370
O O6 0.266740 0.700922 0.750661
O O7 0.223952 0.639812 0.000000
O O8 0.000000 0.150909 0.780633
O O9 0.063935 0.000000 0.769897
O O10 0.059306 0.133039 0.000000
O O11 0.680017 0.882015 0.733271
O O12 0.754442 0.000000 0.733537
O O13 0.699337 0.000000 0.500000
O O14 0.500000 0.500000 0.680338
O O15 0.500000 0.668800 0.500000
O O16 0.547711 0.670601 0.756962
O O17 0.399882 0.500000 0.194405
O O18 0.358862 0.685758 0.265809
O O19 0.398789 0.659443 0.000000
O O20 0.309294 0.248222 0.500000
O O21 0.808336 0.000000 0.500000
#
# Coordination Sequence:
#
# PCOD9385722 Si02
#       8
#     8   8   8   4   4   8   8   4
#     4  11  20  33  55  79 106 138 175 218 263 312
#     4  11  24  39  53  74 106 141 177 217 264 317
#     4   9  18  32  50  76 110 143 174 210 256 311
#     4   9  18  34  52  74 106 138 171 214 261 306
#     4   9  17  31  53  80 105 134 179 225 263 311
#     4  10  20  34  52  77 111 145 175 215 268 316
#     4  11  21  35  56  79 106 140 178 218 261 311
#     4   9  16  30  49  75 105 134 167 210 261 307
#
# _framework density 17.138403
#
# number of rings (size 3 to 8) (size 9 to 14) (size 15 to 20)
#    0.000    1.923    2.308    3.000    0.000    5.231 
#    0.000    3.077    0.000    0.923    0.000    6.462 
#    0.000    0.000    0.000    0.000    0.000    0.000 
#
# Total GULP energy -290118.953064 kJ/mol
# GULP energy per Si atom -5579.210636 kJ/mol
# Density = 1.709940 g / cm^3
# Si number density = 17.138403 Si / 1000 Ang^3
#
#
#
# Elastic Constant Matrix: (Units=GPa)
#
#
# Indices 1 2 3 4 5 6 
#
# 1 106.3283 34.6498 38.2981 0.0000 0.0000 0.0000
# 2 34.6498 72.4766 41.6055 0.0000 0.0000 0.0000
# 3 38.2981 41.6055 55.4808 0.0000 0.0000 0.0000
# 4 0.0000 0.0000 0.0000 16.4305 0.0000 0.0000
# 5 0.0000 0.0000 0.0000 0.0000 32.8749 0.0000
# 6 0.0000 0.0000 0.0000 0.0000 0.0000 18.1243
#
#
#
# Elastic Compliance Matrix: (Units=1/GPa)
#
#
# Indices 1 2 3 4 5 6 
#
# 1 0.012652 -0.001818 -0.007371 0.000000 0.000000 0.000000
# 2 -0.001818 0.024488 -0.017109 0.000000 0.000000 0.000000
# 3 -0.007371 -0.017109 0.035942 0.000000 0.000000 0.000000
# 4 0.000000 0.000000 0.000000 0.060862 0.000000 0.000000
# 5 0.000000 0.000000 0.000000 0.000000 0.030418 0.000000
# 6 0.000000 0.000000 0.000000 0.000000 0.000000 0.055175
#
#
# Mechanical properties :
#
#
# Convention : Reuss Voigt Hill
#
# Bulk Modulus (GPa) = 48.80941 51.48809 50.14875
# Shear Modulus (GPa) = 17.92362 21.46809 19.69585
#
# Velocity S-wave (km/s) = 3.23742 3.54309 3.39370
# Velocity P-wave (km/s) = 6.52042 6.84439 6.68437
#
# Compressibility (1/GPa) = 0.02048785
#
# Stress axis : x y z
#
# Youngs Moduli (GPa) = 79.03944 40.83619 27.82230
#
# Poissons Ratio (x) = 0.07422 0.20507
# Poissons Ratio (y) = 0.14366 0.47602
# Poissons Ratio (z) = 0.58256 0.69867
#
# Static dielectric constant tensor:
#      x y z
#    x 1.570350 0.000000 0.000000 
#    y 0.000000 1.579640 0.000000 
#    z 0.000000 0.000000 1.578990 
# 
# From -- ./inp_files/13309.got.cif
#   From: 2010.05.17/outbox.cif.g08.bks.cpg/sg47_7_cif.got.tgz:13309.got - 2010.06.03 20:15:42.
