data_PCOD9385705
_publ_section_title
;
Structure prediction by ZEFSAII (Michael W. Deem and Ramdas Pophale) SiO2 
 PCOD9385705
Probable space group: P M M M
;
_chemical_formula_sum "Si O2"
_cell_formula_units_Z 64
_cell_length_a 7.820086
_cell_length_b 21.128899
_cell_length_c 19.149835
_cell_angle_alpha 90.000000
_cell_angle_beta 90.000000
_cell_angle_gamma 90.000000
_cell_volume 3164.123546
_symmetry_space_group_name_H-M "P M M M"
_symmetry_group_IT_number 47
_symmetry_cell_setting 'orthorhombic'
loop_
_space_group_symop_operation_xyz
x,y,z
-x,-y,z
x,-y,-z
-x,y,-z
-x,-y,-z
x,y,-z
-x,y,z
x,-y,z
loop_
_atom_site_type_symbol
_atom_site_label
_atom_site_fract_x
_atom_site_fract_y
_atom_site_fract_z
Si Si1 0.208688 0.928646 0.419387
Si Si2 0.291240 0.071580 0.080345
Si Si3 0.794028 0.688869 0.920827
Si Si4 0.795090 0.689727 0.579042
Si Si5 0.295618 0.428546 0.672131
Si Si6 0.296160 0.810869 0.829529
Si Si7 0.794787 0.809027 0.332272
Si Si8 0.794971 0.428642 0.831284
O O1 0.257039 0.915702 0.500000
O O2 0.269613 0.873627 0.368128
O O3 0.000000 0.928949 0.417890
O O4 0.264523 0.000000 0.401133
O O5 0.500000 0.071818 0.081326
O O6 0.229001 0.125815 0.132306
O O7 0.237087 0.000000 0.098279
O O8 0.240856 0.084814 0.000000
O O9 0.753916 0.749669 0.874175
O O10 0.728595 0.625379 0.882817
O O11 0.000000 0.683919 0.923976
O O12 0.729605 0.695460 0.000000
O O13 0.727619 0.691169 0.500000
O O14 0.761692 0.623610 0.617261
O O15 0.728417 0.747697 0.626099
O O16 0.000000 0.697085 0.575041
O O17 0.500000 0.430312 0.671366
O O18 0.231222 0.500000 0.657750
O O19 0.239909 0.411347 0.750754
O O20 0.500000 0.814774 0.830105
O O21 0.241099 0.805726 0.749555
O O22 0.000000 0.809358 0.340246
O O23 0.727666 0.500000 0.843091
O O24 0.000000 0.431234 0.839718
#
# Coordination Sequence:
#
# PCOD9385705 Si02
#       8
#     8   8   8   8   8   8   8   8
#     4   8  14  27  50  78 104 132 169 211 254 302
#     4   8  15  30  51  72  95 127 168 210 248 288
#     4  10  21  36  54  77 105 135 167 208 257 302
#     4  10  21  36  54  75  99 131 172 214 253 297
#     4  10  21  36  54  77 105 135 166 204 252 303
#     4  11  22  34  51  76 104 135 172 211 251 301
#     4  10  20  34  52  75 104 135 168 210 257 301
#     4   9  18  34  56  79 103 134 171 207 244 293
#
# _framework density 20.226772
#
# number of rings (size 3 to 8) (size 9 to 14) (size 15 to 20)
#    0.000    2.500    0.000    3.000    0.000    8.250 
#    0.000    2.500    0.000    2.250    0.000    7.875 
#    0.000    0.000    0.000    0.000    0.000    0.000 
#
# Total GULP energy -357293.983820 kJ/mol
# GULP energy per Si atom -5582.718497 kJ/mol
# Density = 2.018073 g / cm^3
# Si number density = 20.226772 Si / 1000 Ang^3
#
#
#
# Elastic Constant Matrix: (Units=GPa)
#
#
# Indices 1 2 3 4 5 6 
#
# 1 24.2555 5.1475 -0.7398 0.0000 0.0000 0.0000
# 2 5.1475 169.2504 140.6228 0.0000 0.0000 0.0000
# 3 -0.7398 140.6228 178.9232 0.0000 0.0000 0.0000
# 4 0.0000 0.0000 0.0000 45.0913 0.0000 0.0000
# 5 0.0000 0.0000 0.0000 0.0000 -70.8981 0.0000
# 6 0.0000 0.0000 0.0000 0.0000 0.0000 132.5296
#
#
#
# Elastic Compliance Matrix: (Units=1/GPa)
#
#
# Indices 1 2 3 4 5 6 
#
# 1 0.042206 -0.004117 0.003410 0.000000 0.000000 0.000000
# 2 -0.004117 0.017429 -0.013715 0.000000 0.000000 0.000000
# 3 0.003410 -0.013715 0.016382 0.000000 0.000000 0.000000
# 4 0.000000 0.000000 0.000000 0.022177 0.000000 0.000000
# 5 0.000000 0.000000 0.000000 0.000000 -0.014105 0.000000
# 6 0.000000 0.000000 0.000000 0.000000 0.000000 0.007545
#
#
# Mechanical properties :
#
#
# Convention : Reuss Voigt Hill
#
# Bulk Modulus (GPa) = 21.19856 73.61001 47.40428
# Shear Modulus (GPa) = 36.71000 36.50447 36.60724
#
# Velocity S-wave (km/s) = 4.26481 4.25286 4.25884
# Velocity P-wave (km/s) = 5.89531 7.78377 6.90441
#
# Compressibility (1/GPa) = 0.04717302
#
# Stress axis : x y z
#
# Youngs Moduli (GPa) = 23.69357 57.37611 61.04153
#
# Poissons Ratio (x) = 0.23622 -0.20817
# Poissons Ratio (y) = 0.09755 0.83719
# Poissons Ratio (z) = -0.08080 0.78692
#
# Static dielectric constant tensor:
#      x y z
#    x 1.746960 0.000000 0.000000 
#    y 0.000000 1.715200 0.000000 
#    z 0.000000 0.000000 1.791910 
# 
# From -- ./inp_files/27013.got.cif
#   From: 2010.05.17/outbox.cif.g08.bks.cpg/sg47_14_cif.got.tgz:27013.got - 2010.06.03 20:15:42.
