data_PCOD9385134
_publ_section_title
;
Structure prediction by ZEFSAII (Michael W. Deem and Ramdas Pophale) SiO2 
 PCOD9385134
Probable space group: P M M M
;
_chemical_formula_sum "Si O2"
_cell_formula_units_Z 52
_cell_length_a 35.061826
_cell_length_b 7.485189
_cell_length_c 9.303188
_cell_angle_alpha 90.000000
_cell_angle_beta 90.000000
_cell_angle_gamma 90.000000
_cell_volume 2441.569540
_symmetry_space_group_name_H-M "P M M M"
_symmetry_group_IT_number 47
_symmetry_cell_setting 'orthorhombic'
loop_
_space_group_symop_operation_xyz
x,y,z
-x,-y,z
x,-y,-z
-x,y,-z
-x,-y,-z
x,y,-z
-x,y,z
x,-y,z
loop_
_atom_site_type_symbol
_atom_site_label
_atom_site_fract_x
_atom_site_fract_y
_atom_site_fract_z
Si Si1 0.348244 0.718516 0.665715
Si Si2 0.040976 0.285380 0.167332
Si Si3 0.575849 0.281784 0.834199
Si Si4 0.726277 0.285939 0.836853
Si Si5 0.124389 0.788078 0.163778
Si Si6 0.500000 0.718295 0.665887
Si Si7 0.803076 0.785634 0.662319
O O1 0.349006 0.775434 0.500000
O O2 0.348086 0.500000 0.665294
O O3 0.385964 0.774264 0.751549
O O4 0.310034 0.779358 0.746478
O O5 0.040134 0.500000 0.166477
O O6 0.082060 0.235355 0.228798
O O7 0.000000 0.224259 0.228858
O O8 0.041763 0.224845 0.000000
O O9 0.575778 0.500000 0.834717
O O10 0.538003 0.225053 0.749562
O O11 0.575606 0.224534 0.000000
O O12 0.722227 0.500000 0.845104
O O13 0.765625 0.250028 0.755565
O O14 0.726840 0.216832 0.000000
O O15 0.158961 0.716138 0.258679
O O16 0.130232 0.000000 0.151820
O O17 0.124906 0.714802 0.000000
O O18 0.500000 0.500000 0.665524
O O19 0.500000 0.775248 0.500000
O O20 0.799082 0.716719 0.500000
O O21 0.806803 0.000000 0.653141
#
# Coordination Sequence:
#
# PCOD9385134 Si02
#       7
#     8   8   8   8   8   4   8
#     4   9  16  26  40  58  82 112 145 183 228 277
#     4   8  14  25  42  66  95 123 151 187 231 275
#     4   9  15  22  32  47  70 102 141 184 228 274
#     4  10  20  33  50  72  95 120 154 195 237 283
#     4   9  17  29  46  68  92 118 151 191 232 275
#     4   9  15  21  29  43  65  97 140 185 228 277
#     4  10  21  36  52  70  95 127 160 195 238 286
#
# _framework density 21.297775999999999
#
# number of rings (size 3 to 8) (size 9 to 14) (size 15 to 20)
#    0.000    2.846    0.000    2.538    0.000    7.385 
#    0.000    3.077    0.000    0.462    0.000    3.231 
#    0.000    0.000    0.000    0.692    0.000   13.538 
#
# Total GULP energy -290232.898999 kJ/mol
# GULP energy per Si atom -5581.401904 kJ/mol
# Density = 2.124930 g / cm^3
# Si number density = 21.297776 Si / 1000 Ang^3
#
#
#
# Elastic Constant Matrix: (Units=GPa)
#
#
# Indices 1 2 3 4 5 6 
#
# 1 258.5577 0.1868 136.3857 0.0000 0.0000 0.0000
# 2 0.1868 58.1630 6.0526 0.0000 0.0000 0.0000
# 3 136.3857 6.0526 189.1967 0.0000 0.0000 0.0000
# 4 0.0000 0.0000 0.0000 2.4677 0.0000 0.0000
# 5 0.0000 0.0000 0.0000 0.0000 1067.0685 0.0000
# 6 0.0000 0.0000 0.0000 0.0000 0.0000 23.0816
#
#
#
# Elastic Compliance Matrix: (Units=1/GPa)
#
#
# Indices 1 2 3 4 5 6 
#
# 1 0.006252 0.000450 -0.004521 0.000000 0.000000 0.000000
# 2 0.000450 0.017283 -0.000878 0.000000 0.000000 0.000000
# 3 -0.004521 -0.000878 0.008573 0.000000 0.000000 0.000000
# 4 0.000000 0.000000 0.000000 0.405236 0.000000 0.000000
# 5 0.000000 0.000000 0.000000 0.000000 0.000937 0.000000
# 6 0.000000 0.000000 0.000000 0.000000 0.000000 0.043325
#
#
# Mechanical properties :
#
#
# Convention : Reuss Voigt Hill
#
# Bulk Modulus (GPa) = 45.02290 87.90751 66.46520
# Shear Modulus (GPa) = 10.02191 242.74305 126.38248
#
# Velocity S-wave (km/s) = 2.17160 10.68753 7.71165
# Velocity P-wave (km/s) = 5.24151 13.91627 10.51513
#
# Compressibility (1/GPa) = 0.02221092
#
# Stress axis : x y z
#
# Youngs Moduli (GPa) = 159.94086 57.86048 116.64557
#
# Poissons Ratio (x) = -0.02606 0.52741
# Poissons Ratio (y) = -0.07204 0.10237
# Poissons Ratio (z) = 0.72317 0.05078
#
# Static dielectric constant tensor:
#      x y z
#    x 1.751110 0.000000 0.000000 
#    y 0.000000 1.836120 0.000000 
#    z 0.000000 0.000000 1.742680 
# 
# From -- ./inp_files/14096.got.cif
#   From: 2010.05.17/outbox.cif.g08.bks.cpg/sg47_8_cif.got.tgz:14096.got - 2010.06.03 20:15:42.
