data_PCOD9385082
_publ_section_title
;
Structure prediction by ZEFSAII (Michael W. Deem and Ramdas Pophale) SiO2 
 PCOD9385082
Probable space group: P M M M
;
_chemical_formula_sum "Si O2"
_cell_formula_units_Z 44
_cell_length_a 19.453561
_cell_length_b 8.907589
_cell_length_c 14.330340
_cell_angle_alpha 90.000000
_cell_angle_beta 90.000000
_cell_angle_gamma 90.000000
_cell_volume 2483.223308
_symmetry_space_group_name_H-M "P M M M"
_symmetry_group_IT_number 47
_symmetry_cell_setting 'orthorhombic'
loop_
_space_group_symop_operation_xyz
x,y,z
-x,-y,z
x,-y,-z
-x,y,-z
-x,-y,-z
x,y,-z
-x,y,z
x,-y,z
loop_
_atom_site_type_symbol
_atom_site_label
_atom_site_fract_x
_atom_site_fract_y
_atom_site_fract_z
Si Si1 0.583140 0.169405 0.500000
Si Si2 0.920773 0.681042 0.720494
Si Si3 0.802280 0.180625 0.605000
Si Si4 0.419656 0.679109 0.303543
Si Si5 0.825687 0.680604 0.106151
Si Si6 0.293110 0.179577 0.779381
O O1 0.500000 0.159629 0.500000
O O2 0.600446 0.254265 0.404904
O O3 0.612019 0.000000 0.500000
O O4 0.918482 0.500000 0.713282
O O5 0.874317 0.751230 0.639336
O O6 0.883977 0.722958 0.818402
O O7 0.000000 0.728465 0.717575
O O8 0.784528 0.228614 0.500000
O O9 0.746836 0.223479 0.683523
O O10 0.806916 0.000000 0.606190
O O11 0.500000 0.716712 0.287447
O O12 0.413213 0.500000 0.305364
O O13 0.368341 0.749975 0.228649
O O14 0.817905 0.500000 0.110924
O O15 0.754920 0.756372 0.139185
O O16 0.843205 0.721129 0.000000
O O17 0.296916 0.000000 0.784153
#
# Coordination Sequence:
#
# PCOD9385082 Si02
#       6
#     4   8   8   8   8   8
#     4   9  17  29  45  67  97 133 170 205 244 291
#     4   9  18  32  50  75 104 130 163 207 250 297
#     4   9  19  34  49  68  97 135 175 209 244 291
#     4  10  20  33  49  72 103 136 171 211 255 303
#     4   9  18  34  55  76 100 131 165 204 255 312
#     4  10  20  33  52  75 100 132 170 214 257 302
#
# _framework density 17.718904999999999
#
# number of rings (size 3 to 8) (size 9 to 14) (size 15 to 20)
#    0.000    2.636    0.000    1.364    1.273    4.727 
#    0.000    3.636    0.000    0.545    0.000    8.909 
#    0.000    0.000    0.000    0.000    0.000    0.000 
#
# Total GULP energy -245418.391078 kJ/mol
# GULP energy per Si atom -5577.690706 kJ/mol
# Density = 1.767858 g / cm^3
# Si number density = 17.718905 Si / 1000 Ang^3
#
#
#
# Elastic Constant Matrix: (Units=GPa)
#
#
# Indices 1 2 3 4 5 6 
#
# 1 71.2380 16.4998 -6.4750 0.0000 0.0000 0.0000
# 2 16.4998 18.5616 3.3290 0.0000 0.0000 0.0000
# 3 -6.4750 3.3290 44.5152 0.0000 0.0000 0.0000
# 4 0.0000 0.0000 0.0000 21.1555 0.0000 0.0000
# 5 0.0000 0.0000 0.0000 0.0000 15.1820 0.0000
# 6 0.0000 0.0000 0.0000 0.0000 0.0000 24.5527
#
#
#
# Elastic Compliance Matrix: (Units=1/GPa)
#
#
# Indices 1 2 3 4 5 6 
#
# 1 0.018334 -0.017004 0.003938 0.000000 0.000000 0.000000
# 2 -0.017004 0.070377 -0.007736 0.000000 0.000000 0.000000
# 3 0.003938 -0.007736 0.023616 0.000000 0.000000 0.000000
# 4 0.000000 0.000000 0.000000 0.047269 0.000000 0.000000
# 5 0.000000 0.000000 0.000000 0.000000 0.065867 0.000000
# 6 0.000000 0.000000 0.000000 0.000000 0.000000 0.040729
#
#
# Mechanical properties :
#
#
# Convention : Reuss Voigt Hill
#
# Bulk Modulus (GPa) = 14.13961 17.89138 16.01550
# Shear Modulus (GPa) = 15.08892 20.24209 17.66551
#
# Velocity S-wave (km/s) = 2.92134 3.38361 3.16093
# Velocity P-wave (km/s) = 4.40184 5.03829 4.73078
#
# Compressibility (1/GPa) = 0.07072329
#
# Stress axis : x y z
#
# Youngs Moduli (GPa) = 54.54435 14.20920 42.34483
#
# Poissons Ratio (x) = 0.24161 -0.16677
# Poissons Ratio (y) = 0.92745 0.32759
# Poissons Ratio (z) = -0.21481 0.10993
#
# Static dielectric constant tensor:
#      x y z
#    x 1.610640 0.000000 0.000000 
#    y 0.000000 1.593420 0.000000 
#    z 0.000000 0.000000 1.596430 
# 
# From -- ./inp_files/6148.got.cif
#   From: 2010.05.17/outbox.cif.g08.bks.cpg/sg47_4_cif.got.tgz:6148.got - 2010.06.03 20:15:42.
