data_PCOD9385710
_publ_section_title
;
Structure prediction by ZEFSAII (Michael W. Deem and Ramdas Pophale) SiO2 
 PCOD9385710
Probable space group: P M M M
;
_chemical_formula_sum "Si O2"
_cell_formula_units_Z 52
_cell_length_a 8.490704
_cell_length_b 16.069974
_cell_length_c 19.516190
_cell_angle_alpha 90.000000
_cell_angle_beta 90.000000
_cell_angle_gamma 90.000000
_cell_volume 2662.894205
_symmetry_space_group_name_H-M "P M M M"
_symmetry_group_IT_number 47
_symmetry_cell_setting 'orthorhombic'
loop_
_space_group_symop_operation_xyz
x,y,z
-x,-y,z
x,-y,-z
-x,y,-z
-x,-y,-z
x,y,-z
-x,y,z
x,-y,z
loop_
_atom_site_type_symbol
_atom_site_label
_atom_site_fract_x
_atom_site_fract_y
_atom_site_fract_z
Si Si1 0.813597 0.000000 0.420944
Si Si2 0.322010 0.858047 0.323736
Si Si3 0.682859 0.404862 0.616860
Si Si4 0.811271 0.595231 0.770933
Si Si5 0.688983 0.771827 0.185517
Si Si6 0.175754 0.750500 0.575953
Si Si7 0.189423 0.906218 0.918851
O O1 0.763804 0.923406 0.372770
O O2 0.749086 0.000000 0.500000
O O3 0.000000 0.000000 0.427559
O O4 0.500000 0.886847 0.312414
O O5 0.254565 0.826389 0.251621
O O6 0.309638 0.778300 0.372215
O O7 0.500000 0.383873 0.604861
O O8 0.704082 0.500000 0.597732
O O9 0.725157 0.397658 0.697643
O O10 0.801768 0.347336 0.575981
O O11 0.777026 0.500000 0.797317
O O12 0.759190 0.678147 0.812596
O O13 0.000000 0.599799 0.761283
O O14 0.500000 0.764092 0.191266
O O15 0.733935 0.829878 0.121556
O O16 0.195202 0.786015 0.500000
O O17 0.000000 0.772434 0.600387
O O18 0.000000 0.901888 0.910192
O O19 0.239338 0.000000 0.895760
O O20 0.222392 0.900680 0.000000
#
# Coordination Sequence:
#
# PCOD9385710 Si02
#       7
#     4   8   8   8   8   8   8
#     4  11  25  43  61  81 108 147 196 249 305 362
#     4  11  24  40  58  83 113 147 190 239 293 353
#     4  10  20  34  52  75 105 141 183 233 290 350
#     4  10  20  35  58  86 116 154 199 246 298 353
#     4  11  23  37  59  92 126 159 198 245 295 351
#     4  11  23  37  54  76 104 141 187 239 293 348
#     4   9  20  40  65  94 128 165 202 238 284 344
#
# _framework density 19.527626000000001
#
# number of rings (size 3 to 8) (size 9 to 14) (size 15 to 20)
#    0.000    1.615    1.538    3.462    1.077    8.308 
#    0.000    2.308    0.000    0.462    0.000    3.231 
#    0.000    0.000    0.000    0.000    0.000    0.000 
#
# Total GULP energy -289859.221168 kJ/mol
# GULP energy per Si atom -5574.215792 kJ/mol
# Density = 1.948318 g / cm^3
# Si number density = 19.527626 Si / 1000 Ang^3
#
#
#
# Elastic Constant Matrix: (Units=GPa)
#
#
# Indices 1 2 3 4 5 6 
#
# 1 38.7046 24.8591 14.2763 0.0000 0.0000 0.0000
# 2 24.8591 128.9555 43.8143 0.0000 0.0000 0.0000
# 3 14.2763 43.8143 58.8419 0.0000 0.0000 0.0000
# 4 0.0000 0.0000 0.0000 11.6845 0.0000 0.0000
# 5 0.0000 0.0000 0.0000 0.0000 31.3454 0.0000
# 6 0.0000 0.0000 0.0000 0.0000 0.0000 34.0403
#
#
#
# Elastic Compliance Matrix: (Units=1/GPa)
#
#
# Indices 1 2 3 4 5 6 
#
# 1 0.030176 -0.004457 -0.004002 0.000000 0.000000 0.000000
# 2 -0.004457 0.011039 -0.007139 0.000000 0.000000 0.000000
# 3 -0.004002 -0.007139 0.023281 0.000000 0.000000 0.000000
# 4 0.000000 0.000000 0.000000 0.085583 0.000000 0.000000
# 5 0.000000 0.000000 0.000000 0.000000 0.031903 0.000000
# 6 0.000000 0.000000 0.000000 0.000000 0.000000 0.029377
#
#
# Mechanical properties :
#
#
# Convention : Reuss Voigt Hill
#
# Bulk Modulus (GPa) = 30.03007 43.60016 36.81512
# Shear Modulus (GPa) = 19.71177 24.98418 22.34797
#
# Velocity S-wave (km/s) = 3.18060 3.58079 3.38661
# Velocity P-wave (km/s) = 5.37586 6.28267 5.84687
#
# Compressibility (1/GPa) = 0.03329996
#
# Stress axis : x y z
#
# Youngs Moduli (GPa) = 33.13918 90.58575 42.95313
#
# Poissons Ratio (x) = 0.40376 0.17191
# Poissons Ratio (y) = 0.14771 0.30662
# Poissons Ratio (z) = 0.13264 0.64665
#
# Static dielectric constant tensor:
#      x y z
#    x 1.688750 0.000000 0.000000 
#    y 0.000000 1.877660 0.000000 
#    z 0.000000 0.000000 1.672090 
# 
# From -- ./inp_files/26757.got.cif
#   From: 2010.05.17/outbox.cif.g08.bks.cpg/sg47_14_cif.got.tgz:26757.got - 2010.06.03 20:15:42.
