data_PCOD9385909
_publ_section_title
;
Structure prediction by ZEFSAII (Michael W. Deem and Ramdas Pophale) SiO2 
 PCOD9385909
Probable space group: P M M M
;
_chemical_formula_sum "Si O2"
_cell_formula_units_Z 64
_cell_length_a 18.435309
_cell_length_b 21.264053
_cell_length_c 7.711363
_cell_angle_alpha 90.000000
_cell_angle_beta 90.000000
_cell_angle_gamma 90.000000
_cell_volume 3022.926688
_symmetry_space_group_name_H-M "P M M M"
_symmetry_group_IT_number 47
_symmetry_cell_setting 'orthorhombic'
loop_
_space_group_symop_operation_xyz
x,y,z
-x,-y,z
x,-y,-z
-x,y,-z
-x,-y,-z
x,y,-z
-x,y,z
x,-y,z
loop_
_atom_site_type_symbol
_atom_site_label
_atom_site_fract_x
_atom_site_fract_y
_atom_site_fract_z
Si Si1 0.223530 0.573790 0.302569
Si Si2 0.715669 0.206462 0.296322
Si Si3 0.240758 0.931554 0.209554
Si Si4 0.922505 0.366706 0.711378
Si Si5 0.385803 0.429586 0.199998
Si Si6 0.877608 0.228775 0.289861
Si Si7 0.921550 0.092686 0.201885
Si Si8 0.578531 0.292493 0.792309
O O1 0.234704 0.598752 0.500000
O O2 0.209005 0.500000 0.315143
O O3 0.151975 0.603814 0.223772
O O4 0.298999 0.580255 0.205039
O O5 0.719553 0.215505 0.500000
O O6 0.716438 0.131306 0.262064
O O7 0.793795 0.230112 0.226796
O O8 0.646297 0.246790 0.240884
O O9 0.156845 0.927882 0.274699
O O10 0.270498 0.000000 0.261978
O O11 0.237659 0.929875 0.000000
O O12 0.920874 0.373815 0.500000
O O13 0.916928 0.293212 0.751125
O O14 0.000000 0.392501 0.771177
O O15 0.400334 0.500000 0.276096
O O16 0.414371 0.364209 0.278068
O O17 0.409923 0.432807 0.000000
O O18 0.877917 0.221939 0.500000
O O19 0.915671 0.167908 0.213629
O O20 0.000000 0.073566 0.277086
O O21 0.921992 0.073707 0.000000
O O22 0.500000 0.266815 0.734958
O O23 0.577039 0.299125 0.000000
#
# Coordination Sequence:
#
# PCOD9385909 Si02
#       8
#     8   8   8   8   8   8   8   8
#     4   9  17  29  45  64  87 118 158 203 248 295
#     4  10  20  34  54  78 104 135 170 210 254 301
#     4   9  18  33  53  76 103 138 178 217 258 304
#     4   9  16  25  39  60  85 115 156 206 252 291
#     4   9  18  33  53  76 102 133 167 202 242 291
#     4   9  17  29  45  64  88 123 165 204 246 298
#     4   9  17  28  43  67  99 131 165 208 253 294
#     4  10  21  36  55  80 108 136 165 199 243 298
#
# _framework density 21.171534000000001
#
# number of rings (size 3 to 8) (size 9 to 14) (size 15 to 20)
#    0.000    2.750    0.000    1.500    0.000    4.000 
#    0.000    4.375    0.000    1.500    0.000   10.500 
#    0.000    0.000    0.000    0.000    0.000    0.000 
#
# Total GULP energy -356752.983907 kJ/mol
# GULP energy per Si atom -5574.265374 kJ/mol
# Density = 2.112335 g / cm^3
# Si number density = 21.171534 Si / 1000 Ang^3
#
#
#
# Elastic Constant Matrix: (Units=GPa)
#
#
# Indices 1 2 3 4 5 6 
#
# 1 129.2546 73.6785 8.1635 0.0000 0.0000 0.0000
# 2 73.6785 84.8037 5.3883 0.0000 0.0000 0.0000
# 3 8.1635 5.3883 35.6325 0.0000 0.0000 0.0000
# 4 0.0000 0.0000 0.0000 -0.7347 0.0000 0.0000
# 5 0.0000 0.0000 0.0000 0.0000 -2.8260 0.0000
# 6 0.0000 0.0000 0.0000 0.0000 0.0000 -33.5224
#
#
#
# Elastic Compliance Matrix: (Units=1/GPa)
#
#
# Indices 1 2 3 4 5 6 
#
# 1 0.015409 -0.013291 -0.001520 0.000000 0.000000 0.000000
# 2 -0.013291 0.023370 -0.000489 0.000000 0.000000 0.000000
# 3 -0.001520 -0.000489 0.028487 0.000000 0.000000 0.000000
# 4 0.000000 0.000000 0.000000 -1.361150 0.000000 0.000000
# 5 0.000000 0.000000 0.000000 0.000000 -0.353861 0.000000
# 6 0.000000 0.000000 0.000000 0.000000 0.000000 -0.029831
#
#
# Mechanical properties :
#
#
# Convention : Reuss Voigt Hill
#
# Bulk Modulus (GPa) = 27.27389 47.12794 37.20091
# Shear Modulus (GPa) = -3.05856 3.41408 0.17776
#
# Velocity S-wave (km/s) = -1.20324 1.27125 0.29008
# Velocity P-wave (km/s) = 3.31360 4.94602 4.20970
#
# Compressibility (1/GPa) = 0.03666511
#
# Stress axis : x y z
#
# Youngs Moduli (GPa) = 64.89814 42.78960 35.10433
#
# Poissons Ratio (x) = 0.56870 0.05337
# Poissons Ratio (y) = 0.86254 0.01717
# Poissons Ratio (z) = 0.09867 0.02093
#
# Static dielectric constant tensor:
#      x y z
#    x 1.787590 0.000000 0.000000 
#    y 0.000000 1.773850 0.000000 
#    z 0.000000 0.000000 1.810260 
# 
# From -- ./inp_files/9976.got.cif
#   From: 2010.05.17/outbox.cif.g08.bks.cpg/sg47_5_cif.got.tgz:9976.got - 2010.06.03 20:15:42.
