data_PCOD9385691
_publ_section_title
;
Structure prediction by ZEFSAII (Michael W. Deem and Ramdas Pophale) SiO2 
 PCOD9385691
Probable space group: P M M M
;
_chemical_formula_sum "Si O2"
_cell_formula_units_Z 48
_cell_length_a 35.254881
_cell_length_b 7.800695
_cell_length_c 9.482110
_cell_angle_alpha 90.000000
_cell_angle_beta 90.000000
_cell_angle_gamma 90.000000
_cell_volume 2607.699478
_symmetry_space_group_name_H-M "P M M M"
_symmetry_group_IT_number 47
_symmetry_cell_setting 'orthorhombic'
loop_
_space_group_symop_operation_xyz
x,y,z
-x,-y,z
x,-y,-z
-x,y,-z
-x,-y,-z
x,y,-z
-x,y,z
x,-y,z
loop_
_atom_site_type_symbol
_atom_site_label
_atom_site_fract_x
_atom_site_fract_y
_atom_site_fract_z
Si Si1 0.545373 0.199863 0.665970
Si Si2 0.114194 0.792831 0.661822
Si Si3 0.958131 0.790772 0.163738
Si Si4 0.412794 0.500000 0.170261
Si Si5 0.802025 0.296316 0.663168
Si Si6 0.271060 0.808084 0.832242
Si Si7 0.324759 0.500000 0.171157
O O1 0.553544 0.232354 0.500000
O O2 0.500000 0.220979 0.684194
O O3 0.567191 0.332928 0.763896
O O4 0.554432 0.000000 0.695480
O O5 0.111626 0.732803 0.500000
O O6 0.078001 0.730319 0.748829
O O7 0.155524 0.740389 0.717354
O O8 0.113174 0.000000 0.661417
O O9 0.000000 0.736823 0.215283
O O10 0.957814 0.000000 0.168043
O O11 0.954739 0.741637 0.000000
O O12 0.368495 0.500000 0.213004
O O13 0.415610 0.500000 0.000000
O O14 0.800565 0.235965 0.500000
O O15 0.796082 0.500000 0.664373
O O16 0.768765 0.213948 0.753470
O O17 0.301087 0.666446 0.783004
O O18 0.285699 0.000000 0.810048
O O19 0.264879 0.783819 0.000000
O O20 0.324816 0.500000 0.000000
#
# Coordination Sequence:
#
# PCOD9385691 Si02
#       7
#     8   8   8   4   8   8   4
#     4   9  19  37  59  82 113 156 201 242 287 341
#     4   9  17  28  43  66  94 121 153 195 244 302
#     4   8  14  25  41  62  89 119 152 194 241 289
#     4  11  22  34  55  86 118 152 190 239 295 344
#     4  10  20  34  52  74 102 133 164 207 264 317
#     4  10  20  36  59  80 100 135 180 221 264 318
#     4   9  20  38  54  77 114 148 181 223 272 330
#
# _framework density 18.407029999999999
#
# number of rings (size 3 to 8) (size 9 to 14) (size 15 to 20)
#    0.000    2.667    0.833    2.000    0.000    4.333 
#    0.000    7.500    0.000    0.500    0.000    3.500 
#    0.000    0.000    0.000    0.000    0.000    0.000 
#
# Total GULP energy -267723.835429 kJ/mol
# GULP energy per Si atom -5577.579905 kJ/mol
# Density = 1.836513 g / cm^3
# Si number density = 18.407030 Si / 1000 Ang^3
#
#
#
# Elastic Constant Matrix: (Units=GPa)
#
#
# Indices 1 2 3 4 5 6 
#
# 1 141.9816 70.1852 64.3656 0.0000 0.0000 0.0000
# 2 70.1852 88.2494 47.7287 0.0000 0.0000 0.0000
# 3 64.3656 47.7287 53.5913 0.0000 0.0000 0.0000
# 4 0.0000 0.0000 0.0000 11.4394 0.0000 0.0000
# 5 0.0000 0.0000 0.0000 0.0000 59.4008 0.0000
# 6 0.0000 0.0000 0.0000 0.0000 0.0000 6.3930
#
#
#
# Elastic Compliance Matrix: (Units=1/GPa)
#
#
# Indices 1 2 3 4 5 6 
#
# 1 0.016377 -0.004605 -0.015569 0.000000 0.000000 0.000000
# 2 -0.004605 0.023156 -0.015093 0.000000 0.000000 0.000000
# 3 -0.015569 -0.015093 0.050801 0.000000 0.000000 0.000000
# 4 0.000000 0.000000 0.000000 0.087418 0.000000 0.000000
# 5 0.000000 0.000000 0.000000 0.000000 0.016835 0.000000
# 6 0.000000 0.000000 0.000000 0.000000 0.000000 0.156422
#
#
# Mechanical properties :
#
#
# Convention : Reuss Voigt Hill
#
# Bulk Modulus (GPa) = 50.50155 72.04235 61.27195
# Shear Modulus (GPa) = 11.67837 22.21615 16.94726
#
# Velocity S-wave (km/s) = 2.52157 3.47787 3.03759
# Velocity P-wave (km/s) = 5.99777 7.43982 6.75737
#
# Compressibility (1/GPa) = 0.01980137
#
# Stress axis : x y z
#
# Youngs Moduli (GPa) = 61.05958 43.18462 19.68482
#
# Poissons Ratio (x) = 0.19885 0.30647
# Poissons Ratio (y) = 0.28116 0.29710
# Poissons Ratio (z) = 0.95064 0.65177
#
# Static dielectric constant tensor:
#      x y z
#    x 1.612170 0.000000 0.000000 
#    y 0.000000 1.661070 0.000000 
#    z 0.000000 0.000000 1.619170 
# 
# From -- ./inp_files/13997.got.cif
#   From: 2010.05.17/outbox.cif.g08.bks.cpg/sg47_7_cif.got.tgz:13997.got - 2010.06.03 20:15:42.
