data_PCOD9385566
_publ_section_title
;
Structure prediction by ZEFSAII (Michael W. Deem and Ramdas Pophale) SiO2 
 PCOD9385566
Probable space group: P M M M
;
_chemical_formula_sum "Si O2"
_cell_formula_units_Z 48
_cell_length_a 8.476758
_cell_length_b 22.542378
_cell_length_c 13.962002
_cell_angle_alpha 90.000000
_cell_angle_beta 90.000000
_cell_angle_gamma 90.000000
_cell_volume 2667.947066
_symmetry_space_group_name_H-M "P M M M"
_symmetry_group_IT_number 47
_symmetry_cell_setting 'orthorhombic'
loop_
_space_group_symop_operation_xyz
x,y,z
-x,-y,z
x,-y,-z
-x,y,-z
-x,-y,-z
x,y,-z
-x,y,z
x,-y,z
loop_
_atom_site_type_symbol
_atom_site_label
_atom_site_fract_x
_atom_site_fract_y
_atom_site_fract_z
Si Si1 0.687859 0.500000 0.388797
Si Si2 0.320619 0.136199 0.615424
Si Si3 0.311446 0.935904 0.885475
Si Si4 0.188194 0.191297 0.889967
Si Si5 0.187454 0.375480 0.609967
Si Si6 0.000000 0.068065 0.616542
Si Si7 0.315512 0.738272 0.716803
O O1 0.500000 0.500000 0.387758
O O2 0.744227 0.500000 0.500000
O O3 0.747814 0.437540 0.348786
O O4 0.323691 0.134273 0.500000
O O5 0.500000 0.117371 0.647636
O O6 0.296316 0.203588 0.649976
O O7 0.165533 0.098988 0.645564
O O8 0.500000 0.933968 0.873669
O O9 0.242764 0.873405 0.852559
O O10 0.255004 0.000000 0.846904
O O11 0.279065 0.936976 0.000000
O O12 0.251539 0.241408 0.819654
O O13 0.000000 0.192175 0.890073
O O14 0.244371 0.197952 0.000000
O O15 0.248445 0.368276 0.500000
O O16 0.233332 0.318445 0.671124
O O17 0.000000 0.379970 0.605626
O O18 0.000000 0.069391 0.500000
O O19 0.000000 0.000000 0.647361
O O20 0.500000 0.725572 0.723757
#
# Coordination Sequence:
#
# PCOD9385566 Si02
#       7
#     4   8   8   8   8   4   8
#     4   9  17  31  51  77 114 153 184 215 249 295
#     4   9  19  34  52  76 104 132 169 219 269 321
#     4   8  14  27  48  70  91 119 156 200 256 321
#     4  10  21  35  51  73 101 132 170 219 271 322
#     4  10  20  33  53  82 115 149 181 215 257 306
#     4   9  18  32  52  74  97 134 178 218 266 318
#     4  11  22  35  53  76 103 138 178 217 262 318
#
# _framework density 17.99136
#
# number of rings (size 3 to 8) (size 9 to 14) (size 15 to 20)
#    0.000    2.500    0.000    2.750    2.333    4.333 
#    0.000    4.167    0.000    1.000    0.000    0.583 
#    0.000    4.667    0.000    0.000    0.000    0.000 
#
# Total GULP energy -267737.791330 kJ/mol
# GULP energy per Si atom -5577.870653 kJ/mol
# Density = 1.795041 g / cm^3
# Si number density = 17.991360 Si / 1000 Ang^3
#
#
#
# Elastic Constant Matrix: (Units=GPa)
#
#
# Indices 1 2 3 4 5 6 
#
# 1 90.5858 64.2820 18.5543 0.0000 0.0000 0.0000
# 2 64.2820 138.7244 44.4423 0.0000 0.0000 0.0000
# 3 18.5543 44.4423 63.8298 0.0000 0.0000 0.0000
# 4 0.0000 0.0000 0.0000 4.7985 0.0000 0.0000
# 5 0.0000 0.0000 0.0000 0.0000 15.2375 0.0000
# 6 0.0000 0.0000 0.0000 0.0000 0.0000 34.6744
#
#
#
# Elastic Compliance Matrix: (Units=1/GPa)
#
#
# Indices 1 2 3 4 5 6 
#
# 1 0.016470 -0.007849 0.000677 0.000000 0.000000 0.000000
# 2 -0.007849 0.013019 -0.006783 0.000000 0.000000 0.000000
# 3 0.000677 -0.006783 0.020192 0.000000 0.000000 0.000000
# 4 0.000000 0.000000 0.000000 0.208400 0.000000 0.000000
# 5 0.000000 0.000000 0.000000 0.000000 0.065627 0.000000
# 6 0.000000 0.000000 0.000000 0.000000 0.000000 0.028840
#
#
# Mechanical properties :
#
#
# Convention : Reuss Voigt Hill
#
# Bulk Modulus (GPa) = 45.92978 60.85524 53.39251
# Shear Modulus (GPa) = 12.89608 21.99950 17.44779
#
# Velocity S-wave (km/s) = 2.68020 3.50062 3.11752
# Velocity P-wave (km/s) = 5.92977 7.08783 6.53450
#
# Compressibility (1/GPa) = 0.02177236
#
# Stress axis : x y z
#
# Youngs Moduli (GPa) = 60.71501 76.81349 49.52370
#
# Poissons Ratio (x) = 0.60291 -0.03354
# Poissons Ratio (y) = 0.47655 0.33591
# Poissons Ratio (z) = -0.04112 0.52101
#
# Static dielectric constant tensor:
#      x y z
#    x 1.623390 0.000000 0.000000 
#    y 0.000000 1.604880 0.000000 
#    z 0.000000 0.000000 1.644650 
# 
# From -- ./inp_files/9150.got.cif
#   From: 2010.05.17/outbox.cif.g08.bks.cpg/sg47_5_cif.got.tgz:9150.got - 2010.06.03 20:15:42.
