data_PCOD9385183
_publ_section_title
;
Structure prediction by ZEFSAII (Michael W. Deem and Ramdas Pophale) SiO2 
 PCOD9385183
Probable space group: P M M M
;
_chemical_formula_sum "Si O2"
_cell_formula_units_Z 52
_cell_length_a 7.520694
_cell_length_b 21.702152
_cell_length_c 15.238499
_cell_angle_alpha 90.000000
_cell_angle_beta 90.000000
_cell_angle_gamma 90.000000
_cell_volume 2487.155338
_symmetry_space_group_name_H-M "P M M M"
_symmetry_group_IT_number 47
_symmetry_cell_setting 'orthorhombic'
loop_
_space_group_symop_operation_xyz
x,y,z
-x,-y,z
x,-y,-z
-x,y,-z
-x,-y,-z
x,y,-z
-x,y,z
x,-y,z
loop_
_atom_site_type_symbol
_atom_site_label
_atom_site_fract_x
_atom_site_fract_y
_atom_site_fract_z
Si Si1 0.801336 0.926275 0.000000
Si Si2 0.285114 0.268450 0.405708
Si Si3 0.707745 0.566816 0.203719
Si Si4 0.296547 0.930731 0.193191
Si Si5 0.281630 0.201106 0.769855
Si Si6 0.205090 0.411457 0.403708
Si Si7 0.282674 0.689768 0.897772
O O1 0.703615 0.913450 0.910055
O O2 0.000000 0.899396 0.000000
O O3 0.818200 0.000000 0.000000
O O4 0.236102 0.240663 0.500000
O O5 0.500000 0.272803 0.402127
O O6 0.227254 0.232475 0.320639
O O7 0.215285 0.337626 0.402946
O O8 0.500000 0.565697 0.179815
O O9 0.785280 0.500000 0.177302
O O10 0.716296 0.569913 0.309936
O O11 0.778017 0.629132 0.157396
O O12 0.500000 0.935093 0.223690
O O13 0.213947 0.869026 0.231834
O O14 0.218466 0.000000 0.203178
O O15 0.500000 0.198303 0.773246
O O16 0.227301 0.247136 0.848476
O O17 0.280430 0.430085 0.500000
O O18 0.000000 0.430539 0.402450
O O19 0.500000 0.689817 0.895687
O O20 0.229303 0.687386 0.000000
#
# Coordination Sequence:
#
# PCOD9385183 Si02
#       7
#     4   8   8   8   8   8   8
#     4   9  17  29  43  61  91 127 160 195 236 282
#     4   9  16  29  51  74  95 122 159 201 242 287
#     4  10  20  34  52  73  97 126 162 201 239 283
#     4   9  17  28  44  67  95 127 162 197 234 283
#     4   9  16  27  47  72  96 123 157 196 237 280
#     4  10  20  33  50  73 101 129 156 193 245 298
#     4   9  17  29  47  72  98 123 157 200 240 277
#
# _framework density 20.907419000000001
#
# number of rings (size 3 to 8) (size 9 to 14) (size 15 to 20)
#    0.000    2.692    1.538    0.692    1.077    2.769 
#    0.000    3.846    0.000    0.923    0.000    4.308 
#    0.000    0.000    0.000    7.692    0.000    8.000 
#
# Total GULP energy -289703.126026 kJ/mol
# GULP energy per Si atom -5571.213962 kJ/mol
# Density = 2.085983 g / cm^3
# Si number density = 20.907419 Si / 1000 Ang^3
#
#
#
# Elastic Constant Matrix: (Units=GPa)
#
#
# Indices 1 2 3 4 5 6 
#
# 1 53.3091 5.7632 1.2462 0.0000 0.0000 0.0000
# 2 5.7632 183.3015 80.1338 0.0000 0.0000 0.0000
# 3 1.2462 80.1338 122.3865 0.0000 0.0000 0.0000
# 4 0.0000 0.0000 0.0000 33.4633 0.0000 0.0000
# 5 0.0000 0.0000 0.0000 0.0000 -40.9872 0.0000
# 6 0.0000 0.0000 0.0000 0.0000 0.0000 -199.7589
#
#
#
# Elastic Compliance Matrix: (Units=1/GPa)
#
#
# Indices 1 2 3 4 5 6 
#
# 1 0.018829 -0.000712 0.000274 0.000000 0.000000 0.000000
# 2 -0.000712 0.007670 -0.005015 0.000000 0.000000 0.000000
# 3 0.000274 -0.005015 0.011452 0.000000 0.000000 0.000000
# 4 0.000000 0.000000 0.000000 0.029883 0.000000 0.000000
# 5 0.000000 0.000000 0.000000 0.000000 -0.024398 0.000000
# 6 0.000000 0.000000 0.000000 0.000000 0.000000 -0.005006
#
#
# Mechanical properties :
#
#
# Convention : Reuss Voigt Hill
#
# Bulk Modulus (GPa) = 36.97401 59.25372 48.11387
# Shear Modulus (GPa) = 85.68868 -23.33296 31.17786
#
# Velocity S-wave (km/s) = 6.40888 -3.34430 3.86584
# Velocity P-wave (km/s) = 8.51399 3.67288 6.55660
#
# Compressibility (1/GPa) = 0.02704602
#
# Stress axis : x y z
#
# Youngs Moduli (GPa) = 53.10934 130.37379 87.32389
#
# Poissons Ratio (x) = 0.09283 -0.02397
# Poissons Ratio (y) = 0.03781 0.43792
# Poissons Ratio (z) = -0.01458 0.65382
#
# Static dielectric constant tensor:
#      x y z
#    x 1.798830 0.000000 0.000000 
#    y 0.000000 1.772880 0.000000 
#    z 0.000000 0.000000 1.747660 
# 
# From -- ./inp_files/21467.got.cif
#   From: 2010.05.17/outbox.cif.g08.bks.cpg/sg47_11_cif.got.tgz:21467.got - 2010.06.03 20:15:42.
