data_PCOD9385455
_publ_section_title
;
Structure prediction by ZEFSAII (Michael W. Deem and Ramdas Pophale) SiO2 
 PCOD9385455
Probable space group: P M M M
;
_chemical_formula_sum "Si O2"
_cell_formula_units_Z 56
_cell_length_a 15.072467
_cell_length_b 8.680815
_cell_length_c 23.188358
_cell_angle_alpha 90.000000
_cell_angle_beta 90.000000
_cell_angle_gamma 90.000000
_cell_volume 3033.994850
_symmetry_space_group_name_H-M "P M M M"
_symmetry_group_IT_number 47
_symmetry_cell_setting 'orthorhombic'
loop_
_space_group_symop_operation_xyz
x,y,z
-x,-y,z
x,-y,-z
-x,y,-z
-x,-y,-z
x,y,-z
-x,y,z
x,-y,z
loop_
_atom_site_type_symbol
_atom_site_label
_atom_site_fract_x
_atom_site_fract_y
_atom_site_fract_z
Si Si1 0.103696 0.686612 0.720820
Si Si2 0.596834 0.816943 0.386892
Si Si3 0.894260 0.319843 0.500000
Si Si4 0.812130 0.183170 0.065468
Si Si5 0.000000 0.671871 0.069352
Si Si6 0.237460 0.315393 0.181117
Si Si7 0.204951 0.814786 0.608672
Si Si8 0.598056 0.681248 0.261045
O O1 0.105509 0.500000 0.718040
O O2 0.152033 0.733242 0.780593
O O3 0.163235 0.748414 0.667791
O O4 0.000000 0.734580 0.717406
O O5 0.500000 0.755579 0.407896
O O6 0.694092 0.760043 0.405796
O O7 0.599415 0.781387 0.318712
O O8 0.595422 0.000000 0.397569
O O9 0.869155 0.500000 0.500000
O O10 0.856295 0.238859 0.556533
O O11 0.000000 0.310401 0.500000
O O12 0.910723 0.238726 0.082531
O O13 0.754554 0.245831 0.117745
O O14 0.809215 0.000000 0.064003
O O15 0.793114 0.239897 0.000000
O O16 0.000000 0.500000 0.094984
O O17 0.000000 0.657965 0.000000
O O18 0.232637 0.500000 0.175353
O O19 0.323385 0.275659 0.218769
O O20 0.206812 0.000000 0.613349
O O21 0.500000 0.695700 0.234639
O O22 0.609948 0.500000 0.277171
#
# Coordination Sequence:
#
# PCOD9385455 Si02
#       8
#     8   8   4   8   4   8   8   8
#     4  10  21  36  53  77 112 148 179 218 269 321
#     4   9  18  33  54  81 112 144 176 214 268 329
#     4  11  25  43  62  81 106 148 193 229 268 317
#     4  10  21  35  50  71 102 139 180 226 271 318
#     4   9  17  31  51  71  93 129 175 216 259 314
#     4  10  20  33  52  78 106 139 180 222 270 329
#     4  11  22  37  59  85 112 143 183 228 269 315
#     4   9  17  31  53  80 107 136 175 224 272 319
#
# _framework density 18.457512999999999
#
# number of rings (size 3 to 8) (size 9 to 14) (size 15 to 20)
#    0.000    2.143    1.429    1.714    1.000    6.000 
#    0.000    0.357    0.000    2.571    0.000    3.000 
#    0.000    0.000    0.000    0.000    0.000    0.000 
#
# Total GULP energy -312153.400543 kJ/mol
# GULP energy per Si atom -5574.167867 kJ/mol
# Density = 1.841550 g / cm^3
# Si number density = 18.457513 Si / 1000 Ang^3
#
#
#
# Elastic Constant Matrix: (Units=GPa)
#
#
# Indices 1 2 3 4 5 6 
#
# 1 89.1653 15.1108 9.0396 0.0000 0.0000 0.0000
# 2 15.1108 11.4024 9.1725 0.0000 0.0000 0.0000
# 3 9.0396 9.1725 65.2308 0.0000 0.0000 0.0000
# 4 0.0000 0.0000 0.0000 -33.2534 0.0000 0.0000
# 5 0.0000 0.0000 0.0000 0.0000 17.6340 0.0000
# 6 0.0000 0.0000 0.0000 0.0000 0.0000 20.8736
#
#
#
# Elastic Compliance Matrix: (Units=1/GPa)
#
#
# Indices 1 2 3 4 5 6 
#
# 1 0.014499 -0.019842 0.000781 0.000000 0.000000 0.000000
# 2 -0.019842 0.126041 -0.014974 0.000000 0.000000 0.000000
# 3 0.000781 -0.014974 0.017328 0.000000 0.000000 0.000000
# 4 0.000000 0.000000 0.000000 -0.030072 0.000000 0.000000
# 5 0.000000 0.000000 0.000000 0.000000 0.056709 0.000000
# 6 0.000000 0.000000 0.000000 0.000000 0.000000 0.047907
#
#
# Mechanical properties :
#
#
# Convention : Reuss Voigt Hill
#
# Bulk Modulus (GPa) = 11.13617 25.82715 18.48166
# Shear Modulus (GPa) = 15.13256 9.88254 12.50755
#
# Velocity S-wave (km/s) = 2.86642 2.31643 2.60598
# Velocity P-wave (km/s) = 4.12331 4.60191 4.36917
#
# Compressibility (1/GPa) = 0.08979749
#
# Stress axis : x y z
#
# Youngs Moduli (GPa) = 68.97227 7.93392 57.71172
#
# Poissons Ratio (x) = 0.15743 -0.04507
# Poissons Ratio (y) = 1.36855 0.86415
# Poissons Ratio (z) = -0.05386 0.11880
#
# Static dielectric constant tensor:
#      x y z
#    x 1.715330 0.000000 0.000000 
#    y 0.000000 1.636140 0.000000 
#    z 0.000000 0.000000 1.629580 
# 
# From -- ./inp_files/31027.got.cif
#   From: 2010.05.17/outbox.cif.g08.bks.cpg/sg47_16_cif.got.tgz:31027.got - 2010.06.03 20:15:42.
