data_PCOD9385452
_publ_section_title
;
Structure prediction by ZEFSAII (Michael W. Deem and Ramdas Pophale) SiO2 
 PCOD9385452
Probable space group: P M M M
;
_chemical_formula_sum "Si O2"
_cell_formula_units_Z 32
_cell_length_a 8.041482
_cell_length_b 23.313408
_cell_length_c 9.150750
_cell_angle_alpha 90.000000
_cell_angle_beta 90.000000
_cell_angle_gamma 90.000000
_cell_volume 1715.530915
_symmetry_space_group_name_H-M "P M M M"
_symmetry_group_IT_number 47
_symmetry_cell_setting 'orthorhombic'
loop_
_space_group_symop_operation_xyz
x,y,z
-x,-y,z
x,-y,-z
-x,y,-z
-x,-y,-z
x,y,-z
-x,y,z
x,-y,z
loop_
_atom_site_type_symbol
_atom_site_label
_atom_site_fract_x
_atom_site_fract_y
_atom_site_fract_z
Si Si1 0.194287 0.853737 0.176192
Si Si2 0.800378 0.263757 0.665140
Si Si3 0.500000 0.065750 0.177947
Si Si4 0.302387 0.622405 0.166556
Si Si5 0.197676 0.500000 0.832479
O O1 0.246899 0.792754 0.244149
O O2 0.331431 0.900728 0.221401
O O3 0.000000 0.866028 0.217041
O O4 0.197858 0.849443 0.000000
O O5 0.734338 0.261405 0.500000
O O6 0.752213 0.322603 0.743185
O O7 0.000000 0.262611 0.658795
O O8 0.500000 0.000000 0.228271
O O9 0.500000 0.065162 0.000000
O O10 0.500000 0.623210 0.157549
O O11 0.251989 0.560765 0.232579
O O12 0.233117 0.625771 0.000000
O O13 0.000000 0.500000 0.838727
O O14 0.266356 0.500000 0.000000
#
# Coordination Sequence:
#
# PCOD9385452 Si02
#       5
#     8   8   4   8   4
#     4   9  18  33  54  79 108 142 179 220 266 316
#     4  10  21  36  53  75 104 138 177 221 267 313
#     4   9  18  32  53  83 113 138 173 220 265 315
#     4  10  20  33  52  78 106 135 170 215 265 317
#     4   9  17  31  52  75 100 133 172 214 260 313
#
# _framework density 18.653119
#
# number of rings (size 3 to 8) (size 9 to 14) (size 15 to 20)
#    0.000    2.500    0.000    1.875    1.750    5.000 
#    0.000    3.125    0.000    5.250    0.000    3.500 
#    0.000    0.000    0.000    0.000    0.000    0.000 
#
# Total GULP energy -178391.561156 kJ/mol
# GULP energy per Si atom -5574.736286 kJ/mol
# Density = 1.861066 g / cm^3
# Si number density = 18.653119 Si / 1000 Ang^3
#
#
#
# Elastic Constant Matrix: (Units=GPa)
#
#
# Indices 1 2 3 4 5 6 
#
# 1 67.1704 72.9537 26.0153 0.0000 0.0000 0.0000
# 2 72.9537 208.4526 46.5411 0.0000 0.0000 0.0000
# 3 26.0153 46.5411 34.1314 0.0000 0.0000 0.0000
# 4 0.0000 0.0000 0.0000 -3.6813 0.0000 0.0000
# 5 0.0000 0.0000 0.0000 0.0000 11.2795 0.0000
# 6 0.0000 0.0000 0.0000 0.0000 0.0000 40.1373
#
#
#
# Elastic Compliance Matrix: (Units=1/GPa)
#
#
# Indices 1 2 3 4 5 6 
#
# 1 0.026558 -0.006865 -0.010882 0.000000 0.000000 0.000000
# 2 -0.006865 0.008672 -0.006592 0.000000 0.000000 0.000000
# 3 -0.010882 -0.006592 0.046581 0.000000 0.000000 0.000000
# 4 0.000000 0.000000 0.000000 -0.271640 0.000000 0.000000
# 5 0.000000 0.000000 0.000000 0.000000 0.088657 0.000000
# 6 0.000000 0.000000 0.000000 0.000000 0.000000 0.024915
#
#
# Mechanical properties :
#
#
# Convention : Reuss Voigt Hill
#
# Bulk Modulus (GPa) = 30.18079 66.75275 48.46677
# Shear Modulus (GPa) = -302.38723 20.49669 -140.94527
#
# Velocity S-wave (km/s) = -12.74609 3.31846 -8.70203
# Velocity P-wave (km/s) = 14.15634 7.10964 8.65606
#
# Compressibility (1/GPa) = 0.03313366
#
# Stress axis : x y z
#
# Youngs Moduli (GPa) = 37.65285 115.31761 21.46794
#
# Poissons Ratio (x) = 0.79169 0.23361
# Poissons Ratio (y) = 0.25850 0.14151
# Poissons Ratio (z) = 0.40973 0.76015
#
# Static dielectric constant tensor:
#      x y z
#    x 1.651100 0.000000 0.000000 
#    y 0.000000 1.637590 0.000000 
#    z 0.000000 0.000000 1.650050 
# 
# From -- ./inp_files/1303.got.cif
#   From: 2010.05.17/outbox.cif.g08.bks.cpg/sg47_1_cif.got.tgz:1303.got - 2010.06.03 20:15:42.
