data_PCOD9385181
_publ_section_title
;
Structure prediction by ZEFSAII (Michael W. Deem and Ramdas Pophale) SiO2 
 PCOD9385181
Probable space group: P M M M
;
_chemical_formula_sum "Si O2"
_cell_formula_units_Z 56
_cell_length_a 8.915226
_cell_length_b 22.699523
_cell_length_c 15.643090
_cell_angle_alpha 90.000000
_cell_angle_beta 90.000000
_cell_angle_gamma 90.000000
_cell_volume 3165.713674
_symmetry_space_group_name_H-M "P M M M"
_symmetry_group_IT_number 47
_symmetry_cell_setting 'orthorhombic'
loop_
_space_group_symop_operation_xyz
x,y,z
-x,-y,z
x,-y,-z
-x,y,-z
-x,-y,-z
x,y,-z
-x,y,z
x,-y,z
loop_
_atom_site_type_symbol
_atom_site_label
_atom_site_fract_x
_atom_site_fract_y
_atom_site_fract_z
Si Si1 0.177411 0.756451 0.599681
Si Si2 0.320004 0.226007 0.782358
Si Si3 0.838772 0.436642 0.293201
Si Si4 0.327796 0.000000 0.896608
Si Si5 0.828363 0.345036 0.142609
Si Si6 0.179494 0.124069 0.101703
Si Si7 0.680877 0.429183 0.000000
Si Si8 0.661128 0.637089 0.599263
O O1 0.224388 0.771638 0.500000
O O2 0.259324 0.781720 0.684362
O O3 0.214313 0.687166 0.609849
O O4 0.000000 0.767411 0.605720
O O5 0.500000 0.228024 0.781650
O O6 0.255116 0.285456 0.827818
O O7 0.259970 0.172745 0.840758
O O8 0.823814 0.500000 0.250259
O O9 0.839452 0.384792 0.226309
O O10 0.704936 0.422547 0.355416
O O11 0.000000 0.435927 0.339115
O O12 0.241136 0.940410 0.873073
O O13 0.500000 0.000000 0.865756
O O14 0.332500 0.000000 0.000000
O O15 0.000000 0.331841 0.113117
O O16 0.743368 0.389199 0.078046
O O17 0.000000 0.126875 0.112623
O O18 0.211078 0.133036 0.000000
O O19 0.725826 0.500000 0.000000
O O20 0.500000 0.428781 0.000000
O O21 0.651289 0.626508 0.500000
O O22 0.500000 0.660099 0.631137
#
# Coordination Sequence:
#
# PCOD9385181 Si02
#       8
#     8   8   8   4   8   8   4   8
#     4  10  20  36  58  81 108 145 188 233 284 347
#     4  12  24  37  57  87 121 152 190 241 296 346
#     4  10  21  36  54  74  96 128 171 218 270 330
#     4   9  17  33  57  87 124 163 202 241 283 327
#     4  11  23  40  60  79 104 139 182 229 282 341
#     4  10  21  37  59  87 123 165 206 240 278 332
#     4  11  25  43  61  81 105 138 183 234 289 349
#     4  10  20  33  50  73 100 131 167 211 268 330
#
# _framework density 17.689533999999998
#
# number of rings (size 3 to 8) (size 9 to 14) (size 15 to 20)
#    0.000    1.571    1.429    3.857    1.000    5.714 
#    0.000    1.429    0.000    0.000    0.000    0.500 
#    0.000    4.000    0.000    0.000    0.000    0.000 
#
# Total GULP energy -311870.553600 kJ/mol
# GULP energy per Si atom -5569.117029 kJ/mol
# Density = 1.764927 g / cm^3
# Si number density = 17.689534 Si / 1000 Ang^3
#
#
#
# Elastic Constant Matrix: (Units=GPa)
#
#
# Indices 1 2 3 4 5 6 
#
# 1 118.3553 58.8567 57.9805 0.0000 0.0000 0.0000
# 2 58.8567 131.3289 58.5678 0.0000 0.0000 0.0000
# 3 57.9805 58.5678 90.4383 0.0000 0.0000 0.0000
# 4 0.0000 0.0000 0.0000 17.4287 0.0000 0.0000
# 5 0.0000 0.0000 0.0000 0.0000 17.2813 0.0000
# 6 0.0000 0.0000 0.0000 0.0000 0.0000 25.7736
#
#
#
# Elastic Compliance Matrix: (Units=1/GPa)
#
#
# Indices 1 2 3 4 5 6 
#
# 1 0.013102 -0.002989 -0.006464 0.000000 0.000000 0.000000
# 2 -0.002989 0.011389 -0.005459 0.000000 0.000000 0.000000
# 3 -0.006464 -0.005459 0.018737 0.000000 0.000000 0.000000
# 4 0.000000 0.000000 0.000000 0.057376 0.000000 0.000000
# 5 0.000000 0.000000 0.000000 0.000000 0.057866 0.000000
# 6 0.000000 0.000000 0.000000 0.000000 0.000000 0.038799
#
#
# Mechanical properties :
#
#
# Convention : Reuss Voigt Hill
#
# Bulk Modulus (GPa) = 74.60961 76.77027 75.68994
# Shear Modulus (GPa) = 21.59254 23.07789 22.33522
#
# Velocity S-wave (km/s) = 3.49756 3.61585 3.55720
# Velocity P-wave (km/s) = 7.65371 7.80547 7.72997
#
# Compressibility (1/GPa) = 0.01340310
#
# Stress axis : x y z
#
# Youngs Moduli (GPa) = 76.32233 87.80750 53.37144
#
# Poissons Ratio (x) = 0.26247 0.34500
# Poissons Ratio (y) = 0.22814 0.29135
# Poissons Ratio (z) = 0.49336 0.47933
#
# Static dielectric constant tensor:
#      x y z
#    x 1.657820 0.000000 0.000000 
#    y 0.000000 1.579540 0.000000 
#    z 0.000000 0.000000 1.649680 
# 
# From -- ./inp_files/21660.got.cif
#   From: 2010.05.17/outbox.cif.g08.bks.cpg/sg47_11_cif.got.tgz:21660.got - 2010.06.03 20:15:42.
