data_PCOD9385838
_publ_section_title
;
Structure prediction by ZEFSAII (Michael W. Deem and Ramdas Pophale) SiO2 
 PCOD9385838
Probable space group: P M M M
;
_chemical_formula_sum "Si O2"
_cell_formula_units_Z 64
_cell_length_a 7.902596
_cell_length_b 15.201952
_cell_length_c 24.077712
_cell_angle_alpha 90.000000
_cell_angle_beta 90.000000
_cell_angle_gamma 90.000000
_cell_volume 2892.573164
_symmetry_space_group_name_H-M "P M M M"
_symmetry_group_IT_number 47
_symmetry_cell_setting 'orthorhombic'
loop_
_space_group_symop_operation_xyz
x,y,z
-x,-y,z
x,-y,-z
-x,y,-z
-x,-y,-z
x,y,-z
-x,y,z
x,-y,z
loop_
_atom_site_type_symbol
_atom_site_label
_atom_site_fract_x
_atom_site_fract_y
_atom_site_fract_z
Si Si1 0.805552 0.595219 0.321693
Si Si2 0.704540 0.097901 0.317407
Si Si3 0.300440 0.599155 0.162522
Si Si4 0.697191 0.366009 0.439201
Si Si5 0.200458 0.287318 0.063706
Si Si6 0.797506 0.835922 0.561249
Si Si7 0.296313 0.904587 0.065568
Si Si8 0.691981 0.259481 0.751953
O O1 0.747799 0.500000 0.300645
O O2 0.796483 0.596184 0.387742
O O3 0.691704 0.673583 0.299881
O O4 0.000000 0.609221 0.304842
O O5 0.500000 0.102523 0.314820
O O6 0.750713 0.115621 0.381783
O O7 0.770324 0.171421 0.274151
O O8 0.759834 0.000000 0.302172
O O9 0.500000 0.594151 0.176394
O O10 0.230240 0.500000 0.168007
O O11 0.281342 0.637232 0.100874
O O12 0.226852 0.677198 0.201415
O O13 0.758185 0.393090 0.500000
O O14 0.500000 0.389725 0.433999
O O15 0.714713 0.260359 0.436499
O O16 0.233573 0.188948 0.087684
O O17 0.000000 0.301007 0.062991
O O18 0.263804 0.288596 0.000000
O O19 0.752949 0.875000 0.500000
O O20 0.000000 0.824674 0.561833
O O21 0.500000 0.903154 0.068821
O O22 0.239341 0.000000 0.088668
O O23 0.249202 0.905057 0.000000
O O24 0.500000 0.238154 0.770426
#
# Coordination Sequence:
#
# PCOD9385838 Si02
#       8
#     8   8   8   8   8   8   8   8
#     4  11  23  36  54  82 112 144 184 231 285 342
#     4  10  21  37  59  87 116 149 190 235 288 349
#     4  10  22  40  62  87 114 149 196 246 294 347
#     4  10  20  34  53  77 107 145 188 233 283 339
#     4  10  21  36  56  86 124 162 197 238 292 353
#     4  10  20  34  54  81 114 151 191 237 291 349
#     4   8  14  27  50  80 114 154 198 238 275 321
#     4  10  21  40  63  84 110 146 188 237 285 336
#
# _framework density 22.125629
#
# number of rings (size 3 to 8) (size 9 to 14) (size 15 to 20)
#    0.000    2.125    1.250    2.250    0.000    5.750 
#    0.000    5.625    0.000    2.250    0.000    0.000 
#    0.000    0.000    0.000    0.000    0.000    0.000 
#
# Total GULP energy -357035.071392 kJ/mol
# GULP energy per Si atom -5578.672991 kJ/mol
# Density = 2.207527 g / cm^3
# Si number density = 22.125629 Si / 1000 Ang^3
#
#
#
# Elastic Constant Matrix: (Units=GPa)
#
#
# Indices 1 2 3 4 5 6 
#
# 1 33.1312 9.7709 1.1177 0.0000 0.0000 0.0000
# 2 9.7709 162.9930 58.7251 0.0000 0.0000 0.0000
# 3 1.1177 58.7251 85.1226 0.0000 0.0000 0.0000
# 4 0.0000 0.0000 0.0000 796.4755 0.0000 0.0000
# 5 0.0000 0.0000 0.0000 0.0000 9.4990 0.0000
# 6 0.0000 0.0000 0.0000 0.0000 0.0000 0.7384
#
#
#
# Elastic Compliance Matrix: (Units=1/GPa)
#
#
# Indices 1 2 3 4 5 6 
#
# 1 0.030812 -0.002264 0.001157 0.000000 0.000000 0.000000
# 2 -0.002264 0.008331 -0.005718 0.000000 0.000000 0.000000
# 3 0.001157 -0.005718 0.015677 0.000000 0.000000 0.000000
# 4 0.000000 0.000000 0.000000 0.001256 0.000000 0.000000
# 5 0.000000 0.000000 0.000000 0.000000 0.105274 0.000000
# 6 0.000000 0.000000 0.000000 0.000000 0.000000 1.354355
#
#
# Mechanical properties :
#
#
# Convention : Reuss Voigt Hill
#
# Bulk Modulus (GPa) = 24.28895 46.71938 35.50416
# Shear Modulus (GPa) = 3.24028 175.45146 89.34587
#
# Velocity S-wave (km/s) = 1.21147 8.91459 6.36151
# Velocity P-wave (km/s) = 3.59979 11.27481 8.36898
#
# Compressibility (1/GPa) = 0.04117098
#
# Stress axis : x y z
#
# Youngs Moduli (GPa) = 32.45526 120.03335 63.78701
#
# Poissons Ratio (x) = 0.27176 -0.07383
# Poissons Ratio (y) = 0.07348 0.36472
# Poissons Ratio (z) = -0.03756 0.68632
#
# Static dielectric constant tensor:
#      x y z
#    x 1.804400 0.000000 0.000000 
#    y 0.000000 1.836430 0.000000 
#    z 0.000000 0.000000 1.850450 
# 
# From -- ./inp_files/32155.got.cif
#   From: 2010.05.17/outbox.cif.g08.bks.cpg/sg47_17_cif.got.tgz:32155.got - 2010.06.03 20:15:42.
