data_PCOD9385446
_publ_section_title
;
Structure prediction by ZEFSAII (Michael W. Deem and Ramdas Pophale) SiO2 
 PCOD9385446
Probable space group: P M M M
;
_chemical_formula_sum "Si O2"
_cell_formula_units_Z 48
_cell_length_a 8.004903
_cell_length_b 34.239058
_cell_length_c 9.285030
_cell_angle_alpha 90.000000
_cell_angle_beta 90.000000
_cell_angle_gamma 90.000000
_cell_volume 2544.844162
_symmetry_space_group_name_H-M "P M M M"
_symmetry_group_IT_number 47
_symmetry_cell_setting 'orthorhombic'
loop_
_space_group_symop_operation_xyz
x,y,z
-x,-y,z
x,-y,-z
-x,y,-z
-x,-y,-z
x,y,-z
-x,y,z
x,-y,z
loop_
_atom_site_type_symbol
_atom_site_label
_atom_site_fract_x
_atom_site_fract_y
_atom_site_fract_z
Si Si1 0.700498 0.576435 0.664989
Si Si2 0.801292 0.660007 0.665219
Si Si3 0.301421 0.743760 0.664350
Si Si4 0.799528 0.820401 0.163024
Si Si5 0.500000 0.955350 0.675116
Si Si6 0.803995 0.100540 0.326561
Si Si7 0.704880 0.500000 0.165280
O O1 0.764928 0.574914 0.500000
O O2 0.500000 0.573773 0.658461
O O3 0.742739 0.618913 0.729305
O O4 0.761053 0.539226 0.753907
O O5 0.733069 0.660378 0.500000
O O6 0.749485 0.701674 0.728357
O O7 0.000000 0.659073 0.659659
O O8 0.232201 0.746557 0.500000
O O9 0.500000 0.744267 0.655259
O O10 0.247132 0.780676 0.756627
O O11 0.751281 0.858800 0.252806
O O12 0.000000 0.821515 0.156059
O O13 0.733073 0.821397 0.000000
O O14 0.500000 0.956167 0.500000
O O15 0.668972 0.932226 0.716606
O O16 0.500000 0.000000 0.726319
O O17 0.796863 0.104879 0.500000
O O18 0.000000 0.092023 0.290274
O O19 0.500000 0.500000 0.167762
O O20 0.757243 0.500000 0.000000
#
# Coordination Sequence:
#
# PCOD9385446 Si02
#       7
#     8   8   8   8   4   8   4
#     4   9  16  28  48  71  93 118 153 196 239 286
#     4   9  17  30  49  72  97 126 161 202 247 295
#     4  10  20  33  52  78 105 134 170 212 257 308
#     4  10  21  36  53  75 105 140 177 219 265 311
#     4   9  18  32  53  83 113 139 177 229 277 324
#     4   9  18  33  54  79 108 143 181 222 271 324
#     4   9  17  29  46  69  94 120 152 191 238 290
#
# _framework density 18.861667000000001
#
# number of rings (size 3 to 8) (size 9 to 14) (size 15 to 20)
#    0.000    2.667    0.000    1.750    1.167    5.333 
#    0.000    2.917    0.000    7.000    0.000    2.333 
#    0.000    0.000    0.000    0.000    0.000    0.000 
#
# Total GULP energy -267554.700097 kJ/mol
# GULP energy per Si atom -5574.056252 kJ/mol
# Density = 1.881874 g / cm^3
# Si number density = 18.861667 Si / 1000 Ang^3
#
#
#
# Elastic Constant Matrix: (Units=GPa)
#
#
# Indices 1 2 3 4 5 6 
#
# 1 44.1400 52.7826 22.8271 0.0000 0.0000 0.0000
# 2 52.7826 222.4329 64.5628 0.0000 0.0000 0.0000
# 3 22.8271 64.5628 52.2671 0.0000 0.0000 0.0000
# 4 0.0000 0.0000 0.0000 2.9466 0.0000 0.0000
# 5 0.0000 0.0000 0.0000 0.0000 9.9768 0.0000
# 6 0.0000 0.0000 0.0000 0.0000 0.0000 91.0274
#
#
#
# Elastic Compliance Matrix: (Units=1/GPa)
#
#
# Indices 1 2 3 4 5 6 
#
# 1 0.033407 -0.005756 -0.007480 0.000000 0.000000 0.000000
# 2 -0.005756 0.008000 -0.007369 0.000000 0.000000 0.000000
# 3 -0.007480 -0.007369 0.031501 0.000000 0.000000 0.000000
# 4 0.000000 0.000000 0.000000 0.339377 0.000000 0.000000
# 5 0.000000 0.000000 0.000000 0.000000 0.100233 0.000000
# 6 0.000000 0.000000 0.000000 0.000000 0.000000 0.010986
#
#
# Mechanical properties :
#
#
# Convention : Reuss Voigt Hill
#
# Bulk Modulus (GPa) = 31.54634 66.57612 49.06123
# Shear Modulus (GPa) = 8.69143 32.70131 20.69637
#
# Velocity S-wave (km/s) = 2.14895 4.16834 3.31610
# Velocity P-wave (km/s) = 4.78735 7.65117 6.38197
#
# Compressibility (1/GPa) = 0.03169940
#
# Stress axis : x y z
#
# Youngs Moduli (GPa) = 29.93418 124.99283 31.74499
#
# Poissons Ratio (x) = 0.71950 0.23744
# Poissons Ratio (y) = 0.17231 0.23391
# Poissons Ratio (z) = 0.22389 0.92101
#
# Static dielectric constant tensor:
#      x y z
#    x 1.666700 0.000000 0.000000 
#    y 0.000000 1.655540 0.000000 
#    z 0.000000 0.000000 1.637010 
# 
# From -- ./inp_files/2638.got.cif
#   From: 2010.05.17/outbox.cif.g08.bks.cpg/sg47_2_cif.got.tgz:2638.got - 2010.06.03 20:15:42.
