data_PCOD9385778
_publ_section_title
;
Structure prediction by ZEFSAII (Michael W. Deem and Ramdas Pophale) SiO2 
 PCOD9385778
Probable space group: P M M M
;
_chemical_formula_sum "Si O2"
_cell_formula_units_Z 64
_cell_length_a 15.087979
_cell_length_b 8.164506
_cell_length_c 26.010956
_cell_angle_alpha 90.000000
_cell_angle_beta 90.000000
_cell_angle_gamma 90.000000
_cell_volume 3204.182897
_symmetry_space_group_name_H-M "P M M M"
_symmetry_group_IT_number 47
_symmetry_cell_setting 'orthorhombic'
loop_
_space_group_symop_operation_xyz
x,y,z
-x,-y,z
x,-y,-z
-x,y,-z
-x,-y,-z
x,y,-z
-x,y,z
x,-y,z
loop_
_atom_site_type_symbol
_atom_site_label
_atom_site_fract_x
_atom_site_fract_y
_atom_site_fract_z
Si Si1 0.402365 0.197289 0.278679
Si Si2 0.404505 0.695879 0.938431
Si Si3 0.597945 0.800509 0.398950
Si Si4 0.900453 0.696263 0.848720
Si Si5 0.214593 0.200434 0.557429
Si Si6 0.214004 0.806181 0.941300
Si Si7 0.101308 0.802363 0.654985
Si Si8 0.785860 0.695383 0.246436
O O1 0.500000 0.253485 0.260975
O O2 0.392676 0.245526 0.338848
O O3 0.316899 0.256659 0.248530
O O4 0.402067 0.000000 0.277768
O O5 0.500000 0.754715 0.917803
O O6 0.400753 0.500000 0.931593
O O7 0.312608 0.769795 0.919781
O O8 0.405900 0.727699 0.000000
O O9 0.500000 0.746599 0.416918
O O10 0.684883 0.746321 0.429331
O O11 0.597651 0.000000 0.400709
O O12 0.904439 0.500000 0.843112
O O13 0.858355 0.732989 0.903712
O O14 0.836759 0.760571 0.803707
O O15 0.000000 0.761736 0.843774
O O16 0.189558 0.251866 0.500000
O O17 0.148383 0.254719 0.602406
O O18 0.214695 0.000000 0.558260
O O19 0.202363 0.000000 0.943278
O O20 0.208740 0.741325 0.000000
O O21 0.162664 0.755694 0.702962
O O22 0.000000 0.742705 0.660471
O O23 0.098468 0.000000 0.653006
O O24 0.790550 0.500000 0.246191
#
# Coordination Sequence:
#
# PCOD9385778 Si02
#       8
#     8   8   8   8   8   8   8   8
#     4   9  17  32  56  83 112 145 179 217 264 323
#     4   8  14  27  50  79 110 147 189 225 257 302
#     4   8  13  23  42  69 101 135 170 212 262 315
#     4  10  23  42  60  79 105 141 186 231 274 321
#     4   9  16  26  43  71 106 139 176 225 274 322
#     4  10  21  36  56  85 118 148 179 220 272 327
#     4  10  20  34  53  76 103 139 183 228 279 336
#     4  11  22  37  59  84 110 138 176 229 276 322
#
# _framework density 19.973890000000001
#
# number of rings (size 3 to 8) (size 9 to 14) (size 15 to 20)
#    0.000    2.625    1.250    2.250    0.000    4.000 
#    0.000    5.625    0.000    1.125    0.000    0.875 
#    0.000    2.000    0.000    0.000    0.000    0.000 
#
# Total GULP energy -356950.951717 kJ/mol
# GULP energy per Si atom -5577.358621 kJ/mol
# Density = 1.992843 g / cm^3
# Si number density = 19.973890 Si / 1000 Ang^3
#
#
#
# Elastic Constant Matrix: (Units=GPa)
#
#
# Indices 1 2 3 4 5 6 
#
# 1 166.5556 15.0725 75.0574 0.0000 0.0000 0.0000
# 2 15.0725 6.3786 4.7529 0.0000 0.0000 0.0000
# 3 75.0574 4.7529 90.7826 0.0000 0.0000 0.0000
# 4 0.0000 0.0000 0.0000 24.4517 0.0000 0.0000
# 5 0.0000 0.0000 0.0000 0.0000 11.4010 0.0000
# 6 0.0000 0.0000 0.0000 0.0000 0.0000 17.0413
#
#
#
# Elastic Compliance Matrix: (Units=1/GPa)
#
#
# Indices 1 2 3 4 5 6 
#
# 1 0.011870 -0.021578 -0.008684 0.000000 0.000000 0.000000
# 2 -0.021578 0.202366 0.007246 0.000000 0.000000 0.000000
# 3 -0.008684 0.007246 0.017816 0.000000 0.000000 0.000000
# 4 0.000000 0.000000 0.000000 0.040897 0.000000 0.000000
# 5 0.000000 0.000000 0.000000 0.000000 0.087712 0.000000
# 6 0.000000 0.000000 0.000000 0.000000 0.000000 0.058681
#
#
# Mechanical properties :
#
#
# Convention : Reuss Voigt Hill
#
# Bulk Modulus (GPa) = 5.37582 50.38694 27.88138
# Shear Modulus (GPa) = 9.48078 21.83439 15.65759
#
# Velocity S-wave (km/s) = 2.18103 3.30986 2.80286
# Velocity P-wave (km/s) = 3.00662 6.31570 4.94610
#
# Compressibility (1/GPa) = 0.18601813
#
# Stress axis : x y z
#
# Youngs Moduli (GPa) = 84.24347 4.94154 56.12896
#
# Poissons Ratio (x) = 0.10663 0.48745
# Poissons Ratio (y) = 1.81785 -0.40670
# Poissons Ratio (z) = 0.73161 -0.03581
#
# Static dielectric constant tensor:
#      x y z
#    x 1.722170 0.000000 0.000000 
#    y 0.000000 1.708770 0.000000 
#    z 0.000000 0.000000 1.698010 
# 
# From -- ./inp_files/32119.got.cif
#   From: 2010.05.17/outbox.cif.g08.bks.cpg/sg47_17_cif.got.tgz:32119.got - 2010.06.03 20:15:42.
