data_PCOD9385132
_publ_section_title
;
Structure prediction by ZEFSAII (Michael W. Deem and Ramdas Pophale) SiO2 
 PCOD9385132
Probable space group: P M M M
;
_chemical_formula_sum "Si O2"
_cell_formula_units_Z 52
_cell_length_a 7.650920
_cell_length_b 16.532852
_cell_length_c 19.601164
_cell_angle_alpha 90.000000
_cell_angle_beta 90.000000
_cell_angle_gamma 90.000000
_cell_volume 2479.381185
_symmetry_space_group_name_H-M "P M M M"
_symmetry_group_IT_number 47
_symmetry_cell_setting 'orthorhombic'
loop_
_space_group_symop_operation_xyz
x,y,z
-x,-y,z
x,-y,-z
-x,y,-z
-x,-y,-z
x,y,-z
-x,y,z
x,-y,z
loop_
_atom_site_type_symbol
_atom_site_label
_atom_site_fract_x
_atom_site_fract_y
_atom_site_fract_z
Si Si1 0.208604 0.000000 0.421517
Si Si2 0.203079 0.748643 0.287354
Si Si3 0.786029 0.409936 0.213660
Si Si4 0.796685 0.912332 0.223334
Si Si5 0.705185 0.862389 0.923689
Si Si6 0.788589 0.673236 0.924604
Si Si7 0.294383 0.822355 0.577801
O O1 0.266539 0.913603 0.394099
O O2 0.274706 0.000000 0.500000
O O3 0.000000 0.000000 0.421407
O O4 0.275227 0.663424 0.261776
O O5 0.282934 0.829497 0.253176
O O6 0.213178 0.761678 0.368090
O O7 0.000000 0.748329 0.265505
O O8 0.725144 0.500000 0.230781
O O9 0.734287 0.383596 0.137249
O O10 0.000000 0.412147 0.215850
O O11 0.791426 0.903423 0.141436
O O12 0.000000 0.914298 0.245657
O O13 0.719665 0.000000 0.242156
O O14 0.500000 0.882391 0.921824
O O15 0.726121 0.765431 0.915162
O O16 0.771873 0.882446 0.000000
O O17 0.000000 0.676442 0.923500
O O18 0.733174 0.646045 0.000000
O O19 0.224487 0.818974 0.500000
O O20 0.500000 0.807366 0.575094
#
# Coordination Sequence:
#
# PCOD9385132 Si02
#       7
#     4   8   8   8   8   8   8
#     4   9  17  31  53  81 111 143 178 213 252 303
#     4  10  20  35  55  79 107 139 175 216 265 320
#     4   9  17  31  53  81 109 135 169 218 271 318
#     4  10  21  36  53  75 103 137 178 220 262 310
#     4  10  20  33  50  72 101 138 180 224 266 308
#     4   9  16  29  51  76 103 135 172 214 263 318
#     4  10  21  36  54  79 111 144 179 219 262 311
#
# _framework density 20.972975000000002
#
# number of rings (size 3 to 8) (size 9 to 14) (size 15 to 20)
#    0.000    2.385    1.538    1.154    1.077    4.308 
#    0.000    3.077    0.000    2.308    0.000    5.385 
#    0.000    0.000    0.000    0.000    0.000    0.000 
#
# Total GULP energy -290261.928749 kJ/mol
# GULP energy per Si atom -5581.960168 kJ/mol
# Density = 2.092524 g / cm^3
# Si number density = 20.972975 Si / 1000 Ang^3
#
#
#
# Elastic Constant Matrix: (Units=GPa)
#
#
# Indices 1 2 3 4 5 6 
#
# 1 41.1936 5.4523 -7.1547 0.0000 0.0000 0.0000
# 2 5.4523 165.6706 79.1618 0.0000 0.0000 0.0000
# 3 -7.1547 79.1618 106.4965 0.0000 0.0000 0.0000
# 4 0.0000 0.0000 0.0000 21.1925 0.0000 0.0000
# 5 0.0000 0.0000 0.0000 0.0000 -23.5288 0.0000
# 6 0.0000 0.0000 0.0000 0.0000 0.0000 -34.0317
#
#
#
# Elastic Compliance Matrix: (Units=1/GPa)
#
#
# Indices 1 2 3 4 5 6 
#
# 1 0.025235 -0.002544 0.003587 0.000000 0.000000 0.000000
# 2 -0.002544 0.009617 -0.007320 0.000000 0.000000 0.000000
# 3 0.003587 -0.007320 0.015072 0.000000 0.000000 0.000000
# 4 0.000000 0.000000 0.000000 0.047187 0.000000 0.000000
# 5 0.000000 0.000000 0.000000 0.000000 -0.042501 0.000000
# 6 0.000000 0.000000 0.000000 0.000000 0.000000 -0.029384
#
#
# Mechanical properties :
#
#
# Convention : Reuss Voigt Hill
#
# Bulk Modulus (GPa) = 26.75964 52.03106 39.39535
# Shear Modulus (GPa) = 99.52760 8.45316 53.99038
#
# Velocity S-wave (km/s) = 6.89624 2.00979 5.07924
# Velocity P-wave (km/s) = 8.72913 5.49983 7.29541
#
# Compressibility (1/GPa) = 0.03736971
#
# Stress axis : x y z
#
# Youngs Moduli (GPa) = 39.62700 103.97809 66.34836
#
# Poissons Ratio (x) = 0.26455 -0.23797
# Poissons Ratio (y) = 0.10082 0.48566
# Poissons Ratio (z) = -0.14213 0.76110
#
# Static dielectric constant tensor:
#      x y z
#    x 1.759190 0.000000 0.000000 
#    y 0.000000 1.751260 0.000000 
#    z 0.000000 0.000000 1.780610 
# 
# From -- ./inp_files/21475.got.cif
#   From: 2010.05.17/outbox.cif.g08.bks.cpg/sg47_11_cif.got.tgz:21475.got - 2010.06.03 20:15:42.
