data_PCOD9385641
_publ_section_title
;
Structure prediction by ZEFSAII (Michael W. Deem and Ramdas Pophale) SiO2 
 PCOD9385641
Probable space group: P M M M
;
_chemical_formula_sum "Si O2"
_cell_formula_units_Z 52
_cell_length_a 7.594606
_cell_length_b 21.468610
_cell_length_c 15.368439
_cell_angle_alpha 90.000000
_cell_angle_beta 90.000000
_cell_angle_gamma 90.000000
_cell_volume 2505.756885
_symmetry_space_group_name_H-M "P M M M"
_symmetry_group_IT_number 47
_symmetry_cell_setting 'orthorhombic'
loop_
_space_group_symop_operation_xyz
x,y,z
-x,-y,z
x,-y,-z
-x,y,-z
-x,-y,-z
x,y,-z
-x,y,z
x,-y,z
loop_
_atom_site_type_symbol
_atom_site_label
_atom_site_fract_x
_atom_site_fract_y
_atom_site_fract_z
Si Si1 0.706306 0.866401 0.820057
Si Si2 0.290848 0.402443 0.750233
Si Si3 0.700355 0.265521 0.769014
Si Si4 0.213286 0.797334 0.405028
Si Si5 0.211269 0.929042 0.000000
Si Si6 0.284627 0.500000 0.603176
Si Si7 0.203833 0.931348 0.352993
Si Si8 0.789056 0.500000 0.100759
O O1 0.500000 0.862634 0.796569
O O2 0.779899 0.795863 0.814913
O O3 0.789966 0.912222 0.748744
O O4 0.726381 0.894303 0.914388
O O5 0.500000 0.395007 0.735378
O O6 0.215623 0.333679 0.767728
O O7 0.227847 0.441088 0.664665
O O8 0.266691 0.442233 0.838230
O O9 0.500000 0.271951 0.802871
O O10 0.701415 0.243187 0.669381
O O11 0.250985 0.772562 0.500000
O O12 0.275945 0.869104 0.397706
O O13 0.000000 0.797682 0.391996
O O14 0.000000 0.929589 0.000000
O O15 0.274793 0.000000 0.000000
O O16 0.500000 0.500000 0.602345
O O17 0.230731 0.500000 0.500000
O O18 0.000000 0.935144 0.380274
O O19 0.282337 0.000000 0.367114
O O20 0.000000 0.500000 0.096940
O O21 0.724764 0.500000 0.000000
#
# Coordination Sequence:
#
# PCOD9385641 Si02
#       8
#     8   8   8   8   4   4   8   4
#     4  10  20  34  51  72  99 127 162 209 259 308
#     4   9  18  34  56  79 105 141 180 213 253 302
#     4   9  19  35  53  74 101 135 173 211 252 302
#     4   9  18  31  47  70 100 134 172 212 255 304
#     4  11  23  37  53  73  97 126 163 206 255 317
#     4   8  14  26  48  79 108 131 165 212 250 286
#     4   9  17  30  48  68  93 128 169 212 257 305
#     4  10  21  37  56  81 112 139 169 210 256 304
#
# _framework density 20.752213000000001
#
# number of rings (size 3 to 8) (size 9 to 14) (size 15 to 20)
#    0.000    2.692    0.000    1.846    0.000    5.846 
#    1.385    3.077    0.000    3.692    0.000    4.308 
#    0.000    0.000    0.000    0.000    0.000    0.000 
#
# Total GULP energy -289765.697752 kJ/mol
# GULP energy per Si atom -5572.417264 kJ/mol
# Density = 2.070498 g / cm^3
# Si number density = 20.752213 Si / 1000 Ang^3
#
#
#
# Elastic Constant Matrix: (Units=GPa)
#
#
# Indices 1 2 3 4 5 6 
#
# 1 49.8824 1.0733 -9.6011 0.0000 0.0000 0.0000
# 2 1.0733 159.3810 37.8354 0.0000 0.0000 0.0000
# 3 -9.6011 37.8354 119.7535 0.0000 0.0000 0.0000
# 4 0.0000 0.0000 0.0000 -17.3450 0.0000 0.0000
# 5 0.0000 0.0000 0.0000 0.0000 6.8337 0.0000
# 6 0.0000 0.0000 0.0000 0.0000 0.0000 5.8901
#
#
#
# Elastic Compliance Matrix: (Units=1/GPa)
#
#
# Indices 1 2 3 4 5 6 
#
# 1 0.020409 -0.000569 0.001816 0.000000 0.000000 0.000000
# 2 -0.000569 0.006799 -0.002194 0.000000 0.000000 0.000000
# 3 0.001816 -0.002194 0.009189 0.000000 0.000000 0.000000
# 4 0.000000 0.000000 0.000000 -0.057653 0.000000 0.000000
# 5 0.000000 0.000000 0.000000 0.000000 0.146334 0.000000
# 6 0.000000 0.000000 0.000000 0.000000 0.000000 0.169775
#
#
# Mechanical properties :
#
#
# Convention : Reuss Voigt Hill
#
# Bulk Modulus (GPa) = 28.98186 43.07024 36.02605
# Shear Modulus (GPa) = 16.22076 19.05638 17.63857
#
# Velocity S-wave (km/s) = 2.79882 3.03360 2.91857
# Velocity P-wave (km/s) = 4.94373 5.75065 5.36239
#
# Compressibility (1/GPa) = 0.03450434
#
# Stress axis : x y z
#
# Youngs Moduli (GPa) = 48.99824 147.08373 108.82418
#
# Poissons Ratio (x) = 0.08362 -0.19761
# Poissons Ratio (y) = 0.02786 0.23872
# Poissons Ratio (z) = -0.08897 0.32265
#
# Static dielectric constant tensor:
#      x y z
#    x 1.826440 0.000000 0.000000 
#    y 0.000000 1.783470 0.000000 
#    z 0.000000 0.000000 1.706530 
# 
# From -- ./inp_files/7173.got.cif
#   From: 2010.05.17/outbox.cif.g08.bks.cpg/sg47_4_cif.got.tgz:7173.got - 2010.06.03 20:15:42.
