data_PCOD9385875
_publ_section_title
;
Structure prediction by ZEFSAII (Michael W. Deem and Ramdas Pophale) SiO2 
 PCOD9385875
Probable space group: P M M M
;
_chemical_formula_sum "Si O2"
_cell_formula_units_Z 56
_cell_length_a 22.680963
_cell_length_b 9.137484
_cell_length_c 15.339124
_cell_angle_alpha 90.000000
_cell_angle_beta 90.000000
_cell_angle_gamma 90.000000
_cell_volume 3178.986458
_symmetry_space_group_name_H-M "P M M M"
_symmetry_group_IT_number 47
_symmetry_cell_setting 'orthorhombic'
loop_
_space_group_symop_operation_xyz
x,y,z
-x,-y,z
x,-y,-z
-x,y,-z
-x,-y,-z
x,y,-z
-x,y,z
x,-y,z
loop_
_atom_site_type_symbol
_atom_site_label
_atom_site_fract_x
_atom_site_fract_y
_atom_site_fract_z
Si Si1 0.221791 0.675697 0.900471
Si Si2 0.161684 0.675873 0.724575
Si Si3 0.500000 0.671912 0.395501
Si Si4 0.267442 0.326940 0.403042
Si Si5 0.618704 0.829551 0.339475
Si Si6 0.652996 0.171879 0.137064
Si Si7 0.069578 0.175628 0.599067
Si Si8 0.430381 0.324706 0.000000
O O1 0.231527 0.500000 0.893135
O O2 0.175231 0.716244 0.824880
O O3 0.283772 0.755637 0.882663
O O4 0.203098 0.706627 0.000000
O O5 0.154815 0.500000 0.719825
O O6 0.220308 0.716173 0.669730
O O7 0.107921 0.750168 0.674144
O O8 0.500000 0.500000 0.375258
O O9 0.500000 0.689183 0.500000
O O10 0.558326 0.746340 0.357851
O O11 0.242607 0.304107 0.500000
O O12 0.279574 0.500000 0.392587
O O13 0.327867 0.240682 0.392893
O O14 0.637369 0.816010 0.238610
O O15 0.611688 0.000000 0.360931
O O16 0.603151 0.254837 0.082104
O O17 0.654437 0.000000 0.113752
O O18 0.086667 0.222089 0.500000
O O19 0.000000 0.207215 0.609211
O O20 0.076850 0.000000 0.603245
O O21 0.423087 0.500000 0.000000
O O22 0.500000 0.291602 0.000000
#
# Coordination Sequence:
#
# PCOD9385875 Si02
#       8
#     8   8   4   8   8   8   8   4
#     4  10  20  36  59  84 111 147 188 229 279 340
#     4  10  20  34  55  85 118 149 189 238 281 331
#     4  11  25  43  61  78  99 136 185 231 276 333
#     4  10  20  34  53  79 111 145 182 225 275 331
#     4  11  24  39  56  80 108 139 178 225 278 334
#     4  11  23  38  57  82 110 139 176 226 280 335
#     4   9  19  36  57  83 118 159 199 238 283 338
#     4  11  25  41  59  83 107 139 182 225 280 347
#
# _framework density 17.615677000000002
#
# number of rings (size 3 to 8) (size 9 to 14) (size 15 to 20)
#    0.000    1.714    2.143    2.571    1.000    7.143 
#    0.000    0.714    0.000    0.429    0.000    3.000 
#    0.000    0.000    0.000    0.000    0.000    0.000 
#
# Total GULP energy -312721.604372 kJ/mol
# GULP energy per Si atom -5584.314364 kJ/mol
# Density = 1.757558 g / cm^3
# Si number density = 17.615677 Si / 1000 Ang^3
#
#
#
# Elastic Constant Matrix: (Units=GPa)
#
#
# Indices 1 2 3 4 5 6 
#
# 1 104.0645 46.5124 66.4911 0.0000 0.0000 0.0000
# 2 46.5124 50.6671 57.3562 0.0000 0.0000 0.0000
# 3 66.4911 57.3562 126.2820 0.0000 0.0000 0.0000
# 4 0.0000 0.0000 0.0000 26.9238 0.0000 0.0000
# 5 0.0000 0.0000 0.0000 0.0000 22.1608 0.0000
# 6 0.0000 0.0000 0.0000 0.0000 0.0000 41.3081
#
#
#
# Elastic Compliance Matrix: (Units=1/GPa)
#
#
# Indices 1 2 3 4 5 6 
#
# 1 0.017169 -0.011377 -0.003872 0.000000 0.000000 0.000000
# 2 -0.011377 0.048163 -0.015885 0.000000 0.000000 0.000000
# 3 -0.003872 -0.015885 0.017172 0.000000 0.000000 0.000000
# 4 0.000000 0.000000 0.000000 0.037142 0.000000 0.000000
# 5 0.000000 0.000000 0.000000 0.000000 0.045125 0.000000
# 6 0.000000 0.000000 0.000000 0.000000 0.000000 0.024208
#
#
# Mechanical properties :
#
#
# Convention : Reuss Voigt Hill
#
# Bulk Modulus (GPa) = 49.41862 69.08142 59.25002
# Shear Modulus (GPa) = 19.38036 25.45546 22.41791
#
# Velocity S-wave (km/s) = 3.32049 3.80550 3.57124
# Velocity P-wave (km/s) = 6.54336 7.65572 7.12129
#
# Compressibility (1/GPa) = 0.02023529
#
# Stress axis : x y z
#
# Youngs Moduli (GPa) = 58.24496 20.76283 58.23303
#
# Poissons Ratio (x) = 0.23623 0.22550
# Poissons Ratio (y) = 0.66268 0.92501
# Poissons Ratio (z) = 0.22555 0.32981
#
# Static dielectric constant tensor:
#      x y z
#    x 1.558480 0.000000 0.000000 
#    y 0.000000 1.590680 0.000000 
#    z 0.000000 0.000000 1.626940 
# 
# From -- ./inp_files/21684.got.cif
#   From: 2010.05.17/outbox.cif.g08.bks.cpg/sg47_11_cif.got.tgz:21684.got - 2010.06.03 20:15:42.
