data_PCOD9385562
_publ_section_title
;
Structure prediction by ZEFSAII (Michael W. Deem and Ramdas Pophale) SiO2 
 PCOD9385562
Probable space group: P M M M
;
_chemical_formula_sum "Si O2"
_cell_formula_units_Z 40
_cell_length_a 28.023361
_cell_length_b 8.145383
_cell_length_c 9.375345
_cell_angle_alpha 90.000000
_cell_angle_beta 90.000000
_cell_angle_gamma 90.000000
_cell_volume 2140.025703
_symmetry_space_group_name_H-M "P M M M"
_symmetry_group_IT_number 47
_symmetry_cell_setting 'orthorhombic'
loop_
_space_group_symop_operation_xyz
x,y,z
-x,-y,z
x,-y,-z
-x,y,-z
-x,-y,-z
x,y,-z
-x,y,z
x,-y,z
loop_
_atom_site_type_symbol
_atom_site_label
_atom_site_fract_x
_atom_site_fract_y
_atom_site_fract_z
Si Si1 0.408078 0.695793 0.161369
Si Si2 0.683439 0.198275 0.336531
Si Si3 0.945231 0.000000 0.826373
Si Si4 0.500000 0.195681 0.661297
Si Si5 0.883184 0.315513 0.171616
Si Si6 0.790911 0.196200 0.670244
O O1 0.410076 0.500000 0.154994
O O2 0.358607 0.745159 0.234964
O O3 0.452733 0.753060 0.254673
O O4 0.411167 0.761694 0.000000
O O5 0.674907 0.253712 0.500000
O O6 0.736930 0.249623 0.292821
O O7 0.683798 0.000000 0.338873
O O8 0.917469 0.165618 0.782361
O O9 0.000000 0.000000 0.777971
O O10 0.945662 0.000000 0.000000
O O11 0.500000 0.263169 0.500000
O O12 0.500000 0.000000 0.652614
O O13 0.900756 0.500000 0.205398
O O14 0.832060 0.286616 0.244063
O O15 0.878349 0.304882 0.000000
O O16 0.796571 0.219823 0.500000
O O17 0.794919 0.000000 0.697760
#
# Coordination Sequence:
#
# PCOD9385562 Si02
#       6
#     8   8   4   4   8   8
#     4  11  24  39  55  80 113 144 177 220 270 324
#     4   9  19  36  57  81 108 141 184 226 265 319
#     4   9  18  34  55  79 111 149 187 232 285 334
#     4  11  24  41  62  84 104 133 178 227 272 326
#     4  10  20  33  53  82 112 144 186 233 281 337
#     4   9  18  34  56  80 109 147 187 228 276 330
#
# _framework density 18.691362999999999
#
# number of rings (size 3 to 8) (size 9 to 14) (size 15 to 20)
#    0.000    2.200    1.000    3.000    0.000    8.800 
#    0.000    8.000    0.000    1.200    0.000    1.400 
#    0.000    0.000    0.000    0.000    0.000    0.000 
#
# Total GULP energy -223261.706445 kJ/mol
# GULP energy per Si atom -5581.542661 kJ/mol
# Density = 1.864882 g / cm^3
# Si number density = 18.691363 Si / 1000 Ang^3
#
#
#
# Elastic Constant Matrix: (Units=GPa)
#
#
# Indices 1 2 3 4 5 6 
#
# 1 159.7067 65.6032 68.7102 0.0000 0.0000 0.0000
# 2 65.6032 90.5745 36.7713 0.0000 0.0000 0.0000
# 3 68.7102 36.7713 72.9296 0.0000 0.0000 0.0000
# 4 0.0000 0.0000 0.0000 25.3945 0.0000 0.0000
# 5 0.0000 0.0000 0.0000 0.0000 31.9119 0.0000
# 6 0.0000 0.0000 0.0000 0.0000 0.0000 -15.9525
#
#
#
# Elastic Compliance Matrix: (Units=1/GPa)
#
#
# Indices 1 2 3 4 5 6 
#
# 1 0.012245 -0.005263 -0.008883 0.000000 0.000000 0.000000
# 2 -0.005263 0.016144 -0.003182 0.000000 0.000000 0.000000
# 3 -0.008883 -0.003182 0.023685 0.000000 0.000000 0.000000
# 4 0.000000 0.000000 0.000000 0.039379 0.000000 0.000000
# 5 0.000000 0.000000 0.000000 0.000000 0.031336 0.000000
# 6 0.000000 0.000000 0.000000 0.000000 0.000000 -0.062686
#
#
# Mechanical properties :
#
#
# Convention : Reuss Voigt Hill
#
# Bulk Modulus (GPa) = 57.40732 73.93114 65.66923
# Shear Modulus (GPa) = 49.71936 18.41253 34.06594
#
# Velocity S-wave (km/s) = 5.16313 3.14201 4.27376
# Velocity P-wave (km/s) = 8.14395 7.26653 7.71772
#
# Compressibility (1/GPa) = 0.01741938
#
# Stress axis : x y z
#
# Youngs Moduli (GPa) = 81.66587 61.94211 42.22039
#
# Poissons Ratio (x) = 0.32598 0.37505
# Poissons Ratio (y) = 0.42978 0.13433
# Poissons Ratio (z) = 0.72545 0.19708
#
# Static dielectric constant tensor:
#      x y z
#    x 1.635940 0.000000 0.000000 
#    y 0.000000 1.664930 0.000000 
#    z 0.000000 0.000000 1.638540 
# 
# From -- ./inp_files/13052.got.cif
#   From: 2010.05.17/outbox.cif.g08.bks.cpg/sg47_7_cif.got.tgz:13052.got - 2010.06.03 20:15:42.
