data_PCOD9385768
_publ_section_title
;
Structure prediction by ZEFSAII (Michael W. Deem and Ramdas Pophale) SiO2 
 PCOD9385768
Probable space group: P M M M
;
_chemical_formula_sum "Si O2"
_cell_formula_units_Z 36
_cell_length_a 7.752901
_cell_length_b 23.724345
_cell_length_c 9.391142
_cell_angle_alpha 90.000000
_cell_angle_beta 90.000000
_cell_angle_gamma 90.000000
_cell_volume 1727.336208
_symmetry_space_group_name_H-M "P M M M"
_symmetry_group_IT_number 47
_symmetry_cell_setting 'orthorhombic'
loop_
_space_group_symop_operation_xyz
x,y,z
-x,-y,z
x,-y,-z
-x,y,-z
-x,-y,-z
x,y,-z
-x,y,z
x,-y,z
loop_
_atom_site_type_symbol
_atom_site_label
_atom_site_fract_x
_atom_site_fract_y
_atom_site_fract_z
Si Si1 0.203685 0.327356 0.660428
Si Si2 0.708347 0.563616 0.162925
Si Si3 0.289284 0.000000 0.164133
Si Si4 0.704584 0.218960 0.839618
Si Si5 0.288615 0.888808 0.664014
O O1 0.275748 0.324325 0.500000
O O2 0.234398 0.388105 0.730473
O O3 0.273916 0.278297 0.761125
O O4 0.000000 0.318326 0.652518
O O5 0.500000 0.563529 0.162128
O O6 0.765198 0.500000 0.199930
O O7 0.764690 0.575589 0.000000
O O8 0.235401 0.943998 0.248215
O O9 0.500000 0.000000 0.162638
O O10 0.232607 0.000000 0.000000
O O11 0.500000 0.209035 0.851743
O O12 0.772177 0.167657 0.743633
O O13 0.776477 0.219861 0.000000
O O14 0.232656 0.890594 0.500000
O O15 0.500000 0.888476 0.662309
#
# Coordination Sequence:
#
# PCOD9385768 Si02
#       5
#     8   8   4   8   8
#     4  11  24  38  52  75 107 140 174 213 257 305
#     4   9  19  37  60  84 108 135 170 211 254 303
#     4   9  15  23  37  61  96 133 168 209 256 305
#     4  10  20  34  53  76 101 132 173 218 262 310
#     4   9  16  26  42  66  97 132 168 208 258 312
#
# _framework density 20.841339000000001
#
# number of rings (size 3 to 8) (size 9 to 14) (size 15 to 20)
#    0.000    2.333    0.000    3.667    0.000   11.111 
#    0.000    3.333    0.000    0.000    0.000    0.778 
#    0.000    6.222    0.000    0.000    0.000    0.000 
#
# Total GULP energy -201090.899398 kJ/mol
# GULP energy per Si atom -5585.858317 kJ/mol
# Density = 2.079390 g / cm^3
# Si number density = 20.841339 Si / 1000 Ang^3
#
#
#
# Elastic Constant Matrix: (Units=GPa)
#
#
# Indices 1 2 3 4 5 6 
#
# 1 27.5480 -7.3185 3.7405 0.0000 0.0000 0.0000
# 2 -7.3185 150.4780 116.0444 0.0000 0.0000 0.0000
# 3 3.7405 116.0444 218.3489 0.0000 0.0000 0.0000
# 4 0.0000 0.0000 0.0000 53.5916 0.0000 0.0000
# 5 0.0000 0.0000 0.0000 0.0000 143.0180 0.0000
# 6 0.0000 0.0000 0.0000 0.0000 0.0000 -55.5975
#
#
#
# Elastic Compliance Matrix: (Units=1/GPa)
#
#
# Indices 1 2 3 4 5 6 
#
# 1 0.037724 0.003953 -0.002747 0.000000 0.000000 0.000000
# 2 0.003953 0.011675 -0.006273 0.000000 0.000000 0.000000
# 3 -0.002747 -0.006273 0.007961 0.000000 0.000000 0.000000
# 4 0.000000 0.000000 0.000000 0.018660 0.000000 0.000000
# 5 0.000000 0.000000 0.000000 0.000000 0.006992 0.000000
# 6 0.000000 0.000000 0.000000 0.000000 0.000000 -0.017986
#
#
# Mechanical properties :
#
#
# Convention : Reuss Voigt Hill
#
# Bulk Modulus (GPa) = 21.17476 69.03420 45.10448
# Shear Modulus (GPa) = 55.00589 47.12966 51.06777
#
# Velocity S-wave (km/s) = 5.14295 4.76053 4.95543
# Velocity P-wave (km/s) = 6.74156 7.96319 7.37771
#
# Compressibility (1/GPa) = 0.04722603
#
# Stress axis : x y z
#
# Youngs Moduli (GPa) = 26.50862 85.65349 125.62021
#
# Poissons Ratio (x) = -0.33861 0.34511
# Poissons Ratio (y) = -0.10480 0.78796
# Poissons Ratio (z) = 0.07283 0.53726
#
# Static dielectric constant tensor:
#      x y z
#    x 1.771440 0.000000 0.000000 
#    y 0.000000 1.701380 0.000000 
#    z 0.000000 0.000000 1.734490 
# 
# From -- ./inp_files/1411.got.cif
#   From: 2010.05.17/outbox.cif.g08.bks.cpg/sg47_1_cif.got.tgz:1411.got - 2010.06.03 20:15:42.
