data_PCOD9385711
_publ_section_title
;
Structure prediction by ZEFSAII (Michael W. Deem and Ramdas Pophale) SiO2 
 PCOD9385711
Probable space group: P M M M
;
_chemical_formula_sum "Si O2"
_cell_formula_units_Z 56
_cell_length_a 9.617001
_cell_length_b 22.512546
_cell_length_c 14.901342
_cell_angle_alpha 90.000000
_cell_angle_beta 90.000000
_cell_angle_gamma 90.000000
_cell_volume 3226.187890
_symmetry_space_group_name_H-M "P M M M"
_symmetry_group_IT_number 47
_symmetry_cell_setting 'orthorhombic'
loop_
_space_group_symop_operation_xyz
x,y,z
-x,-y,z
x,-y,-z
-x,y,-z
-x,-y,-z
x,y,-z
-x,y,z
x,-y,z
loop_
_atom_site_type_symbol
_atom_site_label
_atom_site_fract_x
_atom_site_fract_y
_atom_site_fract_z
Si Si1 0.834283 0.930316 0.726102
Si Si2 0.166431 0.150306 0.104932
Si Si3 0.664197 0.759580 0.774267
Si Si4 0.667361 0.432181 0.000000
Si Si5 0.666884 0.838738 0.605241
Si Si6 0.335634 0.621314 0.188631
Si Si7 0.155364 0.429694 0.338481
Si Si8 0.342230 0.572859 0.500000
O O1 0.805524 0.904137 0.826039
O O2 0.748028 0.893057 0.652710
O O3 0.000000 0.922368 0.710163
O O4 0.802365 0.000000 0.722020
O O5 0.247001 0.204484 0.152361
O O6 0.000000 0.160703 0.106929
O O7 0.205313 0.141351 0.000000
O O8 0.500000 0.770962 0.790121
O O9 0.696048 0.783996 0.673954
O O10 0.687172 0.689663 0.785632
O O11 0.701621 0.394440 0.087245
O O12 0.722560 0.500000 0.000000
O O13 0.500000 0.437574 0.000000
O O14 0.704667 0.830190 0.500000
O O15 0.500000 0.848918 0.607933
O O16 0.500000 0.607697 0.203337
O O17 0.235885 0.581237 0.247659
O O18 0.143869 0.500000 0.354462
O O19 0.256499 0.405771 0.414888
O O20 0.000000 0.404579 0.340240
O O21 0.346560 0.500000 0.500000
O O22 0.500000 0.593645 0.500000
#
# Coordination Sequence:
#
# PCOD9385711 Si02
#       8
#     8   8   8   4   8   8   8   4
#     4   9  18  32  50  75 106 136 171 215 256 301
#     4   9  18  32  51  74 101 136 173 209 257 311
#     4   9  19  34  52  75 100 130 172 219 262 305
#     4   9  18  32  51  75 103 133 166 211 262 312
#     4   9  18  34  53  72 100 137 172 210 260 310
#     4  10  20  34  53  77 101 132 175 219 261 311
#     4  10  20  34  52  75 106 139 168 207 261 316
#     4   9  17  31  53  77  99 129 169 207 244 297
#
# _framework density 17.357946999999999
#
# number of rings (size 3 to 8) (size 9 to 14) (size 15 to 20)
#    0.000    2.714    0.000    1.071    1.000    4.286 
#    1.286    3.214    0.000    1.286    0.000    4.000 
#    0.000    0.000    0.000    0.000    0.000    0.000 
#
# Total GULP energy -311865.996603 kJ/mol
# GULP energy per Si atom -5569.035654 kJ/mol
# Density = 1.731844 g / cm^3
# Si number density = 17.357947 Si / 1000 Ang^3
#
#
#
# Elastic Constant Matrix: (Units=GPa)
#
#
# Indices 1 2 3 4 5 6 
#
# 1 61.1566 22.4286 49.8159 0.0000 0.0000 0.0000
# 2 22.4286 46.2140 21.9044 0.0000 0.0000 0.0000
# 3 49.8159 21.9044 147.8624 0.0000 0.0000 0.0000
# 4 0.0000 0.0000 0.0000 13.9790 0.0000 0.0000
# 5 0.0000 0.0000 0.0000 0.0000 23.3858 0.0000
# 6 0.0000 0.0000 0.0000 0.0000 0.0000 21.5719
#
#
#
# Elastic Compliance Matrix: (Units=1/GPa)
#
#
# Indices 1 2 3 4 5 6 
#
# 1 0.025574 -0.008956 -0.007289 0.000000 0.000000 0.000000
# 2 -0.008956 0.026409 -0.000895 0.000000 0.000000 0.000000
# 3 -0.007289 -0.000895 0.009351 0.000000 0.000000 0.000000
# 4 0.000000 0.000000 0.000000 0.071536 0.000000 0.000000
# 5 0.000000 0.000000 0.000000 0.000000 0.042761 0.000000
# 6 0.000000 0.000000 0.000000 0.000000 0.000000 0.046357
#
#
# Mechanical properties :
#
#
# Convention : Reuss Voigt Hill
#
# Bulk Modulus (GPa) = 36.96377 49.28119 43.12248
# Shear Modulus (GPa) = 18.84757 22.52628 20.68693
#
# Velocity S-wave (km/s) = 3.29875 3.60634 3.45597
# Velocity P-wave (km/s) = 5.98751 6.76710 6.38921
#
# Compressibility (1/GPa) = 0.02705352
#
# Stress axis : x y z
#
# Youngs Moduli (GPa) = 39.10284 37.86537 106.93645
#
# Poissons Ratio (x) = 0.33914 0.77947
# Poissons Ratio (y) = 0.35022 0.09569
# Poissons Ratio (z) = 0.28502 0.03388
#
# Static dielectric constant tensor:
#      x y z
#    x 1.590090 0.000000 0.000000 
#    y 0.000000 1.588950 0.000000 
#    z 0.000000 0.000000 1.447640 
# 
# From -- ./inp_files/21652.got.cif
#   From: 2010.05.17/outbox.cif.g08.bks.cpg/sg47_11_cif.got.tgz:21652.got - 2010.06.03 20:15:42.
