data_PCOD9385770
_publ_section_title
;
Structure prediction by ZEFSAII (Michael W. Deem and Ramdas Pophale) SiO2 
 PCOD9385770
Probable space group: P M M M
;
_chemical_formula_sum "Si O2"
_cell_formula_units_Z 44
_cell_length_a 7.733810
_cell_length_b 30.909314
_cell_length_c 9.719378
_cell_angle_alpha 90.000000
_cell_angle_beta 90.000000
_cell_angle_gamma 90.000000
_cell_volume 2323.385837
_symmetry_space_group_name_H-M "P M M M"
_symmetry_group_IT_number 47
_symmetry_cell_setting 'orthorhombic'
loop_
_space_group_symop_operation_xyz
x,y,z
-x,-y,z
x,-y,-z
-x,y,-z
-x,-y,-z
x,y,-z
-x,y,z
x,-y,z
loop_
_atom_site_type_symbol
_atom_site_label
_atom_site_fract_x
_atom_site_fract_y
_atom_site_fract_z
Si Si1 0.500000 0.049318 0.667457
Si Si2 0.194709 0.112577 0.661857
Si Si3 0.789057 0.548939 0.157931
Si Si4 0.208528 0.290543 0.157558
Si Si5 0.788052 0.629159 0.658105
Si Si6 0.705544 0.806819 0.841752
O O1 0.500000 0.047595 0.500000
O O2 0.332924 0.077056 0.708925
O O3 0.500000 0.000000 0.717233
O O4 0.227174 0.121585 0.500000
O O5 0.213803 0.156680 0.746408
O O6 0.000000 0.095920 0.675259
O O7 0.734371 0.500000 0.193052
O O8 0.731554 0.586053 0.261570
O O9 0.000000 0.549075 0.159230
O O10 0.737474 0.558135 0.000000
O O11 0.268779 0.328560 0.257473
O O12 0.258111 0.242329 0.203428
O O13 0.000000 0.292553 0.154004
O O14 0.270757 0.296562 0.000000
O O15 0.732512 0.629824 0.500000
O O16 0.000000 0.629146 0.658590
O O17 0.500000 0.813493 0.840869
O O18 0.767815 0.810426 0.000000
#
# Coordination Sequence:
#
# PCOD9385770 Si02
#       6
#     4   8   8   8   8   8
#     4   9  18  34  55  81 115 149 183 227 272 315
#     4  10  20  34  55  82 110 143 182 223 270 321
#     4   8  13  21  33  49  72 107 149 189 234 292
#     4   9  17  29  44  62  87 121 158 194 238 297
#     4   9  16  24  35  54  81 112 148 193 242 291
#     4  10  20  34  53  76 102 134 172 215 264 316
#
# _framework density 18.937878999999999
#
# number of rings (size 3 to 8) (size 9 to 14) (size 15 to 20)
#    0.000    2.818    0.909    1.636    0.000    4.727 
#    0.000    5.455    0.000    1.091    0.000    1.273 
#    0.000    0.727    0.000    8.364    0.000   10.727 
#
# Total GULP energy -245475.432974 kJ/mol
# GULP energy per Si atom -5578.987113 kJ/mol
# Density = 1.889478 g / cm^3
# Si number density = 18.937879 Si / 1000 Ang^3
#
#
#
# Elastic Constant Matrix: (Units=GPa)
#
#
# Indices 1 2 3 4 5 6 
#
# 1 52.5638 40.4939 28.9167 0.0000 0.0000 0.0000
# 2 40.4939 179.8974 94.8976 0.0000 0.0000 0.0000
# 3 28.9167 94.8976 82.8451 0.0000 0.0000 0.0000
# 4 0.0000 0.0000 0.0000 29.3707 0.0000 0.0000
# 5 0.0000 0.0000 0.0000 0.0000 3.3416 0.0000
# 6 0.0000 0.0000 0.0000 0.0000 0.0000 23.0569
#
#
#
# Elastic Compliance Matrix: (Units=1/GPa)
#
#
# Indices 1 2 3 4 5 6 
#
# 1 0.023977 -0.002482 -0.005526 0.000000 0.000000 0.000000
# 2 -0.002482 0.014303 -0.015518 0.000000 0.000000 0.000000
# 3 -0.005526 -0.015518 0.031774 0.000000 0.000000 0.000000
# 4 0.000000 0.000000 0.000000 0.034048 0.000000 0.000000
# 5 0.000000 0.000000 0.000000 0.000000 0.299262 0.000000
# 6 0.000000 0.000000 0.000000 0.000000 0.000000 0.043371
#
#
# Mechanical properties :
#
#
# Convention : Reuss Voigt Hill
#
# Bulk Modulus (GPa) = 43.47180 71.54697 57.50938
# Shear Modulus (GPa) = 9.97102 21.22037 15.59570
#
# Velocity S-wave (km/s) = 2.29707 3.35106 2.87281
# Velocity P-wave (km/s) = 5.48089 7.26874 6.43719
#
# Compressibility (1/GPa) = 0.02300342
#
# Stress axis : x y z
#
# Youngs Moduli (GPa) = 41.70750 69.91491 31.47180
#
# Poissons Ratio (x) = 0.17354 0.17390
# Poissons Ratio (y) = 0.10352 0.48837
# Poissons Ratio (z) = 0.23046 1.08491
#
# Static dielectric constant tensor:
#      x y z
#    x 1.709390 0.000000 0.000000 
#    y 0.000000 1.624120 0.000000 
#    z 0.000000 0.000000 1.639610 
# 
# From -- ./inp_files/2245.got.cif
#   From: 2010.05.17/outbox.cif.g08.bks.cpg/sg47_2_cif.got.tgz:2245.got - 2010.06.03 20:15:42.
