data_PCOD9385235
_publ_section_title
;
Structure prediction by ZEFSAII (Michael W. Deem and Ramdas Pophale) SiO2 
 PCOD9385235
Probable space group: P M M M
;
_chemical_formula_sum "Si O2"
_cell_formula_units_Z 40
_cell_length_a 26.636134
_cell_length_b 9.191721
_cell_length_c 9.202965
_cell_angle_alpha 90.000000
_cell_angle_beta 90.000000
_cell_angle_gamma 90.000000
_cell_volume 2253.179519
_symmetry_space_group_name_H-M "P M M M"
_symmetry_group_IT_number 47
_symmetry_cell_setting 'orthorhombic'
loop_
_space_group_symop_operation_xyz
x,y,z
-x,-y,z
x,-y,-z
-x,y,-z
-x,-y,-z
x,y,-z
-x,y,z
x,-y,z
loop_
_atom_site_type_symbol
_atom_site_label
_atom_site_fract_x
_atom_site_fract_y
_atom_site_fract_z
Si Si1 0.000000 0.826851 0.327561
Si Si2 0.194030 0.676869 0.667255
Si Si3 0.500000 0.667364 0.823071
Si Si4 0.306092 0.329064 0.324851
Si Si5 0.906893 0.325207 0.171386
Si Si6 0.601720 0.171128 0.174386
O O1 0.951101 0.755183 0.255686
O O2 0.000000 0.799465 0.500000
O O3 0.000000 0.000000 0.303502
O O4 0.186051 0.723449 0.500000
O O5 0.195403 0.500000 0.666011
O O6 0.249774 0.721924 0.716270
O O7 0.147353 0.720276 0.766053
O O8 0.500000 0.500000 0.775743
O O9 0.550731 0.748502 0.777224
O O10 0.500000 0.669218 0.000000
O O11 0.309035 0.318971 0.500000
O O12 0.311253 0.500000 0.286379
O O13 0.349991 0.239393 0.250739
O O14 0.911851 0.500000 0.192808
O O15 0.910205 0.296602 0.000000
O O16 0.597792 0.000000 0.204261
O O17 0.606225 0.190120 0.000000
#
# Coordination Sequence:
#
# PCOD9385235 Si02
#       6
#     4   8   4   8   8   8
#     4  11  24  39  54  74 102 139 180 215 252 304
#     4   8  15  30  52  76 102 133 169 209 252 298
#     4   9  17  31  52  75  98 129 170 214 260 307
#     4   9  18  33  53  77 104 134 170 211 253 299
#     4  10  20  34  55  83 109 133 167 212 260 308
#     4  10  20  33  50  74 104 136 170 209 254 306
#
# _framework density 17.752692
#
# number of rings (size 3 to 8) (size 9 to 14) (size 15 to 20)
#    0.000    2.600    0.000    3.300    0.000    6.800 
#    0.000    3.500    0.000    4.200    0.000    0.000 
#    0.000    0.000    0.000    0.000    0.000    0.000 
#
# Total GULP energy -223135.851100 kJ/mol
# GULP energy per Si atom -5578.396277 kJ/mol
# Density = 1.771229 g / cm^3
# Si number density = 17.752692 Si / 1000 Ang^3
#
#
#
# Elastic Constant Matrix: (Units=GPa)
#
#
# Indices 1 2 3 4 5 6 
#
# 1 214.7029 88.7858 83.5574 0.0000 0.0000 0.0000
# 2 88.7858 76.4888 56.4688 0.0000 0.0000 0.0000
# 3 83.5574 56.4688 64.2274 0.0000 0.0000 0.0000
# 4 0.0000 0.0000 0.0000 22.6409 0.0000 0.0000
# 5 0.0000 0.0000 0.0000 0.0000 37.4727 0.0000
# 6 0.0000 0.0000 0.0000 0.0000 0.0000 -13.6555
#
#
#
# Elastic Compliance Matrix: (Units=1/GPa)
#
#
# Indices 1 2 3 4 5 6 
#
# 1 0.010283 -0.005870 -0.008217 0.000000 0.000000 0.000000
# 2 -0.005870 0.040606 -0.028065 0.000000 0.000000 0.000000
# 3 -0.008217 -0.028065 0.050934 0.000000 0.000000 0.000000
# 4 0.000000 0.000000 0.000000 0.044168 0.000000 0.000000
# 5 0.000000 0.000000 0.000000 0.000000 0.026686 0.000000
# 6 0.000000 0.000000 0.000000 0.000000 0.000000 -0.073231
#
#
# Mechanical properties :
#
#
# Convention : Reuss Voigt Hill
#
# Bulk Modulus (GPa) = 57.07627 90.33813 73.70720
# Shear Modulus (GPa) = 26.37281 17.73209 22.05245
#
# Velocity S-wave (km/s) = 3.85849 3.16387 3.52831
# Velocity P-wave (km/s) = 7.21603 8.02149 7.62940
#
# Compressibility (1/GPa) = 0.01752042
#
# Stress axis : x y z
#
# Youngs Moduli (GPa) = 97.25137 24.62665 19.63326
#
# Poissons Ratio (x) = 0.14455 0.16132
# Poissons Ratio (y) = 0.57084 0.55101
# Poissons Ratio (z) = 0.79908 0.69115
#
# Static dielectric constant tensor:
#      x y z
#    x 1.593970 0.000000 0.000000 
#    y 0.000000 1.588500 0.000000 
#    z 0.000000 0.000000 1.591840 
# 
# From -- ./inp_files/13074.got.cif
#   From: 2010.05.17/outbox.cif.g08.bks.cpg/sg47_7_cif.got.tgz:13074.got - 2010.06.03 20:15:42.
