data_PCOD9385926
_publ_section_title
;
Structure prediction by ZEFSAII (Michael W. Deem and Ramdas Pophale) SiO2 
 PCOD9385926
Probable space group: P M M M
;
_chemical_formula_sum "Si O2"
_cell_formula_units_Z 44
_cell_length_a 9.487880
_cell_length_b 29.552943
_cell_length_c 7.662839
_cell_angle_alpha 90.000000
_cell_angle_beta 90.000000
_cell_angle_gamma 90.000000
_cell_volume 2148.620031
_symmetry_space_group_name_H-M "P M M M"
_symmetry_group_IT_number 47
_symmetry_cell_setting 'orthorhombic'
loop_
_space_group_symop_operation_xyz
x,y,z
-x,-y,z
x,-y,-z
-x,y,-z
-x,-y,-z
x,y,-z
-x,y,z
x,-y,z
loop_
_atom_site_type_symbol
_atom_site_label
_atom_site_fract_x
_atom_site_fract_y
_atom_site_fract_z
Si Si1 0.337484 0.824266 0.213948
Si Si2 0.164137 0.737094 0.212790
Si Si3 0.339166 0.549333 0.290419
Si Si4 0.839546 0.089118 0.208721
Si Si5 0.841007 0.637029 0.791081
Si Si6 0.660789 0.000000 0.292071
O O1 0.500000 0.827551 0.268958
O O2 0.263231 0.777797 0.271360
O O3 0.245111 0.867018 0.273746
O O4 0.337388 0.824534 0.000000
O O5 0.209205 0.686632 0.270348
O O6 0.000000 0.743727 0.262824
O O7 0.166708 0.737951 0.000000
O O8 0.343642 0.547483 0.500000
O O9 0.500000 0.553732 0.227038
O O10 0.283898 0.500000 0.229622
O O11 0.251571 0.593491 0.246256
O O12 0.748382 0.044333 0.240413
O O13 0.000000 0.085698 0.276769
O O14 0.850198 0.094366 0.000000
O O15 0.000000 0.630352 0.724069
O O16 0.848719 0.640598 0.000000
O O17 0.500000 0.000000 0.221727
O O18 0.651317 0.000000 0.500000
#
# Coordination Sequence:
#
# PCOD9385926 Si02
#       6
#     8   8   8   8   8   4
#     4   9  16  26  44  72 102 130 162 201 243 285
#     4   8  14  26  43  65  97 131 158 190 237 290
#     4   9  19  35  51  67  91 125 164 204 246 293
#     4  10  20  34  54  79 104 132 168 207 246 290
#     4   9  18  31  48  73 102 129 159 198 243 290
#     4  11  24  39  54  74 102 135 168 205 252 300
#
# _framework density 20.478259999999999
#
# number of rings (size 3 to 8) (size 9 to 14) (size 15 to 20)
#    0.000    2.818    0.000    3.273    0.000    7.273 
#    0.000    4.545    0.000    1.091    0.000    5.091 
#    0.000    0.000    0.000    0.000    0.000    0.000 
#
# Total GULP energy -245457.872474 kJ/mol
# GULP energy per Si atom -5578.588011 kJ/mol
# Density = 2.043165 g / cm^3
# Si number density = 20.478260 Si / 1000 Ang^3
#
#
#
# Elastic Constant Matrix: (Units=GPa)
#
#
# Indices 1 2 3 4 5 6 
#
# 1 166.4625 142.3346 7.0199 0.0000 0.0000 0.0000
# 2 142.3346 247.5045 5.0156 0.0000 0.0000 0.0000
# 3 7.0199 5.0156 33.8859 0.0000 0.0000 0.0000
# 4 0.0000 0.0000 0.0000 111.2527 0.0000 0.0000
# 5 0.0000 0.0000 0.0000 0.0000 15.1481 0.0000
# 6 0.0000 0.0000 0.0000 0.0000 0.0000 72.8909
#
#
#
# Elastic Compliance Matrix: (Units=1/GPa)
#
#
# Indices 1 2 3 4 5 6 
#
# 1 0.011890 -0.006808 -0.001455 0.000000 0.000000 0.000000
# 2 -0.006808 0.007951 0.000234 0.000000 0.000000 0.000000
# 3 -0.001455 0.000234 0.029778 0.000000 0.000000 0.000000
# 4 0.000000 0.000000 0.000000 0.008989 0.000000 0.000000
# 5 0.000000 0.000000 0.000000 0.000000 0.066015 0.000000
# 6 0.000000 0.000000 0.000000 0.000000 0.000000 0.013719
#
#
# Mechanical properties :
#
#
# Convention : Reuss Voigt Hill
#
# Bulk Modulus (GPa) = 29.79877 84.06592 56.93235
# Shear Modulus (GPa) = 30.19541 59.42386 44.80964
#
# Velocity S-wave (km/s) = 3.84410 5.39268 4.68285
# Velocity P-wave (km/s) = 5.85541 8.93953 7.55649
#
# Compressibility (1/GPa) = 0.03355843
#
# Stress axis : x y z
#
# Youngs Moduli (GPa) = 84.10265 125.77160 33.58213
#
# Poissons Ratio (x) = 0.85629 0.04888
# Poissons Ratio (y) = 0.57260 -0.00784
# Poissons Ratio (z) = 0.12241 -0.02938
#
# Static dielectric constant tensor:
#      x y z
#    x 1.709490 0.000000 0.000000 
#    y 0.000000 1.723540 0.000000 
#    z 0.000000 0.000000 1.770440 
# 
# From -- ./inp_files/2210.got.cif
#   From: 2010.05.17/outbox.cif.g08.bks.cpg/sg47_2_cif.got.tgz:2210.got - 2010.06.03 20:15:42.
