data_PCOD9385995
_publ_section_title
;
Structure prediction by ZEFSAII (Michael W. Deem and Ramdas Pophale) SiO2 
 PCOD9385995
Probable space group: P M M M
;
_chemical_formula_sum "Si O2"
_cell_formula_units_Z 48
_cell_length_a 9.352633
_cell_length_b 31.852385
_cell_length_c 8.928311
_cell_angle_alpha 90.000000
_cell_angle_beta 90.000000
_cell_angle_gamma 90.000000
_cell_volume 2659.776588
_symmetry_space_group_name_H-M "P M M M"
_symmetry_group_IT_number 47
_symmetry_cell_setting 'orthorhombic'
loop_
_space_group_symop_operation_xyz
x,y,z
-x,-y,z
x,-y,-z
-x,y,-z
-x,-y,-z
x,y,-z
-x,y,z
x,-y,z
loop_
_atom_site_type_symbol
_atom_site_label
_atom_site_fract_x
_atom_site_fract_y
_atom_site_fract_z
Si Si1 0.673880 0.500000 0.173144
Si Si2 0.667667 0.412978 0.680331
Si Si3 0.831455 0.831974 0.178600
Si Si4 0.169449 0.921536 0.678418
Si Si5 0.668968 0.000000 0.821351
Si Si6 0.667622 0.246132 0.319363
Si Si7 0.164449 0.670054 0.317398
O O1 0.500000 0.500000 0.182115
O O2 0.719944 0.543043 0.251950
O O3 0.715099 0.500000 0.000000
O O4 0.675311 0.415698 0.500000
O O5 0.500000 0.407115 0.719712
O O6 0.757804 0.372722 0.730680
O O7 0.791563 0.876464 0.252219
O O8 0.740005 0.794148 0.245177
O O9 0.000000 0.824670 0.211557
O O10 0.814453 0.834491 0.000000
O O11 0.190525 0.920917 0.500000
O O12 0.258049 0.958947 0.751430
O O13 0.000000 0.928254 0.707347
O O14 0.500000 0.000000 0.790147
O O15 0.689896 0.000000 0.000000
O O16 0.680890 0.242712 0.500000
O O17 0.500000 0.248803 0.283276
O O18 0.748822 0.288574 0.271471
O O19 0.165464 0.669694 0.500000
O O20 0.000000 0.671835 0.268519
#
# Coordination Sequence:
#
# PCOD9385995 Si02
#       7
#     4   8   8   8   4   8   8
#     4   9  17  29  46  69  96 126 160 199 246 300
#     4   9  16  28  48  72  96 124 162 206 249 297
#     4  10  21  37  57  81 109 142 179 219 265 316
#     4  10  21  38  61  86 110 141 183 226 268 317
#     4  11  24  39  56  82 116 151 184 221 268 318
#     4  10  20  34  54  80 108 139 175 215 261 313
#     4   9  17  30  50  75 101 130 167 212 258 303
#
# _framework density 18.046628999999999
#
# number of rings (size 3 to 8) (size 9 to 14) (size 15 to 20)
#    0.000    2.333    0.000    2.750    0.000    8.333 
#    0.000    1.250    0.000    6.000    0.000    0.000 
#    0.000    0.000    0.000    0.000    0.000    0.000 
#
# Total GULP energy -267956.319724 kJ/mol
# GULP energy per Si atom -5582.423328 kJ/mol
# Density = 1.800555 g / cm^3
# Si number density = 18.046629 Si / 1000 Ang^3
#
#
#
# Elastic Constant Matrix: (Units=GPa)
#
#
# Indices 1 2 3 4 5 6 
#
# 1 111.5775 121.2554 55.1456 0.0000 0.0000 0.0000
# 2 121.2554 227.4463 68.5785 0.0000 0.0000 0.0000
# 3 55.1456 68.5785 39.2515 0.0000 0.0000 0.0000
# 4 0.0000 0.0000 0.0000 -27.3633 0.0000 0.0000
# 5 0.0000 0.0000 0.0000 0.0000 20.3622 0.0000
# 6 0.0000 0.0000 0.0000 0.0000 0.0000 36.2921
#
#
#
# Elastic Compliance Matrix: (Units=1/GPa)
#
#
# Indices 1 2 3 4 5 6 
#
# 1 0.035289 -0.008166 -0.035310 0.000000 0.000000 0.000000
# 2 -0.008166 0.011181 -0.008062 0.000000 0.000000 0.000000
# 3 -0.035310 -0.008062 0.089169 0.000000 0.000000 0.000000
# 4 0.000000 0.000000 0.000000 -0.036545 0.000000 0.000000
# 5 0.000000 0.000000 0.000000 0.000000 0.049111 0.000000
# 6 0.000000 0.000000 0.000000 0.000000 0.000000 0.027554
#
#
# Mechanical properties :
#
#
# Convention : Reuss Voigt Hill
#
# Bulk Modulus (GPa) = 30.70958 96.47045 63.59002
# Shear Modulus (GPa) = 17.25990 14.74460 16.00225
#
# Velocity S-wave (km/s) = 3.09594 2.86147 2.98101
# Velocity P-wave (km/s) = 5.46201 8.03054 6.86743
#
# Compressibility (1/GPa) = 0.03256312
#
# Stress axis : x y z
#
# Youngs Moduli (GPa) = 28.33780 89.43699 11.21461
#
# Poissons Ratio (x) = 0.73039 0.39599
# Poissons Ratio (y) = 0.23142 0.09041
# Poissons Ratio (z) = 1.00060 0.72101
#
# Static dielectric constant tensor:
#      x y z
#    x 1.606710 0.000000 0.000000 
#    y 0.000000 1.587310 0.000000 
#    z 0.000000 0.000000 1.600430 
# 
# From -- ./inp_files/2553.got.cif
#   From: 2010.05.17/outbox.cif.g08.bks.cpg/sg47_2_cif.got.tgz:2553.got - 2010.06.03 20:15:42.
