data_PCOD9385140
_publ_section_title
;
Structure prediction by ZEFSAII (Michael W. Deem and Ramdas Pophale) SiO2 
 PCOD9385140
Probable space group: P M M M
;
_chemical_formula_sum "Si O2"
_cell_formula_units_Z 52
_cell_length_a 16.381637
_cell_length_b 19.407432
_cell_length_c 8.661020
_cell_angle_alpha 90.000000
_cell_angle_beta 90.000000
_cell_angle_gamma 90.000000
_cell_volume 2753.559167
_symmetry_space_group_name_H-M "P M M M"
_symmetry_group_IT_number 47
_symmetry_cell_setting 'orthorhombic'
loop_
_space_group_symop_operation_xyz
x,y,z
-x,-y,z
x,-y,-z
-x,y,-z
-x,-y,-z
x,y,-z
-x,y,z
x,-y,z
loop_
_atom_site_type_symbol
_atom_site_label
_atom_site_fract_x
_atom_site_fract_y
_atom_site_fract_z
Si Si1 0.664961 0.576090 0.687425
Si Si2 0.409974 0.082376 0.173796
Si Si3 0.835009 0.642517 0.684601
Si Si4 0.241832 0.078565 0.679562
Si Si5 0.407064 0.278383 0.686943
Si Si6 0.000000 0.420517 0.184690
Si Si7 0.240589 0.220791 0.817744
O O1 0.662719 0.574387 0.500000
O O2 0.641331 0.500000 0.743306
O O3 0.757917 0.594818 0.732344
O O4 0.610549 0.641775 0.731347
O O5 0.500000 0.108303 0.215313
O O6 0.339054 0.089507 0.297399
O O7 0.416771 0.000000 0.158978
O O8 0.387381 0.107735 0.000000
O O9 0.840078 0.640094 0.500000
O O10 0.918774 0.616408 0.755450
O O11 0.811387 0.719407 0.736341
O O12 0.220443 0.082563 0.500000
O O13 0.209312 0.144832 0.770266
O O14 0.223383 0.000000 0.734646
O O15 0.398892 0.272749 0.500000
O O16 0.500000 0.261010 0.728839
O O17 0.334430 0.234515 0.763086
O O18 0.000000 0.500000 0.238100
O O19 0.000000 0.419637 0.000000
O O20 0.236310 0.229295 0.000000
#
# Coordination Sequence:
#
# PCOD9385140 Si02
#       7
#     8   8   8   8   8   4   8
#     4   8  14  26  47  75 103 131 169 219 267 307
#     4   8  14  25  40  59  86 119 155 200 257 317
#     4  10  20  36  57  81 111 147 186 220 258 314
#     4  10  20  33  50  72  96 124 164 214 265 320
#     4   9  18  32  49  70  98 135 181 229 273 322
#     4  11  23  37  57  91 130 157 180 215 259 309
#     4  11  22  36  54  74 102 140 179 223 277 329
#
# _framework density 18.884649
#
# number of rings (size 3 to 8) (size 9 to 14) (size 15 to 20)
#    0.000    2.538    0.000    4.385    0.000    3.692 
#    0.000    3.077    0.000    4.154    0.000    4.846 
#    0.000    4.308    0.000    0.000    0.000    0.000 
#
# Total GULP energy -289883.598902 kJ/mol
# GULP energy per Si atom -5574.684594 kJ/mol
# Density = 1.884167 g / cm^3
# Si number density = 18.884649 Si / 1000 Ang^3
#
#
#
# Elastic Constant Matrix: (Units=GPa)
#
#
# Indices 1 2 3 4 5 6 
#
# 1 68.2768 26.8890 18.2391 0.0000 0.0000 0.0000
# 2 26.8890 138.9738 17.5867 0.0000 0.0000 0.0000
# 3 18.2391 17.5867 39.1064 0.0000 0.0000 0.0000
# 4 0.0000 0.0000 0.0000 20.9882 0.0000 0.0000
# 5 0.0000 0.0000 0.0000 0.0000 23.4669 0.0000
# 6 0.0000 0.0000 0.0000 0.0000 0.0000 1.8726
#
#
#
# Elastic Compliance Matrix: (Units=1/GPa)
#
#
# Indices 1 2 3 4 5 6 
#
# 1 0.017511 -0.002497 -0.007044 0.000000 0.000000 0.000000
# 2 -0.002497 0.007986 -0.002427 0.000000 0.000000 0.000000
# 3 -0.007044 -0.002427 0.029948 0.000000 0.000000 0.000000
# 4 0.000000 0.000000 0.000000 0.047646 0.000000 0.000000
# 5 0.000000 0.000000 0.000000 0.000000 0.042613 0.000000
# 6 0.000000 0.000000 0.000000 0.000000 0.000000 0.534022
#
#
# Mechanical properties :
#
#
# Convention : Reuss Voigt Hill
#
# Bulk Modulus (GPa) = 31.73669 41.30962 36.52315
# Shear Modulus (GPa) = 7.00118 21.50835 14.25477
#
# Velocity S-wave (km/s) = 1.92753 3.37847 2.75040
# Velocity P-wave (km/s) = 4.66861 6.09434 5.42848
#
# Compressibility (1/GPa) = 0.03150928
#
# Stress axis : x y z
#
# Youngs Moduli (GPa) = 57.10589 125.22264 33.39108
#
# Poissons Ratio (x) = 0.31264 0.23522
# Poissons Ratio (y) = 0.14258 0.08104
# Poissons Ratio (z) = 0.40228 0.30390
#
# Static dielectric constant tensor:
#      x y z
#    x 1.643100 0.000000 0.000000 
#    y 0.000000 1.714840 0.000000 
#    z 0.000000 0.000000 1.650590 
# 
# From -- ./inp_files/9523.got.cif
#   From: 2010.05.17/outbox.cif.g08.bks.cpg/sg47_5_cif.got.tgz:9523.got - 2010.06.03 20:15:42.
