data_PCOD9385994
_publ_section_title
;
Structure prediction by ZEFSAII (Michael W. Deem and Ramdas Pophale) SiO2 
 PCOD9385994
Probable space group: P M M M
;
_chemical_formula_sum "Si O2"
_cell_formula_units_Z 48
_cell_length_a 9.298803
_cell_length_b 7.794582
_cell_length_c 32.123259
_cell_angle_alpha 90.000000
_cell_angle_beta 90.000000
_cell_angle_gamma 90.000000
_cell_volume 2328.302887
_symmetry_space_group_name_H-M "P M M M"
_symmetry_group_IT_number 47
_symmetry_cell_setting 'orthorhombic'
loop_
_space_group_symop_operation_xyz
x,y,z
-x,-y,z
x,-y,-z
-x,y,-z
-x,-y,-z
x,y,-z
-x,y,z
x,-y,z
loop_
_atom_site_type_symbol
_atom_site_label
_atom_site_fract_x
_atom_site_fract_y
_atom_site_fract_z
Si Si1 0.336146 0.293412 0.663617
Si Si2 0.163504 0.705976 0.583080
Si Si3 0.163899 0.793214 0.253082
Si Si4 0.663588 0.204785 0.500000
Si Si5 0.835319 0.205231 0.909950
Si Si6 0.164432 0.704045 0.000000
Si Si7 0.665431 0.789684 0.171193
O O1 0.500000 0.228424 0.664531
O O2 0.342877 0.500000 0.660227
O O3 0.249077 0.228109 0.623433
O O4 0.252322 0.252094 0.705799
O O5 0.154735 0.500000 0.587220
O O6 0.250688 0.741758 0.541148
O O7 0.000000 0.772423 0.581051
O O8 0.245295 0.733015 0.211560
O O9 0.000000 0.729129 0.255236
O O10 0.158083 0.000000 0.250633
O O11 0.500000 0.273355 0.500000
O O12 0.656036 0.000000 0.500000
O O13 0.772044 0.241769 0.955719
O O14 0.741680 0.268482 0.871334
O O15 0.000000 0.273019 0.908310
O O16 0.843963 0.000000 0.905850
O O17 0.157658 0.500000 0.000000
O O18 0.000000 0.775423 0.000000
O O19 0.500000 0.735195 0.173536
O O20 0.665992 0.000000 0.171122
#
# Coordination Sequence:
#
# PCOD9385994 Si02
#       7
#     8   8   8   4   8   4   8
#     4  10  21  37  57  81 109 142 179 218 261 310
#     4  10  21  38  60  83 107 140 182 223 264 313
#     4  10  20  34  54  80 108 139 175 215 261 311
#     4  11  24  39  56  82 114 145 178 219 268 318
#     4   9  16  28  48  71  93 121 161 205 245 291
#     4   9  17  29  46  69  96 124 156 197 246 298
#     4   9  17  30  49  73 100 130 166 209 254 300
#
# _framework density 20.615874999999999
#
# number of rings (size 3 to 8) (size 9 to 14) (size 15 to 20)
#    0.000    2.333    0.000    2.750    0.000    8.333 
#    0.000    1.250    0.000    6.000    0.000    0.000 
#    0.000    0.000    0.000    0.000    0.000    0.000 
#
# Total GULP energy -268050.382195 kJ/mol
# GULP energy per Si atom -5584.382962 kJ/mol
# Density = 2.056895 g / cm^3
# Si number density = 20.615875 Si / 1000 Ang^3
#
#
#
# Elastic Constant Matrix: (Units=GPa)
#
#
# Indices 1 2 3 4 5 6 
#
# 1 202.0559 9.6314 135.1489 0.0000 0.0000 0.0000
# 2 9.6314 26.0475 0.9071 0.0000 0.0000 0.0000
# 3 135.1489 0.9071 242.2655 0.0000 0.0000 0.0000
# 4 0.0000 0.0000 0.0000 27.9322 0.0000 0.0000
# 5 0.0000 0.0000 0.0000 0.0000 115.6656 0.0000
# 6 0.0000 0.0000 0.0000 0.0000 0.0000 14.4810
#
#
#
# Elastic Compliance Matrix: (Units=1/GPa)
#
#
# Indices 1 2 3 4 5 6 
#
# 1 0.008099 -0.002838 -0.004508 0.000000 0.000000 0.000000
# 2 -0.002838 0.039391 0.001436 0.000000 0.000000 0.000000
# 3 -0.004508 0.001436 0.006637 0.000000 0.000000 0.000000
# 4 0.000000 0.000000 0.000000 0.035801 0.000000 0.000000
# 5 0.000000 0.000000 0.000000 0.000000 0.008646 0.000000
# 6 0.000000 0.000000 0.000000 0.000000 0.000000 0.069056
#
#
# Mechanical properties :
#
#
# Convention : Reuss Voigt Hill
#
# Bulk Modulus (GPa) = 23.63657 84.63819 54.13738
# Shear Modulus (GPa) = 25.83280 53.26117 39.54698
#
# Velocity S-wave (km/s) = 3.54369 5.08833 4.38457
# Velocity P-wave (km/s) = 5.31355 8.69859 7.20761
#
# Compressibility (1/GPa) = 0.04230733
#
# Stress axis : x y z
#
# Youngs Moduli (GPa) = 123.46509 25.38664 150.67126
#
# Poissons Ratio (x) = 0.07204 0.67918
# Poissons Ratio (y) = 0.35038 -0.21631
# Poissons Ratio (z) = 0.55654 -0.03645
#
# Static dielectric constant tensor:
#      x y z
#    x 1.723480 0.000000 0.000000 
#    y 0.000000 1.765020 0.000000 
#    z 0.000000 0.000000 1.703690 
# 
# From -- ./inp_files/2550.got.cif
#   From: 2010.05.17/outbox.cif.g08.bks.cpg/sg47_2_cif.got.tgz:2550.got - 2010.06.03 20:15:42.
