data_PCOD9385101
_publ_section_title
;
Structure prediction by ZEFSAII (Michael W. Deem and Ramdas Pophale) SiO2 
 PCOD9385101
Probable space group: P M M M
;
_chemical_formula_sum "Si O2"
_cell_formula_units_Z 52
_cell_length_a 7.836725
_cell_length_b 14.786969
_cell_length_c 25.630725
_cell_angle_alpha 90.000000
_cell_angle_beta 90.000000
_cell_angle_gamma 90.000000
_cell_volume 2970.124543
_symmetry_space_group_name_H-M "P M M M"
_symmetry_group_IT_number 47
_symmetry_cell_setting 'orthorhombic'
loop_
_space_group_symop_operation_xyz
x,y,z
-x,-y,z
x,-y,-z
-x,y,-z
-x,-y,-z
x,y,-z
-x,y,z
x,-y,z
loop_
_atom_site_type_symbol
_atom_site_label
_atom_site_fract_x
_atom_site_fract_y
_atom_site_fract_z
Si Si1 0.000000 0.390304 0.440594
Si Si2 0.205010 0.397436 0.160361
Si Si3 0.798795 0.708088 0.262793
Si Si4 0.705917 0.288432 0.942716
Si Si5 0.307373 0.393439 0.365389
Si Si6 0.293847 0.898898 0.223983
Si Si7 0.291940 0.100172 0.102402
O O1 0.167079 0.364573 0.407625
O O2 0.000000 0.500000 0.442936
O O3 0.000000 0.356815 0.500000
O O4 0.270053 0.500000 0.163358
O O5 0.267207 0.337766 0.209184
O O6 0.246171 0.351885 0.105283
O O7 0.000000 0.400136 0.164398
O O8 0.712052 0.664094 0.312876
O O9 0.773364 0.815197 0.256887
O O10 0.000000 0.688530 0.267467
O O11 0.500000 0.285842 0.943921
O O12 0.766471 0.186402 0.930118
O O13 0.766327 0.317717 0.000000
O O14 0.500000 0.385433 0.385670
O O15 0.277055 0.500000 0.352939
O O16 0.500000 0.896162 0.225181
O O17 0.242679 0.887450 0.163129
O O18 0.240242 0.000000 0.240317
O O19 0.500000 0.099814 0.101014
O O20 0.236016 0.000000 0.085241
#
# Coordination Sequence:
#
# PCOD9385101 Si02
#       7
#     4   8   8   8   8   8   8
#     4   9  18  34  54  78 115 157 194 234 268 301
#     4  10  22  37  51  67  89 125 166 204 255 314
#     4  11  20  32  52  75 104 136 171 221 269 315
#     4  10  20  33  50  71  92 115 153 206 254 304
#     4  10  20  33  52  80 113 151 191 228 271 317
#     4   9  17  30  49  72  99 131 166 205 254 319
#     4   8  14  27  47  69  93 119 149 191 246 310
#
# _framework density 17.507683
#
# number of rings (size 3 to 8) (size 9 to 14) (size 15 to 20)
#    0.000    2.385    2.308    1.846    0.000    3.077 
#    0.000    4.615    0.000    0.462    0.000    1.077 
#    0.000    1.231    0.000    3.231    0.000    0.154 
#
# Total GULP energy -290114.738612 kJ/mol
# GULP energy per Si atom -5579.129589 kJ/mol
# Density = 1.746784 g / cm^3
# Si number density = 17.507683 Si / 1000 Ang^3
#
#
#
# Elastic Constant Matrix: (Units=GPa)
#
#
# Indices 1 2 3 4 5 6 
#
# 1 51.3021 18.4553 32.2204 0.0000 0.0000 0.0000
# 2 18.4553 92.2682 49.4528 0.0000 0.0000 0.0000
# 3 32.2204 49.4528 115.7989 0.0000 0.0000 0.0000
# 4 0.0000 0.0000 0.0000 13.2356 0.0000 0.0000
# 5 0.0000 0.0000 0.0000 0.0000 11.1395 0.0000
# 6 0.0000 0.0000 0.0000 0.0000 0.0000 16.2959
#
#
#
# Elastic Compliance Matrix: (Units=1/GPa)
#
#
# Indices 1 2 3 4 5 6 
#
# 1 0.023794 -0.001570 -0.005950 0.000000 0.000000 0.000000
# 2 -0.001570 0.014159 -0.005610 0.000000 0.000000 0.000000
# 3 -0.005950 -0.005610 0.012687 0.000000 0.000000 0.000000
# 4 0.000000 0.000000 0.000000 0.075554 0.000000 0.000000
# 5 0.000000 0.000000 0.000000 0.000000 0.089770 0.000000
# 6 0.000000 0.000000 0.000000 0.000000 0.000000 0.061365
#
#
# Mechanical properties :
#
#
# Convention : Reuss Voigt Hill
#
# Bulk Modulus (GPa) = 41.01745 51.06957 46.04351
# Shear Modulus (GPa) = 16.04028 18.75026 17.39527
#
# Velocity S-wave (km/s) = 3.03014 3.27612 3.15553
# Velocity P-wave (km/s) = 5.97674 6.59877 6.29544
#
# Compressibility (1/GPa) = 0.02437987
#
# Stress axis : x y z
#
# Youngs Moduli (GPa) = 42.02713 70.62824 78.82166
#
# Poissons Ratio (x) = 0.11090 0.46899
# Poissons Ratio (y) = 0.06599 0.44216
# Poissons Ratio (z) = 0.25006 0.39620
#
# Static dielectric constant tensor:
#      x y z
#    x 1.641900 0.000000 0.000000 
#    y 0.000000 1.597940 0.000000 
#    z 0.000000 0.000000 1.568600 
# 
# From -- ./inp_files/32008.got.cif
#   From: 2010.05.17/outbox.cif.g08.bks.cpg/sg47_17_cif.got.tgz:32008.got - 2010.06.03 20:15:42.
