data_PCOD9385136
_publ_section_title
;
Structure prediction by ZEFSAII (Michael W. Deem and Ramdas Pophale) SiO2 
 PCOD9385136
Probable space group: P M M M
;
_chemical_formula_sum "Si O2"
_cell_formula_units_Z 52
_cell_length_a 7.498233
_cell_length_b 9.589143
_cell_length_c 34.919506
_cell_angle_alpha 90.000000
_cell_angle_beta 90.000000
_cell_angle_gamma 90.000000
_cell_volume 2510.769347
_symmetry_space_group_name_H-M "P M M M"
_symmetry_group_IT_number 47
_symmetry_cell_setting 'orthorhombic'
loop_
_space_group_symop_operation_xyz
x,y,z
-x,-y,z
x,-y,-z
-x,y,-z
-x,-y,-z
x,y,-z
-x,y,z
x,-y,z
loop_
_atom_site_type_symbol
_atom_site_label
_atom_site_fract_x
_atom_site_fract_y
_atom_site_fract_z
Si Si1 0.288609 0.157266 0.231539
Si Si2 0.718820 0.339579 0.696853
Si Si3 0.214380 0.837560 0.541136
Si Si4 0.711019 0.159199 0.374775
Si Si5 0.214755 0.658778 0.841701
Si Si6 0.217353 0.660422 0.927823
Si Si7 0.781599 0.840145 0.000000
O O1 0.500000 0.146022 0.238192
O O2 0.219957 0.254266 0.265859
O O3 0.265319 0.234297 0.191190
O O4 0.215375 0.000000 0.231638
O O5 0.500000 0.341408 0.696890
O O6 0.776337 0.500000 0.697690
O O7 0.779229 0.257844 0.658838
O O8 0.275259 0.777630 0.500000
O O9 0.266289 0.779898 0.582449
O O10 0.000000 0.837354 0.540460
O O11 0.273653 0.000000 0.541722
O O12 0.500000 0.146994 0.368420
O O13 0.784527 0.000000 0.373560
O O14 0.276467 0.500000 0.833374
O O15 0.274848 0.697648 0.884667
O O16 0.000000 0.654405 0.842670
O O17 0.269085 0.500000 0.935102
O O18 0.000000 0.663460 0.927893
O O19 0.277390 0.760021 0.961793
O O20 0.000000 0.837806 0.000000
O O21 0.725662 0.000000 0.000000
#
# Coordination Sequence:
#
# PCOD9385136 Si02
#       7
#     8   8   8   8   8   8   4
#     4  10  20  33  50  72  96 123 157 194 232 279
#     4   9  17  30  48  67  88 117 151 186 226 271
#     4   8  14  25  41  62  89 119 147 175 212 260
#     4   9  16  26  43  67  90 110 139 183 226 260
#     4   9  18  32  49  70  96 125 157 193 234 279
#     4   8  14  25  40  58  84 118 151 184 225 272
#     4   9  15  21  33  57  86 115 150 189 226 268
#
# _framework density 20.710782999999999
#
# number of rings (size 3 to 8) (size 9 to 14) (size 15 to 20)
#    0.000    3.154    0.000    2.538    0.000    4.923 
#    0.000    3.846    0.000    3.692    0.000    3.769 
#    0.000    4.308    0.000    0.000    0.000    0.000 
#
# Total GULP energy -289969.688083 kJ/mol
# GULP energy per Si atom -5576.340155 kJ/mol
# Density = 2.066364 g / cm^3
# Si number density = 20.710783 Si / 1000 Ang^3
#
#
#
# Elastic Constant Matrix: (Units=GPa)
#
#
# Indices 1 2 3 4 5 6 
#
# 1 52.8761 6.1244 0.3474 0.0000 0.0000 0.0000
# 2 6.1244 148.1029 138.3099 0.0000 0.0000 0.0000
# 3 0.3474 138.3099 223.1643 0.0000 0.0000 0.0000
# 4 0.0000 0.0000 0.0000 34.9637 0.0000 0.0000
# 5 0.0000 0.0000 0.0000 0.0000 15.5603 0.0000
# 6 0.0000 0.0000 0.0000 0.0000 0.0000 5.2139
#
#
#
# Elastic Compliance Matrix: (Units=1/GPa)
#
#
# Indices 1 2 3 4 5 6 
#
# 1 0.019115 -0.001811 0.001092 0.000000 0.000000 0.000000
# 2 -0.001811 0.016202 -0.010038 0.000000 0.000000 0.000000
# 3 0.001092 -0.010038 0.010701 0.000000 0.000000 0.000000
# 4 0.000000 0.000000 0.000000 0.028601 0.000000 0.000000
# 5 0.000000 0.000000 0.000000 0.000000 0.064266 0.000000
# 6 0.000000 0.000000 0.000000 0.000000 0.000000 0.191796
#
#
# Mechanical properties :
#
#
# Convention : Reuss Voigt Hill
#
# Bulk Modulus (GPa) = 40.80994 79.30075 60.05534
# Shear Modulus (GPa) = 13.87498 29.77168 21.82333
#
# Velocity S-wave (km/s) = 2.59113 3.79555 3.24962
# Velocity P-wave (km/s) = 5.35718 7.58821 6.56812
#
# Compressibility (1/GPa) = 0.02450384
#
# Stress axis : x y z
#
# Youngs Moduli (GPa) = 52.31579 61.72264 93.45149
#
# Poissons Ratio (x) = 0.11176 -0.10209
# Poissons Ratio (y) = 0.09472 0.93810
# Poissons Ratio (z) = -0.05715 0.61959
#
# Static dielectric constant tensor:
#      x y z
#    x 1.813850 0.000000 0.000000 
#    y 0.000000 1.707450 0.000000 
#    z 0.000000 0.000000 1.742400 
# 
# From -- ./inp_files/34525.got.cif
#   From: 2010.05.17/outbox.cif.g08.bks.cpg/sg47_18_cif.got.tgz:34525.got - 2010.06.03 20:15:42.
