data_PCOD9385253
_publ_section_title
;
Structure prediction by ZEFSAII (Michael W. Deem and Ramdas Pophale) SiO2 
 PCOD9385253
Probable space group: P M M M
;
_chemical_formula_sum "Si O2"
_cell_formula_units_Z 44
_cell_length_a 31.104956
_cell_length_b 9.495484
_cell_length_c 7.843194
_cell_angle_alpha 90.000000
_cell_angle_beta 90.000000
_cell_angle_gamma 90.000000
_cell_volume 2316.539207
_symmetry_space_group_name_H-M "P M M M"
_symmetry_group_IT_number 47
_symmetry_cell_setting 'orthorhombic'
loop_
_space_group_symop_operation_xyz
x,y,z
-x,-y,z
x,-y,-z
-x,y,-z
-x,-y,-z
x,y,-z
-x,y,z
x,-y,z
loop_
_atom_site_type_symbol
_atom_site_label
_atom_site_fract_x
_atom_site_fract_y
_atom_site_fract_z
Si Si1 0.795448 0.663275 0.706471
Si Si2 0.890939 0.671437 0.810490
Si Si3 0.548445 0.839141 0.794228
Si Si4 0.630592 0.659018 0.295932
Si Si5 0.712147 0.161775 0.708854
Si Si6 0.049440 0.672220 0.500000
O O1 0.797414 0.664962 0.500000
O O2 0.788826 0.500000 0.758112
O O3 0.841756 0.712797 0.772639
O O4 0.755553 0.758376 0.761407
O O5 0.890671 0.500000 0.804826
O O6 0.923866 0.718381 0.665682
O O7 0.903627 0.715207 0.000000
O O8 0.500000 0.801447 0.737449
O O9 0.585488 0.734649 0.737625
O O10 0.557388 0.000000 0.737287
O O11 0.548112 0.840231 0.000000
O O12 0.635881 0.650718 0.500000
O O13 0.631574 0.500000 0.227732
O O14 0.670177 0.753333 0.231750
O O15 0.711808 0.161888 0.500000
O O16 0.711135 0.000000 0.764261
O O17 0.049292 0.500000 0.500000
O O18 0.000000 0.717744 0.500000
#
# Coordination Sequence:
#
# PCOD9385253 Si02
#       6
#     8   8   8   8   8   4
#     4   9  15  26  45  65  89 124 163 201 245 299
#     4   9  16  26  41  63  92 127 167 209 253 302
#     4   9  19  36  55  73  95 127 167 209 256 309
#     4  10  20  33  50  75 105 134 167 207 251 301
#     4   9  17  29  47  71  97 127 164 204 247 297
#     4   9  16  26  40  62  95 133 171 209 252 303
#
# _framework density 18.993849999999998
#
# number of rings (size 3 to 8) (size 9 to 14) (size 15 to 20)
#    0.000    2.818    0.909    1.636    0.000    4.727 
#    0.000    5.455    0.000    3.818    0.000    0.000 
#    0.000    1.455    0.000    1.636    0.000    1.818 
#
# Total GULP energy -245449.271663 kJ/mol
# GULP energy per Si atom -5578.392538 kJ/mol
# Density = 1.895062 g / cm^3
# Si number density = 18.993850 Si / 1000 Ang^3
#
#
#
# Elastic Constant Matrix: (Units=GPa)
#
#
# Indices 1 2 3 4 5 6 
#
# 1 186.6349 91.1109 49.8899 0.0000 0.0000 0.0000
# 2 91.1109 97.0833 28.2821 0.0000 0.0000 0.0000
# 3 49.8899 28.2821 56.7669 0.0000 0.0000 0.0000
# 4 0.0000 0.0000 0.0000 8.6595 0.0000 0.0000
# 5 0.0000 0.0000 0.0000 0.0000 -48.3383 0.0000
# 6 0.0000 0.0000 0.0000 0.0000 0.0000 -17.1683
#
#
#
# Elastic Compliance Matrix: (Units=1/GPa)
#
#
# Indices 1 2 3 4 5 6 
#
# 1 0.011124 -0.008881 -0.005352 0.000000 0.000000 0.000000
# 2 -0.008881 0.019139 -0.001731 0.000000 0.000000 0.000000
# 3 -0.005352 -0.001731 0.023182 0.000000 0.000000 0.000000
# 4 0.000000 0.000000 0.000000 0.115480 0.000000 0.000000
# 5 0.000000 0.000000 0.000000 0.000000 -0.020688 0.000000
# 6 0.000000 0.000000 0.000000 0.000000 0.000000 -0.058247
#
#
# Mechanical properties :
#
#
# Convention : Reuss Voigt Hill
#
# Bulk Modulus (GPa) = 46.47186 75.45012 60.96099
# Shear Modulus (GPa) = 38.73315 0.04408 19.38861
#
# Velocity S-wave (km/s) = 4.52070 0.15250 3.19844
# Velocity P-wave (km/s) = 7.19506 6.31195 6.76792
#
# Compressibility (1/GPa) = 0.02151840
#
# Stress axis : x y z
#
# Youngs Moduli (GPa) = 89.89603 52.24996 43.13754
#
# Poissons Ratio (x) = 0.46401 0.23087
# Poissons Ratio (y) = 0.79832 0.07465
# Poissons Ratio (z) = 0.48112 0.09042
#
# Static dielectric constant tensor:
#      x y z
#    x 1.632160 0.000000 0.000000 
#    y 0.000000 1.637140 0.000000 
#    z 0.000000 0.000000 1.690980 
# 
# From -- ./inp_files/2130.got.cif
#   From: 2010.05.17/outbox.cif.g08.bks.cpg/sg47_2_cif.got.tgz:2130.got - 2010.06.03 20:15:42.
