data_PCOD9385443
_publ_section_title
;
Structure prediction by ZEFSAII (Michael W. Deem and Ramdas Pophale) SiO2 
 PCOD9385443
Probable space group: P M M M
;
_chemical_formula_sum "Si O2"
_cell_formula_units_Z 44
_cell_length_a 9.534630
_cell_length_b 29.363061
_cell_length_c 8.875808
_cell_angle_alpha 90.000000
_cell_angle_beta 90.000000
_cell_angle_gamma 90.000000
_cell_volume 2484.923773
_symmetry_space_group_name_H-M "P M M M"
_symmetry_group_IT_number 47
_symmetry_cell_setting 'orthorhombic'
loop_
_space_group_symop_operation_xyz
x,y,z
-x,-y,z
x,-y,-z
-x,y,-z
-x,-y,-z
x,y,-z
-x,y,z
x,-y,z
loop_
_atom_site_type_symbol
_atom_site_label
_atom_site_fract_x
_atom_site_fract_y
_atom_site_fract_z
Si Si1 0.161131 0.413355 0.183471
Si Si2 0.834363 0.310294 0.818789
Si Si3 0.829890 0.050171 0.323802
Si Si4 0.663124 0.772407 0.319588
Si Si5 0.660905 0.500000 0.815650
Si Si6 0.165157 0.144646 0.820402
O O1 0.202424 0.362078 0.227975
O O2 0.259392 0.454351 0.234314
O O3 0.000000 0.421316 0.229557
O O4 0.162004 0.413486 0.000000
O O5 0.740331 0.272488 0.741279
O O6 0.000000 0.303301 0.785989
O O7 0.818779 0.306940 0.000000
O O8 0.792417 0.055227 0.500000
O O9 0.785986 0.094564 0.232416
O O10 0.000000 0.049325 0.316401
O O11 0.781245 0.000000 0.271720
O O12 0.669902 0.773205 0.500000
O O13 0.500000 0.772825 0.273537
O O14 0.744112 0.816090 0.255178
O O15 0.500000 0.500000 0.768461
O O16 0.663789 0.500000 0.000000
O O17 0.000000 0.149798 0.778167
O O18 0.174094 0.148262 0.000000
#
# Coordination Sequence:
#
# PCOD9385443 Si02
#       6
#     8   8   8   8   4   8
#     4   8  14  25  41  62  91 125 157 193 239 288
#     4   9  18  33  53  76  99 125 162 206 251 299
#     4   8  14  26  46  73 104 136 168 202 242 288
#     4  11  24  38  51  70  97 130 167 205 248 300
#     4   9  15  21  33  59  94 129 164 197 230 276
#     4  10  20  33  52  78 104 131 165 205 249 296
#
# _framework density 17.706779000000001
#
# number of rings (size 3 to 8) (size 9 to 14) (size 15 to 20)
#    0.000    2.818    0.000    3.545    0.000    7.273 
#    0.000    3.636    0.000    0.545    0.000    4.455 
#    0.000    5.091    0.000    0.000    0.000    0.000 
#
# Total GULP energy -245284.570540 kJ/mol
# GULP energy per Si atom -5574.649330 kJ/mol
# Density = 1.766648 g / cm^3
# Si number density = 17.706779 Si / 1000 Ang^3
#
#
#
# Elastic Constant Matrix: (Units=GPa)
#
#
# Indices 1 2 3 4 5 6 
#
# 1 93.3091 109.4076 39.0628 0.0000 0.0000 0.0000
# 2 109.4076 201.0296 48.9431 0.0000 0.0000 0.0000
# 3 39.0628 48.9431 25.3998 0.0000 0.0000 0.0000
# 4 0.0000 0.0000 0.0000 -486.9381 0.0000 0.0000
# 5 0.0000 0.0000 0.0000 0.0000 18.2591 0.0000
# 6 0.0000 0.0000 0.0000 0.0000 0.0000 -6.7931
#
#
#
# Elastic Compliance Matrix: (Units=1/GPa)
#
#
# Indices 1 2 3 4 5 6 
#
# 1 0.044815 -0.014335 -0.041299 0.000000 0.000000 0.000000
# 2 -0.014335 0.013956 -0.004845 0.000000 0.000000 0.000000
# 3 -0.041299 -0.004845 0.112221 0.000000 0.000000 0.000000
# 4 0.000000 0.000000 0.000000 -0.002054 0.000000 0.000000
# 5 0.000000 0.000000 0.000000 0.000000 0.054767 0.000000
# 6 0.000000 0.000000 0.000000 0.000000 0.000000 -0.147209
#
#
# Mechanical properties :
#
#
# Convention : Reuss Voigt Hill
#
# Bulk Modulus (GPa) = 19.98681 79.39617 49.69149
# Shear Modulus (GPa) = 23.35004 -86.93940 -31.79468
#
# Velocity S-wave (km/s) = 3.63534 -7.01471 -4.24208
# Velocity P-wave (km/s) = 5.37895 4.54658 2.03245
#
# Compressibility (1/GPa) = 0.05003301
#
# Stress axis : x y z
#
# Youngs Moduli (GPa) = 22.31409 71.65567 8.91097
#
# Poissons Ratio (x) = 1.02719 0.36802
# Poissons Ratio (y) = 0.31987 0.04317
# Poissons Ratio (z) = 0.92155 0.34718
#
# Static dielectric constant tensor:
#      x y z
#    x 1.584210 0.000000 0.000000 
#    y 0.000000 1.607710 0.000000 
#    z 0.000000 0.000000 1.594500 
# 
# From -- ./inp_files/1961.got.cif
#   From: 2010.05.17/outbox.cif.g08.bks.cpg/sg47_1_cif.got.tgz:1961.got - 2010.06.03 20:15:42.
