data_PCOD9385531
_publ_section_title
;
Structure prediction by ZEFSAII (Michael W. Deem and Ramdas Pophale) SiO2 
 PCOD9385531
Probable space group: P M M M
;
_chemical_formula_sum "Si O2"
_cell_formula_units_Z 56
_cell_length_a 7.972882
_cell_length_b 15.685212
_cell_length_c 23.384681
_cell_angle_alpha 90.000000
_cell_angle_beta 90.000000
_cell_angle_gamma 90.000000
_cell_volume 2924.402721
_symmetry_space_group_name_H-M "P M M M"
_symmetry_group_IT_number 47
_symmetry_cell_setting 'orthorhombic'
loop_
_space_group_symop_operation_xyz
x,y,z
-x,-y,z
x,-y,-z
-x,y,-z
-x,-y,-z
x,y,-z
-x,y,z
x,-y,z
loop_
_atom_site_type_symbol
_atom_site_label
_atom_site_fract_x
_atom_site_fract_y
_atom_site_fract_z
Si Si1 0.196271 0.403269 0.249162
Si Si2 0.694339 0.338777 0.371135
Si Si3 0.702344 0.169492 0.434674
Si Si4 0.199528 0.777055 0.224801
Si Si5 0.809469 0.500000 0.432932
Si Si6 0.302275 0.902312 0.125402
Si Si7 0.201991 0.092761 0.319581
Si Si8 0.805608 0.897147 0.000000
O O1 0.268085 0.500000 0.243939
O O2 0.212575 0.370223 0.314361
O O3 0.268174 0.319272 0.217067
O O4 0.000000 0.410868 0.234313
O O5 0.500000 0.322954 0.356230
O O6 0.763325 0.257517 0.405385
O O7 0.710882 0.417617 0.413224
O O8 0.762972 0.157211 0.500000
O O9 0.500000 0.173362 0.437711
O O10 0.749872 0.102200 0.385920
O O11 0.225157 0.838055 0.170872
O O12 0.266910 0.829422 0.280200
O O13 0.000000 0.767460 0.233932
O O14 0.823799 0.500000 0.500000
O O15 0.000000 0.500000 0.408379
O O16 0.500000 0.905603 0.135918
O O17 0.273244 0.871409 0.060346
O O18 0.235396 0.000000 0.130783
O O19 0.000000 0.094509 0.315954
O O20 0.259657 0.000000 0.297763
O O21 0.000000 0.873107 0.000000
O O22 0.792312 0.000000 0.000000
#
# Coordination Sequence:
#
# PCOD9385531 Si02
#       8
#     8   8   8   8   4   8   8   4
#     4  10  20  35  56  79 104 134 172 216 265 321
#     4  11  21  34  53  74  97 124 159 208 264 323
#     4  10  22  38  53  70  95 128 166 210 265 328
#     4  10  20  35  55  78 108 143 179 220 265 319
#     4  11  23  35  49  71  97 125 159 200 253 322
#     4  10  20  33  52  82 119 155 190 227 264 305
#     4  10  21  36  54  76 100 130 173 221 265 314
#     4   9  17  31  53  81 116 157 194 225 261 308
#
# _framework density 19.149208000000002
#
# number of rings (size 3 to 8) (size 9 to 14) (size 15 to 20)
#    0.000    1.857    2.143    2.143    0.000    6.000 
#    0.000    1.429    0.000    0.000    0.000    0.500 
#    0.000    4.000    0.000    0.000    0.000    0.000 
#
# Total GULP energy -312212.519872 kJ/mol
# GULP energy per Si atom -5575.223569 kJ/mol
# Density = 1.910562 g / cm^3
# Si number density = 19.149208 Si / 1000 Ang^3
#
#
#
# Elastic Constant Matrix: (Units=GPa)
#
#
# Indices 1 2 3 4 5 6 
#
# 1 13.9996 3.7022 5.9469 0.0000 0.0000 0.0000
# 2 3.7022 138.5293 60.2250 0.0000 0.0000 0.0000
# 3 5.9469 60.2250 74.1761 0.0000 0.0000 0.0000
# 4 0.0000 0.0000 0.0000 32.6421 0.0000 0.0000
# 5 0.0000 0.0000 0.0000 0.0000 40.1679 0.0000
# 6 0.0000 0.0000 0.0000 0.0000 0.0000 15.8373
#
#
#
# Elastic Compliance Matrix: (Units=1/GPa)
#
#
# Indices 1 2 3 4 5 6 
#
# 1 0.074027 0.000930 -0.006690 0.000000 0.000000 0.000000
# 2 0.000930 0.011168 -0.009142 0.000000 0.000000 0.000000
# 3 -0.006690 -0.009142 0.021441 0.000000 0.000000 0.000000
# 4 0.000000 0.000000 0.000000 0.030635 0.000000 0.000000
# 5 0.000000 0.000000 0.000000 0.000000 0.024896 0.000000
# 6 0.000000 0.000000 0.000000 0.000000 0.000000 0.063142
#
#
# Mechanical properties :
#
#
# Convention : Reuss Voigt Hill
#
# Bulk Modulus (GPa) = 13.01559 40.71701 26.86630
# Shear Modulus (GPa) = 17.81110 28.18485 22.99798
#
# Velocity S-wave (km/s) = 3.05310 3.84064 3.46929
# Velocity P-wave (km/s) = 4.38637 6.40129 5.48711
#
# Compressibility (1/GPa) = 0.07683096
#
# Stress axis : x y z
#
# Youngs Moduli (GPa) = 13.50867 89.53764 46.64013
#
# Poissons Ratio (x) = -0.08328 0.31203
# Poissons Ratio (y) = -0.01256 0.42641
# Poissons Ratio (z) = 0.09037 0.81860
#
# Static dielectric constant tensor:
#      x y z
#    x 1.698760 0.000000 0.000000 
#    y 0.000000 1.725660 0.000000 
#    z 0.000000 0.000000 1.659760 
# 
# From -- ./inp_files/29765.got.cif
#   From: 2010.05.17/outbox.cif.g08.bks.cpg/sg47_15_cif.got.tgz:29765.got - 2010.06.03 20:15:42.
