data_PCOD9385881
_publ_section_title
;
Structure prediction by ZEFSAII (Michael W. Deem and Ramdas Pophale) SiO2 
 PCOD9385881
Probable space group: P M M M
;
_chemical_formula_sum "Si O2"
_cell_formula_units_Z 52
_cell_length_a 22.565006
_cell_length_b 15.121347
_cell_length_c 8.722927
_cell_angle_alpha 90.000000
_cell_angle_beta 90.000000
_cell_angle_gamma 90.000000
_cell_volume 2976.378583
_symmetry_space_group_name_H-M "P M M M"
_symmetry_group_IT_number 47
_symmetry_cell_setting 'orthorhombic'
loop_
_space_group_symop_operation_xyz
x,y,z
-x,-y,z
x,-y,-z
-x,y,-z
-x,-y,-z
x,y,-z
-x,y,z
x,-y,z
loop_
_atom_site_type_symbol
_atom_site_label
_atom_site_fract_x
_atom_site_fract_y
_atom_site_fract_z
Si Si1 0.071346 0.000000 0.173694
Si Si2 0.144443 0.341635 0.183519
Si Si3 0.068162 0.500000 0.683634
Si Si4 0.500000 0.604349 0.315544
Si Si5 0.429763 0.100419 0.684618
Si Si6 0.389725 0.715248 0.815460
Si Si7 0.275786 0.397836 0.186580
Si Si8 0.930806 0.813584 0.317188
O O1 0.085854 0.087982 0.265779
O O2 0.000000 0.000000 0.162450
O O3 0.095089 0.000000 0.000000
O O4 0.102238 0.416044 0.252546
O O5 0.211704 0.360997 0.234784
O O6 0.115486 0.251206 0.238696
O O7 0.143591 0.346660 0.000000
O O8 0.069662 0.500000 0.500000
O O9 0.000000 0.500000 0.733203
O O10 0.500000 0.500000 0.272748
O O11 0.500000 0.610012 0.500000
O O12 0.556896 0.655943 0.250746
O O13 0.424312 0.105492 0.500000
O O14 0.500000 0.109478 0.720856
O O15 0.396589 0.183895 0.757764
O O16 0.411729 0.000000 0.730966
O O17 0.328939 0.666806 0.766719
O O18 0.392995 0.714956 0.000000
O O19 0.283609 0.500000 0.237597
O O20 0.276023 0.399781 0.000000
O O21 0.928567 0.804118 0.500000
O O22 0.000000 0.796313 0.270658
#
# Coordination Sequence:
#
# PCOD9385881 Si02
#       8
#     4   8   4   4   8   8   8   8
#     4   9  17  31  53  81 109 139 181 224 265 326
#     4  11  21  36  58  79 105 144 190 231 269 324
#     4  11  23  37  53  79 115 146 177 228 287 333
#     4  11  23  37  52  77 116 151 183 226 272 321
#     4   9  18  34  56  81 114 151 180 217 274 331
#     4  11  21  34  58  86 111 142 183 230 278 325
#     4   9  19  37  57  78 107 144 183 227 275 323
#     4  10  20  34  53  80 114 145 173 218 280 333
#
# _framework density 17.470896
#
# number of rings (size 3 to 8) (size 9 to 14) (size 15 to 20)
#    0.000    1.923    1.538    3.462    0.000    5.846 
#    0.000    3.846    1.692    0.000    0.000    0.000 
#    0.000    0.000    0.000    0.000    0.000    0.000 
#
# Total GULP energy -290170.148657 kJ/mol
# GULP energy per Si atom -5580.195166 kJ/mol
# Density = 1.743113 g / cm^3
# Si number density = 17.470896 Si / 1000 Ang^3
#
#
#
# Elastic Constant Matrix: (Units=GPa)
#
#
# Indices 1 2 3 4 5 6 
#
# 1 146.3681 94.6255 37.8741 0.0000 0.0000 0.0000
# 2 94.6255 174.2057 33.7309 0.0000 0.0000 0.0000
# 3 37.8741 33.7309 40.4999 0.0000 0.0000 0.0000
# 4 0.0000 0.0000 0.0000 34.2110 0.0000 0.0000
# 5 0.0000 0.0000 0.0000 0.0000 -29.7881 0.0000
# 6 0.0000 0.0000 0.0000 0.0000 0.0000 53.5625
#
#
#
# Elastic Compliance Matrix: (Units=1/GPa)
#
#
# Indices 1 2 3 4 5 6 
#
# 1 0.011945 -0.005157 -0.006876 0.000000 0.000000 0.000000
# 2 -0.005157 0.009071 -0.002732 0.000000 0.000000 0.000000
# 3 -0.006876 -0.002732 0.033396 0.000000 0.000000 0.000000
# 4 0.000000 0.000000 0.000000 0.029230 0.000000 0.000000
# 5 0.000000 0.000000 0.000000 0.000000 -0.033571 0.000000
# 6 0.000000 0.000000 0.000000 0.000000 0.000000 0.018670
#
#
# Mechanical properties :
#
#
# Convention : Reuss Voigt Hill
#
# Bulk Modulus (GPa) = 40.18770 77.05941 58.62355
# Shear Modulus (GPa) = 46.91963 24.58664 35.75313
#
# Velocity S-wave (km/s) = 5.18789 3.75546 4.52867
# Velocity P-wave (km/s) = 7.67712 7.93774 7.80852
#
# Compressibility (1/GPa) = 0.02488324
#
# Stress axis : x y z
#
# Youngs Moduli (GPa) = 83.71515 110.24678 29.94337
#
# Poissons Ratio (x) = 0.56856 0.20588
# Poissons Ratio (y) = 0.43173 0.08180
# Poissons Ratio (z) = 0.57559 0.30117
#
# Static dielectric constant tensor:
#      x y z
#    x 1.576830 0.000000 0.000000 
#    y 0.000000 1.638190 0.000000 
#    z 0.000000 0.000000 1.591970 
# 
# From -- ./inp_files/11177.got.cif
#   From: 2010.05.17/outbox.cif.g08.bks.cpg/sg47_6_cif.got.tgz:11177.got - 2010.06.03 20:15:42.
