data_PCOD9385975
_publ_section_title
;
Structure prediction by ZEFSAII (Michael W. Deem and Ramdas Pophale) SiO2 
 PCOD9385975
Probable space group: P M M M
;
_chemical_formula_sum "Si O2"
_cell_formula_units_Z 40
_cell_length_a 8.739929
_cell_length_b 9.342364
_cell_length_c 26.780127
_cell_angle_alpha 90.000000
_cell_angle_beta 90.000000
_cell_angle_gamma 90.000000
_cell_volume 2186.640166
_symmetry_space_group_name_H-M "P M M M"
_symmetry_group_IT_number 47
_symmetry_cell_setting 'orthorhombic'
loop_
_space_group_symop_operation_xyz
x,y,z
-x,-y,z
x,-y,-z
-x,y,-z
-x,-y,-z
x,y,-z
-x,y,z
x,-y,z
loop_
_atom_site_type_symbol
_atom_site_label
_atom_site_fract_x
_atom_site_fract_y
_atom_site_fract_z
Si Si1 0.183538 0.833587 0.500000
Si Si2 0.313101 0.165570 0.097964
Si Si3 0.312979 0.664289 0.000000
Si Si4 0.683075 0.666493 0.594578
Si Si5 0.181744 0.831432 0.687892
Si Si6 0.323176 0.174009 0.207419
O O1 0.244933 0.753698 0.451130
O O2 0.000000 0.829479 0.500000
O O3 0.231751 0.000000 0.500000
O O4 0.500000 0.166483 0.099099
O O5 0.265326 0.220747 0.152786
O O6 0.266435 0.000000 0.091968
O O7 0.262961 0.256146 0.050411
O O8 0.265558 0.500000 0.000000
O O9 0.500000 0.668299 0.000000
O O10 0.500000 0.672787 0.590626
O O11 0.730031 0.500000 0.592549
O O12 0.735620 0.738563 0.646081
O O13 0.228906 0.785506 0.743761
O O14 0.000000 0.820339 0.681583
O O15 0.224053 0.000000 0.682296
O O16 0.500000 0.218915 0.213780
O O17 0.322737 0.000000 0.204951
#
# Coordination Sequence:
#
# PCOD9385975 Si02
#       6
#     4   8   4   8   8   8
#     4  11  24  41  62  88 114 141 176 215 256 304
#     4   8  13  22  37  56  80 115 157 195 235 290
#     4   9  15  21  31  53  86 117 144 186 246 299
#     4  11  24  40  58  82 111 143 179 216 255 301
#     4  10  20  34  54  80 107 136 172 213 258 309
#     4   8  14  26  45  68  94 126 164 205 248 295
#
# _framework density 18.292905000000001
#
# number of rings (size 3 to 8) (size 9 to 14) (size 15 to 20)
#    0.000    2.600    0.000    3.900    0.000    8.400 
#    0.000    1.000    0.000    3.600    0.000    0.700 
#    0.000    5.600    0.000    0.000    0.000    0.000 
#
# Total GULP energy -223105.781458 kJ/mol
# GULP energy per Si atom -5577.644536 kJ/mol
# Density = 1.825127 g / cm^3
# Si number density = 18.292905 Si / 1000 Ang^3
#
#
#
# Elastic Constant Matrix: (Units=GPa)
#
#
# Indices 1 2 3 4 5 6 
#
# 1 25.5499 33.4027 31.6809 0.0000 0.0000 0.0000
# 2 33.4027 107.5779 88.3543 0.0000 0.0000 0.0000
# 3 31.6809 88.3543 182.4266 0.0000 0.0000 0.0000
# 4 0.0000 0.0000 0.0000 -12.1370 0.0000 0.0000
# 5 0.0000 0.0000 0.0000 0.0000 -50.6248 0.0000
# 6 0.0000 0.0000 0.0000 0.0000 0.0000 15.2109
#
#
#
# Elastic Compliance Matrix: (Units=1/GPa)
#
#
# Indices 1 2 3 4 5 6 
#
# 1 0.066604 -0.018566 -0.002575 0.000000 0.000000 0.000000
# 2 -0.018566 0.020611 -0.006758 0.000000 0.000000 0.000000
# 3 -0.002575 -0.006758 0.009202 0.000000 0.000000 0.000000
# 4 0.000000 0.000000 0.000000 -0.082393 0.000000 0.000000
# 5 0.000000 0.000000 0.000000 0.000000 -0.019753 0.000000
# 6 0.000000 0.000000 0.000000 0.000000 0.000000 0.065742
#
#
# Mechanical properties :
#
#
# Convention : Reuss Voigt Hill
#
# Bulk Modulus (GPa) = 24.61892 69.15892 46.88892
# Shear Modulus (GPa) = 38.65494 1.29758 19.97626
#
# Velocity S-wave (km/s) = 4.60185 0.84313 3.30816
# Velocity P-wave (km/s) = 6.45936 6.23188 6.34664
#
# Compressibility (1/GPa) = 0.04061916
#
# Stress axis : x y z
#
# Youngs Moduli (GPa) = 15.01419 48.51851 108.67238
#
# Poissons Ratio (x) = 0.90078 0.27981
# Poissons Ratio (y) = 0.27875 0.73442
# Poissons Ratio (z) = 0.03866 0.32790
#
# Static dielectric constant tensor:
#      x y z
#    x 1.613430 0.000000 0.000000 
#    y 0.000000 1.612480 0.000000 
#    z 0.000000 0.000000 1.630400 
# 
# From -- ./inp_files/33033.got.cif
#   From: 2010.05.17/outbox.cif.g08.bks.cpg/sg47_17_cif.got.tgz:33033.got - 2010.06.03 20:15:42.
