data_PCOD9385991
_publ_section_title
;
Structure prediction by ZEFSAII (Michael W. Deem and Ramdas Pophale) SiO2 
 PCOD9385991
Probable space group: P M M M
;
_chemical_formula_sum "Si O2"
_cell_formula_units_Z 48
_cell_length_a 7.801864
_cell_length_b 32.125222
_cell_length_c 9.298164
_cell_angle_alpha 90.000000
_cell_angle_beta 90.000000
_cell_angle_gamma 90.000000
_cell_volume 2330.460332
_symmetry_space_group_name_H-M "P M M M"
_symmetry_group_IT_number 47
_symmetry_cell_setting 'orthorhombic'
loop_
_space_group_symop_operation_xyz
x,y,z
-x,-y,z
x,-y,-z
-x,y,-z
-x,-y,-z
x,y,-z
-x,y,z
x,-y,z
loop_
_atom_site_type_symbol
_atom_site_label
_atom_site_fract_x
_atom_site_fract_y
_atom_site_fract_z
Si Si1 0.203923 0.000000 0.664553
Si Si2 0.789963 0.664710 0.834068
Si Si3 0.705159 0.090046 0.335294
Si Si4 0.293337 0.829768 0.836742
Si Si5 0.205732 0.416946 0.663580
Si Si6 0.704511 0.500000 0.163519
Si Si7 0.206450 0.746659 0.336076
O O1 0.258460 0.955737 0.727945
O O2 0.274830 0.000000 0.500000
O O3 0.000000 0.000000 0.658093
O O4 0.731728 0.623604 0.749411
O O5 0.733060 0.706417 0.752511
O O6 0.000000 0.664606 0.834035
O O7 0.735363 0.664252 0.000000
O O8 0.772805 0.091707 0.500000
O O9 0.500000 0.094161 0.343703
O O10 0.771088 0.128485 0.241845
O O11 0.500000 0.832660 0.842995
O O12 0.250581 0.789075 0.745107
O O13 0.228896 0.826229 0.000000
O O14 0.272051 0.418863 0.500000
O O15 0.242394 0.458851 0.750608
O O16 0.000000 0.412973 0.654908
O O17 0.500000 0.500000 0.155638
O O18 0.773414 0.500000 0.000000
O O19 0.270926 0.746731 0.500000
O O20 0.000000 0.743830 0.341960
#
# Coordination Sequence:
#
# PCOD9385991 Si02
#       7
#     4   8   8   8   8   4   8
#     4   9  17  29  48  75 102 126 160 209 258 303
#     4   9  17  31  53  80 109 140 173 212 259 309
#     4   9  17  31  51  72  96 130 170 209 252 304
#     4  10  21  36  53  75 104 138 176 217 260 307
#     4  10  20  35  57  83 108 137 177 221 262 310
#     4  11  24  39  54  76 108 143 178 219 268 318
#     4  10  20  34  54  80 108 138 173 214 260 309
#
# _framework density 20.596789000000001
#
# number of rings (size 3 to 8) (size 9 to 14) (size 15 to 20)
#    0.000    2.333    0.000    2.750    0.000    8.333 
#    0.000    2.917    0.000    7.500    0.000    0.000 
#    0.000    0.000    0.000    0.000    0.000    0.000 
#
# Total GULP energy -268049.517115 kJ/mol
# GULP energy per Si atom -5584.364940 kJ/mol
# Density = 2.054991 g / cm^3
# Si number density = 20.596789 Si / 1000 Ang^3
#
#
#
# Elastic Constant Matrix: (Units=GPa)
#
#
# Indices 1 2 3 4 5 6 
#
# 1 25.3951 0.9909 9.0256 0.0000 0.0000 0.0000
# 2 0.9909 243.0203 135.3107 0.0000 0.0000 0.0000
# 3 9.0256 135.3107 202.0051 0.0000 0.0000 0.0000
# 4 0.0000 0.0000 0.0000 -127.5825 0.0000 0.0000
# 5 0.0000 0.0000 0.0000 0.0000 13.0883 0.0000
# 6 0.0000 0.0000 0.0000 0.0000 0.0000 29.7035
#
#
#
# Elastic Compliance Matrix: (Units=1/GPa)
#
#
# Indices 1 2 3 4 5 6 
#
# 1 0.040283 0.001336 -0.002695 0.000000 0.000000 0.000000
# 2 0.001336 0.006607 -0.004485 0.000000 0.000000 0.000000
# 3 -0.002695 -0.004485 0.008075 0.000000 0.000000 0.000000
# 4 0.000000 0.000000 0.000000 -0.007838 0.000000 0.000000
# 5 0.000000 0.000000 0.000000 0.000000 0.076404 0.000000
# 6 0.000000 0.000000 0.000000 0.000000 0.000000 0.033666
#
#
# Mechanical properties :
#
#
# Convention : Reuss Voigt Hill
#
# Bulk Modulus (GPa) = 23.10666 84.56387 53.83527
# Shear Modulus (GPa) = 27.27608 4.71474 15.99541
#
# Velocity S-wave (km/s) = 3.64302 1.51461 2.78977
# Velocity P-wave (km/s) = 5.37945 6.64866 6.04744
#
# Compressibility (1/GPa) = 0.04327757
#
# Stress axis : x y z
#
# Youngs Moduli (GPa) = 24.82413 151.36171 123.83775
#
# Poissons Ratio (x) = -0.20226 0.33373
# Poissons Ratio (y) = -0.03317 0.55543
# Poissons Ratio (z) = 0.06690 0.67887
#
# Static dielectric constant tensor:
#      x y z
#    x 1.761870 0.000000 0.000000 
#    y 0.000000 1.703920 0.000000 
#    z 0.000000 0.000000 1.725510 
# 
# From -- ./inp_files/2780.got.cif
#   From: 2010.05.17/outbox.cif.g08.bks.cpg/sg47_2_cif.got.tgz:2780.got - 2010.06.03 20:15:42.
