data_PCOD9385880
_publ_section_title
;
Structure prediction by ZEFSAII (Michael W. Deem and Ramdas Pophale) SiO2 
 PCOD9385880
Probable space group: P M M M
;
_chemical_formula_sum "Si O2"
_cell_formula_units_Z 48
_cell_length_a 14.625578
_cell_length_b 12.967492
_cell_length_c 14.176034
_cell_angle_alpha 90.000000
_cell_angle_beta 90.000000
_cell_angle_gamma 90.000000
_cell_volume 2688.585012
_symmetry_space_group_name_H-M "P M M M"
_symmetry_group_IT_number 47
_symmetry_cell_setting 'orthorhombic'
loop_
_space_group_symop_operation_xyz
x,y,z
-x,-y,z
x,-y,-z
-x,y,-z
-x,-y,-z
x,y,-z
-x,y,z
x,-y,z
loop_
_atom_site_type_symbol
_atom_site_label
_atom_site_fract_x
_atom_site_fract_y
_atom_site_fract_z
Si Si1 0.892020 0.618048 0.811702
Si Si2 0.838211 0.111989 0.394117
Si Si3 0.104156 0.340271 0.602542
Si Si4 0.666145 0.119017 0.742493
Si Si5 0.605607 0.500000 0.114486
Si Si6 0.500000 0.874858 0.607828
Si Si7 0.713376 0.707596 0.888748
O O1 0.886779 0.500000 0.845973
O O2 0.859278 0.620647 0.702108
O O3 0.820859 0.687810 0.868100
O O4 0.000000 0.648778 0.814910
O O5 0.796670 0.112186 0.500000
O O6 0.895907 0.215845 0.389491
O O7 0.760112 0.119050 0.316365
O O8 0.885002 0.000000 0.383893
O O9 0.146800 0.366056 0.500000
O O10 0.000000 0.377273 0.599321
O O11 0.588271 0.153956 0.669149
O O12 0.676800 0.196285 0.829079
O O13 0.647031 0.000000 0.770699
O O14 0.500000 0.500000 0.146519
O O15 0.659949 0.396603 0.142006
O O16 0.604549 0.500000 0.000000
O O17 0.500000 0.836495 0.500000
O O18 0.500000 0.000000 0.602372
O O19 0.699223 0.722362 0.000000
#
# Coordination Sequence:
#
# PCOD9385880 Si02
#       7
#     8   8   8   8   4   4   8
#     4  10  20  35  55  79 106 137 180 235 289 334
#     4   9  16  27  46  71  99 131 168 211 256 307
#     4   9  17  29  46  71 103 135 168 209 263 328
#     4  10  20  34  53  80 111 144 179 218 271 329
#     4   9  20  38  59  81 103 134 178 228 279 324
#     4   9  18  34  57  84 113 144 183 228 269 320
#     4  11  22  37  57  81 110 143 187 235 278 327
#
# _framework density 17.853258
#
# number of rings (size 3 to 8) (size 9 to 14) (size 15 to 20)
#    0.000    2.333    2.500    0.500    1.167    3.333 
#    0.000    4.167    0.000    2.000    0.000    1.750 
#    0.000    0.000    0.000    0.000    0.000    0.000 
#
# Total GULP energy -267287.866387 kJ/mol
# GULP energy per Si atom -5568.497216 kJ/mol
# Density = 1.781262 g / cm^3
# Si number density = 17.853258 Si / 1000 Ang^3
#
#
#
# Elastic Constant Matrix: (Units=GPa)
#
#
# Indices 1 2 3 4 5 6 
#
# 1 70.9818 29.5607 33.3231 0.0000 0.0000 0.0000
# 2 29.5607 101.4008 48.7559 0.0000 0.0000 0.0000
# 3 33.3231 48.7559 99.2290 0.0000 0.0000 0.0000
# 4 0.0000 0.0000 0.0000 18.0589 0.0000 0.0000
# 5 0.0000 0.0000 0.0000 0.0000 20.9951 0.0000
# 6 0.0000 0.0000 0.0000 0.0000 0.0000 16.4589
#
#
#
# Elastic Compliance Matrix: (Units=1/GPa)
#
#
# Indices 1 2 3 4 5 6 
#
# 1 0.017378 -0.002959 -0.004382 0.000000 0.000000 0.000000
# 2 -0.002959 0.013416 -0.005598 0.000000 0.000000 0.000000
# 3 -0.004382 -0.005598 0.014300 0.000000 0.000000 0.000000
# 4 0.000000 0.000000 0.000000 0.055374 0.000000 0.000000
# 5 0.000000 0.000000 0.000000 0.000000 0.047630 0.000000
# 6 0.000000 0.000000 0.000000 0.000000 0.000000 0.060758
#
#
# Mechanical properties :
#
#
# Convention : Reuss Voigt Hill
#
# Bulk Modulus (GPa) = 52.04178 54.98786 53.51482
# Shear Modulus (GPa) = 20.73489 21.76736 21.25113
#
# Velocity S-wave (km/s) = 3.41164 3.49555 3.45385
# Velocity P-wave (km/s) = 6.68820 6.86721 6.77830
#
# Compressibility (1/GPa) = 0.01921533
#
# Stress axis : x y z
#
# Youngs Moduli (GPa) = 57.54563 74.53615 69.93049
#
# Poissons Ratio (x) = 0.22056 0.30642
# Poissons Ratio (y) = 0.17028 0.39149
# Poissons Ratio (z) = 0.25215 0.41728
#
# Static dielectric constant tensor:
#      x y z
#    x 1.619400 0.000000 0.000000 
#    y 0.000000 1.633010 0.000000 
#    z 0.000000 0.000000 1.623050 
# 
# From -- ./inp_files/23595.got.cif
#   From: 2010.05.17/outbox.cif.g08.bks.cpg/sg47_12_cif.got.tgz:23595.got - 2010.06.03 20:15:42.
