data_PCOD9385369
_publ_section_title
;
Structure prediction by ZEFSAII (Michael W. Deem and Ramdas Pophale) SiO2 
 PCOD9385369
Probable space group: P M M M
;
_chemical_formula_sum "Si O2"
_cell_formula_units_Z 48
_cell_length_a 31.608919
_cell_length_b 9.475589
_cell_length_c 7.812599
_cell_angle_alpha 90.000000
_cell_angle_beta 90.000000
_cell_angle_gamma 90.000000
_cell_volume 2339.975942
_symmetry_space_group_name_H-M "P M M M"
_symmetry_group_IT_number 47
_symmetry_cell_setting 'orthorhombic'
loop_
_space_group_symop_operation_xyz
x,y,z
-x,-y,z
x,-y,-z
-x,y,-z
-x,-y,-z
x,y,-z
-x,y,z
x,-y,z
loop_
_atom_site_type_symbol
_atom_site_label
_atom_site_fract_x
_atom_site_fract_y
_atom_site_fract_z
Si Si1 0.743041 0.338834 0.793377
Si Si2 0.838525 0.339126 0.206534
Si Si3 0.000000 0.662166 0.290005
Si Si4 0.500000 0.161184 0.204441
Si Si5 0.582858 0.660486 0.705634
Si Si6 0.337924 0.840453 0.295309
Si Si7 0.919486 0.840766 0.295351
O O1 0.733833 0.500000 0.736557
O O2 0.790800 0.302417 0.736368
O O3 0.707007 0.232477 0.736366
O O4 0.743288 0.339794 0.000000
O O5 0.847686 0.500000 0.264071
O O6 0.874834 0.233501 0.262392
O O7 0.838073 0.340563 0.000000
O O8 0.041888 0.744574 0.231612
O O9 0.000000 0.500000 0.234296
O O10 0.000000 0.661161 0.500000
O O11 0.541472 0.247277 0.258361
O O12 0.500000 0.000000 0.271848
O O13 0.500000 0.153833 0.000000
O O14 0.586835 0.650944 0.500000
O O15 0.579403 0.500000 0.771634
O O16 0.624306 0.741796 0.772661
O O17 0.343636 0.848905 0.500000
O O18 0.339813 0.000000 0.226769
O O19 0.924834 0.849337 0.500000
O O20 0.920907 0.000000 0.226422
#
# Coordination Sequence:
#
# PCOD9385369 Si02
#       7
#     8   8   4   4   8   8   8
#     4   9  19  36  56  77 103 138 178 218 262 311
#     4   9  19  36  55  75 102 137 177 218 259 307
#     4   9  17  31  52  75 100 133 172 212 256 307
#     4  11  24  39  56  82 114 145 178 217 262 312
#     4  10  21  38  60  83 107 140 181 220 262 313
#     4  10  21  36  55  81 111 141 175 217 264 313
#     4  10  20  33  51  77 107 136 168 210 260 312
#
# _framework density 20.513031999999999
#
# number of rings (size 3 to 8) (size 9 to 14) (size 15 to 20)
#    0.000    2.333    0.000    3.250    0.000    8.333 
#    0.000    5.417    0.000    2.500    0.000    0.000 
#    0.000    0.000    0.000    0.000    0.000    0.000 
#
# Total GULP energy -268076.521869 kJ/mol
# GULP energy per Si atom -5584.927539 kJ/mol
# Density = 2.046634 g / cm^3
# Si number density = 20.513032 Si / 1000 Ang^3
#
#
#
# Elastic Constant Matrix: (Units=GPa)
#
#
# Indices 1 2 3 4 5 6 
#
# 1 171.4470 139.1420 -0.5787 0.0000 0.0000 0.0000
# 2 139.1420 221.1820 10.4642 0.0000 0.0000 0.0000
# 3 -0.5787 10.4642 23.1320 0.0000 0.0000 0.0000
# 4 0.0000 0.0000 0.0000 19.4422 0.0000 0.0000
# 5 0.0000 0.0000 0.0000 0.0000 41.4046 0.0000
# 6 0.0000 0.0000 0.0000 0.0000 0.0000 -41.6319
#
#
#
# Elastic Compliance Matrix: (Units=1/GPa)
#
#
# Indices 1 2 3 4 5 6 
#
# 1 0.012248 -0.007888 0.003875 0.000000 0.000000 0.000000
# 2 -0.007888 0.009700 -0.004585 0.000000 0.000000 0.000000
# 3 0.003875 -0.004585 0.045401 0.000000 0.000000 0.000000
# 4 0.000000 0.000000 0.000000 0.051435 0.000000 0.000000
# 5 0.000000 0.000000 0.000000 0.000000 0.024152 0.000000
# 6 0.000000 0.000000 0.000000 0.000000 0.000000 -0.024020
#
#
# Mechanical properties :
#
#
# Convention : Reuss Voigt Hill
#
# Bulk Modulus (GPa) = 19.93956 79.31288 49.62622
# Shear Modulus (GPa) = 32.71601 21.62520 27.17061
#
# Velocity S-wave (km/s) = 3.99794 3.25039 3.64339
# Velocity P-wave (km/s) = 5.57251 7.26879 6.47643
#
# Compressibility (1/GPa) = 0.05015156
#
# Stress axis : x y z
#
# Youngs Moduli (GPa) = 81.64930 103.08930 22.02580
#
# Poissons Ratio (x) = 0.81317 -0.08534
# Poissons Ratio (y) = 0.64405 0.10100
# Poissons Ratio (z) = -0.31636 0.47271
#
# Static dielectric constant tensor:
#      x y z
#    x 1.692970 0.000000 0.000000 
#    y 0.000000 1.719230 0.000000 
#    z 0.000000 0.000000 1.757170 
# 
# From -- ./inp_files/13842.got.cif
#   From: 2010.05.17/outbox.cif.g08.bks.cpg/sg47_7_cif.got.tgz:13842.got - 2010.06.03 20:15:42.
