data_PCOD9385659
_publ_section_title
;
Structure prediction by ZEFSAII (Michael W. Deem and Ramdas Pophale) SiO2 
 PCOD9385659
Probable space group: P M M M
;
_chemical_formula_sum "Si O2"
_cell_formula_units_Z 28
_cell_length_a 21.751297
_cell_length_b 8.088526
_cell_length_c 7.396208
_cell_angle_alpha 90.000000
_cell_angle_beta 90.000000
_cell_angle_gamma 90.000000
_cell_volume 1301.258743
_symmetry_space_group_name_H-M "P M M M"
_symmetry_group_IT_number 47
_symmetry_cell_setting 'orthorhombic'
loop_
_space_group_symop_operation_xyz
x,y,z
-x,-y,z
x,-y,-z
-x,y,-z
-x,-y,-z
x,y,-z
-x,y,z
x,-y,z
loop_
_atom_site_type_symbol
_atom_site_label
_atom_site_fract_x
_atom_site_fract_y
_atom_site_fract_z
Si Si1 0.150096 0.500000 0.720820
Si Si2 0.071037 0.186055 0.720181
Si Si3 0.707953 0.500000 0.278255
Si Si4 0.365439 0.818821 0.712154
Si Si5 0.500000 0.689900 0.216349
O O1 0.148960 0.500000 0.500000
O O2 0.114462 0.334804 0.780081
O O3 0.221049 0.500000 0.775083
O O4 0.071866 0.186668 0.500000
O O5 0.000000 0.213929 0.773508
O O6 0.089079 0.000000 0.776632
O O7 0.705603 0.500000 0.500000
O O8 0.672413 0.663643 0.214279
O O9 0.350106 0.826387 0.500000
O O10 0.437717 0.779138 0.725934
O O11 0.352623 0.000000 0.790222
O O12 0.500000 0.500000 0.282528
O O13 0.500000 0.686263 0.000000
#
# Coordination Sequence:
#
# PCOD9385659 Si02
#       5
#     4   8   4   8   4
#     4   9  15  22  34  50  71 103 141 182 226 262
#     4   8  13  20  30  46  69  98 135 180 225 265
#     4   9  18  30  42  60  86 115 151 194 228 267
#     4  10  20  34  52  71  93 124 156 187 232 283
#     4  11  22  35  54  77  97 118 149 192 237 277
#
# _framework density 21.517626
#
# number of rings (size 3 to 8) (size 9 to 14) (size 15 to 20)
#    0.000    2.714    1.429    2.143    0.000    5.714 
#    0.000    5.714    0.000    0.000    0.000    0.000 
#    0.000    0.000    0.000    0.000    0.000   11.429 
#
# Total GULP energy -156386.642939 kJ/mol
# GULP energy per Si atom -5585.237248 kJ/mol
# Density = 2.146865 g / cm^3
# Si number density = 21.517626 Si / 1000 Ang^3
#
#
#
# Elastic Constant Matrix: (Units=GPa)
#
#
# Indices 1 2 3 4 5 6 
#
# 1 164.4270 142.0424 -5.0926 0.0000 0.0000 0.0000
# 2 142.0424 262.2304 9.6183 0.0000 0.0000 0.0000
# 3 -5.0926 9.6183 73.9641 0.0000 0.0000 0.0000
# 4 0.0000 0.0000 0.0000 -10.9927 0.0000 0.0000
# 5 0.0000 0.0000 0.0000 0.0000 -81.2380 0.0000
# 6 0.0000 0.0000 0.0000 0.0000 0.0000 6.5318
#
#
#
# Elastic Compliance Matrix: (Units=1/GPa)
#
#
# Indices 1 2 3 4 5 6 
#
# 1 0.011622 -0.006355 0.001627 0.000000 0.000000 0.000000
# 2 -0.006355 0.007307 -0.001388 0.000000 0.000000 0.000000
# 3 0.001627 -0.001388 0.013813 0.000000 0.000000 0.000000
# 4 0.000000 0.000000 0.000000 -0.090969 0.000000 0.000000
# 5 0.000000 0.000000 0.000000 0.000000 -0.012310 0.000000
# 6 0.000000 0.000000 0.000000 0.000000 0.000000 0.153097
#
#
# Mechanical properties :
#
#
# Convention : Reuss Voigt Hill
#
# Bulk Modulus (GPa) = 48.75915 88.19532 68.47723
# Shear Modulus (GPa) = 49.19927 6.46377 27.83152
#
# Velocity S-wave (km/s) = 4.78689 1.73507 3.60033
# Velocity P-wave (km/s) = 7.29806 6.71494 7.01256
#
# Compressibility (1/GPa) = 0.02050897
#
# Stress axis : x y z
#
# Youngs Moduli (GPa) = 86.04488 136.86286 72.39807
#
# Poissons Ratio (x) = 0.86975 -0.11776
# Poissons Ratio (y) = 0.54680 0.10047
# Poissons Ratio (z) = -0.13996 0.18992
#
# Static dielectric constant tensor:
#      x y z
#    x 1.708700 0.000000 0.000000 
#    y 0.000000 1.777320 0.000000 
#    z 0.000000 0.000000 1.800320 
# 
# From -- ./inp_files/874.got.cif
#   From: 2010.05.17/outbox.cif.g08.bks.cpg/sg47_1_cif.got.tgz:874.got - 2010.06.03 20:15:42.
