data_PCOD9385206
_publ_section_title
;
Structure prediction by ZEFSAII (Michael W. Deem and Ramdas Pophale) SiO2 
 PCOD9385206
Probable space group: P M M M
;
_chemical_formula_sum "Si O2"
_cell_formula_units_Z 44
_cell_length_a 29.724913
_cell_length_b 9.311306
_cell_length_c 7.557072
_cell_angle_alpha 90.000000
_cell_angle_beta 90.000000
_cell_angle_gamma 90.000000
_cell_volume 2091.629466
_symmetry_space_group_name_H-M "P M M M"
_symmetry_group_IT_number 47
_symmetry_cell_setting 'orthorhombic'
loop_
_space_group_symop_operation_xyz
x,y,z
-x,-y,z
x,-y,-z
-x,y,-z
-x,-y,-z
x,y,-z
-x,y,z
x,-y,z
loop_
_atom_site_type_symbol
_atom_site_label
_atom_site_fract_x
_atom_site_fract_y
_atom_site_fract_z
Si Si1 0.548353 0.167350 0.212712
Si Si2 0.177382 0.836825 0.212351
Si Si3 0.910563 0.665603 0.783473
Si Si4 0.267744 0.337626 0.287385
Si Si5 0.646595 0.836231 0.710312
Si Si6 0.000000 0.834420 0.783813
O O1 0.500000 0.228739 0.273220
O O2 0.596719 0.228459 0.264106
O O3 0.549186 0.000000 0.272076
O O4 0.547520 0.167069 0.000000
O O5 0.134390 0.747030 0.276690
O O6 0.223619 0.755284 0.250157
O O7 0.177988 0.000000 0.280430
O O8 0.172989 0.844578 0.000000
O O9 0.911236 0.500000 0.726993
O O10 0.955155 0.750803 0.728048
O O11 0.910382 0.665240 0.000000
O O12 0.271871 0.346217 0.500000
O O13 0.263241 0.500000 0.219400
O O14 0.312560 0.258622 0.218888
O O15 0.653075 0.847635 0.500000
O O16 0.647491 0.000000 0.782605
O O17 0.000000 0.000000 0.726731
O O18 0.000000 0.835094 0.000000
#
# Coordination Sequence:
#
# PCOD9385206 Si02
#       6
#     8   8   8   8   8   4
#     4   8  14  25  42  66  95 123 151 187 232 280
#     4  10  20  33  50  73  99 126 159 201 247 293
#     4   9  16  26  41  63  93 127 161 198 242 291
#     4  10  21  36  52  70  95 128 164 201 243 292
#     4   9  17  29  46  68  92 118 152 195 238 280
#     4   9  15  23  37  59  90 127 164 201 242 287
#
# _framework density 21.03623
#
# number of rings (size 3 to 8) (size 9 to 14) (size 15 to 20)
#    0.000    2.818    0.000    2.455    0.000    6.545 
#    0.000    3.636    0.000    0.545    0.000    4.455 
#    0.000    5.091    0.000    0.000    0.000    0.000 
#
# Total GULP energy -245503.584627 kJ/mol
# GULP energy per Si atom -5579.626923 kJ/mol
# Density = 2.098835 g / cm^3
# Si number density = 21.036230 Si / 1000 Ang^3
#
#
#
# Elastic Constant Matrix: (Units=GPa)
#
#
# Indices 1 2 3 4 5 6 
#
# 1 254.0263 128.0481 0.0147 0.0000 0.0000 0.0000
# 2 128.0481 172.0599 6.3740 0.0000 0.0000 0.0000
# 3 0.0147 6.3740 47.7846 0.0000 0.0000 0.0000
# 4 0.0000 0.0000 0.0000 6.4853 0.0000 0.0000
# 5 0.0000 0.0000 0.0000 0.0000 28.4409 0.0000
# 6 0.0000 0.0000 0.0000 0.0000 0.0000 -85.5793
#
#
#
# Elastic Compliance Matrix: (Units=1/GPa)
#
#
# Indices 1 2 3 4 5 6 
#
# 1 0.006319 -0.004726 0.000628 0.000000 0.000000 0.000000
# 2 -0.004726 0.009375 -0.001249 0.000000 0.000000 0.000000
# 3 0.000628 -0.001249 0.021094 0.000000 0.000000 0.000000
# 4 0.000000 0.000000 0.000000 0.154194 0.000000 0.000000
# 5 0.000000 0.000000 0.000000 0.000000 0.035161 0.000000
# 6 0.000000 0.000000 0.000000 0.000000 0.000000 -0.011685
#
#
# Mechanical properties :
#
#
# Convention : Reuss Voigt Hill
#
# Bulk Modulus (GPa) = 38.32197 82.52718 60.42457
# Shear Modulus (GPa) = 21.38139 12.49831 16.93985
#
# Velocity S-wave (km/s) = 3.19157 2.44013 2.84081
# Velocity P-wave (km/s) = 5.64254 6.87423 6.28861
#
# Compressibility (1/GPa) = 0.02609469
#
# Stress axis : x y z
#
# Youngs Moduli (GPa) = 158.26174 106.66585 47.40763
#
# Poissons Ratio (x) = 0.50407 -0.02979
# Poissons Ratio (y) = 0.74789 0.05922
# Poissons Ratio (z) = -0.09945 0.13324
#
# Static dielectric constant tensor:
#      x y z
#    x 1.747630 0.000000 0.000000 
#    y 0.000000 1.731920 0.000000 
#    z 0.000000 0.000000 1.806230 
# 
# From -- ./inp_files/2329.got.cif
#   From: 2010.05.17/outbox.cif.g08.bks.cpg/sg47_2_cif.got.tgz:2329.got - 2010.06.03 20:15:42.
