data_PCOD9385728
_publ_section_title
;
Structure prediction by ZEFSAII (Michael W. Deem and Ramdas Pophale) SiO2 
 PCOD9385728
Probable space group: P M M M
;
_chemical_formula_sum "Si O2"
_cell_formula_units_Z 44
_cell_length_a 18.011864
_cell_length_b 15.154398
_cell_length_c 7.440420
_cell_angle_alpha 90.000000
_cell_angle_beta 90.000000
_cell_angle_gamma 90.000000
_cell_volume 2030.929274
_symmetry_space_group_name_H-M "P M M M"
_symmetry_group_IT_number 47
_symmetry_cell_setting 'orthorhombic'
loop_
_space_group_symop_operation_xyz
x,y,z
-x,-y,z
x,-y,-z
-x,y,-z
-x,-y,-z
x,y,-z
-x,y,z
x,-y,z
loop_
_atom_site_type_symbol
_atom_site_label
_atom_site_fract_x
_atom_site_fract_y
_atom_site_fract_z
Si Si1 0.500000 0.898131 0.280135
Si Si2 0.189202 0.162723 0.788711
Si Si3 0.681731 0.596437 0.280193
Si Si4 0.353901 0.205710 0.283238
Si Si5 0.086761 0.000000 0.219434
Si Si6 0.000000 0.395675 0.703923
Si Si7 0.842876 0.641583 0.296846
O O1 0.500000 0.897853 0.500000
O O2 0.573591 0.846217 0.221699
O O3 0.500000 0.000000 0.223634
O O4 0.278115 0.154506 0.767243
O O5 0.170950 0.254535 0.695729
O O6 0.135747 0.084593 0.724541
O O7 0.174564 0.173878 0.000000
O O8 0.681232 0.598234 0.500000
O O9 0.650496 0.500000 0.227148
O O10 0.648168 0.691107 0.222667
O O11 0.767803 0.601055 0.219934
O O12 0.355157 0.208467 0.500000
O O13 0.000000 0.000000 0.276591
O O14 0.085747 0.000000 0.000000
O O15 0.922230 0.371418 0.792248
O O16 0.000000 0.500000 0.688928
O O17 0.000000 0.355615 0.500000
O O18 0.849280 0.605279 0.500000
#
# Coordination Sequence:
#
# PCOD9385728 Si02
#       7
#     4   8   8   8   4   4   8
#     4   9  18  32  52  78 106 135 161 197 254 310
#     4  10  20  34  53  72  95 129 168 209 252 297
#     4   8  13  24  44  68  95 127 160 195 235 280
#     4   9  18  33  53  77 103 131 166 202 243 302
#     4   9  20  36  51  68  93 130 172 207 249 305
#     4   9  16  26  45  72  99 128 164 209 257 301
#     4   9  17  29  46  69  97 127 163 203 247 300
#
# _framework density 21.664960000000001
#
# number of rings (size 3 to 8) (size 9 to 14) (size 15 to 20)
#    0.000    3.000    0.000    2.182    2.545    2.182 
#    0.000    2.273    0.000   19.636    0.000    0.000 
#    0.000    5.818    0.000    0.000    0.000    0.000 
#
# Total GULP energy -245261.242304 kJ/mol
# GULP energy per Si atom -5574.119143 kJ/mol
# Density = 2.161565 g / cm^3
# Si number density = 21.664960 Si / 1000 Ang^3
#
#
#
# Elastic Constant Matrix: (Units=GPa)
#
#
# Indices 1 2 3 4 5 6 
#
# 1 161.5236 95.1730 1.7323 0.0000 0.0000 0.0000
# 2 95.1730 166.6415 4.4542 0.0000 0.0000 0.0000
# 3 1.7323 4.4542 73.7352 0.0000 0.0000 0.0000
# 4 0.0000 0.0000 0.0000 22.5777 0.0000 0.0000
# 5 0.0000 0.0000 0.0000 0.0000 5.7258 0.0000
# 6 0.0000 0.0000 0.0000 0.0000 0.0000 16.4842
#
#
#
# Elastic Compliance Matrix: (Units=1/GPa)
#
#
# Indices 1 2 3 4 5 6 
#
# 1 0.009332 -0.005332 0.000103 0.000000 0.000000 0.000000
# 2 -0.005332 0.009058 -0.000422 0.000000 0.000000 0.000000
# 3 0.000103 -0.000422 0.013585 0.000000 0.000000 0.000000
# 4 0.000000 0.000000 0.000000 0.044292 0.000000 0.000000
# 5 0.000000 0.000000 0.000000 0.000000 0.174647 0.000000
# 6 0.000000 0.000000 0.000000 0.000000 0.000000 0.060664
#
#
# Mechanical properties :
#
#
# Convention : Reuss Voigt Hill
#
# Bulk Modulus (GPa) = 48.37501 67.17993 57.77747
# Shear Modulus (GPa) = 15.16203 28.99359 22.07781
#
# Velocity S-wave (km/s) = 2.64832 3.66221 3.19573
# Velocity P-wave (km/s) = 5.63282 6.99702 6.35165
#
# Compressibility (1/GPa) = 0.02067183
#
# Stress axis : x y z
#
# Youngs Moduli (GPa) = 107.15903 110.40373 73.60997
#
# Poissons Ratio (x) = 0.58872 -0.00757
# Poissons Ratio (y) = 0.57142 0.03105
# Poissons Ratio (z) = -0.01102 0.04658
#
# Static dielectric constant tensor:
#      x y z
#    x 1.805200 0.000000 0.000000 
#    y 0.000000 1.772200 0.000000 
#    z 0.000000 0.000000 1.836180 
# 
# From -- ./inp_files/9091.got.cif
#   From: 2010.05.17/outbox.cif.g08.bks.cpg/sg47_5_cif.got.tgz:9091.got - 2010.06.03 20:15:42.
