data_PCOD9385157
_publ_section_title
;
Structure prediction by ZEFSAII (Michael W. Deem and Ramdas Pophale) SiO2 
 PCOD9385157
Probable space group: P M M M
;
_chemical_formula_sum "Si O2"
_cell_formula_units_Z 48
_cell_length_a 8.042265
_cell_length_b 31.827012
_cell_length_c 9.644657
_cell_angle_alpha 90.000000
_cell_angle_beta 90.000000
_cell_angle_gamma 90.000000
_cell_volume 2468.658603
_symmetry_space_group_name_H-M "P M M M"
_symmetry_group_IT_number 47
_symmetry_cell_setting 'orthorhombic'
loop_
_space_group_symop_operation_xyz
x,y,z
-x,-y,z
x,-y,-z
-x,y,-z
-x,-y,-z
x,y,-z
-x,y,z
x,-y,z
loop_
_atom_site_type_symbol
_atom_site_label
_atom_site_fract_x
_atom_site_fract_y
_atom_site_fract_z
Si Si1 0.200640 0.453465 0.660077
Si Si2 0.703875 0.126281 0.159576
Si Si3 0.697758 0.625287 0.842474
Si Si4 0.702771 0.952409 0.340846
Si Si5 0.698659 0.204896 0.657338
Si Si6 0.196699 0.282484 0.841015
O O1 0.253807 0.448690 0.500000
O O2 0.255819 0.500000 0.708543
O O3 0.259298 0.414692 0.750590
O O4 0.000000 0.453453 0.661513
O O5 0.500000 0.126560 0.159032
O O6 0.757423 0.083394 0.235034
O O7 0.761292 0.166001 0.250232
O O8 0.757509 0.128957 0.000000
O O9 0.500000 0.629864 0.846002
O O10 0.769231 0.669872 0.793347
O O11 0.759775 0.618724 0.000000
O O12 0.752091 0.943035 0.500000
O O13 0.500000 0.952374 0.339453
O O14 0.755927 0.000000 0.306808
O O15 0.765106 0.205259 0.500000
O O16 0.500000 0.199435 0.647707
O O17 0.730480 0.247958 0.738741
O O18 0.000000 0.276010 0.846066
O O19 0.262562 0.278439 0.000000
#
# Coordination Sequence:
#
# PCOD9385157 Si02
#       6
#     8   8   8   8   8   8
#     4   9  19  36  56  78 106 141 179 216 254 297
#     4   9  16  25  39  60  87 121 160 202 247 294
#     4  10  21  36  55  80 108 137 170 209 253 302
#     4   8  13  21  33  51  80 119 159 198 242 293
#     4  10  20  33  50  72  98 129 165 204 248 300
#     4  10  21  37  56  76  99 129 165 205 251 302
#
# _framework density 19.443759
#
# number of rings (size 3 to 8) (size 9 to 14) (size 15 to 20)
#    0.000    2.667    0.000    3.000    0.000    7.000 
#    0.000    4.167    0.000    0.000    0.000    0.000 
#    0.000    0.667    0.000    7.000    0.000    9.667 
#
# Total GULP energy -267806.292261 kJ/mol
# GULP energy per Si atom -5579.297755 kJ/mol
# Density = 1.939950 g / cm^3
# Si number density = 19.443759 Si / 1000 Ang^3
#
#
#
# Elastic Constant Matrix: (Units=GPa)
#
#
# Indices 1 2 3 4 5 6 
#
# 1 12.1132 1.5178 8.7735 0.0000 0.0000 0.0000
# 2 1.5178 169.1990 118.2153 0.0000 0.0000 0.0000
# 3 8.7735 118.2153 138.3154 0.0000 0.0000 0.0000
# 4 0.0000 0.0000 0.0000 40.4843 0.0000 0.0000
# 5 0.0000 0.0000 0.0000 0.0000 14.3003 0.0000
# 6 0.0000 0.0000 0.0000 0.0000 0.0000 173.2191
#
#
#
# Elastic Compliance Matrix: (Units=1/GPa)
#
#
# Indices 1 2 3 4 5 6 
#
# 1 0.090646 0.007953 -0.012547 0.000000 0.000000 0.000000
# 2 0.007953 0.015369 -0.013640 0.000000 0.000000 0.000000
# 3 -0.012547 -0.013640 0.019683 0.000000 0.000000 0.000000
# 4 0.000000 0.000000 0.000000 0.024701 0.000000 0.000000
# 5 0.000000 0.000000 0.000000 0.000000 0.069928 0.000000
# 6 0.000000 0.000000 0.000000 0.000000 0.000000 0.005773
#
#
# Mechanical properties :
#
#
# Convention : Reuss Voigt Hill
#
# Bulk Modulus (GPa) = 11.20689 64.07123 37.63906
# Shear Modulus (GPa) = 17.10503 58.34215 37.72359
#
# Velocity S-wave (km/s) = 2.96922 5.48368 4.40948
# Velocity P-wave (km/s) = 4.18704 8.55090 6.73236
#
# Compressibility (1/GPa) = 0.08923083
#
# Stress axis : x y z
#
# Youngs Moduli (GPa) = 11.03188 65.06774 50.80440
#
# Poissons Ratio (x) = -0.51751 0.63747
# Poissons Ratio (y) = -0.08774 0.69296
# Poissons Ratio (z) = 0.13842 0.88751
#
# Static dielectric constant tensor:
#      x y z
#    x 1.704880 0.000000 0.000000 
#    y 0.000000 1.658940 0.000000 
#    z 0.000000 0.000000 1.673000 
# 
# From -- ./inp_files/2430.got.cif
#   From: 2010.05.17/outbox.cif.g08.bks.cpg/sg47_2_cif.got.tgz:2430.got - 2010.06.03 20:15:42.
