data_PCOD9385403
_publ_section_title
;
Structure prediction by ZEFSAII (Michael W. Deem and Ramdas Pophale) SiO2 
 PCOD9385403
Probable space group: P M M M
;
_chemical_formula_sum "Si O2"
_cell_formula_units_Z 40
_cell_length_a 7.665311
_cell_length_b 27.932265
_cell_length_c 8.601208
_cell_angle_alpha 90.000000
_cell_angle_beta 90.000000
_cell_angle_gamma 90.000000
_cell_volume 1841.600328
_symmetry_space_group_name_H-M "P M M M"
_symmetry_group_IT_number 47
_symmetry_cell_setting 'orthorhombic'
loop_
_space_group_symop_operation_xyz
x,y,z
-x,-y,z
x,-y,-z
-x,y,-z
-x,-y,-z
x,y,-z
-x,y,z
x,-y,z
loop_
_atom_site_type_symbol
_atom_site_label
_atom_site_fract_x
_atom_site_fract_y
_atom_site_fract_z
Si Si1 0.709673 0.599432 0.674122
Si Si2 0.786735 0.796962 0.674790
Si Si3 0.286494 0.500000 0.821094
Si Si4 0.707445 0.053983 0.500000
Si Si5 0.209447 0.107065 0.173123
Si Si6 0.790389 0.299937 0.826094
O O1 0.776854 0.605903 0.500000
O O2 0.500000 0.595530 0.668533
O O3 0.773989 0.549201 0.742907
O O4 0.749381 0.646907 0.769761
O O5 0.731373 0.809258 0.500000
O O6 0.731072 0.838429 0.792671
O O7 0.727507 0.743771 0.719808
O O8 0.000000 0.796926 0.675650
O O9 0.500000 0.500000 0.814664
O O10 0.235550 0.500000 0.000000
O O11 0.500000 0.051772 0.500000
O O12 0.753354 0.078854 0.665573
O O13 0.780322 0.000000 0.500000
O O14 0.000000 0.107318 0.163247
O O15 0.272861 0.090925 0.000000
O O16 0.000000 0.296249 0.829045
O O17 0.723701 0.292961 0.000000
#
# Coordination Sequence:
#
# PCOD9385403 Si02
#       6
#     8   8   4   4   8   8
#     4  10  20  34  52  74 100 132 173 220 268 321
#     4   9  16  30  55  84 113 145 181 226 280 335
#     4   9  17  31  52  73  94 127 170 216 268 323
#     4  11  25  43  61  85 123 167 203 240 293 356
#     4  10  20  37  64  94 120 151 199 254 299 343
#     4  10  20  33  51  78 110 142 177 218 268 328
#
# _framework density 21.720237999999998
#
# number of rings (size 3 to 8) (size 9 to 14) (size 15 to 20)
#    0.000    2.200    1.000    2.400    0.000    7.600 
#    0.000    3.500    0.000    5.400    0.000    0.000 
#    0.000    0.000    0.000    0.000    0.000    0.000 
#
# Total GULP energy -223205.383483 kJ/mol
# GULP energy per Si atom -5580.134587 kJ/mol
# Density = 2.167080 g / cm^3
# Si number density = 21.720238 Si / 1000 Ang^3
#
#
#
# Elastic Constant Matrix: (Units=GPa)
#
#
# Indices 1 2 3 4 5 6 
#
# 1 41.0612 3.2463 12.0073 0.0000 0.0000 0.0000
# 2 3.2463 132.6577 61.7019 0.0000 0.0000 0.0000
# 3 12.0073 61.7019 163.5864 0.0000 0.0000 0.0000
# 4 0.0000 0.0000 0.0000 24.9076 0.0000 0.0000
# 5 0.0000 0.0000 0.0000 0.0000 7.9711 0.0000
# 6 0.0000 0.0000 0.0000 0.0000 0.0000 -334.0428
#
#
#
# Elastic Compliance Matrix: (Units=1/GPa)
#
#
# Indices 1 2 3 4 5 6 
#
# 1 0.024897 0.000292 -0.001938 0.000000 0.000000 0.000000
# 2 0.000292 0.009145 -0.003471 0.000000 0.000000 0.000000
# 3 -0.001938 -0.003471 0.007564 0.000000 0.000000 0.000000
# 4 0.000000 0.000000 0.000000 0.040148 0.000000 0.000000
# 5 0.000000 0.000000 0.000000 0.000000 0.125453 0.000000
# 6 0.000000 0.000000 0.000000 0.000000 0.000000 -0.002994
#
#
# Mechanical properties :
#
#
# Convention : Reuss Voigt Hill
#
# Bulk Modulus (GPa) = 31.87345 54.57957 43.22651
# Shear Modulus (GPa) = 22.23154 -42.87616 -10.32231
#
# Velocity S-wave (km/s) = 3.20275 -4.44781 -2.18236
# Velocity P-wave (km/s) = 5.32759 1.09289 3.68706
#
# Compressibility (1/GPa) = 0.03137408
#
# Stress axis : x y z
#
# Youngs Moduli (GPa) = 40.16483 109.34387 132.19868
#
# Poissons Ratio (x) = -0.03192 0.25615
# Poissons Ratio (y) = -0.01173 0.45885
# Poissons Ratio (z) = 0.07782 0.37953
#
# Static dielectric constant tensor:
#      x y z
#    x 1.820190 0.000000 0.000000 
#    y 0.000000 1.813710 0.000000 
#    z 0.000000 0.000000 1.805210 
# 
# From -- ./inp_files/1811.got.cif
#   From: 2010.05.17/outbox.cif.g08.bks.cpg/sg47_1_cif.got.tgz:1811.got - 2010.06.03 20:15:42.
