data_PCOD9385439
_publ_section_title
;
Structure prediction by ZEFSAII (Michael W. Deem and Ramdas Pophale) SiO2 
 PCOD9385439
Probable space group: P M M M
;
_chemical_formula_sum "Si O2"
_cell_formula_units_Z 36
_cell_length_a 7.368204
_cell_length_b 26.109928
_cell_length_c 8.217483
_cell_angle_alpha 90.000000
_cell_angle_beta 90.000000
_cell_angle_gamma 90.000000
_cell_volume 1580.906299
_symmetry_space_group_name_H-M "P M M M"
_symmetry_group_IT_number 47
_symmetry_cell_setting 'orthorhombic'
loop_
_space_group_symop_operation_xyz
x,y,z
-x,-y,z
x,-y,-z
-x,y,-z
-x,-y,-z
x,y,-z
-x,y,z
x,-y,z
loop_
_atom_site_type_symbol
_atom_site_label
_atom_site_fract_x
_atom_site_fract_y
_atom_site_fract_z
Si Si1 0.790464 0.163726 0.804318
Si Si2 0.780392 0.725376 0.188417
Si Si3 0.784045 0.055297 0.304971
Si Si4 0.712567 0.615730 0.677267
Si Si5 0.721797 0.559464 0.000000
O O1 0.714847 0.218850 0.751559
O O2 0.708255 0.109174 0.756841
O O3 0.000000 0.162340 0.745091
O O4 0.792919 0.166198 0.000000
O O5 0.726089 0.676454 0.291493
O O6 0.000000 0.727649 0.186949
O O7 0.721926 0.717727 0.000000
O O8 0.767449 0.055638 0.500000
O O9 0.000000 0.055147 0.264848
O O10 0.712694 0.000000 0.246073
O O11 0.790495 0.602968 0.500000
O O12 0.500000 0.602293 0.671749
O O13 0.787397 0.587551 0.836535
O O14 0.770399 0.500000 0.000000
O O15 0.500000 0.562760 0.000000
#
# Coordination Sequence:
#
# PCOD9385439 Si02
#       5
#     8   8   8   8   4
#     4   8  14  23  35  54  79 108 146 189 229 274
#     4   9  17  30  48  69  96 130 164 199 242 290
#     4   8  13  20  29  43  68 104 143 182 226 275
#     4  10  20  33  52  78 103 129 163 199 237 285
#     4   9  18  34  55  77 103 133 160 195 242 280
#
# _framework density 22.771747000000001
#
# number of rings (size 3 to 8) (size 9 to 14) (size 15 to 20)
#    0.000    3.222    1.111    2.000    0.000    2.222 
#    0.000    6.667    0.000    1.333    0.000    1.556 
#    0.000    0.889    0.000    9.778    0.000   16.000 
#
# Total GULP energy -200758.124454 kJ/mol
# GULP energy per Si atom -5576.614568 kJ/mol
# Density = 2.271992 g / cm^3
# Si number density = 22.771747 Si / 1000 Ang^3
#
#
#
# Elastic Constant Matrix: (Units=GPa)
#
#
# Indices 1 2 3 4 5 6 
#
# 1 80.9301 0.4525 11.6247 0.0000 0.0000 0.0000
# 2 0.4525 185.7983 87.1996 0.0000 0.0000 0.0000
# 3 11.6247 87.1996 112.3655 0.0000 0.0000 0.0000
# 4 0.0000 0.0000 0.0000 -67.3063 0.0000 0.0000
# 5 0.0000 0.0000 0.0000 0.0000 -4.3473 0.0000
# 6 0.0000 0.0000 0.0000 0.0000 0.0000 11.2679
#
#
#
# Elastic Compliance Matrix: (Units=1/GPa)
#
#
# Indices 1 2 3 4 5 6 
#
# 1 0.012641 0.000917 -0.002019 0.000000 0.000000 0.000000
# 2 0.000917 0.008532 -0.006716 0.000000 0.000000 0.000000
# 3 -0.002019 -0.006716 0.014320 0.000000 0.000000 0.000000
# 4 0.000000 0.000000 0.000000 -0.014857 0.000000 0.000000
# 5 0.000000 0.000000 0.000000 0.000000 -0.230030 0.000000
# 6 0.000000 0.000000 0.000000 0.000000 0.000000 0.088748
#
#
# Mechanical properties :
#
#
# Convention : Reuss Voigt Hill
#
# Bulk Modulus (GPa) = 50.36080 64.18306 57.27193
# Shear Modulus (GPa) = -50.81787 6.57734 -22.12027
#
# Velocity S-wave (km/s) = -4.72913 1.70137 -3.12010
# Velocity P-wave (km/s) = 2.76695 5.66623 3.49643
#
# Compressibility (1/GPa) = 0.01985671
#
# Stress axis : x y z
#
# Youngs Moduli (GPa) = 79.10594 117.20741 69.83127
#
# Poissons Ratio (x) = -0.10747 0.14102
# Poissons Ratio (y) = -0.07254 0.46898
# Poissons Ratio (z) = 0.15975 0.78715
#
# Static dielectric constant tensor:
#      x y z
#    x 1.961460 0.000000 0.000000 
#    y 0.000000 1.858160 0.000000 
#    z 0.000000 0.000000 1.819660 
# 
# From -- ./inp_files/4201.got.cif
#   From: 2010.05.17/outbox.cif.g08.bks.cpg/sg47_3_cif.got.tgz:4201.got - 2010.06.03 20:15:42.
