data_PCOD9385019
_publ_section_title
;
Structure prediction by ZEFSAII (Michael W. Deem and Ramdas Pophale) SiO2 
 PCOD9385019
Probable space group: P M M M
;
_chemical_formula_sum "Si O2"
_cell_formula_units_Z 60
_cell_length_a 17.580588
_cell_length_b 21.656634
_cell_length_c 8.949656
_cell_angle_alpha 90.000000
_cell_angle_beta 90.000000
_cell_angle_gamma 90.000000
_cell_volume 3407.459447
_symmetry_space_group_name_H-M "P M M M"
_symmetry_group_IT_number 47
_symmetry_cell_setting 'orthorhombic'
loop_
_space_group_symop_operation_xyz
x,y,z
-x,-y,z
x,-y,-z
-x,y,-z
-x,-y,-z
x,y,-z
-x,y,z
x,-y,z
loop_
_atom_site_type_symbol
_atom_site_label
_atom_site_fract_x
_atom_site_fract_y
_atom_site_fract_z
Si Si1 0.244557 0.296126 0.319489
Si Si2 0.759507 0.430641 0.322625
Si Si3 0.914312 0.252310 0.180685
Si Si4 0.141273 0.879225 0.828489
Si Si5 0.689536 0.175878 0.827158
Si Si6 0.913612 0.000000 0.676978
Si Si7 0.409193 0.069414 0.321651
Si Si8 0.915916 0.573617 0.831998
O O1 0.240636 0.293730 0.500000
O O2 0.274828 0.364597 0.272928
O O3 0.159056 0.285068 0.253539
O O4 0.296908 0.240469 0.258755
O O5 0.749175 0.433996 0.500000
O O6 0.739366 0.500000 0.262162
O O7 0.847993 0.419197 0.282921
O O8 0.906537 0.180182 0.221998
O O9 0.000000 0.272666 0.219700
O O10 0.906185 0.255686 0.000000
O O11 0.228207 0.857173 0.823789
O O12 0.127629 0.938957 0.732228
O O13 0.120787 0.893055 0.000000
O O14 0.631865 0.126701 0.756279
O O15 0.670186 0.188291 0.000000
O O16 0.916097 0.000000 0.500000
O O17 0.000000 0.000000 0.736149
O O18 0.395712 0.072859 0.500000
O O19 0.500000 0.072893 0.297850
O O20 0.384286 0.000000 0.271872
O O21 0.921055 0.500000 0.847509
O O22 0.000000 0.594922 0.787376
O O23 0.898813 0.598251 0.000000
#
# Coordination Sequence:
#
# PCOD9385019 Si02
#       8
#     8   8   8   8   8   4   8   8
#     4  10  20  33  49  69  94 127 167 210 260 310
#     4   9  18  31  45  62  86 117 155 201 251 304
#     4   9  18  33  50  65  84 115 158 209 262 313
#     4   9  19  34  49  65  87 120 160 200 247 298
#     4  10  21  36  54  76 104 136 172 209 243 289
#     4  11  23  33  43  65  92 117 154 207 259 302
#     4   9  19  36  58  86 118 147 172 199 235 279
#     4   8  14  24  37  54  77 107 145 190 243 302
#
# _framework density 17.608426999999999
#
# number of rings (size 3 to 8) (size 9 to 14) (size 15 to 20)
#    0.000    2.733    0.000    3.000    0.933    6.400 
#    0.000    4.667    0.000    0.000    0.000    0.000 
#    0.000    0.533    0.000    6.133    0.000    1.733 
#
# Total GULP energy -334093.277917 kJ/mol
# GULP energy per Si atom -5568.221299 kJ/mol
# Density = 1.756835 g / cm^3
# Si number density = 17.608427 Si / 1000 Ang^3
#
#
#
# Elastic Constant Matrix: (Units=GPa)
#
#
# Indices 1 2 3 4 5 6 
#
# 1 30.8558 33.2060 16.1422 0.0000 0.0000 0.0000
# 2 33.2060 183.3899 45.2176 0.0000 0.0000 0.0000
# 3 16.1422 45.2176 35.4180 0.0000 0.0000 0.0000
# 4 0.0000 0.0000 0.0000 -62.1148 0.0000 0.0000
# 5 0.0000 0.0000 0.0000 0.0000 21.7845 0.0000
# 6 0.0000 0.0000 0.0000 0.0000 0.0000 -22.1129
#
#
#
# Elastic Compliance Matrix: (Units=1/GPa)
#
#
# Indices 1 2 3 4 5 6 
#
# 1 0.044972 -0.004508 -0.014741 0.000000 0.000000 0.000000
# 2 -0.004508 0.008410 -0.008682 0.000000 0.000000 0.000000
# 3 -0.014741 -0.008682 0.046037 0.000000 0.000000 0.000000
# 4 0.000000 0.000000 0.000000 -0.016099 0.000000 0.000000
# 5 0.000000 0.000000 0.000000 0.000000 0.045904 0.000000
# 6 0.000000 0.000000 0.000000 0.000000 0.000000 -0.045223
#
#
# Mechanical properties :
#
#
# Convention : Reuss Voigt Hill
#
# Bulk Modulus (GPa) = 22.95872 48.75503 35.85687
# Shear Modulus (GPa) = 32.38706 -2.14879 15.11914
#
# Velocity S-wave (km/s) = 4.29335 -1.10588 2.93342
# Velocity P-wave (km/s) = 6.13547 5.11057 5.64632
#
# Compressibility (1/GPa) = 0.04355644
#
# Stress axis : x y z
#
# Youngs Moduli (GPa) = 22.23588 118.90773 21.72184
#
# Poissons Ratio (x) = 0.53609 0.32020
# Poissons Ratio (y) = 0.10025 0.18859
# Poissons Ratio (z) = 0.32777 1.03235
#
# Static dielectric constant tensor:
#      x y z
#    x 1.487340 0.000000 0.000000 
#    y 0.000000 1.665220 0.000000 
#    z 0.000000 0.000000 1.601620 
# 
# From -- ./inp_files/9956.got.cif
#   From: 2010.05.17/outbox.cif.g08.bks.cpg/sg47_5_cif.got.tgz:9956.got - 2010.06.03 20:15:42.
