data_PCOD9385102
_publ_section_title
;
Structure prediction by ZEFSAII (Michael W. Deem and Ramdas Pophale) SiO2 
 PCOD9385102
Probable space group: P M M M
;
_chemical_formula_sum "Si O2"
_cell_formula_units_Z 48
_cell_length_a 7.605922
_cell_length_b 32.963300
_cell_length_c 9.404360
_cell_angle_alpha 90.000000
_cell_angle_beta 90.000000
_cell_angle_gamma 90.000000
_cell_volume 2357.826236
_symmetry_space_group_name_H-M "P M M M"
_symmetry_group_IT_number 47
_symmetry_cell_setting 'orthorhombic'
loop_
_space_group_symop_operation_xyz
x,y,z
-x,-y,z
x,-y,-z
-x,y,-z
-x,-y,-z
x,y,-z
-x,y,z
x,-y,z
loop_
_atom_site_type_symbol
_atom_site_label
_atom_site_fract_x
_atom_site_fract_y
_atom_site_fract_z
Si Si1 0.711104 0.543599 0.828913
Si Si2 0.709253 0.043632 0.672145
Si Si3 0.288077 0.131654 0.663108
Si Si4 0.284455 0.367927 0.165433
Si Si5 0.791645 0.788317 0.840040
Si Si6 0.291277 0.290810 0.340588
O O1 0.500000 0.543072 0.806403
O O2 0.780130 0.500000 0.775515
O O3 0.774550 0.587700 0.779310
O O4 0.737430 0.543975 0.000000
O O5 0.725744 0.044205 0.500000
O O6 0.500000 0.042880 0.703150
O O7 0.777925 0.087686 0.718091
O O8 0.782149 0.000000 0.721730
O O9 0.226366 0.138113 0.500000
O O10 0.500000 0.128703 0.656358
O O11 0.245672 0.169490 0.761291
O O12 0.500000 0.368296 0.166514
O O13 0.221248 0.329899 0.256518
O O14 0.233349 0.363330 0.000000
O O15 0.730088 0.750307 0.747566
O O16 0.000000 0.784369 0.849882
O O17 0.717475 0.787667 0.000000
O O18 0.219180 0.286840 0.500000
O O19 0.500000 0.297485 0.352323
#
# Coordination Sequence:
#
# PCOD9385102 Si02
#       6
#     8   8   8   8   8   8
#     4   7   9  14  27  50  80 113 148 182 214 252
#     4   7  10  19  39  69 101 126 148 180 221 261
#     4   9  17  30  51  78 102 124 154 190 228 272
#     4   8  13  22  38  60  86 117 151 186 224 264
#     4  11  24  38  50  66  90 121 157 195 235 280
#     4  10  20  33  50  71  93 118 151 191 234 281
#
# _framework density 20.357734000000001
#
# number of rings (size 3 to 8) (size 9 to 14) (size 15 to 20)
#    0.000    3.333    0.000    4.500    0.000    4.667 
#    0.000    0.000    0.000    1.500    0.000    9.333 
#    0.000    0.667    0.000    7.667    0.000    8.833 
#
# Total GULP energy -267313.925526 kJ/mol
# GULP energy per Si atom -5569.040115 kJ/mol
# Density = 2.031140 g / cm^3
# Si number density = 20.357734 Si / 1000 Ang^3
#
#
#
# Elastic Constant Matrix: (Units=GPa)
#
#
# Indices 1 2 3 4 5 6 
#
# 1 40.3485 -0.1395 3.8545 0.0000 0.0000 0.0000
# 2 -0.1395 249.2079 95.8968 0.0000 0.0000 0.0000
# 3 3.8545 95.8968 96.4045 0.0000 0.0000 0.0000
# 4 0.0000 0.0000 0.0000 30.4331 0.0000 0.0000
# 5 0.0000 0.0000 0.0000 0.0000 12.4814 0.0000
# 6 0.0000 0.0000 0.0000 0.0000 0.0000 -47.5615
#
#
#
# Elastic Compliance Matrix: (Units=1/GPa)
#
#
# Indices 1 2 3 4 5 6 
#
# 1 0.024943 0.000644 -0.001638 0.000000 0.000000 0.000000
# 2 0.000644 0.006518 -0.006509 0.000000 0.000000 0.000000
# 3 -0.001638 -0.006509 0.016914 0.000000 0.000000 0.000000
# 4 0.000000 0.000000 0.000000 0.032859 0.000000 0.000000
# 5 0.000000 0.000000 0.000000 0.000000 0.080120 0.000000
# 6 0.000000 0.000000 0.000000 0.000000 0.000000 -0.021025
#
#
# Mechanical properties :
#
#
# Convention : Reuss Voigt Hill
#
# Bulk Modulus (GPa) = 29.96904 65.02051 47.49477
# Shear Modulus (GPa) = 30.03789 18.16053 24.09921
#
# Velocity S-wave (km/s) = 3.84539 2.98999 3.44435
# Velocity P-wave (km/s) = 5.87105 6.62785 6.26090
#
# Compressibility (1/GPa) = 0.03336777
#
# Stress axis : x y z
#
# Youngs Moduli (GPa) = 40.09172 153.42321 59.12423
#
# Poissons Ratio (x) = -0.09886 0.09686
# Poissons Ratio (y) = -0.02583 0.38486
# Poissons Ratio (z) = 0.06568 0.99869
#
# Static dielectric constant tensor:
#      x y z
#    x 1.761760 0.000000 0.000000 
#    y 0.000000 1.778750 0.000000 
#    z 0.000000 0.000000 1.704400 
# 
# From -- ./inp_files/2527.got.cif
#   From: 2010.05.17/outbox.cif.g08.bks.cpg/sg47_2_cif.got.tgz:2527.got - 2010.06.03 20:15:42.
