data_PCOD9385604
_publ_section_title
;
Structure prediction by ZEFSAII (Michael W. Deem and Ramdas Pophale) SiO2 
 PCOD9385604
Probable space group: P M M M
;
_chemical_formula_sum "Si O2"
_cell_formula_units_Z 40
_cell_length_a 19.704544
_cell_length_b 13.085800
_cell_length_c 7.746804
_cell_angle_alpha 90.000000
_cell_angle_beta 90.000000
_cell_angle_gamma 90.000000
_cell_volume 1997.511257
_symmetry_space_group_name_H-M "P M M M"
_symmetry_group_IT_number 47
_symmetry_cell_setting 'orthorhombic'
loop_
_space_group_symop_operation_xyz
x,y,z
-x,-y,z
x,-y,-z
-x,y,-z
-x,-y,-z
x,y,-z
-x,y,z
x,-y,z
loop_
_atom_site_type_symbol
_atom_site_label
_atom_site_fract_x
_atom_site_fract_y
_atom_site_fract_z
Si Si1 0.422535 0.000000 0.289398
Si Si2 0.922907 0.277880 0.795793
Si Si3 0.577476 0.383663 0.289293
Si Si4 0.333952 0.195270 0.288593
Si Si5 0.189600 0.884079 0.294203
Si Si6 0.922735 0.500000 0.705239
O O1 0.381816 0.100866 0.237343
O O2 0.500000 0.000000 0.229893
O O3 0.423617 0.000000 0.500000
O O4 0.875169 0.187042 0.734654
O O5 0.892935 0.390694 0.757235
O O6 0.000000 0.273431 0.722470
O O7 0.927915 0.269003 0.000000
O O8 0.578125 0.383250 0.500000
O O9 0.500000 0.356879 0.238664
O O10 0.591391 0.500000 0.234395
O O11 0.631788 0.300539 0.230200
O O12 0.333087 0.197987 0.500000
O O13 0.257893 0.170844 0.228214
O O14 0.198368 0.892798 0.500000
O O15 0.182825 0.000000 0.225974
O O16 0.926084 0.500000 0.500000
O O17 0.000000 0.500000 0.778415
#
# Coordination Sequence:
#
# PCOD9385604 Si02
#       6
#     4   8   8   8   8   4
#     4   9  14  20  36  60  84 119 166 210 257 311
#     4  10  21  37  57  80 106 136 172 215 260 310
#     4   8  13  21  34  54  84 123 162 201 251 311
#     4   9  15  25  38  57  90 128 165 209 260 314
#     4  10  20  34  50  70 103 142 178 223 274 318
#     4   9  17  33  59  87 111 133 162 203 252 307
#
# _framework density 20.024919000000001
#
# number of rings (size 3 to 8) (size 9 to 14) (size 15 to 20)
#    0.000    2.800    1.000    2.100    0.000    5.600 
#    1.800    2.000    0.000    0.000    0.000    0.000 
#    0.000    4.000    0.000    2.200    0.000    2.000 
#
# Total GULP energy -223074.191709 kJ/mol
# GULP energy per Si atom -5576.854793 kJ/mol
# Density = 1.997934 g / cm^3
# Si number density = 20.024919 Si / 1000 Ang^3
#
#
#
# Elastic Constant Matrix: (Units=GPa)
#
#
# Indices 1 2 3 4 5 6 
#
# 1 126.9550 102.4336 3.9870 0.0000 0.0000 0.0000
# 2 102.4336 189.3005 5.5022 0.0000 0.0000 0.0000
# 3 3.9870 5.5022 29.6972 0.0000 0.0000 0.0000
# 4 0.0000 0.0000 0.0000 -101.4493 0.0000 0.0000
# 5 0.0000 0.0000 0.0000 0.0000 -20.7394 0.0000
# 6 0.0000 0.0000 0.0000 0.0000 0.0000 23.4755
#
#
#
# Elastic Compliance Matrix: (Units=1/GPa)
#
#
# Indices 1 2 3 4 5 6 
#
# 1 0.013988 -0.007555 -0.000478 0.000000 0.000000 0.000000
# 2 -0.007555 0.009392 -0.000726 0.000000 0.000000 0.000000
# 3 -0.000478 -0.000726 0.033872 0.000000 0.000000 0.000000
# 4 0.000000 0.000000 0.000000 -0.009857 0.000000 0.000000
# 5 0.000000 0.000000 0.000000 0.000000 -0.048217 0.000000
# 6 0.000000 0.000000 0.000000 0.000000 0.000000 0.042598
#
#
# Mechanical properties :
#
#
# Convention : Reuss Voigt Hill
#
# Bulk Modulus (GPa) = 25.16771 63.31093 44.23932
# Shear Modulus (GPa) = 68.93066 -4.14064 32.39501
#
# Velocity S-wave (km/s) = 5.87343 -1.43953 4.02647
# Velocity P-wave (km/s) = 7.65452 5.37789 6.61489
#
# Compressibility (1/GPa) = 0.03973346
#
# Stress axis : x y z
#
# Youngs Moduli (GPa) = 71.49198 106.47537 29.52298
#
# Poissons Ratio (x) = 0.80442 0.01412
# Poissons Ratio (y) = 0.54012 0.02143
# Poissons Ratio (z) = 0.03418 0.07728
#
# Static dielectric constant tensor:
#      x y z
#    x 1.709040 0.000000 0.000000 
#    y 0.000000 1.713950 0.000000 
#    z 0.000000 0.000000 1.745610 
# 
# From -- ./inp_files/10710.got.cif
#   From: 2010.05.17/outbox.cif.g08.bks.cpg/sg47_6_cif.got.tgz:10710.got - 2010.06.03 20:15:42.
