data_PCOD9385382
_publ_section_title
;
Structure prediction by ZEFSAII (Michael W. Deem and Ramdas Pophale) SiO2 
 PCOD9385382
Probable space group: P M M M
;
_chemical_formula_sum "Si O2"
_cell_formula_units_Z 48
_cell_length_a 9.360408
_cell_length_b 9.070731
_cell_length_c 31.588964
_cell_angle_alpha 90.000000
_cell_angle_beta 90.000000
_cell_angle_gamma 90.000000
_cell_volume 2682.084460
_symmetry_space_group_name_H-M "P M M M"
_symmetry_group_IT_number 47
_symmetry_cell_setting 'orthorhombic'
loop_
_space_group_symop_operation_xyz
x,y,z
-x,-y,z
x,-y,-z
-x,y,-z
-x,-y,-z
x,y,-z
-x,y,z
x,-y,z
loop_
_atom_site_type_symbol
_atom_site_label
_atom_site_fract_x
_atom_site_fract_y
_atom_site_fract_z
Si Si1 0.673642 0.330404 0.500000
Si Si2 0.670622 0.824693 0.412681
Si Si3 0.333256 0.177117 0.160315
Si Si4 0.168855 0.675531 0.334457
Si Si5 0.166138 0.322127 0.084013
Si Si6 0.669304 0.823917 0.257651
Si Si7 0.664367 0.320331 0.000000
O O1 0.721508 0.500000 0.500000
O O2 0.500000 0.330178 0.500000
O O3 0.716758 0.247426 0.542834
O O4 0.500000 0.798619 0.407458
O O5 0.753961 0.752915 0.373892
O O6 0.692610 0.000000 0.413798
O O7 0.500000 0.216085 0.153302
O O8 0.235763 0.254258 0.125786
O O9 0.296860 0.215605 0.208942
O O10 0.321734 0.000000 0.156717
O O11 0.189685 0.500000 0.337111
O O12 0.238715 0.737238 0.291616
O O13 0.000000 0.706521 0.335097
O O14 0.174810 0.500000 0.086290
O O15 0.253333 0.273783 0.042383
O O16 0.000000 0.281767 0.080106
O O17 0.500000 0.796766 0.264269
O O18 0.691419 0.000000 0.262600
O O19 0.664550 0.500000 0.000000
O O20 0.500000 0.271483 0.000000
#
# Coordination Sequence:
#
# PCOD9385382 Si02
#       7
#     4   8   8   8   8   8   4
#     4   9  17  31  54  83 112 141 174 216 266 315
#     4  10  20  35  57  83 109 139 178 221 263 312
#     4   9  19  36  56  78 105 136 172 215 261 310
#     4  11  24  38  52  76 110 143 176 217 264 313
#     4  10  20  33  51  77 108 139 172 213 261 313
#     4   9  19  37  59  80 102 133 175 219 262 311
#     4   9  17  31  52  75 100 135 178 220 262 309
#
# _framework density 17.896528
#
# number of rings (size 3 to 8) (size 9 to 14) (size 15 to 20)
#    0.000    2.333    0.000    3.500    0.000    9.333 
#    0.000    5.833    0.000    5.000    0.000    0.000 
#    0.000    0.000    0.000    0.000    0.000    0.000 
#
# Total GULP energy -267973.555575 kJ/mol
# GULP energy per Si atom -5582.782408 kJ/mol
# Density = 1.785579 g / cm^3
# Si number density = 17.896528 Si / 1000 Ang^3
#
#
#
# Elastic Constant Matrix: (Units=GPa)
#
#
# Indices 1 2 3 4 5 6 
#
# 1 115.2529 69.0226 115.9333 0.0000 0.0000 0.0000
# 2 69.0226 62.0422 77.7610 0.0000 0.0000 0.0000
# 3 115.9333 77.7610 185.0872 0.0000 0.0000 0.0000
# 4 0.0000 0.0000 0.0000 37.6327 0.0000 0.0000
# 5 0.0000 0.0000 0.0000 0.0000 -17.6750 0.0000
# 6 0.0000 0.0000 0.0000 0.0000 0.0000 26.8609
#
#
#
# Elastic Compliance Matrix: (Units=1/GPa)
#
#
# Indices 1 2 3 4 5 6 
#
# 1 0.034984 -0.024197 -0.011747 0.000000 0.000000 0.000000
# 2 -0.024197 0.050781 -0.006179 0.000000 0.000000 0.000000
# 3 -0.011747 -0.006179 0.015357 0.000000 0.000000 0.000000
# 4 0.000000 0.000000 0.000000 0.026573 0.000000 0.000000
# 5 0.000000 0.000000 0.000000 0.000000 -0.056577 0.000000
# 6 0.000000 0.000000 0.000000 0.000000 0.000000 0.037229
#
#
# Mechanical properties :
#
#
# Convention : Reuss Voigt Hill
#
# Bulk Modulus (GPa) = 59.25247 98.64626 78.94936
# Shear Modulus (GPa) = 25.22490 16.00809 20.61649
#
# Velocity S-wave (km/s) = 3.75838 2.99403 3.39777
# Velocity P-wave (km/s) = 7.21209 8.19709 7.72031
#
# Compressibility (1/GPa) = 0.01687693
#
# Stress axis : x y z
#
# Youngs Moduli (GPa) = 28.58453 19.69235 65.11751
#
# Poissons Ratio (x) = 0.47649 0.76495
# Poissons Ratio (y) = 0.69165 0.40234
# Poissons Ratio (z) = 0.33579 0.12167
#
# Static dielectric constant tensor:
#      x y z
#    x 1.592020 0.000000 0.000000 
#    y 0.000000 1.596440 0.000000 
#    z 0.000000 0.000000 1.586300 
# 
# From -- ./inp_files/13817.got.cif
#   From: 2010.05.17/outbox.cif.g08.bks.cpg/sg47_7_cif.got.tgz:13817.got - 2010.06.03 20:15:42.
