data_PCOD9385345
_publ_section_title
;
Structure prediction by ZEFSAII (Michael W. Deem and Ramdas Pophale) SiO2 
 PCOD9385345
Probable space group: P M M M
;
_chemical_formula_sum "Si O2"
_cell_formula_units_Z 48
_cell_length_a 8.870298
_cell_length_b 15.556241
_cell_length_c 20.901363
_cell_angle_alpha 90.000000
_cell_angle_beta 90.000000
_cell_angle_gamma 90.000000
_cell_volume 2884.147591
_symmetry_space_group_name_H-M "P M M M"
_symmetry_group_IT_number 47
_symmetry_cell_setting 'orthorhombic'
loop_
_space_group_symop_operation_xyz
x,y,z
-x,-y,z
x,-y,-z
-x,y,-z
-x,-y,-z
x,y,-z
-x,y,z
x,-y,z
loop_
_atom_site_type_symbol
_atom_site_label
_atom_site_fract_x
_atom_site_fract_y
_atom_site_fract_z
Si Si1 0.329324 0.500000 0.924194
Si Si2 0.319928 0.725193 0.741262
Si Si3 0.177377 0.329911 0.873503
Si Si4 0.318471 0.094630 0.206218
Si Si5 0.671841 0.396186 0.500000
Si Si6 0.180690 0.600687 0.635139
Si Si7 0.178728 0.144733 0.928828
O O1 0.500000 0.500000 0.897268
O O2 0.238896 0.416145 0.903744
O O3 0.340536 0.500000 0.000000
O O4 0.500000 0.722643 0.733092
O O5 0.271378 0.686822 0.809458
O O6 0.270322 0.825311 0.749258
O O7 0.244570 0.667026 0.686996
O O8 0.196288 0.247558 0.919546
O O9 0.000000 0.336188 0.858039
O O10 0.500000 0.098502 0.202838
O O11 0.257203 0.106047 0.133856
O O12 0.273464 0.000000 0.229670
O O13 0.666313 0.500000 0.500000
O O14 0.500000 0.363874 0.500000
O O15 0.757041 0.373646 0.565293
O O16 0.225426 0.500000 0.647762
O O17 0.000000 0.603070 0.635236
O O18 0.000000 0.125338 0.925477
O O19 0.232660 0.119237 0.000000
#
# Coordination Sequence:
#
# PCOD9385345 Si02
#       7
#     4   8   8   8   4   8   8
#     4  11  23  35  47  65  89 120 161 206 251 299
#     4  10  20  34  52  74 100 131 168 209 250 295
#     4  10  20  34  50  66  90 123 162 205 250 298
#     4   9  19  35  52  71  96 126 162 206 256 307
#     4   9  17  31  51  77 108 141 176 209 241 278
#     4  10  20  33  51  76 109 144 175 204 241 288
#     4   9  18  32  49  69  92 119 154 199 252 308
#
# _framework density 16.642699
#
# number of rings (size 3 to 8) (size 9 to 14) (size 15 to 20)
#    0.000    2.333    0.000    2.500    1.167    5.667 
#    0.000    1.667    0.000    0.000    0.000    0.583 
#    0.000    4.667    0.000    0.000    0.000    0.000 
#
# Total GULP energy -267618.509645 kJ/mol
# GULP energy per Si atom -5575.385618 kJ/mol
# Density = 1.660482 g / cm^3
# Si number density = 16.642699 Si / 1000 Ang^3
#
#
#
# Elastic Constant Matrix: (Units=GPa)
#
#
# Indices 1 2 3 4 5 6 
#
# 1 42.8141 31.9520 26.2307 0.0000 0.0000 0.0000
# 2 31.9520 112.6913 48.1350 0.0000 0.0000 0.0000
# 3 26.2307 48.1350 99.7454 0.0000 0.0000 0.0000
# 4 0.0000 0.0000 0.0000 -1.0742 0.0000 0.0000
# 5 0.0000 0.0000 0.0000 0.0000 29.9022 0.0000
# 6 0.0000 0.0000 0.0000 0.0000 0.0000 17.2530
#
#
#
# Elastic Compliance Matrix: (Units=1/GPa)
#
#
# Indices 1 2 3 4 5 6 
#
# 1 0.031491 -0.006791 -0.005004 0.000000 0.000000 0.000000
# 2 -0.006791 0.012643 -0.004315 0.000000 0.000000 0.000000
# 3 -0.005004 -0.004315 0.013424 0.000000 0.000000 0.000000
# 4 0.000000 0.000000 0.000000 -0.930927 0.000000 0.000000
# 5 0.000000 0.000000 0.000000 0.000000 0.033442 0.000000
# 6 0.000000 0.000000 0.000000 0.000000 0.000000 0.057961
#
#
# Mechanical properties :
#
#
# Convention : Reuss Voigt Hill
#
# Bulk Modulus (GPa) = 39.46885 51.98736 45.72810
# Shear Modulus (GPa) = -6.74491 19.14507 6.20008
#
# Velocity S-wave (km/s) = -2.01533 3.39537 1.93223
# Velocity P-wave (km/s) = 4.28386 6.83202 5.70211
#
# Compressibility (1/GPa) = 0.02533643
#
# Stress axis : x y z
#
# Youngs Moduli (GPa) = 31.75511 79.09811 74.49449
#
# Poissons Ratio (x) = 0.53719 0.37277
# Poissons Ratio (y) = 0.21566 0.32145
# Poissons Ratio (z) = 0.15890 0.34131
#
# Static dielectric constant tensor:
#      x y z
#    x 1.567200 0.000000 0.000000 
#    y 0.000000 1.579840 0.000000 
#    z 0.000000 0.000000 1.532120 
# 
# From -- ./inp_files/9136.got.cif
#   From: 2010.05.17/outbox.cif.g08.bks.cpg/sg47_5_cif.got.tgz:9136.got - 2010.06.03 20:15:42.
