data_PCOD9385633
_publ_section_title
;
Structure prediction by ZEFSAII (Michael W. Deem and Ramdas Pophale) SiO2 
 PCOD9385633
Probable space group: P M M M
;
_chemical_formula_sum "Si O2"
_cell_formula_units_Z 64
_cell_length_a 24.560676
_cell_length_b 15.376013
_cell_length_c 9.224164
_cell_angle_alpha 90.000000
_cell_angle_beta 90.000000
_cell_angle_gamma 90.000000
_cell_volume 3483.461936
_symmetry_space_group_name_H-M "P M M M"
_symmetry_group_IT_number 47
_symmetry_cell_setting 'orthorhombic'
loop_
_space_group_symop_operation_xyz
x,y,z
-x,-y,z
x,-y,-z
-x,y,-z
-x,-y,-z
x,y,-z
-x,y,z
x,-y,z
loop_
_atom_site_type_symbol
_atom_site_label
_atom_site_fract_x
_atom_site_fract_y
_atom_site_fract_z
Si Si1 0.436958 0.401122 0.324010
Si Si2 0.060594 0.104833 0.666695
Si Si3 0.940945 0.600712 0.326872
Si Si4 0.842314 0.660585 0.160937
Si Si5 0.705438 0.098893 0.825283
Si Si6 0.172985 0.139635 0.834893
Si Si7 0.344956 0.734591 0.326085
Si Si8 0.727715 0.402993 0.828729
O O1 0.434673 0.402523 0.500000
O O2 0.500000 0.388315 0.282077
O O3 0.421005 0.500000 0.276657
O O4 0.398953 0.320236 0.279145
O O5 0.065234 0.136035 0.500000
O O6 0.116132 0.125690 0.751730
O O7 0.000000 0.133755 0.721535
O O8 0.058518 0.000000 0.663690
O O9 0.941313 0.601775 0.500000
O O10 0.933808 0.500000 0.281644
O O11 0.891662 0.655476 0.269145
O O12 0.000000 0.631116 0.274821
O O13 0.818559 0.757056 0.159527
O O14 0.792366 0.598529 0.195416
O O15 0.863010 0.639718 0.000000
O O16 0.769357 0.103811 0.777426
O O17 0.669518 0.173510 0.749016
O O18 0.686289 0.000000 0.798350
O O19 0.705559 0.113826 0.000000
O O20 0.165964 0.107114 0.000000
O O21 0.345833 0.745198 0.500000
O O22 0.298481 0.667722 0.274681
O O23 0.706673 0.500000 0.801855
O O24 0.719060 0.381740 0.000000
#
# Coordination Sequence:
#
# PCOD9385633 Si02
#       8
#     8   8   8   8   8   8   8   8
#     4   8  15  30  53  83 121 161 194 224 265 318
#     4   9  19  35  52  71  97 127 159 203 267 338
#     4   9  19  35  51  67  91 125 165 210 262 319
#     4  10  20  34  51  71  97 128 168 215 258 311
#     4  10  21  39  60  78 105 149 193 232 281 338
#     4  10  20  35  54  74  98 129 172 222 267 321
#     4  11  21  33  55  87 118 145 183 235 280 322
#     4  10  20  35  54  75 107 150 185 217 265 324
#
# _framework density 18.372527999999999
#
# number of rings (size 3 to 8) (size 9 to 14) (size 15 to 20)
#    0.000    2.375    1.250    2.625    0.000    5.000 
#    0.000    3.750    0.000    1.875    0.000    7.000 
#    0.000    0.000    0.000    0.000    0.000    0.000 
#
# Total GULP energy -356531.531389 kJ/mol
# GULP energy per Si atom -5570.805178 kJ/mol
# Density = 1.833071 g / cm^3
# Si number density = 18.372528 Si / 1000 Ang^3
#
#
#
# Elastic Constant Matrix: (Units=GPa)
#
#
# Indices 1 2 3 4 5 6 
#
# 1 95.7182 53.5699 34.7844 0.0000 0.0000 0.0000
# 2 53.5699 114.8630 33.3387 0.0000 0.0000 0.0000
# 3 34.7844 33.3387 30.0872 0.0000 0.0000 0.0000
# 4 0.0000 0.0000 0.0000 -0.2167 0.0000 0.0000
# 5 0.0000 0.0000 0.0000 0.0000 31.9062 0.0000
# 6 0.0000 0.0000 0.0000 0.0000 0.0000 26.0526
#
#
#
# Elastic Compliance Matrix: (Units=1/GPa)
#
#
# Indices 1 2 3 4 5 6 
#
# 1 0.019009 -0.003666 -0.017915 0.000000 0.000000 0.000000
# 2 -0.003666 0.013540 -0.010766 0.000000 0.000000 0.000000
# 3 -0.017915 -0.010766 0.065878 0.000000 0.000000 0.000000
# 4 0.000000 0.000000 0.000000 -4.614722 0.000000 0.000000
# 5 0.000000 0.000000 0.000000 0.000000 0.031342 0.000000
# 6 0.000000 0.000000 0.000000 0.000000 0.000000 0.038384
#
#
# Mechanical properties :
#
#
# Convention : Reuss Voigt Hill
#
# Bulk Modulus (GPa) = 29.64326 53.78381 41.71354
# Shear Modulus (GPa) = -1.14400 19.48011 9.16805
#
# Velocity S-wave (km/s) = -0.78995 3.25973 2.23627
# Velocity P-wave (km/s) = 3.91632 6.59586 5.42416
#
# Compressibility (1/GPa) = 0.03373449
#
# Stress axis : x y z
#
# Youngs Moduli (GPa) = 52.60556 73.85330 15.17963
#
# Poissons Ratio (x) = 0.27073 0.27195
# Poissons Ratio (y) = 0.19284 0.16342
# Poissons Ratio (z) = 0.94244 0.79507
#
# Static dielectric constant tensor:
#      x y z
#    x 1.641600 0.000000 0.000000 
#    y 0.000000 1.689210 0.000000 
#    z 0.000000 0.000000 1.638090 
# 
# From -- ./inp_files/12698.got.cif
#   From: 2010.05.17/outbox.cif.g08.bks.cpg/sg47_7_cif.got.tgz:12698.got - 2010.06.03 20:15:42.
