data_PCOD9385737
_publ_section_title
;
Structure prediction by ZEFSAII (Michael W. Deem and Ramdas Pophale) SiO2 
 PCOD9385737
Probable space group: P M M M
;
_chemical_formula_sum "Si O2"
_cell_formula_units_Z 48
_cell_length_a 35.583805
_cell_length_b 9.327732
_cell_length_c 7.863271
_cell_angle_alpha 90.000000
_cell_angle_beta 90.000000
_cell_angle_gamma 90.000000
_cell_volume 2609.947003
_symmetry_space_group_name_H-M "P M M M"
_symmetry_group_IT_number 47
_symmetry_cell_setting 'orthorhombic'
loop_
_space_group_symop_operation_xyz
x,y,z
-x,-y,z
x,-y,-z
-x,y,-z
-x,-y,-z
x,y,-z
-x,y,z
x,-y,z
loop_
_atom_site_type_symbol
_atom_site_label
_atom_site_fract_x
_atom_site_fract_y
_atom_site_fract_z
Si Si1 0.957070 0.825506 0.806286
Si Si2 0.904037 0.175520 0.500000
Si Si3 0.236071 0.171103 0.193506
Si Si4 0.541982 0.664421 0.205147
Si Si5 0.688531 0.333938 0.706767
Si Si6 0.384545 0.838400 0.703727
Si Si7 0.182060 0.174235 0.500000
O O1 0.927153 0.778233 0.666643
O O2 0.000000 0.782912 0.764093
O O3 0.956763 0.000000 0.805348
O O4 0.948720 0.780621 0.000000
O O5 0.860923 0.223990 0.500000
O O6 0.903783 0.000000 0.500000
O O7 0.274988 0.252288 0.225801
O O8 0.205488 0.217155 0.333071
O O9 0.242428 0.000000 0.215449
O O10 0.223307 0.194951 0.000000
O O11 0.500000 0.708200 0.262217
O O12 0.548397 0.500000 0.262230
O O13 0.575718 0.764791 0.260526
O O14 0.541565 0.663133 0.000000
O O15 0.689742 0.328289 0.500000
O O16 0.688595 0.500000 0.757424
O O17 0.650392 0.256453 0.765989
O O18 0.380551 0.845726 0.500000
O O19 0.383071 0.000000 0.771967
O O20 0.180919 0.000000 0.500000
#
# Coordination Sequence:
#
# PCOD9385737 Si02
#       7
#     8   4   8   8   8   8   4
#     4   8  13  20  30  47  74 109 152 204 255 300
#     4   9  15  22  35  53  75 111 156 203 255 302
#     4  10  20  34  53  74  98 132 168 204 256 314
#     4   9  19  36  55  74 100 136 175 213 251 292
#     4  10  20  35  56  78 100 128 163 206 255 304
#     4  10  21  35  53  79 108 136 165 202 249 299
#     4   9  18  31  45  64  93 125 163 215 260 304
#
# _framework density 18.391178
#
# number of rings (size 3 to 8) (size 9 to 14) (size 15 to 20)
#    0.000    2.667    0.833    2.250    0.000    5.333 
#    0.000    5.833    0.000    0.000    0.000    0.000 
#    0.000    0.000    0.000    0.000    0.000    6.667 
#
# Total GULP energy -267715.829117 kJ/mol
# GULP energy per Si atom -5577.413107 kJ/mol
# Density = 1.834932 g / cm^3
# Si number density = 18.391178 Si / 1000 Ang^3
#
#
#
# Elastic Constant Matrix: (Units=GPa)
#
#
# Indices 1 2 3 4 5 6 
#
# 1 183.9651 61.9027 79.9669 0.0000 0.0000 0.0000
# 2 61.9027 55.4740 41.6297 0.0000 0.0000 0.0000
# 3 79.9669 41.6297 81.9880 0.0000 0.0000 0.0000
# 4 0.0000 0.0000 0.0000 13.7168 0.0000 0.0000
# 5 0.0000 0.0000 0.0000 0.0000 2094.6836 0.0000
# 6 0.0000 0.0000 0.0000 0.0000 0.0000 -15.9948
#
#
#
# Elastic Compliance Matrix: (Units=1/GPa)
#
#
# Indices 1 2 3 4 5 6 
#
# 1 0.010781 -0.006687 -0.007119 0.000000 0.000000 0.000000
# 2 -0.006687 0.033272 -0.010371 0.000000 0.000000 0.000000
# 3 -0.007119 -0.010371 0.024407 0.000000 0.000000 0.000000
# 4 0.000000 0.000000 0.000000 0.072904 0.000000 0.000000
# 5 0.000000 0.000000 0.000000 0.000000 0.000477 0.000000
# 6 0.000000 0.000000 0.000000 0.000000 0.000000 -0.062520
#
#
# Mechanical properties :
#
#
# Convention : Reuss Voigt Hill
#
# Bulk Modulus (GPa) = 49.74339 76.49174 63.11757
# Shear Modulus (GPa) = 37.20842 427.67629 232.44236
#
# Velocity S-wave (km/s) = 4.50284 15.26595 11.25444
# Velocity P-wave (km/s) = 7.35801 18.77269 14.25753
#
# Compressibility (1/GPa) = 0.02010317
#
# Stress axis : x y z
#
# Youngs Moduli (GPa) = 92.75734 30.05531 40.97192
#
# Poissons Ratio (x) = 0.20099 0.29170
# Poissons Ratio (y) = 0.62031 0.42493
# Poissons Ratio (z) = 0.66038 0.31171
#
# Static dielectric constant tensor:
#      x y z
#    x 1.604900 0.000000 0.000000 
#    y 0.000000 1.617170 0.000000 
#    z 0.000000 0.000000 1.660030 
# 
# From -- ./inp_files/13912.got.cif
#   From: 2010.05.17/outbox.cif.g08.bks.cpg/sg47_7_cif.got.tgz:13912.got - 2010.06.03 20:15:42.
