data_PCOD9385180
_publ_section_title
;
Structure prediction by ZEFSAII (Michael W. Deem and Ramdas Pophale) SiO2 
 PCOD9385180
Probable space group: P M M M
;
_chemical_formula_sum "Si O2"
_cell_formula_units_Z 48
_cell_length_a 9.381635
_cell_length_b 31.929986
_cell_length_c 8.020094
_cell_angle_alpha 90.000000
_cell_angle_beta 90.000000
_cell_angle_gamma 90.000000
_cell_volume 2402.463061
_symmetry_space_group_name_H-M "P M M M"
_symmetry_group_IT_number 47
_symmetry_cell_setting 'orthorhombic'
loop_
_space_group_symop_operation_xyz
x,y,z
-x,-y,z
x,-y,-z
-x,y,-z
-x,-y,-z
x,y,-z
-x,y,z
x,-y,z
loop_
_atom_site_type_symbol
_atom_site_label
_atom_site_fract_x
_atom_site_fract_y
_atom_site_fract_z
Si Si1 0.835204 0.500000 0.296066
Si Si2 0.664637 0.417188 0.703838
Si Si3 0.836859 0.826958 0.198160
Si Si4 0.162381 0.919004 0.698909
Si Si5 0.660479 0.000000 0.801219
Si Si6 0.661459 0.253467 0.300377
Si Si7 0.164362 0.665645 0.295822
O O1 0.836238 0.500000 0.500000
O O2 0.750800 0.541567 0.243193
O O3 0.000000 0.500000 0.242317
O O4 0.663407 0.417313 0.500000
O O5 0.500000 0.417699 0.758004
O O6 0.747147 0.375255 0.755901
O O7 0.785255 0.873780 0.239627
O O8 0.737961 0.790387 0.265975
O O9 0.000000 0.823167 0.264009
O O10 0.842025 0.822662 0.000000
O O11 0.156862 0.917404 0.500000
O O12 0.256691 0.958311 0.748638
O O13 0.000000 0.924468 0.763299
O O14 0.500000 0.000000 0.732630
O O15 0.653672 0.000000 0.000000
O O16 0.653163 0.258403 0.500000
O O17 0.500000 0.254530 0.234165
O O18 0.756835 0.292182 0.238222
O O19 0.163247 0.665849 0.500000
O O20 0.000000 0.664102 0.241872
#
# Coordination Sequence:
#
# PCOD9385180 Si02
#       7
#     4   8   8   8   4   8   8
#     4   9  15  21  29  43  67 103 148 193 238 293
#     4   9  15  22  32  48  73 106 146 193 244 297
#     4  10  21  37  57  80 105 135 171 211 257 308
#     4  10  21  38  61  86 110 140 180 222 263 309
#     4  11  24  39  56  82 116 151 184 219 262 310
#     4  10  20  33  50  73 100 131 167 207 253 305
#     4   9  16  26  41  60  83 114 154 200 247 296
#
# _framework density 19.979496000000001
#
# number of rings (size 3 to 8) (size 9 to 14) (size 15 to 20)
#    0.000    2.333    0.000    3.250    0.000   10.333 
#    0.000    0.000    0.000    0.000    0.000    0.000 
#    0.000    0.000    0.000    0.750    0.000   14.667 
#
# Total GULP energy -268061.954115 kJ/mol
# GULP energy per Si atom -5584.624044 kJ/mol
# Density = 1.993402 g / cm^3
# Si number density = 19.979496 Si / 1000 Ang^3
#
#
#
# Elastic Constant Matrix: (Units=GPa)
#
#
# Indices 1 2 3 4 5 6 
#
# 1 186.5541 134.2550 6.5330 0.0000 0.0000 0.0000
# 2 134.2550 205.4705 -0.3726 0.0000 0.0000 0.0000
# 3 6.5330 -0.3726 15.6107 0.0000 0.0000 0.0000
# 4 0.0000 0.0000 0.0000 -46.5400 0.0000 0.0000
# 5 0.0000 0.0000 0.0000 0.0000 10.8123 0.0000
# 6 0.0000 0.0000 0.0000 0.0000 0.0000 -25.8755
#
#
#
# Elastic Compliance Matrix: (Units=1/GPa)
#
#
# Indices 1 2 3 4 5 6 
#
# 1 0.010429 -0.006822 -0.004527 0.000000 0.000000 0.000000
# 2 -0.006822 0.009330 0.003078 0.000000 0.000000 0.000000
# 3 -0.004527 0.003078 0.066027 0.000000 0.000000 0.000000
# 4 0.000000 0.000000 0.000000 -0.021487 0.000000 0.000000
# 5 0.000000 0.000000 0.000000 0.000000 0.092487 0.000000
# 6 0.000000 0.000000 0.000000 0.000000 0.000000 -0.038647
#
#
# Mechanical properties :
#
#
# Convention : Reuss Voigt Hill
#
# Bulk Modulus (GPa) = 14.44203 76.49620 45.46912
# Shear Modulus (GPa) = 31.69305 5.49403 18.59354
#
# Velocity S-wave (km/s) = 3.98713 1.66006 3.05393
# Velocity P-wave (km/s) = 5.33296 6.48420 5.93655
#
# Compressibility (1/GPa) = 0.06924234
#
# Stress axis : x y z
#
# Youngs Moduli (GPa) = 95.88989 107.17919 15.14535
#
# Poissons Ratio (x) = 0.73121 0.06857
# Poissons Ratio (y) = 0.65419 -0.04661
# Poissons Ratio (z) = 0.43411 -0.32988
#
# Static dielectric constant tensor:
#      x y z
#    x 1.698310 0.000000 0.000000 
#    y 0.000000 1.747370 0.000000 
#    z 0.000000 0.000000 1.711660 
# 
# From -- ./inp_files/2552.got.cif
#   From: 2010.05.17/outbox.cif.g08.bks.cpg/sg47_2_cif.got.tgz:2552.got - 2010.06.03 20:15:42.
