data_PCOD9385302
_publ_section_title
;
Structure prediction by ZEFSAII (Michael W. Deem and Ramdas Pophale) SiO2 
 PCOD9385302
Probable space group: P M M M
;
_chemical_formula_sum "Si O2"
_cell_formula_units_Z 56
_cell_length_a 19.730379
_cell_length_b 7.516133
_cell_length_c 16.731510
_cell_angle_alpha 90.000000
_cell_angle_beta 90.000000
_cell_angle_gamma 90.000000
_cell_volume 2481.218562
_symmetry_space_group_name_H-M "P M M M"
_symmetry_group_IT_number 47
_symmetry_cell_setting 'orthorhombic'
loop_
_space_group_symop_operation_xyz
x,y,z
-x,-y,z
x,-y,-z
-x,y,-z
-x,-y,-z
x,y,-z
-x,y,z
x,-y,z
loop_
_atom_site_type_symbol
_atom_site_label
_atom_site_fract_x
_atom_site_fract_y
_atom_site_fract_z
Si Si1 0.645612 0.209309 0.412779
Si Si2 0.074512 0.214461 0.907052
Si Si3 0.784434 0.715759 0.661406
Si Si4 0.219777 0.707807 0.839476
Si Si5 0.353121 0.205308 0.913383
Si Si6 0.926332 0.716460 0.406498
Si Si7 0.579151 0.783209 0.249081
O O1 0.627100 0.284372 0.500000
O O2 0.726098 0.227290 0.398964
O O3 0.611555 0.283337 0.332179
O O4 0.628564 0.000000 0.414930
O O5 0.140836 0.273556 0.860275
O O6 0.000000 0.274348 0.877668
O O7 0.074397 0.000000 0.905865
O O8 0.080695 0.269801 0.000000
O O9 0.785448 0.500000 0.662302
O O10 0.767255 0.779235 0.750510
O O11 0.859321 0.778337 0.637953
O O12 0.235992 0.500000 0.840286
O O13 0.272000 0.793171 0.900848
O O14 0.384896 0.282189 0.832092
O O15 0.375762 0.000000 0.915953
O O16 0.369771 0.285664 0.000000
O O17 0.921785 0.764369 0.500000
O O18 0.926092 0.500000 0.403235
O O19 0.000000 0.775930 0.375620
O O20 0.500000 0.740904 0.246768
O O21 0.586154 0.000000 0.249912
#
# Coordination Sequence:
#
# PCOD9385302 Si02
#       7
#     8   8   8   8   8   8   8
#     4  10  20  34  55  82 110 142 177 216 267 322
#     4   9  19  36  55  74 100 139 186 231 277 331
#     4  10  20  33  51  75 104 141 181 221 265 316
#     4  11  22  33  50  78 109 142 182 229 277 323
#     4  10  20  35  57  81 106 142 182 220 269 325
#     4   8  14  26  45  68  93 124 166 214 258 299
#     4   9  18  34  56  83 113 140 171 218 269 319
#
# _framework density 22.569557
#
# number of rings (size 3 to 8) (size 9 to 14) (size 15 to 20)
#    0.000    2.429    1.429    2.143    0.000    5.143 
#    0.000    5.000    0.000    2.143    0.000    4.000 
#    0.000    0.000    0.000    0.000    0.000    0.000 
#
# Total GULP energy -312688.789590 kJ/mol
# GULP energy per Si atom -5583.728386 kJ/mol
# Density = 2.251819 g / cm^3
# Si number density = 22.569557 Si / 1000 Ang^3
#
#
#
# Elastic Constant Matrix: (Units=GPa)
#
#
# Indices 1 2 3 4 5 6 
#
# 1 112.9694 -4.3140 69.9260 0.0000 0.0000 0.0000
# 2 -4.3140 62.3987 10.0389 0.0000 0.0000 0.0000
# 3 69.9260 10.0389 178.1289 0.0000 0.0000 0.0000
# 4 0.0000 0.0000 0.0000 468.3645 0.0000 0.0000
# 5 0.0000 0.0000 0.0000 0.0000 4.5047 0.0000
# 6 0.0000 0.0000 0.0000 0.0000 0.0000 34.9733
#
#
#
# Elastic Compliance Matrix: (Units=1/GPa)
#
#
# Indices 1 2 3 4 5 6 
#
# 1 0.011846 0.001581 -0.004739 0.000000 0.000000 0.000000
# 2 0.001581 0.016384 -0.001544 0.000000 0.000000 0.000000
# 3 -0.004739 -0.001544 0.007561 0.000000 0.000000 0.000000
# 4 0.000000 0.000000 0.000000 0.002135 0.000000 0.000000
# 5 0.000000 0.000000 0.000000 0.000000 0.221992 0.000000
# 6 0.000000 0.000000 0.000000 0.000000 0.000000 0.028593
#
#
# Mechanical properties :
#
#
# Convention : Reuss Voigt Hill
#
# Bulk Modulus (GPa) = 37.89745 56.08873 46.99309
# Shear Modulus (GPa) = 16.30197 120.09157 68.19677
#
# Velocity S-wave (km/s) = 2.69048 7.30240 5.50290
# Velocity P-wave (km/s) = 5.14582 9.79824 7.82576
#
# Compressibility (1/GPa) = 0.02638700
#
# Stress axis : x y z
#
# Youngs Moduli (GPa) = 84.41730 61.03607 132.25056
#
# Poissons Ratio (x) = -0.09653 0.62678
# Poissons Ratio (y) = -0.13350 0.20422
# Poissons Ratio (z) = 0.40008 0.09425
#
# Static dielectric constant tensor:
#      x y z
#    x 1.806980 0.000000 0.000000 
#    y 0.000000 1.854090 0.000000 
#    z 0.000000 0.000000 1.839700 
# 
# From -- ./inp_files/7216.got.cif
#   From: 2010.05.17/outbox.cif.g08.bks.cpg/sg47_4_cif.got.tgz:7216.got - 2010.06.03 20:15:42.
