data_PCOD9385237
_publ_section_title
;
Structure prediction by ZEFSAII (Michael W. Deem and Ramdas Pophale) SiO2 
 PCOD9385237
Probable space group: P M M M
;
_chemical_formula_sum "Si O2"
_cell_formula_units_Z 48
_cell_length_a 7.855530
_cell_length_b 9.434048
_cell_length_c 31.754122
_cell_angle_alpha 90.000000
_cell_angle_beta 90.000000
_cell_angle_gamma 90.000000
_cell_volume 2353.280424
_symmetry_space_group_name_H-M "P M M M"
_symmetry_group_IT_number 47
_symmetry_cell_setting 'orthorhombic'
loop_
_space_group_symop_operation_xyz
x,y,z
-x,-y,z
x,-y,-z
-x,y,-z
-x,-y,-z
x,y,-z
-x,y,z
x,-y,z
loop_
_atom_site_type_symbol
_atom_site_label
_atom_site_fract_x
_atom_site_fract_y
_atom_site_fract_z
Si Si1 0.296773 0.160251 0.336681
Si Si2 0.291475 0.336588 0.582772
Si Si3 0.791134 0.663004 0.000000
Si Si4 0.796588 0.839964 0.919364
Si Si5 0.702957 0.338653 0.161539
Si Si6 0.797224 0.661466 0.255909
Si Si7 0.708012 0.163559 0.500000
O O1 0.500000 0.150878 0.342551
O O2 0.232272 0.257474 0.374960
O O3 0.266418 0.235901 0.292275
O O4 0.228041 0.000000 0.337736
O O5 0.500000 0.338157 0.582979
O O6 0.236182 0.500000 0.581246
O O7 0.238849 0.247996 0.541744
O O8 0.732924 0.745374 0.958247
O O9 0.735979 0.500000 0.000000
O O10 0.000000 0.662075 0.000000
O O11 0.764742 0.763051 0.875234
O O12 0.000000 0.849081 0.924810
O O13 0.727824 0.000000 0.920040
O O14 0.500000 0.343990 0.159224
O O15 0.770005 0.500000 0.155760
O O16 0.751396 0.292147 0.208634
O O17 0.729896 0.500000 0.261510
O O18 0.000000 0.656021 0.258972
O O19 0.500000 0.161823 0.500000
O O20 0.763952 0.000000 0.500000
#
# Coordination Sequence:
#
# PCOD9385237 Si02
#       7
#     8   8   4   8   8   8   4
#     4  10  20  33  50  74 104 137 172 212 261 313
#     4   9  16  26  42  65  95 132 172 212 255 304
#     4   9  17  31  54  81 108 141 180 220 260 303
#     4  10  20  34  54  81 112 144 178 217 261 309
#     4  10  21  37  57  80 106 138 176 217 262 312
#     4  10  21  37  57  79 102 132 172 216 261 311
#     4   9  15  23  37  61  96 133 168 209 256 305
#
# _framework density 20.397058999999999
#
# number of rings (size 3 to 8) (size 9 to 14) (size 15 to 20)
#    0.000    2.333    0.000    3.000    0.000    8.667 
#    0.000    0.417    0.000    2.500    0.000    0.583 
#    0.000    4.667    0.000    0.000    0.000    0.000 
#
# Total GULP energy -268097.021237 kJ/mol
# GULP energy per Si atom -5585.354609 kJ/mol
# Density = 2.035063 g / cm^3
# Si number density = 20.397059 Si / 1000 Ang^3
#
#
#
# Elastic Constant Matrix: (Units=GPa)
#
#
# Indices 1 2 3 4 5 6 
#
# 1 21.6425 7.4239 -4.0085 0.0000 0.0000 0.0000
# 2 7.4239 206.6121 147.9850 0.0000 0.0000 0.0000
# 3 -4.0085 147.9850 197.0369 0.0000 0.0000 0.0000
# 4 0.0000 0.0000 0.0000 12.4847 0.0000 0.0000
# 5 0.0000 0.0000 0.0000 0.0000 18.7811 0.0000
# 6 0.0000 0.0000 0.0000 0.0000 0.0000 11.5474
#
#
#
# Elastic Compliance Matrix: (Units=1/GPa)
#
#
# Indices 1 2 3 4 5 6 
#
# 1 0.048970 -0.005352 0.005016 0.000000 0.000000 0.000000
# 2 -0.005352 0.011060 -0.008415 0.000000 0.000000 0.000000
# 3 0.005016 -0.008415 0.011498 0.000000 0.000000 0.000000
# 4 0.000000 0.000000 0.000000 0.080098 0.000000 0.000000
# 5 0.000000 0.000000 0.000000 0.000000 0.053245 0.000000
# 6 0.000000 0.000000 0.000000 0.000000 0.000000 0.086600
#
#
# Mechanical properties :
#
#
# Convention : Reuss Voigt Hill
#
# Bulk Modulus (GPa) = 18.51009 80.89914 49.70462
# Shear Modulus (GPa) = 15.29136 26.82204 21.05670
#
# Velocity S-wave (km/s) = 2.74101 3.63022 3.21649
# Velocity P-wave (km/s) = 4.37174 7.57097 6.18190
#
# Compressibility (1/GPa) = 0.05402458
#
# Stress axis : x y z
#
# Youngs Moduli (GPa) = 20.42052 90.41783 86.97461
#
# Poissons Ratio (x) = 0.48395 -0.43628
# Poissons Ratio (y) = 0.10930 0.73192
# Poissons Ratio (z) = -0.10243 0.76090
#
# Static dielectric constant tensor:
#      x y z
#    x 1.755880 0.000000 0.000000 
#    y 0.000000 1.716770 0.000000 
#    z 0.000000 0.000000 1.688340 
# 
# From -- ./inp_files/2680.got.cif
#   From: 2010.05.17/outbox.cif.g08.bks.cpg/sg47_2_cif.got.tgz:2680.got - 2010.06.03 20:15:42.
