data_PCOD9385846
_publ_section_title
;
Structure prediction by ZEFSAII (Michael W. Deem and Ramdas Pophale) SiO2 
 PCOD9385846
Probable space group: P M M M
;
_chemical_formula_sum "Si O2"
_cell_formula_units_Z 56
_cell_length_a 8.975383
_cell_length_b 14.566031
_cell_length_c 26.041671
_cell_angle_alpha 90.000000
_cell_angle_beta 90.000000
_cell_angle_gamma 90.000000
_cell_volume 3404.576270
_symmetry_space_group_name_H-M "P M M M"
_symmetry_group_IT_number 47
_symmetry_cell_setting 'orthorhombic'
loop_
_space_group_symop_operation_xyz
x,y,z
-x,-y,z
x,-y,-z
-x,y,-z
-x,-y,-z
x,y,-z
-x,y,z
x,-y,z
loop_
_atom_site_type_symbol
_atom_site_label
_atom_site_fract_x
_atom_site_fract_y
_atom_site_fract_z
Si Si1 0.678690 0.391954 0.754515
Si Si2 0.677330 0.608076 0.059870
Si Si3 0.677894 0.719758 0.349360
Si Si4 0.177364 0.894700 0.695390
Si Si5 0.178532 0.392261 0.559274
Si Si6 0.677333 0.894415 0.192141
Si Si7 0.177173 0.282319 0.848990
O O1 0.500000 0.383746 0.762424
O O2 0.715292 0.500000 0.752502
O O3 0.715084 0.342014 0.700865
O O4 0.760601 0.341737 0.801153
O O5 0.500000 0.621960 0.067978
O O6 0.707307 0.500000 0.069041
O O7 0.768549 0.669137 0.099161
O O8 0.709419 0.627178 0.000000
O O9 0.500000 0.729500 0.351041
O O10 0.754096 0.818180 0.341289
O O11 0.737352 0.669236 0.399703
O O12 0.253791 0.883060 0.751030
O O13 0.000000 0.881929 0.700587
O O14 0.204738 0.000000 0.678836
O O15 0.215831 0.370428 0.500000
O O16 0.213057 0.500000 0.567717
O O17 0.000000 0.381587 0.565137
O O18 0.500000 0.879321 0.194857
O O19 0.752480 0.818630 0.156632
O O20 0.704153 0.000000 0.176282
O O21 0.000000 0.277627 0.846351
#
# Coordination Sequence:
#
# PCOD9385846 Si02
#       7
#     8   8   8   8   8   8   8
#     4  10  21  35  49  70 105 145 179 212 255 310
#     4   9  19  37  59  79 102 139 184 224 262 308
#     4  11  21  33  53  79 107 141 178 217 264 314
#     4  10  20  34  53  78 107 138 174 216 263 316
#     4   9  19  36  56  77 104 141 182 222 265 314
#     4  10  20  35  55  77 103 138 179 219 260 311
#     4  12  23  33  51  79 110 142 174 214 267 318
#
# _framework density 16.448449
#
# number of rings (size 3 to 8) (size 9 to 14) (size 15 to 20)
#    0.000    1.857    1.429    4.286    0.000    6.000 
#    0.000    1.429    0.000    0.857    0.000    6.000 
#    0.000    0.000    0.000    0.000    0.000    0.000 
#
# Total GULP energy -312741.821120 kJ/mol
# GULP energy per Si atom -5584.675377 kJ/mol
# Density = 1.641101 g / cm^3
# Si number density = 16.448449 Si / 1000 Ang^3
#
#
#
# Elastic Constant Matrix: (Units=GPa)
#
#
# Indices 1 2 3 4 5 6 
#
# 1 81.1799 77.6260 64.0284 0.0000 0.0000 0.0000
# 2 77.6260 128.1191 76.2581 0.0000 0.0000 0.0000
# 3 64.0284 76.2581 92.7625 0.0000 0.0000 0.0000
# 4 0.0000 0.0000 0.0000 20.0413 0.0000 0.0000
# 5 0.0000 0.0000 0.0000 0.0000 46.8840 0.0000
# 6 0.0000 0.0000 0.0000 0.0000 0.0000 24.6388
#
#
#
# Elastic Compliance Matrix: (Units=1/GPa)
#
#
# Indices 1 2 3 4 5 6 
#
# 1 0.036442 -0.013919 -0.013712 0.000000 0.000000 0.000000
# 2 -0.013919 0.020600 -0.007327 0.000000 0.000000 0.000000
# 3 -0.013712 -0.007327 0.026268 0.000000 0.000000 0.000000
# 4 0.000000 0.000000 0.000000 0.049897 0.000000 0.000000
# 5 0.000000 0.000000 0.000000 0.000000 0.021329 0.000000
# 6 0.000000 0.000000 0.000000 0.000000 0.000000 0.040586
#
#
# Mechanical properties :
#
#
# Convention : Reuss Voigt Hill
#
# Bulk Modulus (GPa) = 74.65567 81.98737 78.32152
# Shear Modulus (GPa) = 18.55261 23.92275 21.23768
#
# Velocity S-wave (km/s) = 3.36210 3.81781 3.59718
# Velocity P-wave (km/s) = 7.78189 8.32991 8.06056
#
# Compressibility (1/GPa) = 0.01339483
#
# Stress axis : x y z
#
# Youngs Moduli (GPa) = 27.44053 48.54419 38.06856
#
# Poissons Ratio (x) = 0.67567 0.52199
# Poissons Ratio (y) = 0.38194 0.27895
# Poissons Ratio (z) = 0.37626 0.35570
#
# Static dielectric constant tensor:
#      x y z
#    x 1.545140 0.000000 0.000000 
#    y 0.000000 1.552360 0.000000 
#    z 0.000000 0.000000 1.523640 
# 
# From -- ./inp_files/29710.got.cif
#   From: 2010.05.17/outbox.cif.g08.bks.cpg/sg47_15_cif.got.tgz:29710.got - 2010.06.03 20:15:42.
