data_PCOD9385182
_publ_section_title
;
Structure prediction by ZEFSAII (Michael W. Deem and Ramdas Pophale) SiO2 
 PCOD9385182
Probable space group: P M M M
;
_chemical_formula_sum "Si O2"
_cell_formula_units_Z 36
_cell_length_a 7.835996
_cell_length_b 24.013696
_cell_length_c 9.548104
_cell_angle_alpha 90.000000
_cell_angle_beta 90.000000
_cell_angle_gamma 90.000000
_cell_volume 1796.678434
_symmetry_space_group_name_H-M "P M M M"
_symmetry_group_IT_number 47
_symmetry_cell_setting 'orthorhombic'
loop_
_space_group_symop_operation_xyz
x,y,z
-x,-y,z
x,-y,-z
-x,y,-z
-x,-y,-z
x,y,-z
-x,y,z
x,-y,z
loop_
_atom_site_type_symbol
_atom_site_label
_atom_site_fract_x
_atom_site_fract_y
_atom_site_fract_z
Si Si1 0.697831 0.000000 0.170387
Si Si2 0.293854 0.436888 0.340220
Si Si3 0.202076 0.668425 0.841925
Si Si4 0.703538 0.774055 0.657723
Si Si5 0.709673 0.878402 0.162438
O O1 0.770468 0.939778 0.210395
O O2 0.500000 0.000000 0.216512
O O3 0.697460 0.000000 0.000000
O O4 0.238082 0.423961 0.500000
O O5 0.500000 0.436905 0.341094
O O6 0.237727 0.500000 0.306584
O O7 0.236719 0.390357 0.232280
O O8 0.269337 0.718258 0.746047
O O9 0.000000 0.675792 0.850133
O O10 0.273038 0.670307 0.000000
O O11 0.772501 0.769324 0.500000
O O12 0.500000 0.781770 0.647316
O O13 0.769593 0.827801 0.741664
O O14 0.500000 0.879768 0.163950
O O15 0.758446 0.869608 0.000000
#
# Coordination Sequence:
#
# PCOD9385182 Si02
#       5
#     4   8   8   8   8
#     4   7  10  18  35  61  92 125 160 197 240 292
#     4   9  19  37  60  84 108 134 165 200 240 291
#     4  11  24  38  52  74 103 134 170 211 252 294
#     4  10  20  33  50  73 100 131 169 210 252 301
#     4   8  13  23  41  65  94 128 164 202 245 293
#
# _framework density 20.036974000000001
#
# number of rings (size 3 to 8) (size 9 to 14) (size 15 to 20)
#    0.000    2.778    0.000    4.000    0.000    7.111 
#    0.000    3.889    0.000    3.333    0.000    0.778 
#    0.000    6.222    0.000    0.000    0.000    0.000 
#
# Total GULP energy -200792.653574 kJ/mol
# GULP energy per Si atom -5577.573710 kJ/mol
# Density = 1.999137 g / cm^3
# Si number density = 20.036974 Si / 1000 Ang^3
#
#
#
# Elastic Constant Matrix: (Units=GPa)
#
#
# Indices 1 2 3 4 5 6 
#
# 1 21.4772 -1.7738 5.1044 0.0000 0.0000 0.0000
# 2 -1.7738 168.9336 114.1633 0.0000 0.0000 0.0000
# 3 5.1044 114.1633 154.8627 0.0000 0.0000 0.0000
# 4 0.0000 0.0000 0.0000 48.8489 0.0000 0.0000
# 5 0.0000 0.0000 0.0000 0.0000 -216.1104 0.0000
# 6 0.0000 0.0000 0.0000 0.0000 0.0000 -53.0438
#
#
#
# Elastic Compliance Matrix: (Units=1/GPa)
#
#
# Indices 1 2 3 4 5 6 
#
# 1 0.047739 0.003118 -0.003872 0.000000 0.000000 0.000000
# 2 0.003118 0.012000 -0.008949 0.000000 0.000000 0.000000
# 3 -0.003872 -0.008949 0.013182 0.000000 0.000000 0.000000
# 4 0.000000 0.000000 0.000000 0.020471 0.000000 0.000000
# 5 0.000000 0.000000 0.000000 0.000000 -0.004627 0.000000
# 6 0.000000 0.000000 0.000000 0.000000 0.000000 -0.018852
#
#
# Mechanical properties :
#
#
# Convention : Reuss Voigt Hill
#
# Bulk Modulus (GPa) = 18.68652 64.47348 41.58000
# Shear Modulus (GPa) = 46.66082 -28.87574 8.89254
#
# Velocity S-wave (km/s) = 4.83093 -3.80033 2.10896
# Velocity P-wave (km/s) = 6.36109 3.60422 5.16981
#
# Compressibility (1/GPa) = 0.05351450
#
# Stress axis : x y z
#
# Youngs Moduli (GPa) = 20.94736 83.33487 75.86102
#
# Poissons Ratio (x) = -0.25983 0.29374
# Poissons Ratio (y) = -0.06531 0.67887
# Poissons Ratio (z) = 0.08111 0.74575
#
# Static dielectric constant tensor:
#      x y z
#    x 1.738540 0.000000 0.000000 
#    y 0.000000 1.705100 0.000000 
#    z 0.000000 0.000000 1.700690 
# 
# From -- ./inp_files/1408.got.cif
#   From: 2010.05.17/outbox.cif.g08.bks.cpg/sg47_1_cif.got.tgz:1408.got - 2010.06.03 20:15:42.
