data_PCOD9385559
_publ_section_title
;
Structure prediction by ZEFSAII (Michael W. Deem and Ramdas Pophale) SiO2 
 PCOD9385559
Probable space group: P M M M
;
_chemical_formula_sum "Si O2"
_cell_formula_units_Z 32
_cell_length_a 8.018533
_cell_length_b 22.830704
_cell_length_c 9.578539
_cell_angle_alpha 90.000000
_cell_angle_beta 90.000000
_cell_angle_gamma 90.000000
_cell_volume 1753.531194
_symmetry_space_group_name_H-M "P M M M"
_symmetry_group_IT_number 47
_symmetry_cell_setting 'orthorhombic'
loop_
_space_group_symop_operation_xyz
x,y,z
-x,-y,z
x,-y,-z
-x,y,-z
-x,-y,-z
x,y,-z
-x,y,z
x,-y,z
loop_
_atom_site_type_symbol
_atom_site_label
_atom_site_fract_x
_atom_site_fract_y
_atom_site_fract_z
Si Si1 0.812282 0.146698 0.667117
Si Si2 0.198560 0.500000 0.656969
Si Si3 0.700938 0.610067 0.841198
Si Si4 0.500000 0.067001 0.330192
Si Si5 0.700429 0.741565 0.834366
O O1 0.795824 0.155382 0.500000
O O2 0.665968 0.102345 0.711894
O O3 0.785176 0.208002 0.745164
O O4 0.000000 0.124675 0.694077
O O5 0.268296 0.500000 0.500000
O O6 0.250236 0.442046 0.740202
O O7 0.000000 0.500000 0.649180
O O8 0.500000 0.612178 0.846718
O O9 0.755685 0.675390 0.797727
O O10 0.760387 0.598928 0.000000
O O11 0.500000 0.065592 0.500000
O O12 0.500000 0.000000 0.281040
O O13 0.500000 0.745561 0.813007
O O14 0.730961 0.749305 0.000000
#
# Coordination Sequence:
#
# PCOD9385559 Si02
#       5
#     8   4   8   4   8
#     4  10  20  33  53  82 112 143 181 224 270 320
#     4  11  24  37  48  70 106 141 174 217 268 320
#     4   9  19  36  57  78  99 130 176 222 263 316
#     4   9  18  34  55  79 111 148 183 222 267 315
#     4   9  18  34  56  80 106 138 176 220 271 324
#
# _framework density 18.248891
#
# number of rings (size 3 to 8) (size 9 to 14) (size 15 to 20)
#    0.000    2.500    1.250    2.250    0.000    6.000 
#    0.000   10.000    0.000    1.500    0.000    1.750 
#    0.000    0.000    0.000    0.000    0.000    0.000 
#
# Total GULP energy -178497.887626 kJ/mol
# GULP energy per Si atom -5578.058988 kJ/mol
# Density = 1.820736 g / cm^3
# Si number density = 18.248891 Si / 1000 Ang^3
#
#
#
# Elastic Constant Matrix: (Units=GPa)
#
#
# Indices 1 2 3 4 5 6 
#
# 1 91.6035 68.5239 35.5825 0.0000 0.0000 0.0000
# 2 68.5239 164.4337 63.5657 0.0000 0.0000 0.0000
# 3 35.5825 63.5657 45.6377 0.0000 0.0000 0.0000
# 4 0.0000 0.0000 0.0000 33.6198 0.0000 0.0000
# 5 0.0000 0.0000 0.0000 0.0000 40.2783 0.0000
# 6 0.0000 0.0000 0.0000 0.0000 0.0000 -5.0098
#
#
#
# Elastic Compliance Matrix: (Units=1/GPa)
#
#
# Indices 1 2 3 4 5 6 
#
# 1 0.016914 -0.004226 -0.007301 0.000000 0.000000 0.000000
# 2 -0.004226 0.014232 -0.016527 0.000000 0.000000 0.000000
# 3 -0.007301 -0.016527 0.050624 0.000000 0.000000 0.000000
# 4 0.000000 0.000000 0.000000 0.029744 0.000000 0.000000
# 5 0.000000 0.000000 0.000000 0.000000 0.024827 0.000000
# 6 0.000000 0.000000 0.000000 0.000000 0.000000 -0.199607
#
#
# Mechanical properties :
#
#
# Convention : Reuss Voigt Hill
#
# Bulk Modulus (GPa) = 38.97038 70.77989 54.87513
# Shear Modulus (GPa) = 3580.84309 22.71117 1801.77713
#
# Velocity S-wave (km/s) = 44.34507 3.53161 31.45598
# Velocity P-wave (km/s) = 51.41382 7.44981 36.73473
#
# Compressibility (1/GPa) = 0.02566052
#
# Stress axis : x y z
#
# Youngs Moduli (GPa) = 59.12265 70.26620 19.75349
#
# Poissons Ratio (x) = 0.29695 0.14422
# Poissons Ratio (y) = 0.24986 0.32647
# Poissons Ratio (z) = 0.43166 1.16131
#
# Static dielectric constant tensor:
#      x y z
#    x 1.654720 0.000000 0.000000 
#    y 0.000000 1.610710 0.000000 
#    z 0.000000 0.000000 1.613950 
# 
# From -- ./inp_files/1324.got.cif
#   From: 2010.05.17/outbox.cif.g08.bks.cpg/sg47_1_cif.got.tgz:1324.got - 2010.06.03 20:15:42.
