data_PCOD9385854
_publ_section_title
;
Structure prediction by ZEFSAII (Michael W. Deem and Ramdas Pophale) SiO2 
 PCOD9385854
Probable space group: P M M M
;
_chemical_formula_sum "Si O2"
_cell_formula_units_Z 40
_cell_length_a 26.650031
_cell_length_b 9.233252
_cell_length_c 8.741736
_cell_angle_alpha 90.000000
_cell_angle_beta 90.000000
_cell_angle_gamma 90.000000
_cell_volume 2151.047962
_symmetry_space_group_name_H-M "P M M M"
_symmetry_group_IT_number 47
_symmetry_cell_setting 'orthorhombic'
loop_
_space_group_symop_operation_xyz
x,y,z
-x,-y,z
x,-y,-z
-x,y,-z
-x,-y,-z
x,y,-z
-x,y,z
x,-y,z
loop_
_atom_site_type_symbol
_atom_site_label
_atom_site_fract_x
_atom_site_fract_y
_atom_site_fract_z
Si Si1 0.403332 0.668938 0.185134
Si Si2 0.697916 0.166765 0.186497
Si Si3 0.000000 0.175982 0.823060
Si Si4 0.500000 0.168791 0.683414
Si Si5 0.894447 0.169634 0.317217
Si Si6 0.798608 0.331850 0.815109
O O1 0.403641 0.500000 0.228713
O O2 0.351608 0.745843 0.233691
O O3 0.450834 0.751865 0.252878
O O4 0.406010 0.675910 0.000000
O O5 0.749032 0.245093 0.235744
O O6 0.696153 0.000000 0.236818
O O7 0.698150 0.166955 0.000000
O O8 0.051608 0.222540 0.743776
O O9 0.000000 0.000000 0.814788
O O10 0.000000 0.218569 0.000000
O O11 0.500000 0.175795 0.500000
O O12 0.500000 0.000000 0.729990
O O13 0.894301 0.176706 0.500000
O O14 0.848553 0.259601 0.250103
O O15 0.888658 0.000000 0.272010
O O16 0.794876 0.500000 0.771161
O O17 0.800531 0.324782 0.000000
#
# Coordination Sequence:
#
# PCOD9385854 Si02
#       6
#     8   8   4   4   8   8
#     4  10  20  35  57  84 111 140 177 221 269 321
#     4   9  17  31  54  82 109 138 174 218 266 314
#     4   9  17  31  54  81 106 135 174 220 268 317
#     4  11  24  39  54  76 108 145 184 225 268 316
#     4  10  20  34  53  78 108 141 177 218 264 315
#     4  10  20  34  53  78 108 141 177 218 263 312
#
# _framework density 18.595587999999999
#
# number of rings (size 3 to 8) (size 9 to 14) (size 15 to 20)
#    0.000    2.200    0.000    3.300    0.000    9.200 
#    0.000    1.500    0.000    9.000    0.000    0.000 
#    0.000    0.000    0.000    0.000    0.000    0.000 
#
# Total GULP energy -223366.110564 kJ/mol
# GULP energy per Si atom -5584.152764 kJ/mol
# Density = 1.855326 g / cm^3
# Si number density = 18.595588 Si / 1000 Ang^3
#
#
#
# Elastic Constant Matrix: (Units=GPa)
#
#
# Indices 1 2 3 4 5 6 
#
# 1 225.4259 123.8191 40.1261 0.0000 0.0000 0.0000
# 2 123.8191 168.3528 39.7956 0.0000 0.0000 0.0000
# 3 40.1261 39.7956 17.2462 0.0000 0.0000 0.0000
# 4 0.0000 0.0000 0.0000 19.4480 0.0000 0.0000
# 5 0.0000 0.0000 0.0000 0.0000 -25.5869 0.0000
# 6 0.0000 0.0000 0.0000 0.0000 0.0000 -56.4651
#
#
#
# Elastic Compliance Matrix: (Units=1/GPa)
#
#
# Indices 1 2 3 4 5 6 
#
# 1 0.008381 -0.003420 -0.011607 0.000000 0.000000 0.000000
# 2 -0.003420 0.014463 -0.025417 0.000000 0.000000 0.000000
# 3 -0.011607 -0.025417 0.143641 0.000000 0.000000 0.000000
# 4 0.000000 0.000000 0.000000 0.051419 0.000000 0.000000
# 5 0.000000 0.000000 0.000000 0.000000 -0.039083 0.000000
# 6 0.000000 0.000000 0.000000 0.000000 0.000000 -0.017710
#
#
# Mechanical properties :
#
#
# Convention : Reuss Voigt Hill
#
# Bulk Modulus (GPa) = 11.68283 90.94518 51.31400
# Shear Modulus (GPa) = 18.48206 1.29814 9.89010
#
# Velocity S-wave (km/s) = 3.15603 0.83642 2.30869
# Velocity P-wave (km/s) = 4.42458 7.06724 5.89588
#
# Compressibility (1/GPa) = 0.08559570
#
# Stress axis : x y z
#
# Youngs Moduli (GPa) = 119.32234 69.14013 6.96181
#
# Poissons Ratio (x) = 0.23646 0.08081
# Poissons Ratio (y) = 0.40808 0.17695
# Poissons Ratio (z) = 1.38503 1.75735
#
# Static dielectric constant tensor:
#      x y z
#    x 1.606740 0.000000 0.000000 
#    y 0.000000 1.628410 0.000000 
#    z 0.000000 0.000000 1.624320 
# 
# From -- ./inp_files/13053.got.cif
#   From: 2010.05.17/outbox.cif.g08.bks.cpg/sg47_7_cif.got.tgz:13053.got - 2010.06.03 20:15:42.
