data_PCOD9385307
_publ_section_title
;
Structure prediction by ZEFSAII (Michael W. Deem and Ramdas Pophale) SiO2 
 PCOD9385307
Probable space group: P M M M
;
_chemical_formula_sum "Si O2"
_cell_formula_units_Z 44
_cell_length_a 7.579882
_cell_length_b 9.502073
_cell_length_c 29.866391
_cell_angle_alpha 90.000000
_cell_angle_beta 90.000000
_cell_angle_gamma 90.000000
_cell_volume 2151.114629
_symmetry_space_group_name_H-M "P M M M"
_symmetry_group_IT_number 47
_symmetry_cell_setting 'orthorhombic'
loop_
_space_group_symop_operation_xyz
x,y,z
-x,-y,z
x,-y,-z
-x,y,-z
-x,-y,-z
x,y,-z
-x,y,z
x,-y,z
loop_
_atom_site_type_symbol
_atom_site_label
_atom_site_fract_x
_atom_site_fract_y
_atom_site_fract_z
Si Si1 0.289599 0.828984 0.500000
Si Si2 0.210228 0.839116 0.693995
Si Si3 0.790364 0.841702 0.863544
Si Si4 0.712481 0.162753 0.596130
Si Si5 0.783508 0.338316 0.220950
Si Si6 0.287388 0.339913 0.050372
O O1 0.500000 0.801949 0.500000
O O2 0.221895 0.777809 0.548388
O O3 0.269194 0.000000 0.500000
O O4 0.241247 0.776336 0.644463
O O5 0.275724 0.743731 0.734548
O O6 0.000000 0.849426 0.699499
O O7 0.281307 0.000000 0.695758
O O8 0.722677 0.745068 0.823117
O O9 0.765041 0.766385 0.910987
O O10 0.000000 0.852213 0.856267
O O11 0.717645 0.000000 0.862968
O O12 0.500000 0.160267 0.593704
O O13 0.774919 0.000000 0.597989
O O14 0.726756 0.500000 0.220369
O O15 0.000000 0.339180 0.220953
O O16 0.500000 0.342811 0.049468
O O17 0.227106 0.500000 0.060213
O O18 0.227457 0.302647 0.000000
#
# Coordination Sequence:
#
# PCOD9385307 Si02
#       6
#     4   8   8   8   8   8
#     4   7  10  18  33  53  78 109 142 172 206 255
#     4   9  16  26  41  62  87 112 140 179 225 266
#     4  10  20  33  51  76 102 126 157 199 241 280
#     4   8  13  22  37  57  82 112 143 174 212 261
#     4   9  17  30  48  67  88 119 156 188 223 273
#     4   9  19  36  55  74  99 132 166 197 232 277
#
# _framework density 20.454512000000001
#
# number of rings (size 3 to 8) (size 9 to 14) (size 15 to 20)
#    0.000    3.182    0.000    2.727    0.000    4.364 
#    0.000    4.091    0.000    6.545    0.000    0.636 
#    0.000    5.091    0.000    0.000    0.000    0.000 
#
# Total GULP energy -245193.681303 kJ/mol
# GULP energy per Si atom -5572.583666 kJ/mol
# Density = 2.040796 g / cm^3
# Si number density = 20.454512 Si / 1000 Ang^3
#
#
#
# Elastic Constant Matrix: (Units=GPa)
#
#
# Indices 1 2 3 4 5 6 
#
# 1 42.8711 6.1769 0.8862 0.0000 0.0000 0.0000
# 2 6.1769 116.8453 114.3422 0.0000 0.0000 0.0000
# 3 0.8862 114.3422 221.0417 0.0000 0.0000 0.0000
# 4 0.0000 0.0000 0.0000 -62.5038 0.0000 0.0000
# 5 0.0000 0.0000 0.0000 0.0000 23.5943 0.0000
# 6 0.0000 0.0000 0.0000 0.0000 0.0000 5.3721
#
#
#
# Elastic Compliance Matrix: (Units=1/GPa)
#
#
# Indices 1 2 3 4 5 6 
#
# 1 0.023640 -0.002343 0.001117 0.000000 0.000000 0.000000
# 2 -0.002343 0.017564 -0.009076 0.000000 0.000000 0.000000
# 3 0.001117 -0.009076 0.009215 0.000000 0.000000 0.000000
# 4 0.000000 0.000000 0.000000 -0.015999 0.000000 0.000000
# 5 0.000000 0.000000 0.000000 0.000000 0.042383 0.000000
# 6 0.000000 0.000000 0.000000 0.000000 0.000000 0.186145
#
#
# Mechanical properties :
#
#
# Convention : Reuss Voigt Hill
#
# Bulk Modulus (GPa) = 33.54041 69.28542 51.41292
# Shear Modulus (GPa) = 17.03632 10.58270 13.80951
#
# Velocity S-wave (km/s) = 2.88911 2.27706 2.60115
# Velocity P-wave (km/s) = 5.24999 6.39217 5.84903
#
# Compressibility (1/GPa) = 0.02981478
#
# Stress axis : x y z
#
# Youngs Moduli (GPa) = 42.30074 56.93466 108.52358
#
# Poissons Ratio (x) = 0.13340 -0.12124
# Poissons Ratio (y) = 0.09911 0.98499
# Poissons Ratio (z) = -0.04726 0.51675
#
# Static dielectric constant tensor:
#      x y z
#    x 1.776300 0.000000 0.000000 
#    y 0.000000 1.697450 0.000000 
#    z 0.000000 0.000000 1.755300 
# 
# From -- ./inp_files/2243.got.cif
#   From: 2010.05.17/outbox.cif.g08.bks.cpg/sg47_2_cif.got.tgz:2243.got - 2010.06.03 20:15:42.
