data_PCOD9385099
_publ_section_title
;
Structure prediction by ZEFSAII (Michael W. Deem and Ramdas Pophale) SiO2 
 PCOD9385099
Probable space group: P M M M
;
_chemical_formula_sum "Si O2"
_cell_formula_units_Z 52
_cell_length_a 8.705025
_cell_length_b 27.554513
_cell_length_c 14.018164
_cell_angle_alpha 90.000000
_cell_angle_beta 90.000000
_cell_angle_gamma 90.000000
_cell_volume 3362.435010
_symmetry_space_group_name_H-M "P M M M"
_symmetry_group_IT_number 47
_symmetry_cell_setting 'orthorhombic'
loop_
_space_group_symop_operation_xyz
x,y,z
-x,-y,z
x,-y,-z
-x,y,-z
-x,-y,-z
x,y,-z
-x,y,z
x,-y,z
loop_
_atom_site_type_symbol
_atom_site_label
_atom_site_fract_x
_atom_site_fract_y
_atom_site_fract_z
Si Si1 0.815048 0.345921 0.611040
Si Si2 0.185496 0.245485 0.701798
Si Si3 0.685357 0.850267 0.392791
Si Si4 0.814799 0.193455 0.107265
Si Si5 0.184161 0.000000 0.111215
Si Si6 0.683366 0.552810 0.385693
Si Si7 0.684162 0.902395 0.799064
O O1 0.765956 0.341130 0.500000
O O2 0.762319 0.298405 0.667985
O O3 0.756799 0.397454 0.650291
O O4 0.000000 0.346735 0.611999
O O5 0.250662 0.202478 0.636021
O O6 0.228597 0.231402 0.810041
O O7 0.000000 0.244273 0.694828
O O8 0.734216 0.863408 0.500000
O O9 0.500000 0.847885 0.391114
O O10 0.731876 0.887355 0.308817
O O11 0.740513 0.142176 0.135495
O O12 0.000000 0.187870 0.110658
O O13 0.771648 0.207618 0.000000
O O14 0.245325 0.047887 0.163517
O O15 0.000000 0.000000 0.112917
O O16 0.233769 0.000000 0.000000
O O17 0.712496 0.552452 0.500000
O O18 0.500000 0.555020 0.372819
O O19 0.737607 0.500000 0.348899
O O20 0.500000 0.905467 0.802125
#
# Coordination Sequence:
#
# PCOD9385099 Si02
#       7
#     8   8   8   8   4   8   8
#     4   9  16  24  35  54  80 108 137 169 204 240
#     4   9  17  28  42  62  87 113 143 176 207 245
#     4   9  18  32  48  66  89 116 144 172 204 244
#     4   9  17  30  47  65  87 115 142 169 207 252
#     4  11  23  37  52  69  90 114 139 171 212 255
#     4   8  14  24  36  50  71 102 138 171 203 242
#     4  10  20  33  50  71  91 112 140 173 208 246
#
# _framework density 15.464983999999999
#
# number of rings (size 3 to 8) (size 9 to 14) (size 15 to 20)
#    0.000    2.846    0.000    2.077    0.000    5.231 
#    0.000    3.462    0.000    2.308    0.000    0.000 
#    0.000    0.615    0.000    7.692    0.000    1.538 
#
# Total GULP energy -289639.950182 kJ/mol
# GULP energy per Si atom -5569.999042 kJ/mol
# Density = 1.542978 g / cm^3
# Si number density = 15.464984 Si / 1000 Ang^3
#
#
#
# Elastic Constant Matrix: (Units=GPa)
#
#
# Indices 1 2 3 4 5 6 
#
# 1 7.2705 27.8972 20.4504 0.0000 0.0000 0.0000
# 2 27.8972 158.6280 66.3655 0.0000 0.0000 0.0000
# 3 20.4504 66.3655 100.9101 0.0000 0.0000 0.0000
# 4 0.0000 0.0000 0.0000 15.3628 0.0000 0.0000
# 5 0.0000 0.0000 0.0000 0.0000 15.5288 0.0000
# 6 0.0000 0.0000 0.0000 0.0000 0.0000 -79.2001
#
#
#
# Elastic Compliance Matrix: (Units=1/GPa)
#
#
# Indices 1 2 3 4 5 6 
#
# 1 0.762995 -0.095872 -0.091576 0.000000 0.000000 0.000000
# 2 -0.095872 0.020744 0.005787 0.000000 0.000000 0.000000
# 3 -0.091576 0.005787 0.024663 0.000000 0.000000 0.000000
# 4 0.000000 0.000000 0.000000 0.065092 0.000000 0.000000
# 5 0.000000 0.000000 0.000000 0.000000 0.064396 0.000000
# 6 0.000000 0.000000 0.000000 0.000000 0.000000 -0.012626
#
#
# Mechanical properties :
#
#
# Convention : Reuss Voigt Hill
#
# Bulk Modulus (GPa) = 2.24679 55.13720 28.69199
# Shear Modulus (GPa) = 3.47960 0.47800 1.97880
#
# Velocity S-wave (km/s) = 1.50162 0.55656 1.13239
# Velocity P-wave (km/s) = 2.11246 6.01193 4.50587
#
# Compressibility (1/GPa) = 0.44507966
#
# Stress axis : x y z
#
# Youngs Moduli (GPa) = 1.31062 48.20768 40.54716
#
# Poissons Ratio (x) = 4.62177 3.71314
# Poissons Ratio (y) = 0.12565 -0.23464
# Poissons Ratio (z) = 0.12002 -0.27897
#
# Static dielectric constant tensor:
#      x y z
#    x 1.521310 0.000000 0.000000 
#    y 0.000000 1.514120 0.000000 
#    z 0.000000 0.000000 1.521370 
# 
# From -- ./inp_files/21745.got.cif
#   From: 2010.05.17/outbox.cif.g08.bks.cpg/sg47_11_cif.got.tgz:21745.got - 2010.06.03 20:15:42.
