data_PCOD9385873
_publ_section_title
;
Structure prediction by ZEFSAII (Michael W. Deem and Ramdas Pophale) SiO2 
 PCOD9385873
Probable space group: P M M M
;
_chemical_formula_sum "Si O2"
_cell_formula_units_Z 40
_cell_length_a 8.204084
_cell_length_b 7.912155
_cell_length_c 30.157610
_cell_angle_alpha 90.000000
_cell_angle_beta 90.000000
_cell_angle_gamma 90.000000
_cell_volume 1957.590305
_symmetry_space_group_name_H-M "P M M M"
_symmetry_group_IT_number 47
_symmetry_cell_setting 'orthorhombic'
loop_
_space_group_symop_operation_xyz
x,y,z
-x,-y,z
x,-y,-z
-x,y,-z
-x,-y,-z
x,y,-z
-x,y,z
x,-y,z
loop_
_atom_site_type_symbol
_atom_site_label
_atom_site_fract_x
_atom_site_fract_y
_atom_site_fract_z
Si Si1 0.800738 0.500000 0.550901
Si Si2 0.800381 0.804720 0.386089
Si Si3 0.184458 0.202924 0.711253
Si Si4 0.500000 0.798958 0.949965
Si Si5 0.176489 0.703815 0.103671
Si Si6 0.318387 0.703290 0.805939
O O1 0.746685 0.500000 0.500000
O O2 0.749985 0.331381 0.577371
O O3 0.000000 0.500000 0.550878
O O4 0.746574 0.746645 0.336779
O O5 0.000000 0.806138 0.384602
O O6 0.750253 0.000000 0.394261
O O7 0.275351 0.248066 0.756052
O O8 0.000000 0.270441 0.715120
O O9 0.176260 0.000000 0.708766
O O10 0.664542 0.749029 0.924353
O O11 0.500000 0.000000 0.952485
O O12 0.500000 0.728389 0.000000
O O13 0.171752 0.500000 0.104436
O O14 0.202166 0.763237 0.154551
O O15 0.000000 0.764397 0.086878
O O16 0.500000 0.763573 0.816642
O O17 0.317242 0.500000 0.807405
#
# Coordination Sequence:
#
# PCOD9385873 Si02
#       6
#     4   8   8   4   8   8
#     4   9  16  24  38  62  89 127 175 217 273 340
#     4   8  15  27  40  59  91 127 168 221 271 328
#     4   9  18  31  47  70 100 137 180 219 266 333
#     4  11  25  43  63  89 123 161 199 247 303 354
#     4  10  21  40  65  90 118 155 200 247 297 355
#     4  10  20  34  53  79 111 144 180 226 279 337
#
# _framework density 20.433284
#
# number of rings (size 3 to 8) (size 9 to 14) (size 15 to 20)
#    0.000    2.600    1.000    2.100    1.400    4.400 
#    0.000    4.000    0.000    0.000    0.000    0.000 
#    0.000    1.600    0.000    4.400    0.000    4.400 
#
# Total GULP energy -223070.183791 kJ/mol
# GULP energy per Si atom -5576.754595 kJ/mol
# Density = 2.038678 g / cm^3
# Si number density = 20.433284 Si / 1000 Ang^3
#
#
#
# Elastic Constant Matrix: (Units=GPa)
#
#
# Indices 1 2 3 4 5 6 
#
# 1 93.9971 23.3437 60.2704 0.0000 0.0000 0.0000
# 2 23.3437 52.2782 43.3600 0.0000 0.0000 0.0000
# 3 60.2704 43.3600 165.0294 0.0000 0.0000 0.0000
# 4 0.0000 0.0000 0.0000 34.2829 0.0000 0.0000
# 5 0.0000 0.0000 0.0000 0.0000 34.5233 0.0000
# 6 0.0000 0.0000 0.0000 0.0000 0.0000 5.9066
#
#
#
# Elastic Compliance Matrix: (Units=1/GPa)
#
#
# Indices 1 2 3 4 5 6 
#
# 1 0.014163 -0.002601 -0.004489 0.000000 0.000000 0.000000
# 2 -0.002601 0.024936 -0.005602 0.000000 0.000000 0.000000
# 3 -0.004489 -0.005602 0.009171 0.000000 0.000000 0.000000
# 4 0.000000 0.000000 0.000000 0.029169 0.000000 0.000000
# 5 0.000000 0.000000 0.000000 0.000000 0.028966 0.000000
# 6 0.000000 0.000000 0.000000 0.000000 0.000000 0.169301
#
#
# Mechanical properties :
#
#
# Convention : Reuss Voigt Hill
#
# Bulk Modulus (GPa) = 43.69455 62.80588 53.25021
# Shear Modulus (GPa) = 16.19598 27.23127 21.71362
#
# Velocity S-wave (km/s) = 2.81842 3.65457 3.26338
# Velocity P-wave (km/s) = 5.65878 6.97220 6.34954
#
# Compressibility (1/GPa) = 0.02288615
#
# Stress axis : x y z
#
# Youngs Moduli (GPa) = 70.60691 40.10264 109.04149
#
# Poissons Ratio (x) = 0.10430 0.48950
# Poissons Ratio (y) = 0.18364 0.61083
# Poissons Ratio (z) = 0.31696 0.22465
#
# Static dielectric constant tensor:
#      x y z
#    x 1.746680 0.000000 0.000000 
#    y 0.000000 1.726420 0.000000 
#    z 0.000000 0.000000 1.729100 
# 
# From -- ./inp_files/33106.got.cif
#   From: 2010.05.17/outbox.cif.g08.bks.cpg/sg47_17_cif.got.tgz:33106.got - 2010.06.03 20:15:42.
