data_PCOD9385974
_publ_section_title
;
Structure prediction by ZEFSAII (Michael W. Deem and Ramdas Pophale) SiO2 
 PCOD9385974
Probable space group: P M M M
;
_chemical_formula_sum "Si O2"
_cell_formula_units_Z 48
_cell_length_a 32.022282
_cell_length_b 9.361294
_cell_length_c 7.980482
_cell_angle_alpha 90.000000
_cell_angle_beta 90.000000
_cell_angle_gamma 90.000000
_cell_volume 2392.309060
_symmetry_space_group_name_H-M "P M M M"
_symmetry_group_IT_number 47
_symmetry_cell_setting 'orthorhombic'
loop_
_space_group_symop_operation_xyz
x,y,z
-x,-y,z
x,-y,-z
-x,y,-z
-x,-y,-z
x,y,-z
-x,y,z
x,-y,z
loop_
_atom_site_type_symbol
_atom_site_label
_atom_site_fract_x
_atom_site_fract_y
_atom_site_fract_z
Si Si1 0.246728 0.164264 0.205191
Si Si2 0.500000 0.839649 0.199445
Si Si3 0.419010 0.337504 0.699612
Si Si4 0.082439 0.163379 0.798111
Si Si5 0.327510 0.663633 0.798801
Si Si6 0.835838 0.335195 0.794960
Si Si7 0.000000 0.336673 0.700290
O O1 0.289516 0.239150 0.262101
O O2 0.206515 0.255803 0.257207
O O3 0.243812 0.000000 0.259034
O O4 0.246916 0.164035 0.000000
O O5 0.458383 0.756030 0.250272
O O6 0.500000 0.000000 0.270156
O O7 0.500000 0.848085 0.000000
O O8 0.418193 0.344944 0.500000
O O9 0.423545 0.500000 0.766781
O O10 0.373825 0.282108 0.757165
O O11 0.123541 0.247435 0.738493
O O12 0.041063 0.251283 0.755269
O O13 0.080667 0.000000 0.735646
O O14 0.085196 0.156655 0.000000
O O15 0.324111 0.500000 0.735091
O O16 0.324145 0.657672 0.000000
O O17 0.837060 0.500000 0.740808
O O18 0.836130 0.335768 0.000000
O O19 0.000000 0.500000 0.765440
O O20 0.000000 0.342756 0.500000
#
# Coordination Sequence:
#
# PCOD9385974 Si02
#       7
#     8   4   8   8   8   8   4
#     4   9  16  26  43  70 103 135 168 210 257 303
#     4  11  24  39  56  80 108 137 172 215 262 312
#     4  10  21  37  57  80 106 138 176 216 260 311
#     4  10  20  34  54  80 107 135 171 216 265 315
#     4   9  17  30  49  73 101 134 171 210 253 302
#     4   9  16  27  46  73 104 136 169 209 259 311
#     4  11  24  39  54  74 102 137 176 215 258 312
#
# _framework density 20.064298999999998
#
# number of rings (size 3 to 8) (size 9 to 14) (size 15 to 20)
#    0.000    2.333    0.000    3.000    0.000   10.000 
#    0.000    1.667    0.000    1.000    0.000    2.333 
#    0.000    0.000    0.000    0.000    0.000    0.000 
#
# Total GULP energy -268052.260270 kJ/mol
# GULP energy per Si atom -5584.422089 kJ/mol
# Density = 2.001863 g / cm^3
# Si number density = 20.064299 Si / 1000 Ang^3
#
#
#
# Elastic Constant Matrix: (Units=GPa)
#
#
# Indices 1 2 3 4 5 6 
#
# 1 235.8949 140.0046 7.1665 0.0000 0.0000 0.0000
# 2 140.0046 186.2580 9.6147 0.0000 0.0000 0.0000
# 3 7.1665 9.6147 17.1360 0.0000 0.0000 0.0000
# 4 0.0000 0.0000 0.0000 9.4332 0.0000 0.0000
# 5 0.0000 0.0000 0.0000 0.0000 -52.2068 0.0000
# 6 0.0000 0.0000 0.0000 0.0000 0.0000 29.5122
#
#
#
# Elastic Compliance Matrix: (Units=1/GPa)
#
#
# Indices 1 2 3 4 5 6 
#
# 1 0.007654 -0.005754 0.000028 0.000000 0.000000 0.000000
# 2 -0.005754 0.009856 -0.003123 0.000000 0.000000 0.000000
# 3 0.000028 -0.003123 0.060097 0.000000 0.000000 0.000000
# 4 0.000000 0.000000 0.000000 0.106009 0.000000 0.000000
# 5 0.000000 0.000000 0.000000 0.000000 -0.019155 0.000000
# 6 0.000000 0.000000 0.000000 0.000000 0.000000 0.033884
#
#
# Mechanical properties :
#
#
# Convention : Reuss Voigt Hill
#
# Bulk Modulus (GPa) = 16.69253 83.65117 50.17185
# Shear Modulus (GPa) = 21.18524 16.18126 18.68325
#
# Velocity S-wave (km/s) = 3.25294 2.84292 3.05482
# Velocity P-wave (km/s) = 4.73776 7.24971 6.12392
#
# Compressibility (1/GPa) = 0.05990704
#
# Stress axis : x y z
#
# Youngs Moduli (GPa) = 130.65734 101.46563 16.63966
#
# Poissons Ratio (x) = 0.58388 -0.00046
# Poissons Ratio (y) = 0.75186 0.05197
# Poissons Ratio (z) = -0.00364 0.31690
#
# Static dielectric constant tensor:
#      x y z
#    x 1.692040 0.000000 0.000000 
#    y 0.000000 1.705120 0.000000 
#    z 0.000000 0.000000 1.713040 
# 
# From -- ./inp_files/13823.got.cif
#   From: 2010.05.17/outbox.cif.g08.bks.cpg/sg47_7_cif.got.tgz:13823.got - 2010.06.03 20:15:42.
