data_PCOD9385075
_publ_section_title
;
Structure prediction by ZEFSAII (Michael W. Deem and Ramdas Pophale) SiO2 
 PCOD9385075
Probable space group: P M M M
;
_chemical_formula_sum "Si O2"
_cell_formula_units_Z 52
_cell_length_a 7.561220
_cell_length_b 29.940791
_cell_length_c 12.198005
_cell_angle_alpha 90.000000
_cell_angle_beta 90.000000
_cell_angle_gamma 90.000000
_cell_volume 2761.493028
_symmetry_space_group_name_H-M "P M M M"
_symmetry_group_IT_number 47
_symmetry_cell_setting 'orthorhombic'
loop_
_space_group_symop_operation_xyz
x,y,z
-x,-y,z
x,-y,-z
-x,y,-z
-x,-y,-z
x,y,-z
-x,y,z
x,-y,z
loop_
_atom_site_type_symbol
_atom_site_label
_atom_site_fract_x
_atom_site_fract_y
_atom_site_fract_z
Si Si1 0.709356 0.867813 0.377493
Si Si2 0.284004 0.089793 0.000000
Si Si3 0.216682 0.306164 0.627891
Si Si4 0.207973 0.220324 0.241730
Si Si5 0.788471 0.596128 0.367974
Si Si6 0.215415 0.500000 0.630192
Si Si7 0.710287 0.807630 0.000000
Si Si8 0.283412 0.050356 0.232975
O O1 0.781586 0.860636 0.500000
O O2 0.500000 0.875147 0.387665
O O3 0.728199 0.824491 0.301417
O O4 0.780217 0.911771 0.316817
O O5 0.229481 0.064956 0.889322
O O6 0.500000 0.090436 0.000000
O O7 0.221781 0.141200 0.000000
O O8 0.266405 0.299945 0.500000
O O9 0.280279 0.265039 0.701269
O O10 0.277822 0.355234 0.667911
O O11 0.000000 0.307141 0.629632
O O12 0.238251 0.216529 0.112212
O O13 0.000000 0.221296 0.260847
O O14 0.764302 0.596038 0.500000
O O15 0.720749 0.548087 0.325948
O O16 0.000000 0.595868 0.348863
O O17 0.255472 0.500000 0.500000
O O18 0.000000 0.500000 0.638199
O O19 0.500000 0.810957 0.000000
O O20 0.500000 0.050721 0.233887
O O21 0.227446 0.000000 0.258376
#
# Coordination Sequence:
#
# PCOD9385075 Si02
#       8
#     8   4   8   8   8   4   4   8
#     4  10  20  33  49  71  98 127 157 188 225 267
#     4   9  15  27  48  70  90 110 139 181 229 273
#     4   8  14  24  38  58  87 121 153 184 217 258
#     4  11  21  33  50  71  93 120 157 191 226 272
#     4   7   9  14  25  44  73 110 148 181 213 251
#     4   7   8  10  20  40  68 105 147 182 210 249
#     4  11  21  36  55  71  92 117 145 187 239 280
#     4   9  16  27  46  72  96 117 148 191 231 267
#
# _framework density 18.830392
#
# number of rings (size 3 to 8) (size 9 to 14) (size 15 to 20)
#    0.000    3.000    1.538    3.231    0.000    2.154 
#    0.000    1.538    0.000    0.462    0.000    2.154 
#    0.000    0.615    0.000   10.615    0.000   49.538 
#
# Total GULP energy -289745.256079 kJ/mol
# GULP energy per Si atom -5572.024155 kJ/mol
# Density = 1.878753 g / cm^3
# Si number density = 18.830392 Si / 1000 Ang^3
#
#
#
# Elastic Constant Matrix: (Units=GPa)
#
#
# Indices 1 2 3 4 5 6 
#
# 1 40.5348 2.3943 -2.8052 0.0000 0.0000 0.0000
# 2 2.3943 213.4475 76.1563 0.0000 0.0000 0.0000
# 3 -2.8052 76.1563 104.1863 0.0000 0.0000 0.0000
# 4 0.0000 0.0000 0.0000 3.1398 0.0000 0.0000
# 5 0.0000 0.0000 0.0000 0.0000 -10.5739 0.0000
# 6 0.0000 0.0000 0.0000 0.0000 0.0000 7.3851
#
#
#
# Elastic Compliance Matrix: (Units=1/GPa)
#
#
# Indices 1 2 3 4 5 6 
#
# 1 0.024793 -0.000698 0.001178 0.000000 0.000000 0.000000
# 2 -0.000698 0.006358 -0.004666 0.000000 0.000000 0.000000
# 3 0.001178 -0.004666 0.013041 0.000000 0.000000 0.000000
# 4 0.000000 0.000000 0.000000 0.318494 0.000000 0.000000
# 5 0.000000 0.000000 0.000000 0.000000 -0.094572 0.000000
# 6 0.000000 0.000000 0.000000 0.000000 0.000000 0.135407
#
#
# Mechanical properties :
#
#
# Convention : Reuss Voigt Hill
#
# Bulk Modulus (GPa) = 27.91861 56.62885 42.27373
# Shear Modulus (GPa) = 11.79712 18.81841 15.30777
#
# Velocity S-wave (km/s) = 2.50570 3.16470 2.85428
# Velocity P-wave (km/s) = 4.81974 6.59486 5.77590
#
# Compressibility (1/GPa) = 0.03581841
#
# Stress axis : x y z
#
# Youngs Moduli (GPa) = 40.33409 157.29179 76.68378
#
# Poissons Ratio (x) = 0.10986 -0.09034
# Poissons Ratio (y) = 0.02817 0.35781
# Poissons Ratio (z) = -0.04752 0.73392
#
# Static dielectric constant tensor:
#      x y z
#    x 1.745620 0.000000 0.000000 
#    y 0.000000 1.704930 0.000000 
#    z 0.000000 0.000000 1.609160 
# 
# From -- ./inp_files/15681.got.cif
#   From: 2010.05.17/outbox.cif.g08.bks.cpg/sg47_8_cif.got.tgz:15681.got - 2010.06.03 20:15:42.
