data_PCOD9385736
_publ_section_title
;
Structure prediction by ZEFSAII (Michael W. Deem and Ramdas Pophale) SiO2 
 PCOD9385736
Probable space group: P M M M
;
_chemical_formula_sum "Si O2"
_cell_formula_units_Z 40
_cell_length_a 7.656974
_cell_length_b 26.294288
_cell_length_c 9.533826
_cell_angle_alpha 90.000000
_cell_angle_beta 90.000000
_cell_angle_gamma 90.000000
_cell_volume 1919.489803
_symmetry_space_group_name_H-M "P M M M"
_symmetry_group_IT_number 47
_symmetry_cell_setting 'orthorhombic'
loop_
_space_group_symop_operation_xyz
x,y,z
-x,-y,z
x,-y,-z
-x,y,-z
-x,-y,-z
x,y,-z
-x,y,z
x,-y,z
loop_
_atom_site_type_symbol
_atom_site_label
_atom_site_fract_x
_atom_site_fract_y
_atom_site_fract_z
Si Si1 0.206329 0.750761 0.842268
Si Si2 0.210875 0.442323 0.840426
Si Si3 0.785707 0.845979 0.661048
Si Si4 0.705664 0.345687 0.658176
Si Si5 0.212919 0.057277 0.161448
O O1 0.276220 0.797589 0.750673
O O2 0.223596 0.698297 0.758562
O O3 0.000000 0.760556 0.855741
O O4 0.279389 0.747677 0.000000
O O5 0.268747 0.500000 0.808110
O O6 0.266620 0.400193 0.730192
O O7 0.000000 0.442580 0.842030
O O8 0.268468 0.429867 0.000000
O O9 0.729772 0.842819 0.500000
O O10 0.729700 0.898068 0.736033
O O11 0.000000 0.845650 0.660632
O O12 0.778980 0.343715 0.500000
O O13 0.500000 0.336808 0.649183
O O14 0.000000 0.057322 0.162898
O O15 0.268628 0.000000 0.199708
O O16 0.264941 0.067197 0.000000
#
# Coordination Sequence:
#
# PCOD9385736 Si02
#       5
#     8   8   8   8   8
#     4  10  20  34  53  74  96 127 169 213 254 300
#     4   9  19  37  60  84 108 135 170 209 246 289
#     4   9  16  25  39  61  89 121 158 201 249 300
#     4  11  24  38  52  75 107 138 168 206 252 300
#     4   8  13  21  33  51  80 119 159 198 242 293
#
# _framework density 20.83887
#
# number of rings (size 3 to 8) (size 9 to 14) (size 15 to 20)
#    0.000    2.600    0.000    3.600    0.000    9.200 
#    0.000    5.000    0.000    0.000    0.000    0.000 
#    0.000    0.800    0.000    8.400    0.000   11.600 
#
# Total GULP energy -223332.655501 kJ/mol
# GULP energy per Si atom -5583.316388 kJ/mol
# Density = 2.079144 g / cm^3
# Si number density = 20.838870 Si / 1000 Ang^3
#
#
#
# Elastic Constant Matrix: (Units=GPa)
#
#
# Indices 1 2 3 4 5 6 
#
# 1 36.0082 -5.5871 4.1648 0.0000 0.0000 0.0000
# 2 -5.5871 151.9094 127.3763 0.0000 0.0000 0.0000
# 3 4.1648 127.3763 205.5642 0.0000 0.0000 0.0000
# 4 0.0000 0.0000 0.0000 102.9273 0.0000 0.0000
# 5 0.0000 0.0000 0.0000 0.0000 51.8467 0.0000
# 6 0.0000 0.0000 0.0000 0.0000 0.0000 -54.9714
#
#
#
# Elastic Compliance Matrix: (Units=1/GPa)
#
#
# Indices 1 2 3 4 5 6 
#
# 1 0.028564 0.003197 -0.002560 0.000000 0.000000 0.000000
# 2 0.003197 0.014060 -0.008777 0.000000 0.000000 0.000000
# 3 -0.002560 -0.008777 0.010355 0.000000 0.000000 0.000000
# 4 0.000000 0.000000 0.000000 0.009716 0.000000 0.000000
# 5 0.000000 0.000000 0.000000 0.000000 0.019288 0.000000
# 6 0.000000 0.000000 0.000000 0.000000 0.000000 -0.018191
#
#
# Mechanical properties :
#
#
# Convention : Reuss Voigt Hill
#
# Bulk Modulus (GPa) = 27.24862 71.70997 49.47930
# Shear Modulus (GPa) = 54.16959 37.79572 45.98266
#
# Velocity S-wave (km/s) = 5.10401 4.26339 4.70252
# Velocity P-wave (km/s) = 6.91656 7.66301 7.29933
#
# Compressibility (1/GPa) = 0.03669911
#
# Stress axis : x y z
#
# Youngs Moduli (GPa) = 35.00965 71.12453 96.57146
#
# Poissons Ratio (x) = -0.22737 0.24718
# Poissons Ratio (y) = -0.11192 0.84759
# Poissons Ratio (z) = 0.08961 0.62425
#
# Static dielectric constant tensor:
#      x y z
#    x 1.791100 0.000000 0.000000 
#    y 0.000000 1.710350 0.000000 
#    z 0.000000 0.000000 1.732140 
# 
# From -- ./inp_files/1409.got.cif
#   From: 2010.05.17/outbox.cif.g08.bks.cpg/sg47_1_cif.got.tgz:1409.got - 2010.06.03 20:15:42.
