data_PCOD9385667
_publ_section_title
;
Structure prediction by ZEFSAII (Michael W. Deem and Ramdas Pophale) SiO2 
 PCOD9385667
Probable space group: P M M M
;
_chemical_formula_sum "Si O2"
_cell_formula_units_Z 52
_cell_length_a 20.105261
_cell_length_b 8.771427
_cell_length_c 16.292011
_cell_angle_alpha 90.000000
_cell_angle_beta 90.000000
_cell_angle_gamma 90.000000
_cell_volume 2873.125941
_symmetry_space_group_name_H-M "P M M M"
_symmetry_group_IT_number 47
_symmetry_cell_setting 'orthorhombic'
loop_
_space_group_symop_operation_xyz
x,y,z
-x,-y,z
x,-y,-z
-x,y,-z
-x,-y,-z
x,y,-z
-x,y,z
x,-y,z
loop_
_atom_site_type_symbol
_atom_site_label
_atom_site_fract_x
_atom_site_fract_y
_atom_site_fract_z
Si Si1 0.000000 0.672387 0.597143
Si Si2 0.578443 0.316656 0.907494
Si Si3 0.811158 0.676730 0.184038
Si Si4 0.862510 0.181821 0.348686
Si Si5 0.072981 0.826845 0.097577
Si Si6 0.716646 0.816130 0.590131
Si Si7 0.325278 0.181586 0.771790
O O1 0.066936 0.762880 0.618853
O O2 0.000000 0.500000 0.633062
O O3 0.000000 0.657549 0.500000
O O4 0.500000 0.280601 0.901132
O O5 0.585252 0.500000 0.905219
O O6 0.617993 0.249094 0.830414
O O7 0.600718 0.267023 0.000000
O O8 0.793591 0.500000 0.181786
O O9 0.848520 0.723848 0.266977
O O10 0.865150 0.721402 0.117015
O O11 0.744111 0.774458 0.184710
O O12 0.796112 0.212355 0.402355
O O13 0.863489 0.000000 0.333766
O O14 0.000000 0.775977 0.129248
O O15 0.084521 0.000000 0.129067
O O16 0.068094 0.836232 0.000000
O O17 0.693522 0.759656 0.500000
O O18 0.682529 0.762710 0.676060
O O19 0.708664 0.000000 0.590093
O O20 0.332363 0.000000 0.768436
#
# Coordination Sequence:
#
# PCOD9385667 Si02
#       7
#     4   8   8   8   8   8   8
#     4  11  23  35  47  69 100 129 164 215 273 329
#     4   9  19  37  60  85 115 151 185 218 265 323
#     4  11  22  35  52  74 104 137 172 218 271 324
#     4  10  20  34  52  72  95 130 176 223 271 327
#     4   9  19  36  55  72  93 126 171 222 273 325
#     4   8  15  30  52  76 102 134 176 224 270 317
#     4  10  20  34  55  84 113 142 181 225 269 320
#
# _framework density 18.098755000000001
#
# number of rings (size 3 to 8) (size 9 to 14) (size 15 to 20)
#    0.000    2.385    0.000    4.846    1.077    3.077 
#    0.000    1.538    0.000    9.692    0.000    3.231 
#    0.000    0.000    0.000    0.000    0.000    0.000 
#
# Total GULP energy -289624.099671 kJ/mol
# GULP energy per Si atom -5569.694224 kJ/mol
# Density = 1.805756 g / cm^3
# Si number density = 18.098755 Si / 1000 Ang^3
#
#
#
# Elastic Constant Matrix: (Units=GPa)
#
#
# Indices 1 2 3 4 5 6 
#
# 1 77.5698 16.1063 60.2150 0.0000 0.0000 0.0000
# 2 16.1063 23.4612 24.3245 0.0000 0.0000 0.0000
# 3 60.2150 24.3245 107.3042 0.0000 0.0000 0.0000
# 4 0.0000 0.0000 0.0000 17.9201 0.0000 0.0000
# 5 0.0000 0.0000 0.0000 0.0000 -129.4824 0.0000
# 6 0.0000 0.0000 0.0000 0.0000 0.0000 33.6987
#
#
#
# Elastic Compliance Matrix: (Units=1/GPa)
#
#
# Indices 1 2 3 4 5 6 
#
# 1 0.023018 -0.003150 -0.012203 0.000000 0.000000 0.000000
# 2 -0.003150 0.056150 -0.010961 0.000000 0.000000 0.000000
# 3 -0.012203 -0.010961 0.018652 0.000000 0.000000 0.000000
# 4 0.000000 0.000000 0.000000 0.055803 0.000000 0.000000
# 5 0.000000 0.000000 0.000000 0.000000 -0.007723 0.000000
# 6 0.000000 0.000000 0.000000 0.000000 0.000000 0.029675
#
#
# Mechanical properties :
#
#
# Convention : Reuss Voigt Hill
#
# Bulk Modulus (GPa) = 22.12756 45.51409 33.82082
# Shear Modulus (GPa) = 20.55350 -8.39341 6.08004
#
# Velocity S-wave (km/s) = 3.37357 -2.15584 1.83485
# Velocity P-wave (km/s) = 5.23709 4.35952 4.81833
#
# Compressibility (1/GPa) = 0.04519252
#
# Stress axis : x y z
#
# Youngs Moduli (GPa) = 43.44333 17.80933 53.61431
#
# Poissons Ratio (x) = 0.05611 0.65425
# Poissons Ratio (y) = 0.13687 0.58765
# Poissons Ratio (z) = 0.53014 0.19520
#
# Static dielectric constant tensor:
#      x y z
#    x 1.607790 0.000000 0.000000 
#    y 0.000000 1.632680 0.000000 
#    z 0.000000 0.000000 1.705820 
# 
# From -- ./inp_files/28474.got.cif
#   From: 2010.05.17/outbox.cif.g08.bks.cpg/sg47_15_cif.got.tgz:28474.got - 2010.06.03 20:15:42.
