data_PCOD9385918
_publ_section_title
;
Structure prediction by ZEFSAII (Michael W. Deem and Ramdas Pophale) SiO2 
 PCOD9385918
Probable space group: P M M M
;
_chemical_formula_sum "Si O2"
_cell_formula_units_Z 44
_cell_length_a 7.602145
_cell_length_b 29.980152
_cell_length_c 9.476766
_cell_angle_alpha 90.000000
_cell_angle_beta 90.000000
_cell_angle_gamma 90.000000
_cell_volume 2159.882554
_symmetry_space_group_name_H-M "P M M M"
_symmetry_group_IT_number 47
_symmetry_cell_setting 'orthorhombic'
loop_
_space_group_symop_operation_xyz
x,y,z
-x,-y,z
x,-y,-z
-x,y,-z
-x,-y,-z
x,y,-z
-x,y,z
x,-y,z
loop_
_atom_site_type_symbol
_atom_site_label
_atom_site_fract_x
_atom_site_fract_y
_atom_site_fract_z
Si Si1 0.209859 0.633390 0.339678
Si Si2 0.715008 0.172361 0.664796
Si Si3 0.214813 0.450671 0.836499
Si Si4 0.710295 0.912293 0.159771
Si Si5 0.711166 0.269974 0.336912
Si Si6 0.790664 0.000000 0.660123
O O1 0.281107 0.633491 0.500000
O O2 0.278569 0.591378 0.252619
O O3 0.239385 0.682345 0.273166
O O4 0.000000 0.628028 0.348837
O O5 0.766412 0.167397 0.500000
O O6 0.500000 0.171570 0.665549
O O7 0.778580 0.131467 0.759211
O O8 0.769854 0.221629 0.718266
O O9 0.268656 0.500000 0.785108
O O10 0.000000 0.450117 0.833862
O O11 0.266570 0.446503 0.000000
O O12 0.500000 0.906855 0.149519
O O13 0.739977 0.956086 0.253061
O O14 0.778862 0.917028 0.000000
O O15 0.774008 0.271348 0.500000
O O16 0.500000 0.268827 0.338933
O O17 0.718426 0.000000 0.500000
O O18 0.000000 0.000000 0.650062
#
# Coordination Sequence:
#
# PCOD9385918 Si02
#       6
#     8   8   8   8   8   4
#     4   9  16  25  40  64  88 107 136 183 228 259
#     4   8  14  27  48  70  91 120 158 193 222 260
#     4   8  14  25  40  57  79 109 142 174 213 264
#     4  10  20  34  54  79 103 127 158 197 240 282
#     4   8  14  26  44  64  88 120 152 179 215 265
#     4  11  24  39  54  74 100 131 166 199 234 280
#
# _framework density 20.371476999999999
#
# number of rings (size 3 to 8) (size 9 to 14) (size 15 to 20)
#    0.000    3.182    0.000    2.727    0.000    3.273 
#    0.000    3.636    0.000    5.455    0.000    3.818 
#    0.000    0.000    0.000    0.000    0.000    0.000 
#
# Total GULP energy -245187.083275 kJ/mol
# GULP energy per Si atom -5572.433711 kJ/mol
# Density = 2.032511 g / cm^3
# Si number density = 20.371477 Si / 1000 Ang^3
#
#
#
# Elastic Constant Matrix: (Units=GPa)
#
#
# Indices 1 2 3 4 5 6 
#
# 1 41.2518 2.6648 5.0810 0.0000 0.0000 0.0000
# 2 2.6648 254.1822 105.5685 0.0000 0.0000 0.0000
# 3 5.0810 105.5685 102.7096 0.0000 0.0000 0.0000
# 4 0.0000 0.0000 0.0000 -19.5250 0.0000 0.0000
# 5 0.0000 0.0000 0.0000 0.0000 2.1881 0.0000
# 6 0.0000 0.0000 0.0000 0.0000 0.0000 18.4555
#
#
#
# Elastic Compliance Matrix: (Units=1/GPa)
#
#
# Indices 1 2 3 4 5 6 
#
# 1 0.024417 0.000429 -0.001648 0.000000 0.000000 0.000000
# 2 0.000429 0.006872 -0.007085 0.000000 0.000000 0.000000
# 3 -0.001648 -0.007085 0.017100 0.000000 0.000000 0.000000
# 4 0.000000 0.000000 0.000000 -0.051216 0.000000 0.000000
# 5 0.000000 0.000000 0.000000 0.000000 0.457012 0.000000
# 6 0.000000 0.000000 0.000000 0.000000 0.000000 0.054184
#
#
# Mechanical properties :
#
#
# Convention : Reuss Voigt Hill
#
# Bulk Modulus (GPa) = 31.46677 69.41912 50.44295
# Shear Modulus (GPa) = 9.33584 19.21233 14.27409
#
# Velocity S-wave (km/s) = 2.14307 3.07432 2.64993
# Velocity P-wave (km/s) = 4.64798 6.83758 5.84621
#
# Compressibility (1/GPa) = 0.03177956
#
# Stress axis : x y z
#
# Youngs Moduli (GPa) = 40.95552 145.51558 58.48109
#
# Poissons Ratio (x) = -0.06238 0.09641
# Poissons Ratio (y) = -0.01756 0.41432
# Poissons Ratio (z) = 0.06752 1.03092
#
# Static dielectric constant tensor:
#      x y z
#    x 1.778200 0.000000 0.000000 
#    y 0.000000 1.748930 0.000000 
#    z 0.000000 0.000000 1.705470 
# 
# From -- ./inp_files/2011.got.cif
#   From: 2010.05.17/outbox.cif.g08.bks.cpg/sg47_2_cif.got.tgz:2011.got - 2010.06.03 20:15:42.
