data_PCOD9385704
_publ_section_title
;
Structure prediction by ZEFSAII (Michael W. Deem and Ramdas Pophale) SiO2 
 PCOD9385704
Probable space group: P M M M
;
_chemical_formula_sum "Si O2"
_cell_formula_units_Z 48
_cell_length_a 18.840922
_cell_length_b 16.835994
_cell_length_c 8.814511
_cell_angle_alpha 90.000000
_cell_angle_beta 90.000000
_cell_angle_gamma 90.000000
_cell_volume 2796.012689
_symmetry_space_group_name_H-M "P M M M"
_symmetry_group_IT_number 47
_symmetry_cell_setting 'orthorhombic'
loop_
_space_group_symop_operation_xyz
x,y,z
-x,-y,z
x,-y,-z
-x,y,-z
-x,-y,-z
x,y,-z
-x,y,z
x,-y,z
loop_
_atom_site_type_symbol
_atom_site_label
_atom_site_fract_x
_atom_site_fract_y
_atom_site_fract_z
Si Si1 0.346160 0.500000 0.181122
Si Si2 0.843620 0.335013 0.819351
Si Si3 0.700148 0.762955 0.180696
Si Si4 0.583169 0.343697 0.680714
Si Si5 0.780526 0.091343 0.683037
Si Si6 0.920175 0.813256 0.682512
Si Si7 0.812074 0.500000 0.319320
O O1 0.387620 0.422237 0.237052
O O2 0.267652 0.500000 0.252008
O O3 0.339800 0.500000 0.000000
O O4 0.765595 0.297549 0.786311
O O5 0.898585 0.270121 0.757475
O O6 0.848799 0.419976 0.740396
O O7 0.849951 0.343369 0.000000
O O8 0.630833 0.728986 0.261448
O O9 0.725476 0.848019 0.241783
O O10 0.690491 0.764810 0.000000
O O11 0.592038 0.353500 0.500000
O O12 0.500000 0.332921 0.713032
O O13 0.774120 0.096432 0.500000
O O14 0.859197 0.123564 0.723954
O O15 0.771305 0.000000 0.728068
O O16 0.917559 0.804165 0.500000
O O17 0.000000 0.836916 0.724913
O O18 0.808848 0.500000 0.500000
#
# Coordination Sequence:
#
# PCOD9385704 Si02
#       7
#     4   8   8   8   8   8   4
#     4  12  23  35  52  78 111 145 180 221 267 312
#     4  10  20  34  52  75 103 137 179 223 266 316
#     4  10  20  34  54  77 105 140 177 220 267 319
#     4  11  23  37  54  78 109 145 183 222 266 316
#     4   9  18  33  55  82 110 140 175 216 263 318
#     4   9  18  33  53  78 109 142 176 215 262 318
#     4  12  22  33  54  77 102 138 180 228 270 309
#
# _framework density 17.167303
#
# number of rings (size 3 to 8) (size 9 to 14) (size 15 to 20)
#    0.000    1.833    1.667    3.250    0.000    4.667 
#    0.000    2.083    0.000    3.000    0.000    8.167 
#    0.000    0.000    0.000    0.000    0.000    0.000 
#
# Total GULP energy -268059.712431 kJ/mol
# GULP energy per Si atom -5584.577342 kJ/mol
# Density = 1.712823 g / cm^3
# Si number density = 17.167303 Si / 1000 Ang^3
#
#
#
# Elastic Constant Matrix: (Units=GPa)
#
#
# Indices 1 2 3 4 5 6 
#
# 1 58.9523 30.5044 17.8536 0.0000 0.0000 0.0000
# 2 30.5044 133.2160 36.6746 0.0000 0.0000 0.0000
# 3 17.8536 36.6746 42.2350 0.0000 0.0000 0.0000
# 4 0.0000 0.0000 0.0000 1.3867 0.0000 0.0000
# 5 0.0000 0.0000 0.0000 0.0000 15.7441 0.0000
# 6 0.0000 0.0000 0.0000 0.0000 0.0000 12.9192
#
#
#
# Elastic Compliance Matrix: (Units=1/GPa)
#
#
# Indices 1 2 3 4 5 6 
#
# 1 0.020331 -0.003009 -0.005982 0.000000 0.000000 0.000000
# 2 -0.003009 0.010310 -0.007681 0.000000 0.000000 0.000000
# 3 -0.005982 -0.007681 0.032875 0.000000 0.000000 0.000000
# 4 0.000000 0.000000 0.000000 0.721151 0.000000 0.000000
# 5 0.000000 0.000000 0.000000 0.000000 0.063516 0.000000
# 6 0.000000 0.000000 0.000000 0.000000 0.000000 0.077404
#
#
# Mechanical properties :
#
#
# Convention : Reuss Voigt Hill
#
# Bulk Modulus (GPa) = 33.14129 44.94093 39.04111
# Shear Modulus (GPa) = 5.16002 15.96804 10.56403
#
# Velocity S-wave (km/s) = 1.73558 3.05313 2.48333
# Velocity P-wave (km/s) = 4.83354 6.21803 5.56898
#
# Compressibility (1/GPa) = 0.03017384
#
# Stress axis : x y z
#
# Youngs Moduli (GPa) = 49.18517 96.99202 30.41787
#
# Poissons Ratio (x) = 0.29182 0.18196
# Poissons Ratio (y) = 0.14799 0.23364
# Poissons Ratio (z) = 0.29422 0.74499
#
# Static dielectric constant tensor:
#      x y z
#    x 1.572100 0.000000 0.000000 
#    y 0.000000 1.561210 0.000000 
#    z 0.000000 0.000000 1.570010 
# 
# From -- ./inp_files/6461.got.cif
#   From: 2010.05.17/outbox.cif.g08.bks.cpg/sg47_4_cif.got.tgz:6461.got - 2010.06.03 20:15:42.
