data_PCOD9385314
_publ_section_title
;
Structure prediction by ZEFSAII (Michael W. Deem and Ramdas Pophale) SiO2 
 PCOD9385314
Probable space group: P M M M
;
_chemical_formula_sum "Si O2"
_cell_formula_units_Z 44
_cell_length_a 28.964722
_cell_length_b 7.529655
_cell_length_c 9.660736
_cell_angle_alpha 90.000000
_cell_angle_beta 90.000000
_cell_angle_gamma 90.000000
_cell_volume 2106.952072
_symmetry_space_group_name_H-M "P M M M"
_symmetry_group_IT_number 47
_symmetry_cell_setting 'orthorhombic'
loop_
_space_group_symop_operation_xyz
x,y,z
-x,-y,z
x,-y,-z
-x,y,-z
-x,-y,-z
x,y,-z
-x,y,z
x,-y,z
loop_
_atom_site_type_symbol
_atom_site_label
_atom_site_fract_x
_atom_site_fract_y
_atom_site_fract_z
Si Si1 0.275724 0.217817 0.659078
Si Si2 0.914495 0.287265 0.842553
Si Si3 0.190111 0.787497 0.842326
Si Si4 0.000000 0.282208 0.658756
Si Si5 0.361072 0.210480 0.843950
Si Si6 0.552352 0.285995 0.656468
O O1 0.277398 0.275510 0.500000
O O2 0.229476 0.276400 0.738555
O O3 0.320084 0.279340 0.746350
O O4 0.275963 0.000000 0.657363
O O5 0.919255 0.500000 0.849327
O O6 0.862228 0.249499 0.796782
O O7 0.954412 0.222898 0.741065
O O8 0.919849 0.218584 0.000000
O O9 0.195155 0.000000 0.849616
O O10 0.195679 0.718569 0.000000
O O11 0.000000 0.500000 0.658456
O O12 0.000000 0.224960 0.500000
O O13 0.409754 0.233373 0.767565
O O14 0.352874 0.000000 0.855193
O O15 0.360802 0.283571 0.000000
O O16 0.564481 0.225578 0.500000
O O17 0.500000 0.225800 0.687138
O O18 0.551482 0.500000 0.653551
#
# Coordination Sequence:
#
# PCOD9385314 Si02
#       6
#     8   8   8   4   8   8
#     4   9  17  30  49  71  95 126 162 197 236 284
#     4   9  17  30  48  68  90 118 152 188 227 274
#     4   9  17  30  48  69  93 121 153 190 233 280
#     4   9  17  29  46  67  90 118 152 189 228 270
#     4  10  20  33  51  76 103 130 164 206 246 286
#     4   9  19  36  55  74  99 132 167 202 244 295
#
# _framework density 20.883247000000001
#
# number of rings (size 3 to 8) (size 9 to 14) (size 15 to 20)
#    0.000    2.818    0.000    1.909    0.000    6.182 
#    0.000    4.091    0.000    6.000    0.000    0.000 
#    0.000    0.000    0.000    0.000    0.000    0.000 
#
# Total GULP energy -245634.558214 kJ/mol
# GULP energy per Si atom -5582.603596 kJ/mol
# Density = 2.083572 g / cm^3
# Si number density = 20.883247 Si / 1000 Ang^3
#
#
#
# Elastic Constant Matrix: (Units=GPa)
#
#
# Indices 1 2 3 4 5 6 
#
# 1 190.6878 -1.6651 152.8538 0.0000 0.0000 0.0000
# 2 -1.6651 50.8253 6.8709 0.0000 0.0000 0.0000
# 3 152.8538 6.8709 192.0426 0.0000 0.0000 0.0000
# 4 0.0000 0.0000 0.0000 7.1970 0.0000 0.0000
# 5 0.0000 0.0000 0.0000 0.0000 36.2285 0.0000
# 6 0.0000 0.0000 0.0000 0.0000 0.0000 24.1113
#
#
#
# Elastic Compliance Matrix: (Units=1/GPa)
#
#
# Indices 1 2 3 4 5 6 
#
# 1 0.014702 0.002074 -0.011776 0.000000 0.000000 0.000000
# 2 0.002074 0.020063 -0.002368 0.000000 0.000000 0.000000
# 3 -0.011776 -0.002368 0.014665 0.000000 0.000000 0.000000
# 4 0.000000 0.000000 0.000000 0.138947 0.000000 0.000000
# 5 0.000000 0.000000 0.000000 0.000000 0.027603 0.000000
# 6 0.000000 0.000000 0.000000 0.000000 0.000000 0.041474
#
#
# Mechanical properties :
#
#
# Convention : Reuss Voigt Hill
#
# Bulk Modulus (GPa) = 39.54328 83.29720 61.42024
# Shear Modulus (GPa) = 17.23994 31.87377 24.55686
#
# Velocity S-wave (km/s) = 2.87634 3.91101 3.43288
# Velocity P-wave (km/s) = 5.47792 7.76971 6.72220
#
# Compressibility (1/GPa) = 0.02528875
#
# Stress axis : x y z
#
# Youngs Moduli (GPa) = 68.01964 49.84217 68.19110
#
# Poissons Ratio (x) = -0.10335 0.80300
# Poissons Ratio (y) = -0.14104 0.16149
# Poissons Ratio (z) = 0.80098 0.11804
#
# Static dielectric constant tensor:
#      x y z
#    x 1.713690 0.000000 0.000000 
#    y 0.000000 1.796730 0.000000 
#    z 0.000000 0.000000 1.724040 
# 
# From -- ./inp_files/1985.got.cif
#   From: 2010.05.17/outbox.cif.g08.bks.cpg/sg47_1_cif.got.tgz:1985.got - 2010.06.03 20:15:42.
