data_PCOD9385058
_publ_section_title
;
Structure prediction by ZEFSAII (Michael W. Deem and Ramdas Pophale) SiO2 
 PCOD9385058
Probable space group: P M M M
;
_chemical_formula_sum "Si O2"
_cell_formula_units_Z 52
_cell_length_a 7.475956
_cell_length_b 34.456126
_cell_length_c 9.355626
_cell_angle_alpha 90.000000
_cell_angle_beta 90.000000
_cell_angle_gamma 90.000000
_cell_volume 2409.938921
_symmetry_space_group_name_H-M "P M M M"
_symmetry_group_IT_number 47
_symmetry_cell_setting 'orthorhombic'
loop_
_space_group_symop_operation_xyz
x,y,z
-x,-y,z
x,-y,-z
-x,y,-z
-x,-y,-z
x,y,-z
-x,y,z
x,-y,z
loop_
_atom_site_type_symbol
_atom_site_label
_atom_site_fract_x
_atom_site_fract_y
_atom_site_fract_z
Si Si1 0.218777 0.076973 0.665127
Si Si2 0.781637 0.000000 0.165057
Si Si3 0.214085 0.152547 0.837372
Si Si4 0.714323 0.769382 0.337640
Si Si5 0.215342 0.456603 0.837027
Si Si6 0.280839 0.306109 0.164238
Si Si7 0.288090 0.380313 0.660418
O O1 0.275782 0.076566 0.500000
O O2 0.274291 0.038545 0.750522
O O3 0.279706 0.115495 0.747958
O O4 0.000000 0.077169 0.664187
O O5 0.000000 0.000000 0.163807
O O6 0.723879 0.000000 0.000000
O O7 0.248715 0.192100 0.752670
O O8 0.000000 0.148215 0.846464
O O9 0.283216 0.153833 0.000000
O O10 0.783102 0.772123 0.500000
O O11 0.500000 0.765690 0.346475
O O12 0.778700 0.731171 0.254758
O O13 0.276373 0.500000 0.795518
O O14 0.265941 0.422065 0.732838
O O15 0.000000 0.457572 0.840506
O O16 0.276851 0.448967 0.000000
O O17 0.500000 0.305999 0.162927
O O18 0.219180 0.345741 0.239451
O O19 0.223342 0.303860 0.000000
O O20 0.213699 0.379295 0.500000
O O21 0.500000 0.373430 0.649465
#
# Coordination Sequence:
#
# PCOD9385058 Si02
#       7
#     8   4   8   8   8   8   8
#     4   9  16  26  41  62  90 124 160 199 245 294
#     4   9  15  23  37  59  88 121 158 199 242 291
#     4  10  20  33  49  71 100 132 165 203 248 294
#     4  10  20  34  53  76 101 130 165 204 246 294
#     4   9  19  36  55  74  99 133 171 208 246 290
#     4   9  17  31  52  75  99 129 164 202 245 291
#     4  10  20  33  51  77 106 132 161 201 247 293
#
# _framework density 21.577309
#
# number of rings (size 3 to 8) (size 9 to 14) (size 15 to 20)
#    0.000    2.538    0.000    3.000    0.000    8.308 
#    0.000    3.077    0.000    4.615    0.000    0.538 
#    0.000    4.308    0.000    0.000    0.000    0.000 
#
# Total GULP energy -290562.696796 kJ/mol
# GULP energy per Si atom -5587.744169 kJ/mol
# Density = 2.152820 g / cm^3
# Si number density = 21.577309 Si / 1000 Ang^3
#
#
#
# Elastic Constant Matrix: (Units=GPa)
#
#
# Indices 1 2 3 4 5 6 
#
# 1 60.3935 -1.9755 6.9821 0.0000 0.0000 0.0000
# 2 -1.9755 212.0086 150.1953 0.0000 0.0000 0.0000
# 3 6.9821 150.1953 250.6339 0.0000 0.0000 0.0000
# 4 0.0000 0.0000 0.0000 49.3936 0.0000 0.0000
# 5 0.0000 0.0000 0.0000 0.0000 3.4702 0.0000
# 6 0.0000 0.0000 0.0000 0.0000 0.0000 15.6453
#
#
#
# Elastic Compliance Matrix: (Units=1/GPa)
#
#
# Indices 1 2 3 4 5 6 
#
# 1 0.016698 0.000843 -0.000970 0.000000 0.000000 0.000000
# 2 0.000843 0.008239 -0.004961 0.000000 0.000000 0.000000
# 3 -0.000970 -0.004961 0.006990 0.000000 0.000000 0.000000
# 4 0.000000 0.000000 0.000000 0.020246 0.000000 0.000000
# 5 0.000000 0.000000 0.000000 0.000000 0.288166 0.000000
# 6 0.000000 0.000000 0.000000 0.000000 0.000000 0.063917
#
#
# Mechanical properties :
#
#
# Convention : Reuss Voigt Hill
#
# Bulk Modulus (GPa) = 45.97635 92.60443 69.29039
# Shear Modulus (GPa) = 11.85728 38.22410 25.04069
#
# Velocity S-wave (km/s) = 2.34674 4.21348 3.41032
# Velocity P-wave (km/s) = 5.35695 8.16590 6.90575
#
# Compressibility (1/GPa) = 0.02175031
#
# Stress axis : x y z
#
# Youngs Moduli (GPa) = 59.88806 121.37199 143.06597
#
# Poissons Ratio (x) = -0.10232 0.13882
# Poissons Ratio (y) = -0.05049 0.70973
# Poissons Ratio (z) = 0.05811 0.60211
#
# Static dielectric constant tensor:
#      x y z
#    x 1.868570 0.000000 0.000000 
#    y 0.000000 1.728620 0.000000 
#    z 0.000000 0.000000 1.754340 
# 
# From -- ./inp_files/4574.got.cif
#   From: 2010.05.17/outbox.cif.g08.bks.cpg/sg47_3_cif.got.tgz:4574.got - 2010.06.03 20:15:42.
