data_PCOD9385797
_publ_section_title
;
Structure prediction by ZEFSAII (Michael W. Deem and Ramdas Pophale) SiO2 
 PCOD9385797
Probable space group: P M M M
;
_chemical_formula_sum "Si O2"
_cell_formula_units_Z 64
_cell_length_a 14.481893
_cell_length_b 9.049897
_cell_length_c 32.346296
_cell_angle_alpha 90.000000
_cell_angle_beta 90.000000
_cell_angle_gamma 90.000000
_cell_volume 4239.293910
_symmetry_space_group_name_H-M "P M M M"
_symmetry_group_IT_number 47
_symmetry_cell_setting 'orthorhombic'
loop_
_space_group_symop_operation_xyz
x,y,z
-x,-y,z
x,-y,-z
-x,y,-z
-x,-y,-z
x,y,-z
-x,y,z
x,-y,z
loop_
_atom_site_type_symbol
_atom_site_label
_atom_site_fract_x
_atom_site_fract_y
_atom_site_fract_z
Si Si1 0.611634 0.325462 0.044988
Si Si2 0.894962 0.676037 0.581399
Si Si3 0.717193 0.323472 0.704266
Si Si4 0.719057 0.176567 0.545781
Si Si5 0.893411 0.824809 0.328406
Si Si6 0.612101 0.171907 0.128092
Si Si7 0.609844 0.178213 0.220286
Si Si8 0.390931 0.823196 0.628424
O O1 0.500000 0.307257 0.045069
O O2 0.629606 0.500000 0.046355
O O3 0.646770 0.252913 0.087106
O O4 0.644122 0.267950 0.000000
O O5 0.884006 0.500000 0.586398
O O6 0.815669 0.740889 0.552620
O O7 0.884333 0.755051 0.625846
O O8 0.000000 0.704211 0.566807
O O9 0.719485 0.500000 0.704379
O O10 0.819521 0.255870 0.700196
O O11 0.665957 0.260251 0.744434
O O12 0.661873 0.264137 0.664167
O O13 0.681672 0.209719 0.500000
O O14 0.651776 0.214709 0.583712
O O15 0.734963 0.000000 0.548116
O O16 0.000000 0.804617 0.315518
O O17 0.874114 0.000000 0.330534
O O18 0.500000 0.180974 0.128023
O O19 0.639316 0.225092 0.173855
O O20 0.636304 0.000000 0.125032
O O21 0.500000 0.206725 0.225020
O O22 0.621562 0.000000 0.223464
O O23 0.500000 0.793612 0.629686
O O24 0.377735 0.000000 0.635032
#
# Coordination Sequence:
#
# PCOD9385797 Si02
#       8
#     8   8   8   8   8   8   8   8
#     4   8  13  20  30  46  70 102 140 183 232 281
#     4  10  20  34  53  77 102 125 147 175 217 264
#     4  12  23  33  50  75  99 121 148 184 225 270
#     4  10  21  36  54  75  97 124 157 187 218 262
#     4  10  20  35  56  77  96 120 148 178 215 262
#     4   8  14  24  37  53  74 104 145 192 235 270
#     4   9  18  32  47  63  88 123 160 196 234 274
#     4  10  21  37  55  72  93 123 156 190 226 262
#
# _framework density 15.096854
#
# number of rings (size 3 to 8) (size 9 to 14) (size 15 to 20)
#    0.000    2.375    1.250    3.375    0.000    5.000 
#    0.000    5.000    0.000    0.000    0.000    1.750 
#    0.000    0.000    0.000    0.000    0.000    0.625 
#
# Total GULP energy -356740.024961 kJ/mol
# GULP energy per Si atom -5574.062890 kJ/mol
# Density = 1.506249 g / cm^3
# Si number density = 15.096854 Si / 1000 Ang^3
#
#
#
# Elastic Constant Matrix: (Units=GPa)
#
#
# Indices 1 2 3 4 5 6 
#
# 1 59.0539 34.8448 45.1835 0.0000 0.0000 0.0000
# 2 34.8448 51.9857 57.8716 0.0000 0.0000 0.0000
# 3 45.1835 57.8716 138.7601 0.0000 0.0000 0.0000
# 4 0.0000 0.0000 0.0000 -161.3576 0.0000 0.0000
# 5 0.0000 0.0000 0.0000 0.0000 3.2377 0.0000
# 6 0.0000 0.0000 0.0000 0.0000 0.0000 14.8584
#
#
#
# Elastic Compliance Matrix: (Units=1/GPa)
#
#
# Indices 1 2 3 4 5 6 
#
# 1 0.028451 -0.016346 -0.002447 0.000000 0.000000 0.000000
# 2 -0.016346 0.045298 -0.013570 0.000000 0.000000 0.000000
# 3 -0.002447 -0.013570 0.013663 0.000000 0.000000 0.000000
# 4 0.000000 0.000000 0.000000 -0.006197 0.000000 0.000000
# 5 0.000000 0.000000 0.000000 0.000000 0.308857 0.000000
# 6 0.000000 0.000000 0.000000 0.000000 0.000000 0.067302
#
#
# Mechanical properties :
#
#
# Convention : Reuss Voigt Hill
#
# Bulk Modulus (GPa) = 44.07806 58.39993 51.23900
# Shear Modulus (GPa) = 9.44000 -21.19231 -5.87615
#
# Velocity S-wave (km/s) = 2.50330 -3.75074 -1.97503
# Velocity P-wave (km/s) = 6.13316 4.47327 5.36776
#
# Compressibility (1/GPa) = 0.02268702
#
# Stress axis : x y z
#
# Youngs Moduli (GPa) = 35.14838 22.07588 73.19108
#
# Poissons Ratio (x) = 0.36085 0.17910
# Poissons Ratio (y) = 0.57453 0.99318
# Poissons Ratio (z) = 0.08601 0.29956
#
# Static dielectric constant tensor:
#      x y z
#    x 1.486820 0.000000 0.000000 
#    y 0.000000 1.501890 0.000000 
#    z 0.000000 0.000000 1.518510 
# 
# From -- ./inp_files/8210.got.cif
#   From: 2010.05.17/outbox.cif.g08.bks.cpg/sg47_5_cif.got.tgz:8210.got - 2010.06.03 20:15:42.
