data_PCOD9385185
_publ_section_title
;
Structure prediction by ZEFSAII (Michael W. Deem and Ramdas Pophale) SiO2 
 PCOD9385185
Probable space group: P M M M
;
_chemical_formula_sum "Si O2"
_cell_formula_units_Z 44
_cell_length_a 8.199851
_cell_length_b 31.607590
_cell_length_c 9.249302
_cell_angle_alpha 90.000000
_cell_angle_beta 90.000000
_cell_angle_gamma 90.000000
_cell_volume 2397.211232
_symmetry_space_group_name_H-M "P M M M"
_symmetry_group_IT_number 47
_symmetry_cell_setting 'orthorhombic'
loop_
_space_group_symop_operation_xyz
x,y,z
-x,-y,z
x,-y,-z
-x,y,-z
-x,-y,-z
x,y,-z
-x,y,z
x,-y,z
loop_
_atom_site_type_symbol
_atom_site_label
_atom_site_fract_x
_atom_site_fract_y
_atom_site_fract_z
Si Si1 0.803408 0.546429 0.667706
Si Si2 0.690573 0.894642 0.674360
Si Si3 0.306187 0.629051 0.835824
Si Si4 0.000000 0.048593 0.675965
Si Si5 0.806238 0.281884 0.166256
Si Si6 0.304692 0.192082 0.834253
O O1 0.753143 0.549580 0.500000
O O2 0.748887 0.500000 0.722803
O O3 0.744107 0.586975 0.753298
O O4 0.000000 0.546560 0.671201
O O5 0.692935 0.891934 0.500000
O O6 0.500000 0.904658 0.715231
O O7 0.832306 0.927536 0.719092
O O8 0.736224 0.849316 0.742613
O O9 0.500000 0.630392 0.843026
O O10 0.249731 0.673639 0.767903
O O11 0.238450 0.627129 0.000000
O O12 0.000000 0.048497 0.500000
O O13 0.000000 0.000000 0.724974
O O14 0.752491 0.236961 0.229609
O O15 0.000000 0.282318 0.160738
O O16 0.739988 0.281718 0.000000
O O17 0.500000 0.193703 0.840963
O O18 0.241518 0.188271 0.000000
#
# Coordination Sequence:
#
# PCOD9385185 Si02
#       6
#     8   8   8   4   8   8
#     4   9  19  36  55  73  95 125 161 201 246 297
#     4   9  18  32  50  73 101 131 164 207 255 298
#     4  10  20  33  50  73 101 130 161 201 245 289
#     4   9  18  32  51  75 101 131 169 211 252 297
#     4   9  17  29  47  71  97 128 165 201 238 285
#     4   9  17  30  49  72  98 130 166 201 241 293
#
# _framework density 18.354661
#
# number of rings (size 3 to 8) (size 9 to 14) (size 15 to 20)
#    0.000    2.818    0.000    1.636    1.273    4.727 
#    0.000    5.455    0.000    4.364    0.000    2.545 
#    0.000    0.000    0.000    0.000    0.000    0.000 
#
# Total GULP energy -245046.373451 kJ/mol
# GULP energy per Si atom -5569.235760 kJ/mol
# Density = 1.831288 g / cm^3
# Si number density = 18.354661 Si / 1000 Ang^3
#
#
#
# Elastic Constant Matrix: (Units=GPa)
#
#
# Indices 1 2 3 4 5 6 
#
# 1 61.1355 76.2316 19.2423 0.0000 0.0000 0.0000
# 2 76.2316 215.9435 40.7863 0.0000 0.0000 0.0000
# 3 19.2423 40.7863 16.1977 0.0000 0.0000 0.0000
# 4 0.0000 0.0000 0.0000 22.4399 0.0000 0.0000
# 5 0.0000 0.0000 0.0000 0.0000 14.7302 0.0000
# 6 0.0000 0.0000 0.0000 0.0000 0.0000 72.3160
#
#
#
# Elastic Compliance Matrix: (Units=1/GPa)
#
#
# Indices 1 2 3 4 5 6 
#
# 1 0.031784 -0.007797 -0.018126 0.000000 0.000000 0.000000
# 2 -0.007797 0.010743 -0.017790 0.000000 0.000000 0.000000
# 3 -0.018126 -0.017790 0.128065 0.000000 0.000000 0.000000
# 4 0.000000 0.000000 0.000000 0.044564 0.000000 0.000000
# 5 0.000000 0.000000 0.000000 0.000000 0.067888 0.000000
# 6 0.000000 0.000000 0.000000 0.000000 0.000000 0.013828
#
#
# Mechanical properties :
#
#
# Convention : Reuss Voigt Hill
#
# Bulk Modulus (GPa) = 12.02385 62.86635 37.44510
# Shear Modulus (GPa) = 12.13533 32.36497 22.25015
#
# Velocity S-wave (km/s) = 2.57409 4.20374 3.48549
# Velocity P-wave (km/s) = 3.92424 7.60836 6.05338
#
# Compressibility (1/GPa) = 0.08316801
#
# Stress axis : x y z
#
# Youngs Moduli (GPa) = 31.46200 93.08171 7.80851
#
# Poissons Ratio (x) = 0.72574 0.14154
# Poissons Ratio (y) = 0.24530 0.13891
# Poissons Ratio (z) = 0.57028 1.65588
#
# Static dielectric constant tensor:
#      x y z
#    x 1.638730 0.000000 0.000000 
#    y 0.000000 1.645430 0.000000 
#    z 0.000000 0.000000 1.641870 
# 
# From -- ./inp_files/2074.got.cif
#   From: 2010.05.17/outbox.cif.g08.bks.cpg/sg47_2_cif.got.tgz:2074.got - 2010.06.03 20:15:42.
