data_PCOD9385573
_publ_section_title
;
Structure prediction by ZEFSAII (Michael W. Deem and Ramdas Pophale) SiO2 
 PCOD9385573
Probable space group: P M M M
;
_chemical_formula_sum "Si O2"
_cell_formula_units_Z 52
_cell_length_a 16.836107
_cell_length_b 20.743775
_cell_length_c 7.772630
_cell_angle_alpha 90.000000
_cell_angle_beta 90.000000
_cell_angle_gamma 90.000000
_cell_volume 2714.547621
_symmetry_space_group_name_H-M "P M M M"
_symmetry_group_IT_number 47
_symmetry_cell_setting 'orthorhombic'
loop_
_space_group_symop_operation_xyz
x,y,z
-x,-y,z
x,-y,-z
-x,y,-z
-x,-y,-z
x,y,-z
-x,y,z
x,-y,z
loop_
_atom_site_type_symbol
_atom_site_label
_atom_site_fract_x
_atom_site_fract_y
_atom_site_fract_z
Si Si1 0.909562 0.000000 0.202799
Si Si2 0.913990 0.370189 0.000000
Si Si3 0.090622 0.136500 0.294384
Si Si4 0.407066 0.069705 0.793231
Si Si5 0.264321 0.424113 0.000000
Si Si6 0.309957 0.668492 0.698130
Si Si7 0.867895 0.722202 0.303018
Si Si8 0.590175 0.209149 0.706098
O O1 0.870772 0.931995 0.249929
O O2 0.000000 0.000000 0.280968
O O3 0.917129 0.000000 0.000000
O O4 0.909958 0.324384 0.167881
O O5 0.831463 0.410146 0.000000
O O6 0.000000 0.404454 0.000000
O O7 0.087195 0.138324 0.500000
O O8 0.128257 0.203882 0.240670
O O9 0.000000 0.135620 0.225574
O O10 0.500000 0.070949 0.735601
O O11 0.371885 0.138949 0.742598
O O12 0.373807 0.000000 0.734038
O O13 0.407057 0.068502 0.000000
O O14 0.302095 0.389776 0.167909
O O15 0.277495 0.500000 0.000000
O O16 0.331708 0.650455 0.500000
O O17 0.222657 0.699681 0.690820
O O18 0.365507 0.726550 0.764695
O O19 0.899566 0.718550 0.500000
O O20 0.587483 0.214180 0.500000
O O21 0.500000 0.208311 0.774561
#
# Coordination Sequence:
#
# PCOD9385573 Si02
#       8
#     4   4   8   8   4   8   8   8
#     4   9  17  25  35  55  83 115 154 203 252 296
#     4  10  20  33  54  82 109 134 161 203 248 293
#     4   9  16  26  41  60  83 115 157 204 248 292
#     4   8  14  24  39  64  99 136 173 215 263 312
#     4  10  22  39  59  84 108 140 176 200 245 315
#     4   9  19  36  56  79 107 138 172 214 258 308
#     4   9  18  32  50  72 100 134 169 207 253 305
#     4   9  17  29  49  77 104 134 177 226 272 312
#
# _framework density 19.156047999999998
#
# number of rings (size 3 to 8) (size 9 to 14) (size 15 to 20)
#    0.000    3.000    0.000    1.154    2.154    2.615 
#    0.000    1.538    1.692    0.923    0.000    6.462 
#    0.000    0.000    0.000    0.000    0.000    0.000 
#
# Total GULP energy -289481.790636 kJ/mol
# GULP energy per Si atom -5566.957512 kJ/mol
# Density = 1.911245 g / cm^3
# Si number density = 19.156048 Si / 1000 Ang^3
#
#
#
# Elastic Constant Matrix: (Units=GPa)
#
#
# Indices 1 2 3 4 5 6 
#
# 1 26.3236 31.1922 14.8800 0.0000 0.0000 0.0000
# 2 31.1922 181.6429 50.4815 0.0000 0.0000 0.0000
# 3 14.8800 50.4815 64.9177 0.0000 0.0000 0.0000
# 4 0.0000 0.0000 0.0000 32.4031 0.0000 0.0000
# 5 0.0000 0.0000 0.0000 0.0000 -2.5336 0.0000
# 6 0.0000 0.0000 0.0000 0.0000 0.0000 -20.4619
#
#
#
# Elastic Compliance Matrix: (Units=1/GPa)
#
#
# Indices 1 2 3 4 5 6 
#
# 1 0.049483 -0.006819 -0.006040 0.000000 0.000000 0.000000
# 2 -0.006819 0.007963 -0.004629 0.000000 0.000000 0.000000
# 3 -0.006040 -0.004629 0.020388 0.000000 0.000000 0.000000
# 4 0.000000 0.000000 0.000000 0.030861 0.000000 0.000000
# 5 0.000000 0.000000 0.000000 0.000000 -0.394693 0.000000
# 6 0.000000 0.000000 0.000000 0.000000 0.000000 -0.048871
#
#
# Mechanical properties :
#
#
# Convention : Reuss Voigt Hill
#
# Bulk Modulus (GPa) = 23.33256 51.77685 37.55470
# Shear Modulus (GPa) = -17.50648 13.63689 -1.93480
#
# Velocity S-wave (km/s) = -3.02634 2.67101 -1.00609
# Velocity P-wave (km/s) = 0.07020 6.04980 4.27757
#
# Compressibility (1/GPa) = 0.04285856
#
# Stress axis : x y z
#
# Youngs Moduli (GPa) = 20.20909 125.58507 49.04813
#
# Poissons Ratio (x) = 0.85633 0.29624
# Poissons Ratio (y) = 0.13780 0.22705
# Poissons Ratio (z) = 0.12206 0.58134
#
# Static dielectric constant tensor:
#      x y z
#    x 1.702380 0.000000 0.000000 
#    y 0.000000 1.678820 0.000000 
#    z 0.000000 0.000000 1.689100 
# 
# From -- ./inp_files/9598.got.cif
#   From: 2010.05.17/outbox.cif.g08.bks.cpg/sg47_5_cif.got.tgz:9598.got - 2010.06.03 20:15:42.
