data_PCOD9385947
_publ_section_title
;
Structure prediction by ZEFSAII (Michael W. Deem and Ramdas Pophale) SiO2 
 PCOD9385947
Probable space group: P M M M
;
_chemical_formula_sum "Si O2"
_cell_formula_units_Z 52
_cell_length_a 7.800744
_cell_length_b 16.271506
_cell_length_c 20.032052
_cell_angle_alpha 90.000000
_cell_angle_beta 90.000000
_cell_angle_gamma 90.000000
_cell_volume 2542.665412
_symmetry_space_group_name_H-M "P M M M"
_symmetry_group_IT_number 47
_symmetry_cell_setting 'orthorhombic'
loop_
_space_group_symop_operation_xyz
x,y,z
-x,-y,z
x,-y,-z
-x,y,-z
-x,-y,-z
x,y,-z
-x,y,z
x,-y,z
loop_
_atom_site_type_symbol
_atom_site_label
_atom_site_fract_x
_atom_site_fract_y
_atom_site_fract_z
Si Si1 0.699361 0.089247 0.219742
Si Si2 0.804055 0.000000 0.581250
Si Si3 0.200504 0.135490 0.925367
Si Si4 0.211087 0.179087 0.576259
Si Si5 0.294898 0.674640 0.074053
Si Si6 0.797269 0.256018 0.292421
Si Si7 0.794504 0.409155 0.791018
O O1 0.500000 0.090446 0.237606
O O2 0.714553 0.096505 0.139446
O O3 0.778188 0.170874 0.251810
O O4 0.772533 0.000000 0.240436
O O5 0.726809 0.087998 0.598109
O O6 0.811224 0.000000 0.500000
O O7 0.000000 0.000000 0.605917
O O8 0.217739 0.234193 0.917486
O O9 0.000000 0.113673 0.923699
O O10 0.267374 0.115086 0.000000
O O11 0.262847 0.195487 0.500000
O O12 0.269378 0.241542 0.632840
O O13 0.000000 0.175881 0.576061
O O14 0.500000 0.684204 0.077025
O O15 0.238634 0.615105 0.132562
O O16 0.247653 0.645097 0.000000
O O17 0.723664 0.333774 0.253037
O O18 0.000000 0.270254 0.298716
O O19 0.726587 0.500000 0.775637
O O20 0.000000 0.411354 0.782073
#
# Coordination Sequence:
#
# PCOD9385947 Si02
#       7
#     8   4   8   8   8   8   8
#     4  11  24  38  52  75 109 146 181 220 267 314
#     4   7  10  18  34  62  99 129 154 197 254 301
#     4  10  20  35  56  79 104 137 179 224 267 312
#     4   8  14  25  44  73 106 135 169 216 265 312
#     4  10  20  34  54  79 106 136 172 218 271 324
#     4  10  20  34  55  79 103 138 181 223 267 317
#     4  10  21  36  53  76 107 141 178 223 274 321
#
# _framework density 20.450980000000001
#
# number of rings (size 3 to 8) (size 9 to 14) (size 15 to 20)
#    0.000    2.385    1.538    2.308    1.077    4.000 
#    0.000    3.077    0.000    0.923    0.000    4.308 
#    0.000    0.000    0.000    2.769    0.000    3.077 
#
# Total GULP energy -290209.801573 kJ/mol
# GULP energy per Si atom -5580.957723 kJ/mol
# Density = 2.040443 g / cm^3
# Si number density = 20.450980 Si / 1000 Ang^3
#
#
#
# Elastic Constant Matrix: (Units=GPa)
#
#
# Indices 1 2 3 4 5 6 
#
# 1 31.0689 4.1340 1.8562 0.0000 0.0000 0.0000
# 2 4.1340 138.6679 76.9550 0.0000 0.0000 0.0000
# 3 1.8562 76.9550 125.8649 0.0000 0.0000 0.0000
# 4 0.0000 0.0000 0.0000 23.5465 0.0000 0.0000
# 5 0.0000 0.0000 0.0000 0.0000 -25.2997 0.0000
# 6 0.0000 0.0000 0.0000 0.0000 0.0000 15.8072
#
#
#
# Elastic Compliance Matrix: (Units=1/GPa)
#
#
# Indices 1 2 3 4 5 6 
#
# 1 0.032317 -0.001058 0.000170 0.000000 0.000000 0.000000
# 2 -0.001058 0.010950 -0.006679 0.000000 0.000000 0.000000
# 3 0.000170 -0.006679 0.012026 0.000000 0.000000 0.000000
# 4 0.000000 0.000000 0.000000 0.042469 0.000000 0.000000
# 5 0.000000 0.000000 0.000000 0.000000 -0.039526 0.000000
# 6 0.000000 0.000000 0.000000 0.000000 0.000000 0.063262
#
#
# Mechanical properties :
#
#
# Convention : Reuss Voigt Hill
#
# Bulk Modulus (GPa) = 24.90080 51.27689 38.08884
# Shear Modulus (GPa) = 33.32919 16.98787 25.15853
#
# Velocity S-wave (km/s) = 4.04135 2.88525 3.51121
# Velocity P-wave (km/s) = 5.82915 6.01889 5.92478
#
# Compressibility (1/GPa) = 0.04015936
#
# Stress axis : x y z
#
# Youngs Moduli (GPa) = 30.94333 91.32711 83.15182
#
# Poissons Ratio (x) = 0.09662 -0.01415
# Poissons Ratio (y) = 0.03274 0.55538
# Poissons Ratio (z) = -0.00527 0.60998
#
# Static dielectric constant tensor:
#      x y z
#    x 1.752640 0.000000 0.000000 
#    y 0.000000 1.743070 0.000000 
#    z 0.000000 0.000000 1.747370 
# 
# From -- ./inp_files/29557.got.cif
#   From: 2010.05.17/outbox.cif.g08.bks.cpg/sg47_15_cif.got.tgz:29557.got - 2010.06.03 20:15:42.
