data_PCOD9385732
_publ_section_title
;
Structure prediction by ZEFSAII (Michael W. Deem and Ramdas Pophale) SiO2 
 PCOD9385732
Probable space group: P M M M
;
_chemical_formula_sum "Si O2"
_cell_formula_units_Z 52
_cell_length_a 23.351830
_cell_length_b 15.447167
_cell_length_c 9.191718
_cell_angle_alpha 90.000000
_cell_angle_beta 90.000000
_cell_angle_gamma 90.000000
_cell_volume 3315.633004
_symmetry_space_group_name_H-M "P M M M"
_symmetry_group_IT_number 47
_symmetry_cell_setting 'orthorhombic'
loop_
_space_group_symop_operation_xyz
x,y,z
-x,-y,z
x,-y,-z
-x,y,-z
-x,-y,-z
x,y,-z
-x,y,z
x,-y,z
loop_
_atom_site_type_symbol
_atom_site_label
_atom_site_fract_x
_atom_site_fract_y
_atom_site_fract_z
Si Si1 0.321606 0.600598 0.824895
Si Si2 0.563123 0.395027 0.670651
Si Si3 0.224978 0.094681 0.331075
Si Si4 0.089726 0.726293 0.174679
Si Si5 0.224107 0.731768 0.825863
Si Si6 0.086081 0.096928 0.330752
Si Si7 0.000000 0.602988 0.325595
O O1 0.314218 0.500000 0.782783
O O2 0.381206 0.634045 0.758121
O O3 0.267086 0.656601 0.777671
O O4 0.325342 0.603849 0.000000
O O5 0.568785 0.373798 0.500000
O O6 0.500000 0.365202 0.721261
O O7 0.562547 0.500000 0.681287
O O8 0.241311 0.103353 0.500000
O O9 0.243605 0.177142 0.240575
O O10 0.155494 0.094704 0.326874
O O11 0.243911 0.000000 0.277599
O O12 0.157311 0.716753 0.211358
O O13 0.069835 0.820467 0.234446
O O14 0.053959 0.651570 0.253281
O O15 0.082815 0.722581 0.000000
O O16 0.226256 0.737073 0.000000
O O17 0.069481 0.109699 0.500000
O O18 0.067070 0.000000 0.285568
O O19 0.000000 0.500000 0.296630
O O20 0.000000 0.615603 0.500000
#
# Coordination Sequence:
#
# PCOD9385732 Si02
#       7
#     8   8   8   8   8   8   4
#     4   9  17  28  41  60  89 122 153 183 215 256
#     4   8  14  25  40  58  82 113 149 187 223 257
#     4   8  14  25  42  64  89 118 150 181 215 258
#     4  10  20  34  53  74  94 117 147 186 230 273
#     4   9  18  30  45  68  95 121 147 179 222 266
#     4   8  14  27  48  72  98 125 147 171 212 266
#     4  11  25  43  58  69  84 111 151 196 234 271
#
# _framework density 15.683279000000001
#
# number of rings (size 3 to 8) (size 9 to 14) (size 15 to 20)
#    0.000    3.154    0.000    2.077    0.000    3.385 
#    0.000    6.538    0.000    4.154    0.000    0.000 
#    0.000    0.615    0.000    6.769    0.000    5.538 
#
# Total GULP energy -289508.306298 kJ/mol
# GULP energy per Si atom -5567.467429 kJ/mol
# Density = 1.564758 g / cm^3
# Si number density = 15.683279 Si / 1000 Ang^3
#
#
#
# Elastic Constant Matrix: (Units=GPa)
#
#
# Indices 1 2 3 4 5 6 
#
# 1 95.5086 61.1811 36.2047 0.0000 0.0000 0.0000
# 2 61.1811 116.2349 48.9165 0.0000 0.0000 0.0000
# 3 36.2047 48.9165 38.7470 0.0000 0.0000 0.0000
# 4 0.0000 0.0000 0.0000 23.7292 0.0000 0.0000
# 5 0.0000 0.0000 0.0000 0.0000 18.5384 0.0000
# 6 0.0000 0.0000 0.0000 0.0000 0.0000 -10.1881
#
#
#
# Elastic Compliance Matrix: (Units=1/GPa)
#
#
# Indices 1 2 3 4 5 6 
#
# 1 0.017457 -0.004958 -0.010052 0.000000 0.000000 0.000000
# 2 -0.004958 0.019764 -0.020318 0.000000 0.000000 0.000000
# 3 -0.010052 -0.020318 0.060851 0.000000 0.000000 0.000000
# 4 0.000000 0.000000 0.000000 0.042142 0.000000 0.000000
# 5 0.000000 0.000000 0.000000 0.000000 0.053942 0.000000
# 6 0.000000 0.000000 0.000000 0.000000 0.000000 -0.098154
#
#
# Mechanical properties :
#
#
# Convention : Reuss Voigt Hill
#
# Bulk Modulus (GPa) = 36.47526 60.34389 48.40957
# Shear Modulus (GPa) = 28.44185 13.36176 20.90180
#
# Velocity S-wave (km/s) = 4.26316 2.92203 3.65464
# Velocity P-wave (km/s) = 6.89497 7.06714 6.98158
#
# Compressibility (1/GPa) = 0.02741584
#
# Stress axis : x y z
#
# Youngs Moduli (GPa) = 57.28413 50.59756 16.43350
#
# Poissons Ratio (x) = 0.25088 0.16518
# Poissons Ratio (y) = 0.28404 0.33390
# Poissons Ratio (z) = 0.57580 1.02804
#
# Static dielectric constant tensor:
#      x y z
#    x 1.540120 0.000000 0.000000 
#    y 0.000000 1.522490 0.000000 
#    z 0.000000 0.000000 1.521620 
# 
# From -- ./inp_files/12525.got.cif
#   From: 2010.05.17/outbox.cif.g08.bks.cpg/sg47_7_cif.got.tgz:12525.got - 2010.06.03 20:15:42.
