data_PCOD9385666
_publ_section_title
;
Structure prediction by ZEFSAII (Michael W. Deem and Ramdas Pophale) SiO2 
 PCOD9385666
Probable space group: P M M M
;
_chemical_formula_sum "Si O2"
_cell_formula_units_Z 52
_cell_length_a 15.074087
_cell_length_b 22.184482
_cell_length_c 8.569599
_cell_angle_alpha 90.000000
_cell_angle_beta 90.000000
_cell_angle_gamma 90.000000
_cell_volume 2865.766558
_symmetry_space_group_name_H-M "P M M M"
_symmetry_group_IT_number 47
_symmetry_cell_setting 'orthorhombic'
loop_
_space_group_symop_operation_xyz
x,y,z
-x,-y,z
x,-y,-z
-x,y,-z
-x,-y,-z
x,y,-z
-x,y,z
x,-y,z
loop_
_atom_site_type_symbol
_atom_site_label
_atom_site_fract_x
_atom_site_fract_y
_atom_site_fract_z
Si Si1 0.401219 0.312324 0.823677
Si Si2 0.397453 0.129365 0.814226
Si Si3 0.638906 0.432299 0.317652
Si Si4 0.733204 0.770213 0.320325
Si Si5 0.100305 0.305817 0.687919
Si Si6 0.392904 0.000000 0.322654
Si Si7 0.836548 0.567298 0.813639
O O1 0.500000 0.286902 0.807141
O O2 0.403479 0.382998 0.792931
O O3 0.334215 0.285480 0.699576
O O4 0.370264 0.299331 0.000000
O O5 0.500000 0.140447 0.755630
O O6 0.322918 0.176379 0.758760
O O7 0.369761 0.062272 0.761597
O O8 0.401911 0.132185 0.000000
O O9 0.623856 0.418319 0.500000
O O10 0.607572 0.500000 0.288756
O O11 0.743527 0.431123 0.278164
O O12 0.746785 0.786659 0.500000
O O13 0.825822 0.742677 0.257407
O O14 0.111742 0.311978 0.500000
O O15 0.113298 0.372319 0.761140
O O16 0.000000 0.285432 0.719134
O O17 0.500000 0.000000 0.326897
O O18 0.359624 0.000000 0.500000
O O19 0.876539 0.500000 0.784243
O O20 0.820497 0.570984 0.000000
#
# Coordination Sequence:
#
# PCOD9385666 Si02
#       7
#     8   8   8   8   8   4   8
#     4  11  23  36  51  73 102 135 171 214 264 316
#     4  10  20  34  54  82 118 156 188 220 261 307
#     4  10  20  34  52  72  95 127 168 213 262 316
#     4  11  22  36  55  78 105 141 181 222 264 314
#     4  10  22  39  57  78 104 136 176 223 277 333
#     4   9  17  31  53  83 118 153 190 227 257 296
#     4  10  20  34  54  78 102 129 165 215 276 338
#
# _framework density 18.145232
#
# number of rings (size 3 to 8) (size 9 to 14) (size 15 to 20)
#    0.000    1.769    1.538    3.000    0.000    8.308 
#    0.000    3.077    0.000    0.000    0.000    0.538 
#    0.000    4.308    0.000    0.000    0.000    0.000 
#
# Total GULP energy -290003.723720 kJ/mol
# GULP energy per Si atom -5576.994687 kJ/mol
# Density = 1.810393 g / cm^3
# Si number density = 18.145232 Si / 1000 Ang^3
#
#
#
# Elastic Constant Matrix: (Units=GPa)
#
#
# Indices 1 2 3 4 5 6 
#
# 1 94.4473 51.6828 20.1406 0.0000 0.0000 0.0000
# 2 51.6828 122.4938 27.6949 0.0000 0.0000 0.0000
# 3 20.1406 27.6949 38.5911 0.0000 0.0000 0.0000
# 4 0.0000 0.0000 0.0000 23.1871 0.0000 0.0000
# 5 0.0000 0.0000 0.0000 0.0000 14.0380 0.0000
# 6 0.0000 0.0000 0.0000 0.0000 0.0000 18.3267
#
#
#
# Elastic Compliance Matrix: (Units=1/GPa)
#
#
# Indices 1 2 3 4 5 6 
#
# 1 0.014199 -0.005151 -0.003714 0.000000 0.000000 0.000000
# 2 -0.005151 0.011614 -0.005646 0.000000 0.000000 0.000000
# 3 -0.003714 -0.005646 0.031903 0.000000 0.000000 0.000000
# 4 0.000000 0.000000 0.000000 0.043127 0.000000 0.000000
# 5 0.000000 0.000000 0.000000 0.000000 0.071235 0.000000
# 6 0.000000 0.000000 0.000000 0.000000 0.000000 0.054565
#
#
# Mechanical properties :
#
#
# Convention : Reuss Voigt Hill
#
# Bulk Modulus (GPa) = 34.85123 50.50765 42.67944
# Shear Modulus (GPa) = 18.85165 21.51128 20.18146
#
# Velocity S-wave (km/s) = 3.22674 3.44685 3.33861
# Velocity P-wave (km/s) = 5.75595 6.61337 6.19950
#
# Compressibility (1/GPa) = 0.02869339
#
# Stress axis : x y z
#
# Youngs Moduli (GPa) = 70.42972 86.10607 31.34526
#
# Poissons Ratio (x) = 0.44354 0.11640
# Poissons Ratio (y) = 0.36279 0.17698
# Poissons Ratio (z) = 0.26154 0.48617
#
# Static dielectric constant tensor:
#      x y z
#    x 1.644370 0.000000 0.000000 
#    y 0.000000 1.643970 0.000000 
#    z 0.000000 0.000000 1.620040 
# 
# From -- ./inp_files/6977.got.cif
#   From: 2010.05.17/outbox.cif.g08.bks.cpg/sg47_4_cif.got.tgz:6977.got - 2010.06.03 20:15:42.
