data_PCOD9385813
_publ_section_title
;
Structure prediction by ZEFSAII (Michael W. Deem and Ramdas Pophale) SiO2 
 PCOD9385813
Probable space group: P M M M
;
_chemical_formula_sum "Si O2"
_cell_formula_units_Z 48
_cell_length_a 7.849083
_cell_length_b 31.795966
_cell_length_c 9.402258
_cell_angle_alpha 90.000000
_cell_angle_beta 90.000000
_cell_angle_gamma 90.000000
_cell_volume 2346.513783
_symmetry_space_group_name_H-M "P M M M"
_symmetry_group_IT_number 47
_symmetry_cell_setting 'orthorhombic'
loop_
_space_group_symop_operation_xyz
x,y,z
-x,-y,z
x,-y,-z
-x,y,-z
-x,-y,-z
x,y,-z
-x,y,z
x,-y,z
loop_
_atom_site_type_symbol
_atom_site_label
_atom_site_fract_x
_atom_site_fract_y
_atom_site_fract_z
Si Si1 0.299316 0.255738 0.660863
Si Si2 0.797550 0.663604 0.160635
Si Si3 0.202545 0.825079 0.163138
Si Si4 0.294381 0.081201 0.162940
Si Si5 0.208145 0.500000 0.164111
Si Si6 0.208789 0.582996 0.335938
Si Si7 0.708841 0.000000 0.337045
O O1 0.228719 0.256612 0.500000
O O2 0.500000 0.263405 0.652646
O O3 0.226287 0.292486 0.759143
O O4 0.272124 0.210836 0.734911
O O5 0.731305 0.624958 0.255255
O O6 0.000000 0.656681 0.148802
O O7 0.727265 0.664546 0.000000
O O8 0.242662 0.872392 0.212716
O O9 0.000000 0.820007 0.157976
O O10 0.268699 0.820873 0.000000
O O11 0.500000 0.079924 0.161187
O O12 0.234630 0.042211 0.256903
O O13 0.234080 0.076523 0.000000
O O14 0.261303 0.541732 0.248564
O O15 0.000000 0.500000 0.162422
O O16 0.264140 0.500000 0.000000
O O17 0.263924 0.581893 0.500000
O O18 0.000000 0.583279 0.337594
O O19 0.500000 0.000000 0.334476
O O20 0.762712 0.000000 0.500000
#
# Coordination Sequence:
#
# PCOD9385813 Si02
#       7
#     8   8   8   8   4   8   4
#     4  11  24  39  55  77 104 135 172 213 258 310
#     4  10  20  34  53  77 104 135 172 214 261 312
#     4  10  21  37  57  81 107 136 172 214 261 312
#     4   9  17  31  52  76 103 137 175 213 255 304
#     4   9  15  23  37  61  96 135 174 215 256 301
#     4   9  16  26  42  66  98 135 172 211 258 309
#     4   9  17  29  48  75 104 134 172 217 258 297
#
# _framework density 20.455877999999998
#
# number of rings (size 3 to 8) (size 9 to 14) (size 15 to 20)
#    0.000    2.333    0.000    3.000    0.000   10.000 
#    0.000    2.083    0.000    2.500    0.000    0.583 
#    0.000    4.667    0.000    0.000    0.000    0.000 
#
# Total GULP energy -268075.673581 kJ/mol
# GULP energy per Si atom -5584.909866 kJ/mol
# Density = 2.040932 g / cm^3
# Si number density = 20.455878 Si / 1000 Ang^3
#
#
#
# Elastic Constant Matrix: (Units=GPa)
#
#
# Indices 1 2 3 4 5 6 
#
# 1 21.5785 -8.1646 3.6840 0.0000 0.0000 0.0000
# 2 -8.1646 167.4156 117.3993 0.0000 0.0000 0.0000
# 3 3.6840 117.3993 184.3389 0.0000 0.0000 0.0000
# 4 0.0000 0.0000 0.0000 58.1164 0.0000 0.0000
# 5 0.0000 0.0000 0.0000 0.0000 8.7023 0.0000
# 6 0.0000 0.0000 0.0000 0.0000 0.0000 29.2838
#
#
#
# Elastic Compliance Matrix: (Units=1/GPa)
#
#
# Indices 1 2 3 4 5 6 
#
# 1 0.049231 0.005585 -0.004541 0.000000 0.000000 0.000000
# 2 0.005585 0.011427 -0.007389 0.000000 0.000000 0.000000
# 3 -0.004541 -0.007389 0.010221 0.000000 0.000000 0.000000
# 4 0.000000 0.000000 0.000000 0.017207 0.000000 0.000000
# 5 0.000000 0.000000 0.000000 0.000000 0.114913 0.000000
# 6 0.000000 0.000000 0.000000 0.000000 0.000000 0.034149
#
#
# Mechanical properties :
#
#
# Convention : Reuss Voigt Hill
#
# Bulk Modulus (GPa) = 17.18516 66.57449 41.87983
# Shear Modulus (GPa) = 18.57120 36.58144 27.57632
#
# Velocity S-wave (km/s) = 3.01635 4.23343 3.67561
# Velocity P-wave (km/s) = 4.53326 7.51744 6.20735
#
# Compressibility (1/GPa) = 0.05818973
#
# Stress axis : x y z
#
# Youngs Moduli (GPa) = 20.31244 87.51065 97.83315
#
# Poissons Ratio (x) = -0.48876 0.44425
# Poissons Ratio (y) = -0.11345 0.72291
# Poissons Ratio (z) = 0.09224 0.64663
#
# Static dielectric constant tensor:
#      x y z
#    x 1.762400 0.000000 0.000000 
#    y 0.000000 1.684060 0.000000 
#    z 0.000000 0.000000 1.719500 
# 
# From -- ./inp_files/2673.got.cif
#   From: 2010.05.17/outbox.cif.g08.bks.cpg/sg47_2_cif.got.tgz:2673.got - 2010.06.03 20:15:42.
