data_PCOD9385759
_publ_section_title
;
Structure prediction by ZEFSAII (Michael W. Deem and Ramdas Pophale) SiO2 
 PCOD9385759
Probable space group: P M M M
;
_chemical_formula_sum "Si O2"
_cell_formula_units_Z 48
_cell_length_a 9.303173
_cell_length_b 8.964915
_cell_length_c 32.513484
_cell_angle_alpha 90.000000
_cell_angle_beta 90.000000
_cell_angle_gamma 90.000000
_cell_volume 2711.694638
_symmetry_space_group_name_H-M "P M M M"
_symmetry_group_IT_number 47
_symmetry_cell_setting 'orthorhombic'
loop_
_space_group_symop_operation_xyz
x,y,z
-x,-y,z
x,-y,-z
-x,y,-z
-x,-y,-z
x,y,-z
-x,y,z
x,-y,z
loop_
_atom_site_type_symbol
_atom_site_label
_atom_site_fract_x
_atom_site_fract_y
_atom_site_fract_z
Si Si1 0.831957 0.319942 0.917556
Si Si2 0.671233 0.822394 0.328822
Si Si3 0.674935 0.328267 0.755618
Si Si4 0.832455 0.182196 0.410652
Si Si5 0.175268 0.174201 0.500000
Si Si6 0.330368 0.177964 0.159159
Si Si7 0.665540 0.681715 0.000000
O O1 0.821320 0.500000 0.914840
O O2 0.758809 0.249531 0.877674
O O3 0.748378 0.271692 0.958787
O O4 0.000000 0.281231 0.920300
O O5 0.500000 0.799843 0.332299
O O6 0.723769 0.743339 0.287291
O O7 0.745506 0.768924 0.370718
O O8 0.696230 0.000000 0.324755
O O9 0.500000 0.322816 0.754706
O O10 0.718788 0.500000 0.758647
O O11 0.718155 0.239919 0.796506
O O12 0.779965 0.237087 0.455595
O O13 0.000000 0.221489 0.406152
O O14 0.825272 0.000000 0.411940
O O15 0.000000 0.176461 0.500000
O O16 0.218404 0.000000 0.500000
O O17 0.500000 0.216235 0.154083
O O18 0.317674 0.000000 0.158644
O O19 0.665414 0.500000 0.000000
O O20 0.500000 0.731245 0.000000
#
# Coordination Sequence:
#
# PCOD9385759 Si02
#       7
#     8   8   8   8   4   8   4
#     4  10  20  34  53  78 108 139 169 203 245 291
#     4   9  16  26  41  63  90 116 144 184 232 275
#     4   9  17  30  49  70  91 120 158 195 232 280
#     4   8  13  22  37  57  82 113 146 178 217 268
#     4   7  10  18  33  53  78 109 144 178 212 259
#     4  10  20  34  53  76 100 128 165 207 247 289
#     4   9  17  31  54  81 106 135 172 210 244 281
#
# _framework density 17.701108000000001
#
# number of rings (size 3 to 8) (size 9 to 14) (size 15 to 20)
#    0.000    3.000    0.000    2.750    0.000    5.000 
#    0.000    1.667    0.000    8.500    0.000    0.583 
#    0.000    4.667    0.000    0.000    0.000    0.000 
#
# Total GULP energy -267413.996674 kJ/mol
# GULP energy per Si atom -5571.124931 kJ/mol
# Density = 1.766082 g / cm^3
# Si number density = 17.701108 Si / 1000 Ang^3
#
#
#
# Elastic Constant Matrix: (Units=GPa)
#
#
# Indices 1 2 3 4 5 6 
#
# 1 62.9311 33.8253 78.8865 0.0000 0.0000 0.0000
# 2 33.8253 21.4473 49.0112 0.0000 0.0000 0.0000
# 3 78.8865 49.0112 220.2326 0.0000 0.0000 0.0000
# 4 0.0000 0.0000 0.0000 36.4836 0.0000 0.0000
# 5 0.0000 0.0000 0.0000 0.0000 129.2922 0.0000
# 6 0.0000 0.0000 0.0000 0.0000 0.0000 12.6260
#
#
#
# Elastic Compliance Matrix: (Units=1/GPa)
#
#
# Indices 1 2 3 4 5 6 
#
# 1 0.104595 -0.161451 -0.001536 0.000000 0.000000 0.000000
# 2 -0.161451 0.344087 -0.018743 0.000000 0.000000 0.000000
# 3 -0.001536 -0.018743 0.009262 0.000000 0.000000 0.000000
# 4 0.000000 0.000000 0.000000 0.027410 0.000000 0.000000
# 5 0.000000 0.000000 0.000000 0.000000 0.007734 0.000000
# 6 0.000000 0.000000 0.000000 0.000000 0.000000 0.079202
#
#
# Mechanical properties :
#
#
# Convention : Reuss Voigt Hill
#
# Bulk Modulus (GPa) = 10.58375 69.78410 40.18393
# Shear Modulus (GPa) = 5.16932 45.20623 25.18777
#
# Velocity S-wave (km/s) = 1.71075 5.05906 3.77629
# Velocity P-wave (km/s) = 3.14553 8.58106 6.46254
#
# Compressibility (1/GPa) = 0.09448447
#
# Stress axis : x y z
#
# Youngs Moduli (GPa) = 9.56066 2.90624 107.96939
#
# Poissons Ratio (x) = 0.46922 0.16583
# Poissons Ratio (y) = 1.54358 2.02366
# Poissons Ratio (z) = 0.01468 0.05447
#
# Static dielectric constant tensor:
#      x y z
#    x 1.592890 0.000000 0.000000 
#    y 0.000000 1.598380 0.000000 
#    z 0.000000 0.000000 1.610600 
# 
# From -- ./inp_files/34096.got.cif
#   From: 2010.05.17/outbox.cif.g08.bks.cpg/sg47_18_cif.got.tgz:34096.got - 2010.06.03 20:15:42.
