data_PCOD9385209
_publ_section_title
;
Structure prediction by ZEFSAII (Michael W. Deem and Ramdas Pophale) SiO2 
 PCOD9385209
Probable space group: P M M M
;
_chemical_formula_sum "Si O2"
_cell_formula_units_Z 44
_cell_length_a 9.486267
_cell_length_b 29.400051
_cell_length_c 7.568427
_cell_angle_alpha 90.000000
_cell_angle_beta 90.000000
_cell_angle_gamma 90.000000
_cell_volume 2110.809569
_symmetry_space_group_name_H-M "P M M M"
_symmetry_group_IT_number 47
_symmetry_cell_setting 'orthorhombic'
loop_
_space_group_symop_operation_xyz
x,y,z
-x,-y,z
x,-y,-z
-x,y,-z
-x,-y,-z
x,y,-z
-x,y,z
x,-y,z
loop_
_atom_site_type_symbol
_atom_site_label
_atom_site_fract_x
_atom_site_fract_y
_atom_site_fract_z
Si Si1 0.662802 0.000000 0.284366
Si Si2 0.162612 0.911014 0.283612
Si Si3 0.160263 0.363936 0.287699
Si Si4 0.663427 0.550148 0.715652
Si Si5 0.839111 0.262443 0.790697
Si Si6 0.659015 0.825117 0.708584
O O1 0.747862 0.044914 0.229729
O O2 0.500000 0.000000 0.226197
O O3 0.660528 0.000000 0.500000
O O4 0.159898 0.910781 0.500000
O O5 0.242184 0.865542 0.221362
O O6 0.000000 0.912721 0.226103
O O7 0.155692 0.367710 0.500000
O O8 0.249826 0.406467 0.221097
O O9 0.214498 0.313365 0.247771
O O10 0.000000 0.366098 0.220218
O O11 0.666690 0.550619 0.500000
O O12 0.500000 0.553913 0.767184
O O13 0.716076 0.500000 0.770206
O O14 0.737253 0.222913 0.726409
O O15 0.000000 0.258469 0.718251
O O16 0.848043 0.257568 0.000000
O O17 0.646374 0.834212 0.500000
O O18 0.500000 0.824637 0.782154
#
# Coordination Sequence:
#
# PCOD9385209 Si02
#       6
#     4   8   8   8   8   8
#     4   9  15  23  37  61  96 131 160 195 240 287
#     4   9  16  26  42  65  94 128 163 198 239 288
#     4   9  17  29  47  71  96 122 155 196 239 283
#     4   8  14  25  42  66  95 123 151 187 232 280
#     4  10  21  36  52  70  95 128 164 202 246 295
#     4  10  20  33  50  73  99 127 162 204 248 292
#
# _framework density 20.845082000000001
#
# number of rings (size 3 to 8) (size 9 to 14) (size 15 to 20)
#    0.000    2.818    0.000    2.455    0.000    6.545 
#    0.000    3.636    0.000    0.545    0.000    4.455 
#    0.000    5.091    0.000    0.000    0.000    0.000 
#
# Total GULP energy -245563.658420 kJ/mol
# GULP energy per Si atom -5580.992237 kJ/mol
# Density = 2.079764 g / cm^3
# Si number density = 20.845082 Si / 1000 Ang^3
#
#
#
# Elastic Constant Matrix: (Units=GPa)
#
#
# Indices 1 2 3 4 5 6 
#
# 1 160.4593 133.2036 4.5487 0.0000 0.0000 0.0000
# 2 133.2036 223.8582 -5.5913 0.0000 0.0000 0.0000
# 3 4.5487 -5.5913 46.8573 0.0000 0.0000 0.0000
# 4 0.0000 0.0000 0.0000 -48.9981 0.0000 0.0000
# 5 0.0000 0.0000 0.0000 0.0000 -0.7666 0.0000
# 6 0.0000 0.0000 0.0000 0.0000 0.0000 40.7410
#
#
#
# Elastic Compliance Matrix: (Units=1/GPa)
#
#
# Indices 1 2 3 4 5 6 
#
# 1 0.012520 -0.007503 -0.002111 0.000000 0.000000 0.000000
# 2 -0.007503 0.008976 0.001799 0.000000 0.000000 0.000000
# 3 -0.002111 0.001799 0.021761 0.000000 0.000000 0.000000
# 4 0.000000 0.000000 0.000000 -0.020409 0.000000 0.000000
# 5 0.000000 0.000000 0.000000 0.000000 -1.304540 0.000000
# 6 0.000000 0.000000 0.000000 0.000000 0.000000 0.024545
#
#
# Mechanical properties :
#
#
# Convention : Reuss Voigt Hill
#
# Bulk Modulus (GPa) = 36.19277 77.27742 56.73510
# Shear Modulus (GPa) = -4.05743 18.12951 7.03604
#
# Velocity S-wave (km/s) = -1.39667 2.95231 1.83922
# Velocity P-wave (km/s) = 3.84701 6.98386 5.63799
#
# Compressibility (1/GPa) = 0.02762983
#
# Stress axis : x y z
#
# Youngs Moduli (GPa) = 79.87070 111.40281 45.95374
#
# Poissons Ratio (x) = 0.83582 0.09699
# Poissons Ratio (y) = 0.59925 -0.08269
# Poissons Ratio (z) = 0.16858 -0.20046
#
# Static dielectric constant tensor:
#      x y z
#    x 1.590320 0.000000 0.000000 
#    y 0.000000 1.720830 0.000000 
#    z 0.000000 0.000000 1.774110 
# 
# From -- ./inp_files/1965.got.cif
#   From: 2010.05.17/outbox.cif.g08.bks.cpg/sg47_1_cif.got.tgz:1965.got - 2010.06.03 20:15:42.
