data_PCOD9385108
_publ_section_title
;
Structure prediction by ZEFSAII (Michael W. Deem and Ramdas Pophale) SiO2 
 PCOD9385108
Probable space group: P M M M
;
_chemical_formula_sum "Si O2"
_cell_formula_units_Z 64
_cell_length_a 30.456334
_cell_length_b 15.110920
_cell_length_c 8.846407
_cell_angle_alpha 90.000000
_cell_angle_beta 90.000000
_cell_angle_gamma 90.000000
_cell_volume 4071.321973
_symmetry_space_group_name_H-M "P M M M"
_symmetry_group_IT_number 47
_symmetry_cell_setting 'orthorhombic'
loop_
_space_group_symop_operation_xyz
x,y,z
-x,-y,z
x,-y,-z
-x,y,-z
-x,-y,-z
x,y,-z
-x,y,z
x,-y,z
loop_
_atom_site_type_symbol
_atom_site_label
_atom_site_fract_x
_atom_site_fract_y
_atom_site_fract_z
Si Si1 0.645900 0.098961 0.181740
Si Si2 0.451110 0.166039 0.180922
Si Si3 0.694077 0.265018 0.677532
Si Si4 0.951759 0.607404 0.322335
Si Si5 0.549635 0.640952 0.675722
Si Si6 0.137890 0.392747 0.828287
Si Si7 0.365531 0.598497 0.827792
Si Si8 0.769788 0.602465 0.681852
O O1 0.594108 0.115573 0.218326
O O2 0.677801 0.174335 0.246983
O O3 0.657842 0.000000 0.232300
O O4 0.648792 0.102818 0.000000
O O5 0.500000 0.124669 0.205479
O O6 0.450033 0.255819 0.277358
O O7 0.448936 0.186062 0.000000
O O8 0.699959 0.249749 0.500000
O O9 0.655174 0.334041 0.710765
O O10 0.736046 0.321739 0.736380
O O11 0.948392 0.628622 0.500000
O O12 0.951726 0.500000 0.312015
O O13 0.908480 0.639868 0.237318
O O14 0.000000 0.636914 0.266655
O O15 0.562174 0.629287 0.500000
O O16 0.500000 0.609058 0.693241
O O17 0.583471 0.596279 0.788144
O O18 0.135128 0.500000 0.829107
O O19 0.180926 0.372864 0.730733
O O20 0.144085 0.362944 0.000000
O O21 0.346938 0.500000 0.811877
O O22 0.358514 0.629160 0.000000
O O23 0.766672 0.600190 0.500000
O O24 0.761169 0.500000 0.734409
#
# Coordination Sequence:
#
# PCOD9385108 Si02
#       8
#     8   8   8   8   8   8   8   8
#     4  10  21  36  54  76 100 124 149 178 218 271
#     4   9  17  31  52  74  96 121 146 173 209 258
#     4  11  22  36  54  73  93 119 151 190 232 271
#     4   8  13  21  33  49  73 110 153 193 233 274
#     4  10  20  33  50  71  94 119 146 178 216 256
#     4   9  16  24  36  57  83 111 147 192 237 276
#     4  11  23  36  51  71  94 121 151 182 219 266
#     4   9  18  32  48  65  87 117 153 192 234 279
#
# _framework density 15.719709
#
# number of rings (size 3 to 8) (size 9 to 14) (size 15 to 20)
#    0.000    2.375    1.250    2.250    0.000    5.750 
#    0.000    5.000    0.000    0.000    0.000    2.625 
#    0.000    0.000    0.000    0.000    0.000    0.625 
#
# Total GULP energy -356408.143611 kJ/mol
# GULP energy per Si atom -5568.877244 kJ/mol
# Density = 1.568393 g / cm^3
# Si number density = 15.719709 Si / 1000 Ang^3
#
#
#
# Elastic Constant Matrix: (Units=GPa)
#
#
# Indices 1 2 3 4 5 6 
#
# 1 103.2384 39.4005 18.2595 0.0000 0.0000 0.0000
# 2 39.4005 67.2386 13.9595 0.0000 0.0000 0.0000
# 3 18.2595 13.9595 11.8855 0.0000 0.0000 0.0000
# 4 0.0000 0.0000 0.0000 -20.4301 0.0000 0.0000
# 5 0.0000 0.0000 0.0000 0.0000 14.0155 0.0000
# 6 0.0000 0.0000 0.0000 0.0000 0.0000 16.1191
#
#
#
# Elastic Compliance Matrix: (Units=1/GPa)
#
#
# Indices 1 2 3 4 5 6 
#
# 1 0.014525 -0.005129 -0.016290 0.000000 0.000000 0.000000
# 2 -0.005129 0.021480 -0.017348 0.000000 0.000000 0.000000
# 3 -0.016290 -0.017348 0.129538 0.000000 0.000000 0.000000
# 4 0.000000 0.000000 0.000000 -0.048947 0.000000 0.000000
# 5 0.000000 0.000000 0.000000 0.000000 0.071349 0.000000
# 6 0.000000 0.000000 0.000000 0.000000 0.000000 0.062038
#
#
# Mechanical properties :
#
#
# Convention : Reuss Voigt Hill
#
# Bulk Modulus (GPa) = 11.36260 36.17795 23.77028
# Shear Modulus (GPa) = 14.01130 9.32375 11.66752
#
# Velocity S-wave (km/s) = 2.98874 2.43806 2.72733
# Velocity P-wave (km/s) = 4.37653 5.56685 5.00719
#
# Compressibility (1/GPa) = 0.08800804
#
# Stress axis : x y z
#
# Youngs Moduli (GPa) = 68.84605 46.55547 7.71972
#
# Poissons Ratio (x) = 0.23880 0.12576
# Poissons Ratio (y) = 0.35314 0.13392
# Poissons Ratio (z) = 1.12153 0.80764
#
# Static dielectric constant tensor:
#      x y z
#    x 1.557170 0.000000 0.000000 
#    y 0.000000 1.525780 0.000000 
#    z 0.000000 0.000000 1.529000 
# 
# From -- ./inp_files/8208.got.cif
#   From: 2010.05.17/outbox.cif.g08.bks.cpg/sg47_5_cif.got.tgz:8208.got - 2010.06.03 20:15:42.
