data_PCOD9385712
_publ_section_title
;
Structure prediction by ZEFSAII (Michael W. Deem and Ramdas Pophale) SiO2 
 PCOD9385712
Probable space group: P M M M
;
_chemical_formula_sum "Si O2"
_cell_formula_units_Z 56
_cell_length_a 22.462835
_cell_length_b 7.743366
_cell_length_c 15.867392
_cell_angle_alpha 90.000000
_cell_angle_beta 90.000000
_cell_angle_gamma 90.000000
_cell_volume 2759.941681
_symmetry_space_group_name_H-M "P M M M"
_symmetry_group_IT_number 47
_symmetry_cell_setting 'orthorhombic'
loop_
_space_group_symop_operation_xyz
x,y,z
-x,-y,z
x,-y,-z
-x,y,-z
-x,-y,-z
x,y,-z
-x,y,z
x,-y,z
loop_
_atom_site_type_symbol
_atom_site_label
_atom_site_fract_x
_atom_site_fract_y
_atom_site_fract_z
Si Si1 0.744665 0.797279 0.590278
Si Si2 0.793657 0.205138 0.093436
Si Si3 0.340951 0.290507 0.856012
Si Si4 0.500000 0.206220 0.403893
Si Si5 0.931090 0.291570 0.594014
Si Si6 0.372855 0.704411 0.668972
Si Si7 0.167247 0.205844 0.271074
Si Si8 0.568157 0.289100 0.000000
O O1 0.761370 0.719258 0.500000
O O2 0.674495 0.782848 0.604667
O O3 0.779277 0.722248 0.670458
O O4 0.760017 0.000000 0.587591
O O5 0.723568 0.229171 0.113442
O O6 0.828572 0.275386 0.175714
O O7 0.805309 0.000000 0.088586
O O8 0.806391 0.278202 0.000000
O O9 0.339438 0.500000 0.856567
O O10 0.356286 0.230255 0.762063
O O11 0.393269 0.235756 0.919191
O O12 0.500000 0.273792 0.500000
O O13 0.440342 0.261735 0.356490
O O14 0.500000 0.000000 0.407543
O O15 0.910834 0.232455 0.500000
O O16 0.929644 0.500000 0.593059
O O17 0.890835 0.233360 0.671790
O O18 0.000000 0.238399 0.603689
O O19 0.363081 0.500000 0.668154
O O20 0.175918 0.000000 0.262330
O O21 0.566519 0.500000 0.000000
O O22 0.500000 0.229177 0.000000
#
# Coordination Sequence:
#
# PCOD9385712 Si02
#       8
#     8   8   8   4   8   8   8   4
#     4  10  20  34  52  75 106 142 177 215 265 323
#     4  10  20  35  56  80 109 143 180 227 277 322
#     4  10  20  34  54  78 103 134 172 215 266 328
#     4  11  25  43  59  72  93 134 180 218 268 333
#     4   9  19  36  57  83 117 154 189 228 275 324
#     4  11  23  36  54  79 104 131 172 222 270 321
#     4  10  20  34  54  82 114 147 186 228 272 324
#     4   9  18  32  53  75  99 131 166 209 264 323
#
# _framework density 20.290282000000001
#
# number of rings (size 3 to 8) (size 9 to 14) (size 15 to 20)
#    0.000    2.000    2.143    1.929    1.000    5.429 
#    0.000    0.714    0.000    0.857    0.000    3.000 
#    0.000    0.000    0.000    0.000    0.000    0.000 
#
# Total GULP energy -312625.518299 kJ/mol
# GULP energy per Si atom -5582.598541 kJ/mol
# Density = 2.024410 g / cm^3
# Si number density = 20.290282 Si / 1000 Ang^3
#
#
#
# Elastic Constant Matrix: (Units=GPa)
#
#
# Indices 1 2 3 4 5 6 
#
# 1 92.7175 -11.2489 66.5329 0.0000 0.0000 0.0000
# 2 -11.2489 31.8685 10.2684 0.0000 0.0000 0.0000
# 3 66.5329 10.2684 208.3157 0.0000 0.0000 0.0000
# 4 0.0000 0.0000 0.0000 11.1332 0.0000 0.0000
# 5 0.0000 0.0000 0.0000 0.0000 35.8195 0.0000
# 6 0.0000 0.0000 0.0000 0.0000 0.0000 25.4737
#
#
#
# Elastic Compliance Matrix: (Units=1/GPa)
#
#
# Indices 1 2 3 4 5 6 
#
# 1 0.015447 0.007156 -0.005286 0.000000 0.000000 0.000000
# 2 0.007156 0.035200 -0.004021 0.000000 0.000000 0.000000
# 3 -0.005286 -0.004021 0.006687 0.000000 0.000000 0.000000
# 4 0.000000 0.000000 0.000000 0.089822 0.000000 0.000000
# 5 0.000000 0.000000 0.000000 0.000000 0.027918 0.000000
# 6 0.000000 0.000000 0.000000 0.000000 0.000000 0.039256
#
#
# Mechanical properties :
#
#
# Convention : Reuss Voigt Hill
#
# Bulk Modulus (GPa) = 18.85656 51.55630 35.20643
# Shear Modulus (GPa) = 21.15873 32.30856 26.73364
#
# Velocity S-wave (km/s) = 3.23275 3.99471 3.63376
# Velocity P-wave (km/s) = 4.82159 6.83678 5.91563
#
# Compressibility (1/GPa) = 0.05303195
#
# Stress axis : x y z
#
# Youngs Moduli (GPa) = 64.73765 28.40893 149.54517
#
# Poissons Ratio (x) = -0.20329 0.79053
# Poissons Ratio (y) = -0.46324 0.60125
# Poissons Ratio (z) = 0.34222 0.11422
#
# Static dielectric constant tensor:
#      x y z
#    x 1.708940 0.000000 0.000000 
#    y 0.000000 1.739770 0.000000 
#    z 0.000000 0.000000 1.771130 
# 
# From -- ./inp_files/11372.got.cif
#   From: 2010.05.17/outbox.cif.g08.bks.cpg/sg47_6_cif.got.tgz:11372.got - 2010.06.03 20:15:42.
