data_PCOD9385008
_publ_section_title
;
Structure prediction by ZEFSAII (Michael W. Deem and Ramdas Pophale) SiO2 
 PCOD9385008
Probable space group: P M M M
;
_chemical_formula_sum "Si O2"
_cell_formula_units_Z 48
_cell_length_a 9.275347
_cell_length_b 7.330039
_cell_length_c 31.940533
_cell_angle_alpha 90.000000
_cell_angle_beta 90.000000
_cell_angle_gamma 90.000000
_cell_volume 2171.593887
_symmetry_space_group_name_H-M "P M M M"
_symmetry_group_IT_number 47
_symmetry_cell_setting 'orthorhombic'
loop_
_space_group_symop_operation_xyz
x,y,z
-x,-y,z
x,-y,-z
-x,y,-z
-x,-y,-z
x,y,-z
-x,y,z
x,-y,z
loop_
_atom_site_type_symbol
_atom_site_label
_atom_site_fract_x
_atom_site_fract_y
_atom_site_fract_z
Si Si1 0.666316 0.777170 0.667094
Si Si2 0.663591 0.717767 0.834385
Si Si3 0.666368 0.222573 0.500000
Si Si4 0.166311 0.277162 0.916436
Si Si5 0.163594 0.782238 0.250857
Si Si6 0.833695 0.222487 0.583497
Si Si7 0.333766 0.722418 0.000000
O O1 0.500000 0.719614 0.666812
O O2 0.748911 0.715109 0.708769
O O3 0.750439 0.720552 0.625350
O O4 0.665927 0.000000 0.667291
O O5 0.500000 0.788332 0.832198
O O6 0.653947 0.500000 0.839381
O O7 0.750967 0.784880 0.874781
O O8 0.750049 0.750021 0.791774
O O9 0.500000 0.280241 0.500000
O O10 0.749886 0.280161 0.541777
O O11 0.666210 0.000000 0.500000
O O12 0.165951 0.500000 0.916245
O O13 0.250254 0.220457 0.958203
O O14 0.000000 0.219626 0.916666
O O15 0.000000 0.711664 0.248699
O O16 0.153946 0.000000 0.255864
O O17 0.000000 0.280451 0.583456
O O18 0.834028 0.000000 0.583426
O O19 0.334232 0.500000 0.000000
O O20 0.500000 0.780636 0.000000
#
# Coordination Sequence:
#
# PCOD9385008 Si02
#       7
#     8   8   4   8   8   8   4
#     4   9  16  26  40  57  78 106 141 181 223 266
#     4  10  20  33  49  70  96 125 156 191 233 278
#     4   9  15  21  29  43  65  95 132 171 212 261
#     4   9  16  26  41  62  89 120 152 186 226 271
#     4  10  20  33  49  69  92 120 156 195 233 275
#     4   9  15  22  32  47  69  98 133 173 216 262
#     4   9  15  23  37  59  88 119 150 185 224 267
#
# _framework density 22.103577999999999
#
# number of rings (size 3 to 8) (size 9 to 14) (size 15 to 20)
#    0.000    2.667    0.000    3.000    0.000   10.000 
#    0.000    0.000    0.000    0.000    0.000    0.583 
#    0.000    4.667    0.000    0.750    0.000   14.667 
#
# Total GULP energy -268387.959465 kJ/mol
# GULP energy per Si atom -5591.415822 kJ/mol
# Density = 2.205327 g / cm^3
# Si number density = 22.103578 Si / 1000 Ang^3
#
#
#
# Elastic Constant Matrix: (Units=GPa)
#
#
# Indices 1 2 3 4 5 6 
#
# 1 294.7716 8.6970 184.4522 0.0000 0.0000 0.0000
# 2 8.6970 87.1160 3.0244 0.0000 0.0000 0.0000
# 3 184.4522 3.0244 281.4067 0.0000 0.0000 0.0000
# 4 0.0000 0.0000 0.0000 7.8196 0.0000 0.0000
# 5 0.0000 0.0000 0.0000 0.0000 49.8794 0.0000
# 6 0.0000 0.0000 0.0000 0.0000 0.0000 -4.3727
#
#
#
# Elastic Compliance Matrix: (Units=1/GPa)
#
#
# Indices 1 2 3 4 5 6 
#
# 1 0.005769 -0.000445 -0.003776 0.000000 0.000000 0.000000
# 2 -0.000445 0.011518 0.000168 0.000000 0.000000 0.000000
# 3 -0.003776 0.000168 0.006027 0.000000 0.000000 0.000000
# 4 0.000000 0.000000 0.000000 0.127884 0.000000 0.000000
# 5 0.000000 0.000000 0.000000 0.000000 0.020048 0.000000
# 6 0.000000 0.000000 0.000000 0.000000 0.000000 -0.228690
#
#
# Mechanical properties :
#
#
# Convention : Reuss Voigt Hill
#
# Bulk Modulus (GPa) = 65.76168 117.29352 91.52760
# Shear Modulus (GPa) = -112.94440 41.80664 -35.56888
#
# Velocity S-wave (km/s) = -7.15603 4.35374 -4.01582
# Velocity P-wave (km/s) = 6.20178 8.85742 4.47168
#
# Compressibility (1/GPa) = 0.01520643
#
# Stress axis : x y z
#
# Youngs Moduli (GPa) = 173.35185 86.82418 165.91910
#
# Poissons Ratio (x) = 0.03862 0.62657
# Poissons Ratio (y) = 0.07711 -0.02783
# Poissons Ratio (z) = 0.65464 -0.01457
#
# Static dielectric constant tensor:
#      x y z
#    x 1.710800 0.000000 0.000000 
#    y 0.000000 1.990880 0.000000 
#    z 0.000000 0.000000 1.736000 
# 
# From -- ./inp_files/34204.got.cif
#   From: 2010.05.17/outbox.cif.g08.bks.cpg/sg47_18_cif.got.tgz:34204.got - 2010.06.03 20:15:42.
