data_PCOD9385599
_publ_section_title
;
Structure prediction by ZEFSAII (Michael W. Deem and Ramdas Pophale) SiO2 
 PCOD9385599
Probable space group: P M M M
;
_chemical_formula_sum "Si O2"
_cell_formula_units_Z 64
_cell_length_a 8.605385
_cell_length_b 14.700812
_cell_length_c 32.313454
_cell_angle_alpha 90.000000
_cell_angle_beta 90.000000
_cell_angle_gamma 90.000000
_cell_volume 4087.850564
_symmetry_space_group_name_H-M "P M M M"
_symmetry_group_IT_number 47
_symmetry_cell_setting 'orthorhombic'
loop_
_space_group_symop_operation_xyz
x,y,z
-x,-y,z
x,-y,-z
-x,y,-z
-x,-y,-z
x,y,-z
-x,y,z
x,-y,z
loop_
_atom_site_type_symbol
_atom_site_label
_atom_site_fract_x
_atom_site_fract_y
_atom_site_fract_z
Si Si1 0.315605 0.610135 0.544533
Si Si2 0.314361 0.103256 0.840531
Si Si3 0.312567 0.394833 0.952647
Si Si4 0.812138 0.394431 0.795277
Si Si5 0.313769 0.286205 0.284033
Si Si6 0.185978 0.896826 0.252081
Si Si7 0.185828 0.718077 0.876744
Si Si8 0.310005 0.605761 0.365157
O O1 0.249507 0.641147 0.500000
O O2 0.500000 0.631390 0.543926
O O3 0.304660 0.500000 0.545097
O O4 0.254454 0.639134 0.589513
O O5 0.500000 0.109471 0.836733
O O6 0.241074 0.118282 0.795158
O O7 0.253535 0.181505 0.870391
O O8 0.274245 0.000000 0.853394
O O9 0.500000 0.390322 0.950453
O O10 0.267472 0.500000 0.944516
O O11 0.241222 0.329640 0.918515
O O12 0.267415 0.372946 0.000000
O O13 0.763296 0.500000 0.795796
O O14 0.748344 0.342663 0.755240
O O15 0.762888 0.342603 0.837130
O O16 0.000000 0.391900 0.793752
O O17 0.500000 0.288302 0.283023
O O18 0.256993 0.182956 0.279435
O O19 0.260154 0.333782 0.326489
O O20 0.000000 0.890979 0.253134
O O21 0.232715 0.000000 0.263591
O O22 0.000000 0.722425 0.875940
O O23 0.500000 0.606497 0.366219
O O24 0.264472 0.500000 0.359295
#
# Coordination Sequence:
#
# PCOD9385599 Si02
#       8
#     8   8   8   8   8   8   8   8
#     4   7   9  15  29  48  73 109 149 185 221 262
#     4  10  20  34  53  76  98 121 154 194 235 279
#     4   9  19  36  56  77 102 132 164 198 236 277
#     4  10  21  34  45  62  93 130 163 192 221 261
#     4  11  20  29  44  65  91 123 155 188 230 276
#     4  10  20  34  50  66  87 117 153 193 235 276
#     4  11  21  33  52  76 101 129 160 194 234 276
#     4   8  14  23  34  54  86 120 153 186 221 267
#
# _framework density 15.656150999999999
#
# number of rings (size 3 to 8) (size 9 to 14) (size 15 to 20)
#    0.000    2.500    1.250    3.750    0.000    3.750 
#    0.000    0.625    0.000    0.375    0.000    2.625 
#    0.000    2.500    0.000   20.375    0.000   12.750 
#
# Total GULP energy -356719.330399 kJ/mol
# GULP energy per Si atom -5573.739537 kJ/mol
# Density = 1.562052 g / cm^3
# Si number density = 15.656151 Si / 1000 Ang^3
#
#
#
# Elastic Constant Matrix: (Units=GPa)
#
#
# Indices 1 2 3 4 5 6 
#
# 1 15.5377 21.7826 20.5419 0.0000 0.0000 0.0000
# 2 21.7826 106.5505 72.8858 0.0000 0.0000 0.0000
# 3 20.5419 72.8858 129.4712 0.0000 0.0000 0.0000
# 4 0.0000 0.0000 0.0000 8.6126 0.0000 0.0000
# 5 0.0000 0.0000 0.0000 0.0000 -29.4754 0.0000
# 6 0.0000 0.0000 0.0000 0.0000 0.0000 21.0762
#
#
#
# Elastic Compliance Matrix: (Units=1/GPa)
#
#
# Indices 1 2 3 4 5 6 
#
# 1 0.093591 -0.014597 -0.006632 0.000000 0.000000 0.000000
# 2 -0.014597 0.017539 -0.007558 0.000000 0.000000 0.000000
# 3 -0.006632 -0.007558 0.013031 0.000000 0.000000 0.000000
# 4 0.000000 0.000000 0.000000 0.116109 0.000000 0.000000
# 5 0.000000 0.000000 0.000000 0.000000 -0.033927 0.000000
# 6 0.000000 0.000000 0.000000 0.000000 0.000000 0.047447
#
#
# Mechanical properties :
#
#
# Convention : Reuss Voigt Hill
#
# Bulk Modulus (GPa) = 15.01774 53.55332 34.28553
# Shear Modulus (GPa) = 14.98990 9.13261 12.06126
#
# Velocity S-wave (km/s) = 3.09762 2.41783 2.77859
# Velocity P-wave (km/s) = 4.73357 6.48650 5.67809
#
# Compressibility (1/GPa) = 0.06658790
#
# Stress axis : x y z
#
# Youngs Moduli (GPa) = 10.68482 57.01540 76.74249
#
# Poissons Ratio (x) = 0.83223 0.50896
# Poissons Ratio (y) = 0.15596 0.58000
# Poissons Ratio (z) = 0.07086 0.43091
#
# Static dielectric constant tensor:
#      x y z
#    x 1.530600 0.000000 0.000000 
#    y 0.000000 1.514310 0.000000 
#    z 0.000000 0.000000 1.529870 
# 
# From -- ./inp_files/8321.got.cif
#   From: 2010.05.17/outbox.cif.g08.bks.cpg/sg47_5_cif.got.tgz:8321.got - 2010.06.03 20:15:42.
