data_PCOD9385016
_publ_section_title
;
Structure prediction by ZEFSAII (Michael W. Deem and Ramdas Pophale) SiO2 
 PCOD9385016
Probable space group: P M M M
;
_chemical_formula_sum "Si O2"
_cell_formula_units_Z 64
_cell_length_a 9.184450
_cell_length_b 30.045483
_cell_length_c 15.047955
_cell_angle_alpha 90.000000
_cell_angle_beta 90.000000
_cell_angle_gamma 90.000000
_cell_volume 4152.501787
_symmetry_space_group_name_H-M "P M M M"
_symmetry_group_IT_number 47
_symmetry_cell_setting 'orthorhombic'
loop_
_space_group_symop_operation_xyz
x,y,z
-x,-y,z
x,-y,-z
-x,y,-z
-x,-y,-z
x,y,-z
-x,y,z
x,-y,z
loop_
_atom_site_type_symbol
_atom_site_label
_atom_site_fract_x
_atom_site_fract_y
_atom_site_fract_z
Si Si1 0.331031 0.803612 0.245387
Si Si2 0.660173 0.877167 0.094634
Si Si3 0.171743 0.857056 0.601635
Si Si4 0.674123 0.949580 0.646700
Si Si5 0.165529 0.362700 0.107525
Si Si6 0.834310 0.048876 0.832759
Si Si7 0.323965 0.270525 0.103449
Si Si8 0.669890 0.450486 0.891956
O O1 0.500000 0.795042 0.271044
O O2 0.330542 0.844395 0.176275
O O3 0.241613 0.821936 0.329386
O O4 0.277528 0.763144 0.182289
O O5 0.500000 0.899077 0.098444
O O6 0.785146 0.913020 0.101966
O O7 0.667784 0.852800 0.000000
O O8 0.187955 0.841532 0.500000
O O9 0.248202 0.905813 0.607773
O O10 0.000000 0.862413 0.621220
O O11 0.500000 0.944717 0.639146
O O12 0.726562 0.949260 0.748905
O O13 0.711676 0.000000 0.612845
O O14 0.261990 0.319266 0.125524
O O15 0.236907 0.408677 0.140069
O O16 0.000000 0.357302 0.139096
O O17 0.160931 0.365913 0.000000
O O18 0.000000 0.055215 0.801249
O O19 0.824161 0.000000 0.873387
O O20 0.500000 0.270407 0.103289
O O21 0.279398 0.259926 0.000000
O O22 0.500000 0.445065 0.868053
O O23 0.718700 0.500000 0.863684
O O24 0.675212 0.450232 0.000000
#
# Coordination Sequence:
#
# PCOD9385016 Si02
#       8
#     8   8   8   8   8   8   8   8
#     4  10  20  35  54  73  92 118 151 188 226 265
#     4  10  20  33  50  72  95 119 149 183 219 260
#     4  11  24  39  55  76 100 123 145 174 218 270
#     4  10  20  35  56  78  97 118 145 177 214 257
#     4   9  16  24  35  55  83 114 151 194 236 276
#     4  10  20  33  49  69  94 122 149 177 212 255
#     4   9  17  30  48  68  91 120 154 192 233 274
#     4   8  13  21  33  49  72 107 151 196 240 281
#
# _framework density 15.412395999999999
#
# number of rings (size 3 to 8) (size 9 to 14) (size 15 to 20)
#    0.000    2.375    1.250    2.250    0.000    7.000 
#    0.000    3.750    0.000    2.250    0.000    0.000 
#    0.000    0.000    0.000    0.000    0.000    0.625 
#
# Total GULP energy -356300.772153 kJ/mol
# GULP energy per Si atom -5567.199565 kJ/mol
# Density = 1.537732 g / cm^3
# Si number density = 15.412396 Si / 1000 Ang^3
#
#
#
# Elastic Constant Matrix: (Units=GPa)
#
#
# Indices 1 2 3 4 5 6 
#
# 1 53.6304 41.3845 27.3829 0.0000 0.0000 0.0000
# 2 41.3845 99.4608 33.8533 0.0000 0.0000 0.0000
# 3 27.3829 33.8533 62.1153 0.0000 0.0000 0.0000
# 4 0.0000 0.0000 0.0000 8.3854 0.0000 0.0000
# 5 0.0000 0.0000 0.0000 0.0000 13.5956 0.0000
# 6 0.0000 0.0000 0.0000 0.0000 0.0000 7.6650
#
#
#
# Elastic Compliance Matrix: (Units=1/GPa)
#
#
# Indices 1 2 3 4 5 6 
#
# 1 0.030380 -0.009923 -0.007985 0.000000 0.000000 0.000000
# 2 -0.009923 0.015585 -0.004120 0.000000 0.000000 0.000000
# 3 -0.007985 -0.004120 0.021864 0.000000 0.000000 0.000000
# 4 0.000000 0.000000 0.000000 0.119254 0.000000 0.000000
# 5 0.000000 0.000000 0.000000 0.000000 0.073553 0.000000
# 6 0.000000 0.000000 0.000000 0.000000 0.000000 0.130463
#
#
# Mechanical properties :
#
#
# Convention : Reuss Voigt Hill
#
# Bulk Modulus (GPa) = 42.06087 46.71643 44.38865
# Shear Modulus (GPa) = 11.28463 13.43492 12.35978
#
# Velocity S-wave (km/s) = 2.70882 2.95565 2.83492
# Velocity P-wave (km/s) = 6.09369 6.48264 6.29117
#
# Compressibility (1/GPa) = 0.02377507
#
# Stress axis : x y z
#
# Youngs Moduli (GPa) = 32.91601 64.16296 45.73681
#
# Poissons Ratio (x) = 0.63670 0.36519
# Poissons Ratio (y) = 0.32663 0.18842
# Poissons Ratio (z) = 0.26282 0.26432
#
# Static dielectric constant tensor:
#      x y z
#    x 1.533320 0.000000 0.000000 
#    y 0.000000 1.528390 0.000000 
#    z 0.000000 0.000000 1.511470 
# 
# From -- ./inp_files/22125.got.cif
#   From: 2010.05.17/outbox.cif.g08.bks.cpg/sg47_12_cif.got.tgz:22125.got - 2010.06.03 20:15:42.
