data_PCOD9385449
_publ_section_title
;
Structure prediction by ZEFSAII (Michael W. Deem and Ramdas Pophale) SiO2 
 PCOD9385449
Probable space group: P M M M
;
_chemical_formula_sum "Si O2"
_cell_formula_units_Z 44
_cell_length_a 28.931765
_cell_length_b 9.601613
_cell_length_c 8.409154
_cell_angle_alpha 90.000000
_cell_angle_beta 90.000000
_cell_angle_gamma 90.000000
_cell_volume 2335.992436
_symmetry_space_group_name_H-M "P M M M"
_symmetry_group_IT_number 47
_symmetry_cell_setting 'orthorhombic'
loop_
_space_group_symop_operation_xyz
x,y,z
-x,-y,z
x,-y,-z
-x,y,-z
-x,-y,-z
x,y,-z
-x,y,z
x,-y,z
loop_
_atom_site_type_symbol
_atom_site_label
_atom_site_fract_x
_atom_site_fract_y
_atom_site_fract_z
Si Si1 0.138973 0.840437 0.692335
Si Si2 0.584541 0.159617 0.691924
Si Si3 0.500000 0.342128 0.189822
Si Si4 0.947682 0.339883 0.306154
Si Si5 0.774902 0.659859 0.809957
Si Si6 0.310134 0.161257 0.307845
O O1 0.137911 0.843131 0.500000
O O2 0.092071 0.764507 0.748152
O O3 0.182748 0.749716 0.743188
O O4 0.142271 0.000000 0.748181
O O5 0.583491 0.161802 0.500000
O O6 0.545534 0.261158 0.754516
O O7 0.637116 0.194608 0.740592
O O8 0.575085 0.000000 0.741948
O O9 0.500000 0.500000 0.251706
O O10 0.500000 0.345536 0.000000
O O11 0.947577 0.338043 0.500000
O O12 0.937917 0.500000 0.258685
O O13 0.000000 0.304245 0.255826
O O14 0.776651 0.500000 0.751997
O O15 0.727481 0.734864 0.760819
O O16 0.778150 0.658417 0.000000
O O17 0.308057 0.166826 0.500000
O O18 0.300543 0.000000 0.262172
#
# Coordination Sequence:
#
# PCOD9385449 Si02
#       6
#     8   8   4   8   8   8
#     4  10  20  33  52  78 105 135 173 216 260 307
#     4   9  19  37  60  83 106 135 174 218 261 309
#     4  11  24  37  50  76 114 149 180 217 258 302
#     4   8  14  26  46  73 104 136 169 207 254 307
#     4  11  24  38  52  74 105 140 176 214 258 309
#     4   9  19  37  60  84 107 132 168 215 264 313
#
# _framework density 18.835675999999999
#
# number of rings (size 3 to 8) (size 9 to 14) (size 15 to 20)
#    0.000    2.455    0.000    3.818    0.000    9.091 
#    0.000    7.273    0.000    0.545    0.000    3.818 
#    0.000    0.000    0.000    0.000    0.000    0.000 
#
# Total GULP energy -245597.120122 kJ/mol
# GULP energy per Si atom -5581.752730 kJ/mol
# Density = 1.879281 g / cm^3
# Si number density = 18.835676 Si / 1000 Ang^3
#
#
#
# Elastic Constant Matrix: (Units=GPa)
#
#
# Indices 1 2 3 4 5 6 
#
# 1 171.6591 141.0273 21.5126 0.0000 0.0000 0.0000
# 2 141.0273 181.5448 24.9931 0.0000 0.0000 0.0000
# 3 21.5126 24.9931 10.0587 0.0000 0.0000 0.0000
# 4 0.0000 0.0000 0.0000 27.1928 0.0000 0.0000
# 5 0.0000 0.0000 0.0000 0.0000 -46.7917 0.0000
# 6 0.0000 0.0000 0.0000 0.0000 0.0000 62.1329
#
#
#
# Elastic Compliance Matrix: (Units=1/GPa)
#
#
# Indices 1 2 3 4 5 6 
#
# 1 0.016276 -0.011933 -0.005158 0.000000 0.000000 0.000000
# 2 -0.011933 0.017121 -0.017020 0.000000 0.000000 0.000000
# 3 -0.005158 -0.017020 0.152740 0.000000 0.000000 0.000000
# 4 0.000000 0.000000 0.000000 0.036774 0.000000 0.000000
# 5 0.000000 0.000000 0.000000 0.000000 -0.021371 0.000000
# 6 0.000000 0.000000 0.000000 0.000000 0.000000 0.016095
#
#
# Mechanical properties :
#
#
# Convention : Reuss Voigt Hill
#
# Bulk Modulus (GPa) = 8.48081 82.03651 45.25866
# Shear Modulus (GPa) = 15.37690 20.22209 17.79950
#
# Velocity S-wave (km/s) = 2.86032 3.28015 3.07740
# Velocity P-wave (km/s) = 3.92694 7.61539 6.05867
#
# Compressibility (1/GPa) = 0.11791330
#
# Stress axis : x y z
#
# Youngs Moduli (GPa) = 61.44182 58.40704 6.54706
#
# Poissons Ratio (x) = 0.69697 0.03377
# Poissons Ratio (y) = 0.73318 0.11143
# Poissons Ratio (z) = 0.31695 0.99411
#
# Static dielectric constant tensor:
#      x y z
#    x 1.632440 0.000000 0.000000 
#    y 0.000000 1.641870 0.000000 
#    z 0.000000 0.000000 1.650300 
# 
# From -- ./inp_files/13607.got.cif
#   From: 2010.05.17/outbox.cif.g08.bks.cpg/sg47_7_cif.got.tgz:13607.got - 2010.06.03 20:15:42.
