data_PCOD9385929
_publ_section_title
;
Structure prediction by ZEFSAII (Michael W. Deem and Ramdas Pophale) SiO2 
 PCOD9385929
Probable space group: P M M M
;
_chemical_formula_sum "Si O2"
_cell_formula_units_Z 48
_cell_length_a 32.106996
_cell_length_b 7.838223
_cell_length_c 9.520534
_cell_angle_alpha 90.000000
_cell_angle_beta 90.000000
_cell_angle_gamma 90.000000
_cell_volume 2395.954671
_symmetry_space_group_name_H-M "P M M M"
_symmetry_group_IT_number 47
_symmetry_cell_setting 'orthorhombic'
loop_
_space_group_symop_operation_xyz
x,y,z
-x,-y,z
x,-y,-z
-x,y,-z
-x,-y,-z
x,y,-z
-x,y,z
x,-y,z
loop_
_atom_site_type_symbol
_atom_site_label
_atom_site_fract_x
_atom_site_fract_y
_atom_site_fract_z
Si Si1 0.669589 0.290620 0.661763
Si Si2 0.000000 0.709268 0.838965
Si Si3 0.079023 0.294571 0.339621
Si Si4 0.409755 0.295921 0.161104
Si Si5 0.748590 0.703555 0.841149
Si Si6 0.827900 0.796894 0.339700
Si Si7 0.500000 0.203154 0.839249
O O1 0.670584 0.235800 0.500000
O O2 0.669662 0.500000 0.661068
O O3 0.628003 0.233784 0.742923
O O4 0.710236 0.231904 0.747121
O O5 0.958506 0.766092 0.757768
O O6 0.000000 0.500000 0.837728
O O7 0.000000 0.763836 0.000000
O O8 0.074205 0.231367 0.500000
O O9 0.076559 0.500000 0.343705
O O10 0.125464 0.248518 0.291568
O O11 0.405646 0.500000 0.152415
O O12 0.455683 0.258611 0.221538
O O13 0.407394 0.228652 0.000000
O O14 0.742773 0.500000 0.851090
O O15 0.791922 0.733286 0.762082
O O16 0.748522 0.772585 0.000000
O O17 0.822805 0.729182 0.500000
O O18 0.824749 0.000000 0.345786
O O19 0.500000 0.000000 0.844489
O O20 0.500000 0.272773 0.000000
#
# Coordination Sequence:
#
# PCOD9385929 Si02
#       7
#     8   4   8   8   8   8   4
#     4   9  17  30  50  75 100 126 160 204 250 294
#     4   9  17  29  48  75 102 126 160 209 256 295
#     4   9  17  31  52  75  99 130 167 205 248 299
#     4   9  16  28  48  72  96 123 158 199 241 287
#     4  10  20  34  54  79 104 132 168 209 253 302
#     4  10  21  36  53  75 104 137 172 210 253 301
#     4   9  17  29  46  69  96 126 160 197 238 286
#
# _framework density 20.033767000000001
#
# number of rings (size 3 to 8) (size 9 to 14) (size 15 to 20)
#    0.000    2.667    0.000    2.000    0.000    6.667 
#    0.000    3.333    0.000    8.500    0.000    0.000 
#    0.000    0.000    0.000    0.000    0.000    0.000 
#
# Total GULP energy -267829.659351 kJ/mol
# GULP energy per Si atom -5579.784570 kJ/mol
# Density = 1.998817 g / cm^3
# Si number density = 20.033767 Si / 1000 Ang^3
#
#
#
# Elastic Constant Matrix: (Units=GPa)
#
#
# Indices 1 2 3 4 5 6 
#
# 1 221.1753 0.6391 130.6656 0.0000 0.0000 0.0000
# 2 0.6391 21.2651 7.9875 0.0000 0.0000 0.0000
# 3 130.6656 7.9875 139.3557 0.0000 0.0000 0.0000
# 4 0.0000 0.0000 0.0000 6.8526 0.0000 0.0000
# 5 0.0000 0.0000 0.0000 0.0000 32.8404 0.0000
# 6 0.0000 0.0000 0.0000 0.0000 0.0000 -55.9240
#
#
#
# Elastic Compliance Matrix: (Units=1/GPa)
#
#
# Indices 1 2 3 4 5 6 
#
# 1 0.010373 0.003415 -0.009922 0.000000 0.000000 0.000000
# 2 0.003415 0.049184 -0.006021 0.000000 0.000000 0.000000
# 3 -0.009922 -0.006021 0.016824 0.000000 0.000000 0.000000
# 4 0.000000 0.000000 0.000000 0.145930 0.000000 0.000000
# 5 0.000000 0.000000 0.000000 0.000000 0.030450 0.000000
# 6 0.000000 0.000000 0.000000 0.000000 0.000000 -0.017881
#
#
# Mechanical properties :
#
#
# Convention : Reuss Voigt Hill
#
# Bulk Modulus (GPa) = 19.48351 73.37561 46.42956
# Shear Modulus (GPa) = 18.04754 12.92073 15.48413
#
# Velocity S-wave (km/s) = 3.00468 2.54234 2.78313
# Velocity P-wave (km/s) = 4.66733 6.73227 5.79255
#
# Compressibility (1/GPa) = 0.05132545
#
# Stress axis : x y z
#
# Youngs Moduli (GPa) = 96.40255 20.33165 59.43772
#
# Poissons Ratio (x) = -0.06944 0.58974
# Poissons Ratio (y) = -0.32923 0.35789
# Poissons Ratio (z) = 0.95651 0.12242
#
# Static dielectric constant tensor:
#      x y z
#    x 1.689850 0.000000 0.000000 
#    y 0.000000 1.715380 0.000000 
#    z 0.000000 0.000000 1.707010 
# 
# From -- ./inp_files/13864.got.cif
#   From: 2010.05.17/outbox.cif.g08.bks.cpg/sg47_7_cif.got.tgz:13864.got - 2010.06.03 20:15:42.
