data_PCOD9385023
_publ_section_title
;
Structure prediction by ZEFSAII (Michael W. Deem and Ramdas Pophale) SiO2 
 PCOD9385023
Probable space group: P M M M
;
_chemical_formula_sum "Si O2"
_cell_formula_units_Z 36
_cell_length_a 9.375381
_cell_length_b 23.929258
_cell_length_c 7.376404
_cell_angle_alpha 90.000000
_cell_angle_beta 90.000000
_cell_angle_gamma 90.000000
_cell_volume 1654.866074
_symmetry_space_group_name_H-M "P M M M"
_symmetry_group_IT_number 47
_symmetry_cell_setting 'orthorhombic'
loop_
_space_group_symop_operation_xyz
x,y,z
-x,-y,z
x,-y,-z
-x,y,-z
-x,-y,-z
x,y,-z
-x,y,z
x,-y,z
loop_
_atom_site_type_symbol
_atom_site_label
_atom_site_fract_x
_atom_site_fract_y
_atom_site_fract_z
Si Si1 0.835319 0.000000 0.721846
Si Si2 0.662038 0.891484 0.716407
Si Si3 0.663840 0.671078 0.221717
Si Si4 0.835194 0.437401 0.779309
Si Si5 0.838276 0.779103 0.216800
O O1 0.751700 0.944676 0.782732
O O2 0.836267 0.000000 0.500000
O O3 0.000000 0.000000 0.779153
O O4 0.652255 0.898239 0.500000
O O5 0.500000 0.889439 0.786935
O O6 0.746682 0.834396 0.748822
O O7 0.500000 0.675884 0.278416
O O8 0.735384 0.613021 0.280339
O O9 0.756573 0.723993 0.283081
O O10 0.664763 0.671233 0.000000
O O11 0.792679 0.500000 0.722043
O O12 0.000000 0.428067 0.725941
O O13 0.833393 0.437287 0.000000
O O14 0.000000 0.783921 0.286519
O O15 0.847705 0.773190 0.000000
#
# Coordination Sequence:
#
# PCOD9385023 Si02
#       5
#     4   8   8   8   8
#     4   9  17  31  52  75  98 125 156 190 230 277
#     4  10  20  34  53  76 100 125 155 193 236 280
#     4   9  16  25  38  57  83 116 152 190 233 280
#     4   8  13  21  33  50  75 109 148 188 229 274
#     4  10  20  33  49  69  95 128 163 197 235 281
#
# _framework density 21.754026
#
# number of rings (size 3 to 8) (size 9 to 14) (size 15 to 20)
#    0.000    2.778    0.000    3.000    0.000    7.111 
#    0.000    2.778    0.000    3.333    0.000    0.000 
#    0.000    0.889    0.000    9.333    0.000   12.889 
#
# Total GULP energy -201153.355255 kJ/mol
# GULP energy per Si atom -5587.593202 kJ/mol
# Density = 2.170451 g / cm^3
# Si number density = 21.754026 Si / 1000 Ang^3
#
#
#
# Elastic Constant Matrix: (Units=GPa)
#
#
# Indices 1 2 3 4 5 6 
#
# 1 243.3049 161.3491 8.5346 0.0000 0.0000 0.0000
# 2 161.3491 234.7443 1.8887 0.0000 0.0000 0.0000
# 3 8.5346 1.8887 77.6638 0.0000 0.0000 0.0000
# 4 0.0000 0.0000 0.0000 20.0837 0.0000 0.0000
# 5 0.0000 0.0000 0.0000 0.0000 1.7807 0.0000
# 6 0.0000 0.0000 0.0000 0.0000 0.0000 47.4867
#
#
#
# Elastic Compliance Matrix: (Units=1/GPa)
#
#
# Indices 1 2 3 4 5 6 
#
# 1 0.007591 -0.005212 -0.000707 0.000000 0.000000 0.000000
# 2 -0.005212 0.007839 0.000382 0.000000 0.000000 0.000000
# 3 -0.000707 0.000382 0.012944 0.000000 0.000000 0.000000
# 4 0.000000 0.000000 0.000000 0.049792 0.000000 0.000000
# 5 0.000000 0.000000 0.000000 0.000000 0.561577 0.000000
# 6 0.000000 0.000000 0.000000 0.000000 0.000000 0.021059
#
#
# Mechanical properties :
#
#
# Convention : Reuss Voigt Hill
#
# Bulk Modulus (GPa) = 57.80268 99.91751 78.86009
# Shear Modulus (GPa) = 7.37850 39.46625 23.42238
#
# Velocity S-wave (km/s) = 1.84368 4.26397 3.28486
# Velocity P-wave (km/s) = 5.58220 8.38285 7.12156
#
# Compressibility (1/GPa) = 0.01730024
#
# Stress axis : x y z
#
# Youngs Moduli (GPa) = 131.72889 127.56090 77.25306
#
# Poissons Ratio (x) = 0.66487 0.05465
# Poissons Ratio (y) = 0.68659 -0.02952
# Poissons Ratio (z) = 0.09319 -0.04874
#
# Static dielectric constant tensor:
#      x y z
#    x 1.221400 0.000000 0.000000 
#    y 0.000000 1.736280 0.000000 
#    z 0.000000 0.000000 1.889970 
# 
# From -- ./inp_files/1355.got.cif
#   From: 2010.05.17/outbox.cif.g08.bks.cpg/sg47_1_cif.got.tgz:1355.got - 2010.06.03 20:15:42.
