data_PCOD9385589
_publ_section_title
;
Structure prediction by ZEFSAII (Michael W. Deem and Ramdas Pophale) SiO2 
 PCOD9385589
Probable space group: P M M M
;
_chemical_formula_sum "Si O2"
_cell_formula_units_Z 52
_cell_length_a 11.806052
_cell_length_b 29.375758
_cell_length_c 9.841797
_cell_angle_alpha 90.000000
_cell_angle_beta 90.000000
_cell_angle_gamma 90.000000
_cell_volume 3413.250609
_symmetry_space_group_name_H-M "P M M M"
_symmetry_group_IT_number 47
_symmetry_cell_setting 'orthorhombic'
loop_
_space_group_symop_operation_xyz
x,y,z
-x,-y,z
x,-y,-z
-x,y,-z
-x,-y,-z
x,y,-z
-x,y,z
x,-y,z
loop_
_atom_site_type_symbol
_atom_site_label
_atom_site_fract_x
_atom_site_fract_y
_atom_site_fract_z
Si Si1 0.638205 0.364898 0.342323
Si Si2 0.266374 0.904835 0.252102
Si Si3 0.637663 0.447895 0.155265
Si Si4 0.863949 0.945711 0.000000
Si Si5 0.130356 0.054414 0.500000
Si Si6 0.637314 0.279286 0.157834
Si Si7 0.363902 0.190752 0.338070
Si Si8 0.500000 0.945702 0.157320
O O1 0.674451 0.361366 0.500000
O O2 0.500000 0.364418 0.344390
O O3 0.674260 0.411395 0.267150
O O4 0.674211 0.322970 0.246195
O O5 0.189884 0.918890 0.125147
O O6 0.198628 0.926874 0.373975
O O7 0.293861 0.852366 0.283864
O O8 0.388113 0.927825 0.229304
O O9 0.500000 0.447671 0.156336
O O10 0.673133 0.500000 0.182138
O O11 0.670889 0.435597 0.000000
O O12 0.000000 0.944366 0.000000
O O13 0.831110 0.000000 0.000000
O O14 0.000000 0.069750 0.500000
O O15 0.130375 0.000000 0.500000
O O16 0.500000 0.281321 0.151997
O O17 0.664644 0.234328 0.245266
O O18 0.676445 0.278754 0.000000
O O19 0.343880 0.198069 0.500000
O O20 0.500000 0.182216 0.323491
O O21 0.500000 0.000000 0.156815
O O22 0.500000 0.929721 0.000000
#
# Coordination Sequence:
#
# PCOD9385589 Si02
#       8
#     8   8   8   4   4   8   8   4
#     4   9  15  22  32  48  69  97 132 174 223 274
#     4  12  22  37  57  79 104 131 159 197 242 288
#     4   8  13  20  29  41  61  90 128 176 226 272
#     4  11  24  41  59  77  99 132 169 199 230 275
#     4  11  24  41  59  79 103 132 167 201 234 281
#     4   9  17  27  42  58  77 107 143 177 216 274
#     4  10  20  34  47  68  97 122 145 180 234 290
#     4  11  22  35  53  79 107 131 157 193 238 289
#
# _framework density 15.234743999999999
#
# number of rings (size 3 to 8) (size 9 to 14) (size 15 to 20)
#    0.000    2.077    2.308    3.231    1.077    5.538 
#    0.000    2.308    0.000    0.000    0.000    0.000 
#    0.000    0.000    0.000    0.000    0.000    0.000 
#
# Total GULP energy -289678.930120 kJ/mol
# GULP energy per Si atom -5570.748656 kJ/mol
# Density = 1.520007 g / cm^3
# Si number density = 15.234744 Si / 1000 Ang^3
#
#
#
# Elastic Constant Matrix: (Units=GPa)
#
#
# Indices 1 2 3 4 5 6 
#
# 1 54.6353 28.2104 40.2248 0.0000 0.0000 0.0000
# 2 28.2104 120.6951 89.4131 0.0000 0.0000 0.0000
# 3 40.2248 89.4131 173.0296 0.0000 0.0000 0.0000
# 4 0.0000 0.0000 0.0000 28.9642 0.0000 0.0000
# 5 0.0000 0.0000 0.0000 0.0000 25.2909 0.0000
# 6 0.0000 0.0000 0.0000 0.0000 0.0000 3.8381
#
#
#
# Elastic Compliance Matrix: (Units=1/GPa)
#
#
# Indices 1 2 3 4 5 6 
#
# 1 0.022450 -0.002237 -0.004063 0.000000 0.000000 0.000000
# 2 -0.002237 0.013647 -0.006532 0.000000 0.000000 0.000000
# 3 -0.004063 -0.006532 0.010099 0.000000 0.000000 0.000000
# 4 0.000000 0.000000 0.000000 0.034525 0.000000 0.000000
# 5 0.000000 0.000000 0.000000 0.000000 0.039540 0.000000
# 6 0.000000 0.000000 0.000000 0.000000 0.000000 0.260545
#
#
# Mechanical properties :
#
#
# Convention : Reuss Voigt Hill
#
# Bulk Modulus (GPa) = 48.70524 73.78406 61.24465
# Shear Modulus (GPa) = 12.09730 24.31942 18.20836
#
# Velocity S-wave (km/s) = 2.82096 3.99972 3.46090
# Velocity P-wave (km/s) = 6.53067 8.35865 7.50056
#
# Compressibility (1/GPa) = 0.02053167
#
# Stress axis : x y z
#
# Youngs Moduli (GPa) = 44.54419 73.27359 99.01633
#
# Poissons Ratio (x) = 0.16395 0.40228
# Poissons Ratio (y) = 0.09967 0.64679
# Poissons Ratio (z) = 0.18097 0.47864
#
# Static dielectric constant tensor:
#      x y z
#    x 1.463800 0.000000 0.000000 
#    y 0.000000 1.516620 0.000000 
#    z 0.000000 0.000000 1.502750 
# 
# From -- ./inp_files/4857.got.cif
#   From: 2010.05.17/outbox.cif.g08.bks.cpg/sg47_3_cif.got.tgz:4857.got - 2010.06.03 20:15:42.
