data_PCOD9385826
_publ_section_title
;
Structure prediction by ZEFSAII (Michael W. Deem and Ramdas Pophale) SiO2 
 PCOD9385826
Probable space group: P M M M
;
_chemical_formula_sum "Si O2"
_cell_formula_units_Z 48
_cell_length_a 31.838607
_cell_length_b 9.349113
_cell_length_c 8.942049
_cell_angle_alpha 90.000000
_cell_angle_beta 90.000000
_cell_angle_gamma 90.000000
_cell_volume 2661.714758
_symmetry_space_group_name_H-M "P M M M"
_symmetry_group_IT_number 47
_symmetry_cell_setting 'orthorhombic'
loop_
_space_group_symop_operation_xyz
x,y,z
-x,-y,z
x,-y,-z
-x,y,-z
-x,-y,-z
x,y,-z
-x,y,z
x,-y,z
loop_
_atom_site_type_symbol
_atom_site_label
_atom_site_fract_x
_atom_site_fract_y
_atom_site_fract_z
Si Si1 0.421806 0.669254 0.821839
Si Si2 0.750495 0.164475 0.682250
Si Si3 0.000000 0.173865 0.672200
Si Si4 0.667138 0.331356 0.320773
Si Si5 0.500000 0.831693 0.321449
Si Si6 0.165759 0.667439 0.319449
Si Si7 0.912582 0.830779 0.178495
O O1 0.427649 0.500000 0.788981
O O2 0.376154 0.710427 0.758483
O O3 0.458866 0.757579 0.746422
O O4 0.422975 0.687557 0.000000
O O5 0.750305 0.165556 0.500000
O O6 0.707356 0.240590 0.729022
O O7 0.791588 0.252558 0.728678
O O8 0.752651 0.000000 0.731126
O O9 0.042784 0.217796 0.753922
O O10 0.000000 0.220270 0.500000
O O11 0.000000 0.000000 0.674714
O O12 0.662154 0.314306 0.500000
O O13 0.674780 0.500000 0.292159
O O14 0.500000 0.814047 0.500000
O O15 0.500000 0.000000 0.286699
O O16 0.162788 0.679067 0.500000
O O17 0.167650 0.500000 0.281419
O O18 0.125623 0.742929 0.247600
O O19 0.907209 0.000000 0.214388
O O20 0.913461 0.816679 0.000000
#
# Coordination Sequence:
#
# PCOD9385826 Si02
#       7
#     8   8   4   8   4   8   8
#     4  10  21  37  57  81 109 142 179 217 261 316
#     4   9  17  30  51  78 105 135 175 223 269 311
#     4   9  17  31  54  81 106 135 172 214 260 311
#     4   9  17  31  52  77 105 138 176 218 264 314
#     4  11  24  39  56  80 108 139 178 223 268 314
#     4  10  20  34  53  77 105 139 180 223 265 311
#     4  10  20  34  53  78 108 140 174 214 262 316
#
# _framework density 18.033487000000001
#
# number of rings (size 3 to 8) (size 9 to 14) (size 15 to 20)
#    0.000    2.333    0.000    2.750    0.000    8.333 
#    0.000    2.917    0.000    5.500    0.000    0.000 
#    0.000    0.000    0.000    0.000    0.000    0.000 
#
# Total GULP energy -267961.116210 kJ/mol
# GULP energy per Si atom -5582.523254 kJ/mol
# Density = 1.799244 g / cm^3
# Si number density = 18.033487 Si / 1000 Ang^3
#
#
#
# Elastic Constant Matrix: (Units=GPa)
#
#
# Indices 1 2 3 4 5 6 
#
# 1 227.8876 121.2920 68.0277 0.0000 0.0000 0.0000
# 2 121.2920 113.2473 56.5542 0.0000 0.0000 0.0000
# 3 68.0277 56.5542 39.2278 0.0000 0.0000 0.0000
# 4 0.0000 0.0000 0.0000 19.5394 0.0000 0.0000
# 5 0.0000 0.0000 0.0000 0.0000 -26.2513 0.0000
# 6 0.0000 0.0000 0.0000 0.0000 0.0000 36.0645
#
#
#
# Elastic Compliance Matrix: (Units=1/GPa)
#
#
# Indices 1 2 3 4 5 6 
#
# 1 0.010762 -0.007879 -0.007305 0.000000 0.000000 0.000000
# 2 -0.007879 0.037300 -0.040112 0.000000 0.000000 0.000000
# 3 -0.007305 -0.040112 0.095988 0.000000 0.000000 0.000000
# 4 0.000000 0.000000 0.000000 0.051179 0.000000 0.000000
# 5 0.000000 0.000000 0.000000 0.000000 -0.038093 0.000000
# 6 0.000000 0.000000 0.000000 0.000000 0.000000 0.027728
#
#
# Mechanical properties :
#
#
# Convention : Reuss Voigt Hill
#
# Bulk Modulus (GPa) = 29.88649 96.90116 63.39383
# Shear Modulus (GPa) = 16.30754 14.83642 15.57198
#
# Velocity S-wave (km/s) = 3.01041 2.87141 2.94173
# Velocity P-wave (km/s) = 5.35651 8.05258 6.83872
#
# Compressibility (1/GPa) = 0.03345994
#
# Stress axis : x y z
#
# Youngs Moduli (GPa) = 92.91876 26.80969 10.41799
#
# Poissons Ratio (x) = 0.21123 0.07610
# Poissons Ratio (y) = 0.73209 0.41788
# Poissons Ratio (z) = 0.67873 1.07538
#
# Static dielectric constant tensor:
#      x y z
#    x 1.586050 0.000000 0.000000 
#    y 0.000000 1.605890 0.000000 
#    z 0.000000 0.000000 1.599780 
# 
# From -- ./inp_files/2531.got.cif
#   From: 2010.05.17/outbox.cif.g08.bks.cpg/sg47_2_cif.got.tgz:2531.got - 2010.06.03 20:15:42.
