data_PCOD9385249
_publ_section_title
;
Structure prediction by ZEFSAII (Michael W. Deem and Ramdas Pophale) SiO2 
 PCOD9385249
Probable space group: P M M M
;
_chemical_formula_sum "Si O2"
_cell_formula_units_Z 64
_cell_length_a 8.729598
_cell_length_b 20.409017
_cell_length_c 20.297894
_cell_angle_alpha 90.000000
_cell_angle_beta 90.000000
_cell_angle_gamma 90.000000
_cell_volume 3616.323824
_symmetry_space_group_name_H-M "P M M M"
_symmetry_group_IT_number 47
_symmetry_cell_setting 'orthorhombic'
loop_
_space_group_symop_operation_xyz
x,y,z
-x,-y,z
x,-y,-z
-x,y,-z
-x,-y,-z
x,y,-z
-x,y,z
x,-y,z
loop_
_atom_site_type_symbol
_atom_site_label
_atom_site_fract_x
_atom_site_fract_y
_atom_site_fract_z
Si Si1 0.815835 0.427108 0.719474
Si Si2 0.671998 0.929197 0.232114
Si Si3 0.821013 0.074213 0.095988
Si Si4 0.681048 0.401217 0.425674
Si Si5 0.677888 0.202758 0.693404
Si Si6 0.183410 0.298579 0.198297
Si Si7 0.174234 0.260504 0.426604
Si Si8 0.682579 0.781323 0.074245
O O1 0.777466 0.500000 0.744824
O O2 0.752975 0.423599 0.644047
O O3 0.765921 0.369139 0.770008
O O4 0.000000 0.421416 0.714329
O O5 0.500000 0.924307 0.201213
O O6 0.794342 0.925141 0.174358
O O7 0.685855 0.870573 0.281460
O O8 0.682558 0.000000 0.264314
O O9 0.742739 0.142959 0.075788
O O10 0.000000 0.077744 0.079184
O O11 0.766120 0.000000 0.075307
O O12 0.735063 0.423587 0.500000
O O13 0.500000 0.414104 0.423295
O O14 0.718982 0.324188 0.424844
O O15 0.500000 0.223049 0.689720
O O16 0.764377 0.247966 0.745680
O O17 0.761428 0.210356 0.624941
O O18 0.249136 0.266801 0.130500
O O19 0.000000 0.300635 0.191790
O O20 0.174397 0.233959 0.500000
O O21 0.000000 0.281229 0.410145
O O22 0.500000 0.783871 0.084597
O O23 0.714514 0.756671 0.000000
#
# Coordination Sequence:
#
# PCOD9385249 Si02
#       8
#     8   8   8   8   8   8   8   8
#     4  10  22  39  58  81 110 146 184 222 271 330
#     4   9  18  32  50  74 106 143 180 219 267 322
#     4  10  20  33  52  80 113 148 185 224 266 317
#     4  10  20  33  51  78 112 148 185 224 267 319
#     4  11  20  31  54  82 108 140 180 228 275 325
#     4  11  22  37  59  84 110 140 179 227 271 321
#     4  10  20  33  50  74 106 144 185 228 275 325
#     4  11  24  40  58  81 111 148 186 225 273 327
#
# _framework density 17.697531000000001
#
# number of rings (size 3 to 8) (size 9 to 14) (size 15 to 20)
#    0.000    1.750    2.500    2.250    0.000    5.000 
#    0.000    2.500    0.000    0.750    0.000    5.250 
#    0.000    0.000    0.000    0.000    0.000    0.000 
#
# Total GULP energy -356475.429843 kJ/mol
# GULP energy per Si atom -5569.928591 kJ/mol
# Density = 1.765725 g / cm^3
# Si number density = 17.697531 Si / 1000 Ang^3
#
#
#
# Elastic Constant Matrix: (Units=GPa)
#
#
# Indices 1 2 3 4 5 6 
#
# 1 46.5513 36.8909 42.4873 0.0000 0.0000 0.0000
# 2 36.8909 115.2036 69.2314 0.0000 0.0000 0.0000
# 3 42.4873 69.2314 105.0593 0.0000 0.0000 0.0000
# 4 0.0000 0.0000 0.0000 12.9367 0.0000 0.0000
# 5 0.0000 0.0000 0.0000 0.0000 32.4733 0.0000
# 6 0.0000 0.0000 0.0000 0.0000 0.0000 6.3185
#
#
#
# Elastic Compliance Matrix: (Units=1/GPa)
#
#
# Indices 1 2 3 4 5 6 
#
# 1 0.035420 -0.004527 -0.011341 0.000000 0.000000 0.000000
# 2 -0.004527 0.014950 -0.008021 0.000000 0.000000 0.000000
# 3 -0.011341 -0.008021 0.019391 0.000000 0.000000 0.000000
# 4 0.000000 0.000000 0.000000 0.077300 0.000000 0.000000
# 5 0.000000 0.000000 0.000000 0.000000 0.030795 0.000000
# 6 0.000000 0.000000 0.000000 0.000000 0.000000 0.158266
#
#
# Mechanical properties :
#
#
# Convention : Reuss Voigt Hill
#
# Bulk Modulus (GPa) = 45.49037 62.67036 54.08037
# Shear Modulus (GPa) = 12.78029 18.22600 15.50314
#
# Velocity S-wave (km/s) = 2.69020 3.21263 2.96295
# Velocity P-wave (km/s) = 5.95061 7.01784 6.50614
#
# Compressibility (1/GPa) = 0.02198267
#
# Stress axis : x y z
#
# Youngs Moduli (GPa) = 28.23235 66.88924 51.57125
#
# Poissons Ratio (x) = 0.30280 0.58489
# Poissons Ratio (y) = 0.12780 0.41365
# Poissons Ratio (z) = 0.32019 0.53652
#
# Static dielectric constant tensor:
#      x y z
#    x 1.629230 0.000000 0.000000 
#    y 0.000000 1.605950 0.000000 
#    z 0.000000 0.000000 1.485160 
# 
# From -- ./inp_files/27024.got.cif
#   From: 2010.05.17/outbox.cif.g08.bks.cpg/sg47_14_cif.got.tgz:27024.got - 2010.06.03 20:15:42.
