data_PCOD9385856
_publ_section_title
;
Structure prediction by ZEFSAII (Michael W. Deem and Ramdas Pophale) SiO2 
 PCOD9385856
Probable space group: P M M M
;
_chemical_formula_sum "Si O2"
_cell_formula_units_Z 64
_cell_length_a 20.157391
_cell_length_b 8.717802
_cell_length_c 21.287713
_cell_angle_alpha 90.000000
_cell_angle_beta 90.000000
_cell_angle_gamma 90.000000
_cell_volume 3740.850286
_symmetry_space_group_name_H-M "P M M M"
_symmetry_group_IT_number 47
_symmetry_cell_setting 'orthorhombic'
loop_
_space_group_symop_operation_xyz
x,y,z
-x,-y,z
x,-y,-z
-x,y,-z
-x,-y,-z
x,y,-z
-x,y,z
x,-y,z
loop_
_atom_site_type_symbol
_atom_site_label
_atom_site_fract_x
_atom_site_fract_y
_atom_site_fract_z
Si Si1 0.073254 0.185057 0.620272
Si Si2 0.214334 0.185557 0.570125
Si Si3 0.424445 0.182825 0.740544
Si Si4 0.294628 0.683857 0.687250
Si Si5 0.708559 0.816736 0.930346
Si Si6 0.212763 0.684869 0.187322
Si Si7 0.575016 0.316329 0.119262
Si Si8 0.926178 0.685055 0.239199
O O1 0.137530 0.232334 0.581130
O O2 0.081350 0.246309 0.691129
O O3 0.000000 0.234625 0.597471
O O4 0.073129 0.000000 0.621811
O O5 0.235451 0.230764 0.500000
O O6 0.258063 0.255107 0.625586
O O7 0.217286 0.000000 0.574268
O O8 0.500000 0.213265 0.719324
O O9 0.367920 0.248249 0.695734
O O10 0.416612 0.260929 0.808807
O O11 0.416540 0.000000 0.747791
O O12 0.297116 0.500000 0.685919
O O13 0.253028 0.729992 0.749689
O O14 0.753010 0.751716 0.874173
O O15 0.633667 0.757991 0.920078
O O16 0.708764 0.000000 0.926704
O O17 0.731504 0.769581 0.000000
O O18 0.215483 0.500000 0.183417
O O19 0.136332 0.732723 0.197338
O O20 0.500000 0.274205 0.099461
O O21 0.580957 0.500000 0.117162
O O22 0.923599 0.500000 0.244673
O O23 0.000000 0.727326 0.216039
#
# Coordination Sequence:
#
# PCOD9385856 Si02
#       8
#     8   8   8   8   8   8   8   8
#     4   9  17  29  47  73 104 139 179 218 258 307
#     4  10  21  35  51  74 107 147 185 221 265 314
#     4  10  20  34  55  82 109 138 173 215 263 312
#     4  11  21  34  55  82 108 138 178 221 266 313
#     4  11  24  38  53  76 106 142 181 220 265 315
#     4  10  20  34  54  80 105 136 177 219 266 316
#     4  10  20  34  53  78 108 142 178 214 256 308
#     4   9  17  31  52  77 105 134 169 216 265 313
#
# _framework density 17.108409999999999
#
# number of rings (size 3 to 8) (size 9 to 14) (size 15 to 20)
#    0.000    2.000    2.500    1.500    0.000    4.250 
#    0.000    2.500    0.000    0.750    0.000    7.875 
#    0.000    0.000    0.000    0.000    0.000    0.000 
#
# Total GULP energy -357125.667375 kJ/mol
# GULP energy per Si atom -5580.088553 kJ/mol
# Density = 1.706947 g / cm^3
# Si number density = 17.108410 Si / 1000 Ang^3
#
#
#
# Elastic Constant Matrix: (Units=GPa)
#
#
# Indices 1 2 3 4 5 6 
#
# 1 112.7126 28.5477 66.5382 0.0000 0.0000 0.0000
# 2 28.5477 19.3379 28.1219 0.0000 0.0000 0.0000
# 3 66.5382 28.1219 115.1434 0.0000 0.0000 0.0000
# 4 0.0000 0.0000 0.0000 45.0447 0.0000 0.0000
# 5 0.0000 0.0000 0.0000 0.0000 20.4339 0.0000
# 6 0.0000 0.0000 0.0000 0.0000 0.0000 21.7950
#
#
#
# Elastic Compliance Matrix: (Units=1/GPa)
#
#
# Indices 1 2 3 4 5 6 
#
# 1 0.016094 -0.015871 -0.005424 0.000000 0.000000 0.000000
# 2 -0.015871 0.095846 -0.014237 0.000000 0.000000 0.000000
# 3 -0.005424 -0.014237 0.015296 0.000000 0.000000 0.000000
# 4 0.000000 0.000000 0.000000 0.022200 0.000000 0.000000
# 5 0.000000 0.000000 0.000000 0.000000 0.048938 0.000000
# 6 0.000000 0.000000 0.000000 0.000000 0.000000 0.045882
#
#
# Mechanical properties :
#
#
# Convention : Reuss Voigt Hill
#
# Bulk Modulus (GPa) = 17.80257 54.84548 36.32402
# Shear Modulus (GPa) = 14.96803 25.72048 20.34425
#
# Velocity S-wave (km/s) = 2.96107 3.88155 3.45213
# Velocity P-wave (km/s) = 4.70307 7.22605 6.09650
#
# Compressibility (1/GPa) = 0.05617167
#
# Stress axis : x y z
#
# Youngs Moduli (GPa) = 62.13558 10.43340 65.37461
#
# Poissons Ratio (x) = 0.16559 0.35459
# Poissons Ratio (y) = 0.98614 0.93077
# Poissons Ratio (z) = 0.33702 0.14855
#
# Static dielectric constant tensor:
#      x y z
#    x 1.600990 0.000000 0.000000 
#    y 0.000000 1.574710 0.000000 
#    z 0.000000 0.000000 1.553330 
# 
# From -- ./inp_files/9928.got.cif
#   From: 2010.05.17/outbox.cif.g08.bks.cpg/sg47_5_cif.got.tgz:9928.got - 2010.06.03 20:15:42.
