data_PCOD9385914
_publ_section_title
;
Structure prediction by ZEFSAII (Michael W. Deem and Ramdas Pophale) SiO2 
 PCOD9385914
Probable space group: P M M M
;
_chemical_formula_sum "Si O2"
_cell_formula_units_Z 52
_cell_length_a 8.925987
_cell_length_b 31.155312
_cell_length_c 10.916853
_cell_angle_alpha 90.000000
_cell_angle_beta 90.000000
_cell_angle_gamma 90.000000
_cell_volume 3035.888501
_symmetry_space_group_name_H-M "P M M M"
_symmetry_group_IT_number 47
_symmetry_cell_setting 'orthorhombic'
loop_
_space_group_symop_operation_xyz
x,y,z
-x,-y,z
x,-y,-z
-x,y,-z
-x,-y,-z
x,y,-z
-x,y,z
x,-y,z
loop_
_atom_site_type_symbol
_atom_site_label
_atom_site_fract_x
_atom_site_fract_y
_atom_site_fract_z
Si Si1 0.171480 0.550780 0.500000
Si Si2 0.680891 0.756641 0.359081
Si Si3 0.680516 0.178387 0.142036
Si Si4 0.322186 0.418479 0.254825
Si Si5 0.829329 0.912335 0.148418
Si Si6 0.672917 0.000000 0.149508
Si Si7 0.166124 0.500000 0.142703
Si Si8 0.820909 0.337204 0.356178
O O1 0.157953 0.500000 0.500000
O O2 0.268302 0.564115 0.614813
O O3 0.000000 0.568422 0.500000
O O4 0.718336 0.770471 0.500000
O O5 0.500000 0.752422 0.354324
O O6 0.726798 0.788416 0.248710
O O7 0.754936 0.710237 0.339081
O O8 0.500000 0.177397 0.140858
O O9 0.740896 0.131223 0.175664
O O10 0.728252 0.188284 0.000000
O O11 0.500000 0.416172 0.240262
O O12 0.252602 0.455845 0.171288
O O13 0.251173 0.370848 0.260695
O O14 0.752567 0.956305 0.191225
O O15 0.000000 0.909602 0.191698
O O16 0.832155 0.914855 0.000000
O O17 0.500000 0.000000 0.185694
O O18 0.677422 0.000000 0.000000
O O19 0.000000 0.500000 0.205126
O O20 0.145274 0.500000 0.000000
O O21 0.786583 0.348622 0.500000
O O22 0.000000 0.337323 0.343089
#
# Coordination Sequence:
#
# PCOD9385914 Si02
#       8
#     4   8   8   8   8   4   4   8
#     4  11  21  33  53  81 112 136 160 198 246 297
#     4   9  18  33  52  74 101 131 168 213 259 307
#     4   9  17  30  48  70  97 130 166 205 251 302
#     4  12  23  35  57  83 108 134 166 208 252 299
#     4   9  16  25  39  62  93 127 163 205 250 297
#     4   9  15  23  37  59  90 127 164 203 250 302
#     4  11  25  44  61  76 103 143 179 211 250 299
#     4  10  20  34  54  78 106 135 165 207 256 305
#
# _framework density 17.128428
#
# number of rings (size 3 to 8) (size 9 to 14) (size 15 to 20)
#    0.000    2.077    1.538    3.000    0.000    4.923 
#    0.000    0.769    0.000    2.769    0.000    0.538 
#    0.000    4.308    0.000    0.000    0.000    0.000 
#
# Total GULP energy -289614.422081 kJ/mol
# GULP energy per Si atom -5569.508117 kJ/mol
# Density = 1.708944 g / cm^3
# Si number density = 17.128428 Si / 1000 Ang^3
#
#
#
# Elastic Constant Matrix: (Units=GPa)
#
#
# Indices 1 2 3 4 5 6 
#
# 1 75.3332 55.3602 30.3080 0.0000 0.0000 0.0000
# 2 55.3602 152.8013 61.4585 0.0000 0.0000 0.0000
# 3 30.3080 61.4585 70.6991 0.0000 0.0000 0.0000
# 4 0.0000 0.0000 0.0000 22.5990 0.0000 0.0000
# 5 0.0000 0.0000 0.0000 0.0000 14.9416 0.0000
# 6 0.0000 0.0000 0.0000 0.0000 0.0000 -6.3731
#
#
#
# Elastic Compliance Matrix: (Units=1/GPa)
#
#
# Indices 1 2 3 4 5 6 
#
# 1 0.018563 -0.005420 -0.003247 0.000000 0.000000 0.000000
# 2 -0.005420 0.011645 -0.007800 0.000000 0.000000 0.000000
# 3 -0.003247 -0.007800 0.022316 0.000000 0.000000 0.000000
# 4 0.000000 0.000000 0.000000 0.044250 0.000000 0.000000
# 5 0.000000 0.000000 0.000000 0.000000 0.066927 0.000000
# 6 0.000000 0.000000 0.000000 0.000000 0.000000 -0.156910
#
#
# Mechanical properties :
#
#
# Convention : Reuss Voigt Hill
#
# Bulk Modulus (GPa) = 51.03876 65.89857 58.46867
# Shear Modulus (GPa) = 108.09757 16.34730 62.22244
#
# Velocity S-wave (km/s) = 7.95280 3.09268 6.03373
# Velocity P-wave (km/s) = 10.68606 7.16307 9.09674
#
# Compressibility (1/GPa) = 0.01959295
#
# Stress axis : x y z
#
# Youngs Moduli (GPa) = 53.86967 85.87252 44.80991
#
# Poissons Ratio (x) = 0.46541 0.14548
# Poissons Ratio (y) = 0.29196 0.34950
# Poissons Ratio (z) = 0.17489 0.66978
#
# Static dielectric constant tensor:
#      x y z
#    x 1.579190 0.000000 0.000000 
#    y 0.000000 1.602500 0.000000 
#    z 0.000000 0.000000 1.561970 
# 
# From -- ./inp_files/15685.got.cif
#   From: 2010.05.17/outbox.cif.g08.bks.cpg/sg47_8_cif.got.tgz:15685.got - 2010.06.03 20:15:42.
