data_PCOD9385129
_publ_section_title
;
Structure prediction by ZEFSAII (Michael W. Deem and Ramdas Pophale) SiO2 
 PCOD9385129
Probable space group: P M M M
;
_chemical_formula_sum "Si O2"
_cell_formula_units_Z 56
_cell_length_a 15.527311
_cell_length_b 9.607940
_cell_length_c 20.757188
_cell_angle_alpha 90.000000
_cell_angle_beta 90.000000
_cell_angle_gamma 90.000000
_cell_volume 3096.670898
_symmetry_space_group_name_H-M "P M M M"
_symmetry_group_IT_number 47
_symmetry_cell_setting 'orthorhombic'
loop_
_space_group_symop_operation_xyz
x,y,z
-x,-y,z
x,-y,-z
-x,y,-z
-x,-y,-z
x,y,-z
-x,y,z
x,-y,z
loop_
_atom_site_type_symbol
_atom_site_label
_atom_site_fract_x
_atom_site_fract_y
_atom_site_fract_z
Si Si1 0.327797 0.667932 0.576146
Si Si2 0.500000 0.839565 0.577984
Si Si3 0.098051 0.336434 0.801579
Si Si4 0.399533 0.649494 0.000000
Si Si5 0.401381 0.656427 0.229314
Si Si6 0.227670 0.340697 0.691826
Si Si7 0.344339 0.843210 0.886012
Si Si8 0.856659 0.840938 0.923852
O O1 0.312945 0.689428 0.500000
O O2 0.340920 0.500000 0.585254
O O3 0.413836 0.753460 0.594778
O O4 0.246685 0.714757 0.620191
O O5 0.500000 0.846245 0.500000
O O6 0.500000 0.000000 0.602075
O O7 0.119291 0.500000 0.812710
O O8 0.164816 0.280283 0.747146
O O9 0.102206 0.258287 0.870183
O O10 0.000000 0.327128 0.777319
O O11 0.378669 0.738955 0.938601
O O12 0.354121 0.500000 0.000000
O O13 0.500000 0.629949 0.000000
O O14 0.500000 0.675308 0.251950
O O15 0.398331 0.500000 0.198825
O O16 0.324950 0.656451 0.280614
O O17 0.374432 0.777018 0.180564
O O18 0.196694 0.500000 0.684274
O O19 0.242536 0.845405 0.900333
O O20 0.376758 0.000000 0.893354
O O21 0.889891 0.000000 0.920069
O O22 0.861679 0.799401 0.000000
#
# Coordination Sequence:
#
# PCOD9385129 Si02
#       8
#     8   4   8   4   8   8   8   8
#     4   9  17  30  51  77 106 145 190 225 257 307
#     4   9  17  29  45  71 111 151 184 223 268 307
#     4  10  21  38  60  83 104 132 173 218 267 322
#     4  11  23  35  49  71  98 135 182 221 259 312
#     4  10  20  33  50  72 100 138 180 216 258 314
#     4   9  18  33  54  78 106 139 175 221 267 306
#     4  11  21  35  52  72 101 135 172 218 266 312
#     4  10  21  38  57  78 105 136 169 209 266 328
#
# _framework density 18.083938
#
# number of rings (size 3 to 8) (size 9 to 14) (size 15 to 20)
#    0.000    2.143    2.143    1.286    1.000    4.857 
#    0.000    2.857    0.000    0.429    0.000    3.000 
#    0.000    0.000    0.000    4.857    0.000    5.143 
#
# Total GULP energy -311747.445297 kJ/mol
# GULP energy per Si atom -5566.918666 kJ/mol
# Density = 1.804278 g / cm^3
# Si number density = 18.083938 Si / 1000 Ang^3
#
#
#
# Elastic Constant Matrix: (Units=GPa)
#
#
# Indices 1 2 3 4 5 6 
#
# 1 77.2255 22.7661 40.6945 0.0000 0.0000 0.0000
# 2 22.7661 80.4711 38.8529 0.0000 0.0000 0.0000
# 3 40.6945 38.8529 90.9152 0.0000 0.0000 0.0000
# 4 0.0000 0.0000 0.0000 18.8391 0.0000 0.0000
# 5 0.0000 0.0000 0.0000 0.0000 19.0519 0.0000
# 6 0.0000 0.0000 0.0000 0.0000 0.0000 12.5275
#
#
#
# Elastic Compliance Matrix: (Units=1/GPa)
#
#
# Indices 1 2 3 4 5 6 
#
# 1 0.017077 -0.001437 -0.007030 0.000000 0.000000 0.000000
# 2 -0.001437 0.015778 -0.006100 0.000000 0.000000 0.000000
# 3 -0.007030 -0.006100 0.016753 0.000000 0.000000 0.000000
# 4 0.000000 0.000000 0.000000 0.053081 0.000000 0.000000
# 5 0.000000 0.000000 0.000000 0.000000 0.052488 0.000000
# 6 0.000000 0.000000 0.000000 0.000000 0.000000 0.079825
#
#
# Mechanical properties :
#
#
# Convention : Reuss Voigt Hill
#
# Bulk Modulus (GPa) = 48.84014 50.35987 49.60001
# Shear Modulus (GPa) = 18.45291 19.83692 19.14491
#
# Velocity S-wave (km/s) = 3.19784 3.31560 3.25725
# Velocity P-wave (km/s) = 6.37973 6.52425 6.45240
#
# Compressibility (1/GPa) = 0.02047496
#
# Stress axis : x y z
#
# Youngs Moduli (GPa) = 58.55788 63.37752 59.69254
#
# Poissons Ratio (x) = 0.09109 0.41962
# Poissons Ratio (y) = 0.08416 0.36410
# Poissons Ratio (z) = 0.41164 0.38658
#
# Static dielectric constant tensor:
#      x y z
#    x 1.677020 0.000000 0.000000 
#    y 0.000000 1.696420 0.000000 
#    z 0.000000 0.000000 1.687080 
# 
# From -- ./inp_files/31101.got.cif
#   From: 2010.05.17/outbox.cif.g08.bks.cpg/sg47_16_cif.got.tgz:31101.got - 2010.06.03 20:15:42.
