data_PCOD9385937
_publ_section_title
;
Structure prediction by ZEFSAII (Michael W. Deem and Ramdas Pophale) SiO2 
 PCOD9385937
Probable space group: P M M M
;
_chemical_formula_sum "Si O2"
_cell_formula_units_Z 48
_cell_length_a 31.894567
_cell_length_b 9.419914
_cell_length_c 7.481184
_cell_angle_alpha 90.000000
_cell_angle_beta 90.000000
_cell_angle_gamma 90.000000
_cell_volume 2247.677431
_symmetry_space_group_name_H-M "P M M M"
_symmetry_group_IT_number 47
_symmetry_cell_setting 'orthorhombic'
loop_
_space_group_symop_operation_xyz
x,y,z
-x,-y,z
x,-y,-z
-x,y,-z
-x,-y,-z
x,y,-z
-x,y,z
x,-y,z
loop_
_atom_site_type_symbol
_atom_site_label
_atom_site_fract_x
_atom_site_fract_y
_atom_site_fract_z
Si Si1 0.162261 0.338017 0.213998
Si Si2 0.335448 0.160571 0.285488
Si Si3 0.256588 0.661952 0.286115
Si Si4 0.082118 0.163054 0.218727
Si Si5 0.000000 0.663382 0.218287
Si Si6 0.581082 0.661420 0.786075
Si Si7 0.500000 0.163907 0.218900
O O1 0.158673 0.500000 0.282936
O O2 0.209376 0.286668 0.251056
O O3 0.124927 0.238435 0.279154
O O4 0.157931 0.345244 0.000000
O O5 0.331633 0.151579 0.500000
O O6 0.293492 0.237870 0.217202
O O7 0.375921 0.256191 0.248918
O O8 0.340343 0.000000 0.217081
O O9 0.261321 0.654361 0.500000
O O10 0.260117 0.500000 0.216674
O O11 0.041721 0.253564 0.274430
O O12 0.079417 0.000000 0.275966
O O13 0.082205 0.162644 0.000000
O O14 0.000000 0.500000 0.276330
O O15 0.000000 0.662453 0.000000
O O16 0.581854 0.500000 0.716709
O O17 0.541438 0.752368 0.721087
O O18 0.576429 0.652428 0.000000
O O19 0.500000 0.000000 0.275825
O O20 0.500000 0.162925 0.000000
#
# Coordination Sequence:
#
# PCOD9385937 Si02
#       7
#     8   8   8   8   4   8   4
#     4   9  17  29  45  66  92 120 152 192 235 278
#     4  10  21  36  53  74 101 132 166 206 251 296
#     4   9  18  33  51  69  92 125 162 198 239 289
#     4   9  16  25  38  59  88 119 150 186 229 275
#     4   9  15  23  37  57  84 119 154 185 222 272
#     4  10  20  34  54  79 105 134 169 206 244 290
#     4   9  17  31  52  77 106 137 166 200 244 291
#
# _framework density 21.355378000000002
#
# number of rings (size 3 to 8) (size 9 to 14) (size 15 to 20)
#    0.000    2.667    0.000    2.000    0.000    7.333 
#    0.000    2.083    0.000    2.500    0.000    0.583 
#    0.000    4.667    0.000    0.000    0.000    0.000 
#
# Total GULP energy -268121.771675 kJ/mol
# GULP energy per Si atom -5585.870243 kJ/mol
# Density = 2.130677 g / cm^3
# Si number density = 21.355378 Si / 1000 Ang^3
#
#
#
# Elastic Constant Matrix: (Units=GPa)
#
#
# Indices 1 2 3 4 5 6 
#
# 1 240.3226 159.3740 -1.2973 0.0000 0.0000 0.0000
# 2 159.3740 212.6425 6.6255 0.0000 0.0000 0.0000
# 3 -1.2973 6.6255 60.4196 0.0000 0.0000 0.0000
# 4 0.0000 0.0000 0.0000 5.8886 0.0000 0.0000
# 5 0.0000 0.0000 0.0000 0.0000 31.0065 0.0000
# 6 0.0000 0.0000 0.0000 0.0000 0.0000 66.7491
#
#
#
# Elastic Compliance Matrix: (Units=1/GPa)
#
#
# Indices 1 2 3 4 5 6 
#
# 1 0.008318 -0.006261 0.000865 0.000000 0.000000 0.000000
# 2 -0.006261 0.009432 -0.001169 0.000000 0.000000 0.000000
# 3 0.000865 -0.001169 0.016698 0.000000 0.000000 0.000000
# 4 0.000000 0.000000 0.000000 0.169820 0.000000 0.000000
# 5 0.000000 0.000000 0.000000 0.000000 0.032251 0.000000
# 6 0.000000 0.000000 0.000000 0.000000 0.000000 0.014981
#
#
# Mechanical properties :
#
#
# Convention : Reuss Voigt Hill
#
# Bulk Modulus (GPa) = 46.90869 93.64324 70.27596
# Shear Modulus (GPa) = 18.40022 43.97432 31.18727
#
# Velocity S-wave (km/s) = 2.93852 4.54273 3.82566
# Velocity P-wave (km/s) = 5.79022 8.45342 7.24524
#
# Compressibility (1/GPa) = 0.02131801
#
# Stress axis : x y z
#
# Youngs Moduli (GPa) = 120.22154 106.02340 59.88865
#
# Poissons Ratio (x) = 0.66384 -0.05182
# Poissons Ratio (y) = 0.75273 0.06999
# Poissons Ratio (z) = -0.10402 0.12391
#
# Static dielectric constant tensor:
#      x y z
#    x 1.723990 0.000000 0.000000 
#    y 0.000000 1.751190 0.000000 
#    z 0.000000 0.000000 1.817200 
# 
# From -- ./inp_files/13902.got.cif
#   From: 2010.05.17/outbox.cif.g08.bks.cpg/sg47_7_cif.got.tgz:13902.got - 2010.06.03 20:15:42.
