data_PCOD9385652
_publ_section_title
;
Structure prediction by ZEFSAII (Michael W. Deem and Ramdas Pophale) SiO2 
 PCOD9385652
Probable space group: P M M M
;
_chemical_formula_sum "Si O2"
_cell_formula_units_Z 52
_cell_length_a 12.209337
_cell_length_b 8.145090
_cell_length_c 28.792621
_cell_angle_alpha 90.000000
_cell_angle_beta 90.000000
_cell_angle_gamma 90.000000
_cell_volume 2863.315270
_symmetry_space_group_name_H-M "P M M M"
_symmetry_group_IT_number 47
_symmetry_cell_setting 'orthorhombic'
loop_
_space_group_symop_operation_xyz
x,y,z
-x,-y,z
x,-y,-z
-x,y,-z
-x,-y,-z
x,y,-z
-x,y,z
x,-y,z
loop_
_atom_site_type_symbol
_atom_site_label
_atom_site_fract_x
_atom_site_fract_y
_atom_site_fract_z
Si Si1 0.125163 0.694904 0.274777
Si Si2 0.126392 0.798797 0.898821
Si Si3 0.500000 0.313950 0.216526
Si Si4 0.866732 0.190868 0.000000
Si Si5 0.374312 0.698219 0.553444
Si Si6 0.500000 0.189508 0.683571
Si Si7 0.272315 0.195479 0.355703
Si Si8 0.729183 0.804965 0.811661
O O1 0.125573 0.500000 0.267268
O O2 0.174274 0.730345 0.325729
O O3 0.204239 0.771736 0.235835
O O4 0.000000 0.755264 0.270380
O O5 0.165182 0.739299 0.949767
O O6 0.199368 0.747718 0.855516
O O7 0.000000 0.749180 0.891981
O O8 0.126752 0.000000 0.900168
O O9 0.500000 0.500000 0.234159
O O10 0.500000 0.197426 0.261216
O O11 0.611663 0.280541 0.189581
O O12 0.000000 0.191439 0.000000
O O13 0.831913 0.000000 0.000000
O O14 0.353695 0.746002 0.500000
O O15 0.500000 0.751353 0.565039
O O16 0.372997 0.500000 0.555634
O O17 0.287349 0.766223 0.590069
O O18 0.613380 0.263641 0.665741
O O19 0.500000 0.000000 0.667906
O O20 0.267265 0.000000 0.348761
O O21 0.712361 0.000000 0.815505
#
# Coordination Sequence:
#
# PCOD9385652 Si02
#       8
#     8   8   4   4   8   4   8   8
#     4  11  24  39  54  75 104 139 177 213 254 309
#     4   8  14  25  45  74 105 135 165 205 260 312
#     4  12  24  36  52  72 100 140 179 213 256 309
#     4   7  10  20  40  69 103 132 162 203 254 311
#     4   9  18  32  51  77 109 142 174 209 253 307
#     4  10  20  34  51  77 105 134 170 212 261 309
#     4  11  21  34  55  79 107 138 171 214 261 308
#     4  11  21  34  53  77 106 136 171 215 261 309
#
# _framework density 18.160765999999999
#
# number of rings (size 3 to 8) (size 9 to 14) (size 15 to 20)
#    0.000    2.077    2.308    3.923    0.000    2.769 
#    0.000    0.769    0.000    0.923    0.000    8.615 
#    0.000    8.615    0.000    0.000    0.000    0.000 
#
# Total GULP energy -290020.133971 kJ/mol
# GULP energy per Si atom -5577.310269 kJ/mol
# Density = 1.811943 g / cm^3
# Si number density = 18.160766 Si / 1000 Ang^3
#
#
#
# Elastic Constant Matrix: (Units=GPa)
#
#
# Indices 1 2 3 4 5 6 
#
# 1 97.0748 6.8305 43.0687 0.0000 0.0000 0.0000
# 2 6.8305 22.2555 -5.4414 0.0000 0.0000 0.0000
# 3 43.0687 -5.4414 111.2939 0.0000 0.0000 0.0000
# 4 0.0000 0.0000 0.0000 -80.6094 0.0000 0.0000
# 5 0.0000 0.0000 0.0000 0.0000 23.3475 0.0000
# 6 0.0000 0.0000 0.0000 0.0000 0.0000 17.4033
#
#
#
# Elastic Compliance Matrix: (Units=1/GPa)
#
#
# Indices 1 2 3 4 5 6 
#
# 1 0.013025 -0.005293 -0.005299 0.000000 0.000000 0.000000
# 2 -0.005293 0.047627 0.004377 0.000000 0.000000 0.000000
# 3 -0.005299 0.004377 0.011250 0.000000 0.000000 0.000000
# 4 0.000000 0.000000 0.000000 -0.012406 0.000000 0.000000
# 5 0.000000 0.000000 0.000000 0.000000 0.042831 0.000000
# 6 0.000000 0.000000 0.000000 0.000000 0.000000 0.057460
#
#
# Mechanical properties :
#
#
# Convention : Reuss Voigt Hill
#
# Bulk Modulus (GPa) = 16.81479 35.50442 26.15961
# Shear Modulus (GPa) = 26.03588 4.43938 15.23763
#
# Velocity S-wave (km/s) = 3.79044 1.56518 2.89976
# Velocity P-wave (km/s) = 5.33250 4.78110 5.06431
#
# Compressibility (1/GPa) = 0.05947145
#
# Stress axis : x y z
#
# Youngs Moduli (GPa) = 76.77646 20.99633 88.88972
#
# Poissons Ratio (x) = 0.11114 0.47104
# Poissons Ratio (y) = 0.40639 -0.38907
# Poissons Ratio (z) = 0.40685 -0.09190
#
# Static dielectric constant tensor:
#      x y z
#    x 1.616600 0.000000 0.000000 
#    y 0.000000 1.648180 0.000000 
#    z 0.000000 0.000000 1.649400 
# 
# From -- ./inp_files/19912.got.cif
#   From: 2010.05.17/outbox.cif.g08.bks.cpg/sg47_10_cif.got.tgz:19912.got - 2010.06.03 20:15:42.
