data_PCOD9385000
_publ_section_title
;
Structure prediction by ZEFSAII (Michael W. Deem and Ramdas Pophale) SiO2 
 PCOD9385000
Probable space group: P M M M
;
_chemical_formula_sum "Si O2"
_cell_formula_units_Z 52
_cell_length_a 14.956846
_cell_length_b 13.849798
_cell_length_c 13.021075
_cell_angle_alpha 90.000000
_cell_angle_beta 90.000000
_cell_angle_gamma 90.000000
_cell_volume 2697.306517
_symmetry_space_group_name_H-M "P M M M"
_symmetry_group_IT_number 47
_symmetry_cell_setting 'orthorhombic'
loop_
_space_group_symop_operation_xyz
x,y,z
-x,-y,z
x,-y,-z
-x,y,-z
-x,-y,-z
x,y,-z
-x,y,z
x,-y,z
loop_
_atom_site_type_symbol
_atom_site_label
_atom_site_fract_x
_atom_site_fract_y
_atom_site_fract_z
Si Si1 0.824148 0.299534 0.614415
Si Si2 0.344997 0.764177 0.734499
Si Si3 0.299974 0.386893 0.118807
Si Si4 0.782279 0.115065 0.117697
Si Si5 0.895068 0.106560 0.693473
Si Si6 0.899944 0.384891 0.816105
Si Si7 0.500000 0.884206 0.376131
O O1 0.829676 0.337947 0.500000
O O2 0.723399 0.286820 0.655209
O O3 0.858763 0.189765 0.621680
O O4 0.881850 0.358592 0.697167
O O5 0.366147 0.675420 0.810679
O O6 0.293244 0.835867 0.812659
O O7 0.416481 0.827342 0.673955
O O8 0.301879 0.500000 0.146970
O O9 0.194905 0.353405 0.132646
O O10 0.322713 0.376806 0.000000
O O11 0.869733 0.130859 0.188420
O O12 0.767665 0.000000 0.113706
O O13 0.786913 0.149250 0.000000
O O14 0.000000 0.103128 0.682836
O O15 0.857132 0.000000 0.670777
O O16 0.902858 0.500000 0.831459
O O17 0.000000 0.348329 0.846351
O O18 0.500000 0.875082 0.500000
O O19 0.500000 0.000000 0.352808
#
# Coordination Sequence:
#
# PCOD9385000 Si02
#       7
#     8   8   8   8   8   8   4
#     4  10  20  33  49  68  95 135 176 215 266 324
#     4  10  20  37  57  79 108 135 168 218 271 322
#     4   9  18  34  57  83 113 152 191 223 262 315
#     4   9  17  30  49  72 100 135 169 203 254 318
#     4   9  18  30  43  64  94 128 171 218 255 296
#     4   9  18  31  48  75 109 143 185 235 274 304
#     4  11  24  42  66  91 110 132 168 217 274 334
#
# _framework density 19.278490000000001
#
# number of rings (size 3 to 8) (size 9 to 14) (size 15 to 20)
#    0.000    2.538    0.000    1.846    0.000    3.077 
#    0.000    6.538    0.000   11.077    0.000    0.000 
#    0.000    0.000    0.000    0.000    0.000    0.000 
#
# Total GULP energy -289564.374033 kJ/mol
# GULP energy per Si atom -5568.545654 kJ/mol
# Density = 1.923461 g / cm^3
# Si number density = 19.278490 Si / 1000 Ang^3
#
#
#
# Elastic Constant Matrix: (Units=GPa)
#
#
# Indices 1 2 3 4 5 6 
#
# 1 39.5401 17.2016 4.0225 0.0000 0.0000 0.0000
# 2 17.2016 57.2844 13.5424 0.0000 0.0000 0.0000
# 3 4.0225 13.5424 75.5711 0.0000 0.0000 0.0000
# 4 0.0000 0.0000 0.0000 26.7091 0.0000 0.0000
# 5 0.0000 0.0000 0.0000 0.0000 -14.2768 0.0000
# 6 0.0000 0.0000 0.0000 0.0000 0.0000 26.9189
#
#
#
# Elastic Compliance Matrix: (Units=1/GPa)
#
#
# Indices 1 2 3 4 5 6 
#
# 1 0.029091 -0.008740 0.000018 0.000000 0.000000 0.000000
# 2 -0.008740 0.020855 -0.003272 0.000000 0.000000 0.000000
# 3 0.000018 -0.003272 0.013818 0.000000 0.000000 0.000000
# 4 0.000000 0.000000 0.000000 0.037440 0.000000 0.000000
# 5 0.000000 0.000000 0.000000 0.000000 -0.070044 0.000000
# 6 0.000000 0.000000 0.000000 0.000000 0.000000 0.037149
#
#
# Mechanical properties :
#
#
# Convention : Reuss Voigt Hill
#
# Bulk Modulus (GPa) = 25.14098 26.88096 26.01097
# Shear Modulus (GPa) = 47.36838 17.04551 32.20695
#
# Velocity S-wave (km/s) = 4.96225 2.97673 4.09175
# Velocity P-wave (km/s) = 6.77504 5.07822 5.98705
#
# Compressibility (1/GPa) = 0.03977570
#
# Stress axis : x y z
#
# Youngs Moduli (GPa) = 34.37473 47.95086 72.36956
#
# Poissons Ratio (x) = 0.41908 -0.00128
# Poissons Ratio (y) = 0.30043 0.23679
# Poissons Ratio (z) = -0.00061 0.15689
#
# Static dielectric constant tensor:
#      x y z
#    x 1.685680 0.000000 0.000000 
#    y 0.000000 1.730560 0.000000 
#    z 0.000000 0.000000 1.676490 
# 
# From -- ./inp_files/17666.got.cif
#   From: 2010.05.17/outbox.cif.g08.bks.cpg/sg47_9_cif.got.tgz:17666.got - 2010.06.03 20:15:42.
