data_PCOD9385450
_publ_section_title
;
Structure prediction by ZEFSAII (Michael W. Deem and Ramdas Pophale) SiO2 
 PCOD9385450
Probable space group: P M M M
;
_chemical_formula_sum "Si O2"
_cell_formula_units_Z 64
_cell_length_a 20.721416
_cell_length_b 9.537912
_cell_length_c 16.828146
_cell_angle_alpha 90.000000
_cell_angle_beta 90.000000
_cell_angle_gamma 90.000000
_cell_volume 3325.898660
_symmetry_space_group_name_H-M "P M M M"
_symmetry_group_IT_number 47
_symmetry_cell_setting 'orthorhombic'
loop_
_space_group_symop_operation_xyz
x,y,z
-x,-y,z
x,-y,-z
-x,y,-z
-x,-y,-z
x,y,-z
-x,y,z
x,-y,z
loop_
_atom_site_type_symbol
_atom_site_label
_atom_site_fract_x
_atom_site_fract_y
_atom_site_fract_z
Si Si1 0.073792 0.661636 0.123967
Si Si2 0.304262 0.338131 0.374822
Si Si3 0.572776 0.838666 0.623432
Si Si4 0.197802 0.836997 0.909153
Si Si5 0.572825 0.161289 0.816813
Si Si6 0.074196 0.660690 0.315620
Si Si7 0.304024 0.338114 0.817719
Si Si8 0.822420 0.838279 0.408686
O O1 0.087695 0.500000 0.100687
O O2 0.127250 0.767375 0.093347
O O3 0.076653 0.666729 0.220044
O O4 0.000000 0.693583 0.100457
O O5 0.300507 0.500000 0.399512
O O6 0.370673 0.265001 0.401594
O O7 0.302299 0.334947 0.278308
O O8 0.243622 0.248300 0.402886
O O9 0.500000 0.801068 0.598101
O O10 0.572613 0.837107 0.720174
O O11 0.585551 0.000000 0.599592
O O12 0.244806 0.749475 0.852610
O O13 0.195245 0.000000 0.885494
O O14 0.221765 0.829056 0.000000
O O15 0.500000 0.198619 0.842285
O O16 0.629121 0.264713 0.843326
O O17 0.586091 0.000000 0.840512
O O18 0.090148 0.500000 0.338759
O O19 0.124381 0.766217 0.353710
O O20 0.000000 0.689052 0.339218
O O21 0.300435 0.500000 0.842742
O O22 0.844822 0.834465 0.500000
O O23 0.811155 0.000000 0.385964
#
# Coordination Sequence:
#
# PCOD9385450 Si02
#       8
#     8   8   8   8   8   8   8   8
#     4   9  19  37  60  84 108 134 167 208 254 306
#     4  10  20  33  52  78 105 135 173 216 261 309
#     4   8  14  26  46  73 104 136 169 207 254 307
#     4  11  24  38  52  74 105 140 177 216 257 303
#     4   8  14  26  46  73 104 136 169 207 254 307
#     4   9  19  37  60  84 108 134 167 208 254 306
#     4  10  20  33  52  78 105 135 173 216 261 309
#     4  11  24  38  52  74 105 140 177 216 257 303
#
# _framework density 19.242919000000001
#
# number of rings (size 3 to 8) (size 9 to 14) (size 15 to 20)
#    0.000    2.500    0.000    3.750    0.000    8.500 
#    0.000    6.250    0.000    0.750    0.000    5.250 
#    0.000    0.000    0.000    0.000    0.000    0.000 
#
# Total GULP energy -357334.266362 kJ/mol
# GULP energy per Si atom -5583.347912 kJ/mol
# Density = 1.919912 g / cm^3
# Si number density = 19.242919 Si / 1000 Ang^3
#
#
#
# Elastic Constant Matrix: (Units=GPa)
#
#
# Indices 1 2 3 4 5 6 
#
# 1 108.9445 91.8343 35.4540 0.0000 0.0000 0.0000
# 2 91.8343 148.9102 41.5159 0.0000 0.0000 0.0000
# 3 35.4540 41.5159 33.1984 0.0000 0.0000 0.0000
# 4 0.0000 0.0000 0.0000 1.6814 0.0000 0.0000
# 5 0.0000 0.0000 0.0000 0.0000 -171.6869 0.0000
# 6 0.0000 0.0000 0.0000 0.0000 0.0000 42.5536
#
#
#
# Elastic Compliance Matrix: (Units=1/GPa)
#
#
# Indices 1 2 3 4 5 6 
#
# 1 0.020911 -0.010240 -0.009526 0.000000 0.000000 0.000000
# 2 -0.010240 0.015325 -0.008228 0.000000 0.000000 0.000000
# 3 -0.009526 -0.008228 0.050585 0.000000 0.000000 0.000000
# 4 0.000000 0.000000 0.000000 0.594751 0.000000 0.000000
# 5 0.000000 0.000000 0.000000 0.000000 -0.005825 0.000000
# 6 0.000000 0.000000 0.000000 0.000000 0.000000 0.023500
#
#
# Mechanical properties :
#
#
# Convention : Reuss Voigt Hill
#
# Bulk Modulus (GPa) = 32.43411 69.85129 51.14270
# Shear Modulus (GPa) = 6.53158 -17.34046 -5.40444
#
# Velocity S-wave (km/s) = 1.84435 -3.00515 -1.67769
# Velocity P-wave (km/s) = 4.62895 4.93329 4.78354
#
# Compressibility (1/GPa) = 0.03083174
#
# Stress axis : x y z
#
# Youngs Moduli (GPa) = 47.82184 65.25424 19.76879
#
# Poissons Ratio (x) = 0.66821 0.18832
# Poissons Ratio (y) = 0.48970 0.16266
# Poissons Ratio (z) = 0.45555 0.53693
#
# Static dielectric constant tensor:
#      x y z
#    x 1.651230 0.000000 0.000000 
#    y 0.000000 1.643650 0.000000 
#    z 0.000000 0.000000 1.676550 
# 
# From -- ./inp_files/28770.got.cif
#   From: 2010.05.17/outbox.cif.g08.bks.cpg/sg47_15_cif.got.tgz:28770.got - 2010.06.03 20:15:42.
