data_PCOD9385333
_publ_section_title
;
Structure prediction by ZEFSAII (Michael W. Deem and Ramdas Pophale) SiO2 
 PCOD9385333
Probable space group: P M M M
;
_chemical_formula_sum "Si O2"
_cell_formula_units_Z 52
_cell_length_a 14.695742
_cell_length_b 8.120961
_cell_length_c 25.081740
_cell_angle_alpha 90.000000
_cell_angle_beta 90.000000
_cell_angle_gamma 90.000000
_cell_volume 2993.343833
_symmetry_space_group_name_H-M "P M M M"
_symmetry_group_IT_number 47
_symmetry_cell_setting 'orthorhombic'
loop_
_space_group_symop_operation_xyz
x,y,z
-x,-y,z
x,-y,-z
-x,y,-z
-x,-y,-z
x,y,-z
-x,y,z
x,-y,z
loop_
_atom_site_type_symbol
_atom_site_label
_atom_site_fract_x
_atom_site_fract_y
_atom_site_fract_z
Si Si1 0.391469 0.184411 0.131122
Si Si2 0.102440 0.802790 0.727212
Si Si3 0.292100 0.300352 0.440824
Si Si4 0.389552 0.500000 0.939014
Si Si5 0.290079 0.689013 0.231685
Si Si6 0.100711 0.698925 0.396017
Si Si7 0.395160 0.196020 0.664655
O O1 0.500000 0.201911 0.141434
O O2 0.363375 0.333462 0.092259
O O3 0.338053 0.203342 0.186484
O O4 0.376896 0.000000 0.109120
O O5 0.183611 0.726143 0.761000
O O6 0.113918 0.752601 0.665255
O O7 0.000000 0.752021 0.742924
O O8 0.108788 0.000000 0.730418
O O9 0.320736 0.248080 0.500000
O O10 0.293944 0.500000 0.439072
O O11 0.187868 0.246801 0.429566
O O12 0.353812 0.236546 0.392939
O O13 0.500000 0.500000 0.940322
O O14 0.357169 0.500000 0.000000
O O15 0.304637 0.500000 0.216887
O O16 0.336394 0.722127 0.288807
O O17 0.099875 0.500000 0.397381
O O18 0.000000 0.756310 0.413371
O O19 0.500000 0.249853 0.667893
O O20 0.391231 0.000000 0.672828
#
# Coordination Sequence:
#
# PCOD9385333 Si02
#       7
#     8   8   8   4   8   8   8
#     4  10  20  34  53  81 117 155 196 238 278 322
#     4  10  20  33  51  76 106 138 171 211 263 325
#     4  10  21  36  53  74  98 127 166 211 261 320
#     4   9  18  34  54  80 117 159 202 240 276 319
#     4  12  22  34  55  80 109 142 178 223 275 328
#     4   9  17  31  51  74  99 127 161 202 254 319
#     4  11  24  39  54  73  96 129 173 217 271 332
#
# _framework density 17.371874999999999
#
# number of rings (size 3 to 8) (size 9 to 14) (size 15 to 20)
#    0.000    1.769    2.308    2.769    0.000    5.231 
#    0.000    4.615    0.000    0.000    0.000    3.231 
#    0.000    1.231    0.000    3.231    0.000    0.154 
#
# Total GULP energy -290302.306620 kJ/mol
# GULP energy per Si atom -5582.736666 kJ/mol
# Density = 1.733234 g / cm^3
# Si number density = 17.371875 Si / 1000 Ang^3
#
#
#
# Elastic Constant Matrix: (Units=GPa)
#
#
# Indices 1 2 3 4 5 6 
#
# 1 78.0779 26.5836 28.9172 0.0000 0.0000 0.0000
# 2 26.5836 59.8591 25.3314 0.0000 0.0000 0.0000
# 3 28.9172 25.3314 80.9381 0.0000 0.0000 0.0000
# 4 0.0000 0.0000 0.0000 0.6575 0.0000 0.0000
# 5 0.0000 0.0000 0.0000 0.0000 8.5988 0.0000
# 6 0.0000 0.0000 0.0000 0.0000 0.0000 21.7362
#
#
#
# Elastic Compliance Matrix: (Units=1/GPa)
#
#
# Indices 1 2 3 4 5 6 
#
# 1 0.016174 -0.005461 -0.004070 0.000000 0.000000 0.000000
# 2 -0.005461 0.021100 -0.004653 0.000000 0.000000 0.000000
# 3 -0.004070 -0.004653 0.015265 0.000000 0.000000 0.000000
# 4 0.000000 0.000000 0.000000 1.520886 0.000000 0.000000
# 5 0.000000 0.000000 0.000000 0.000000 0.116295 0.000000
# 6 0.000000 0.000000 0.000000 0.000000 0.000000 0.046006
#
#
# Mechanical properties :
#
#
# Convention : Reuss Voigt Hill
#
# Bulk Modulus (GPa) = 41.36800 42.28217 41.82509
# Shear Modulus (GPa) = 2.82143 15.40136 9.11140
#
# Velocity S-wave (km/s) = 1.27580 2.98076 2.29266
# Velocity P-wave (km/s) = 5.10246 6.01987 5.58005
#
# Compressibility (1/GPa) = 0.02417327
#
# Stress axis : x y z
#
# Youngs Moduli (GPa) = 61.82669 47.39329 65.50832
#
# Poissons Ratio (x) = 0.25881 0.26659
# Poissons Ratio (y) = 0.33763 0.30479
# Poissons Ratio (z) = 0.25161 0.22051
#
# Static dielectric constant tensor:
#      x y z
#    x 1.596800 0.000000 0.000000 
#    y 0.000000 1.619860 0.000000 
#    z 0.000000 0.000000 1.554080 
# 
# From -- ./inp_files/25425.got.cif
#   From: 2010.05.17/outbox.cif.g08.bks.cpg/sg47_13_cif.got.tgz:25425.got - 2010.06.03 20:15:42.
