data_PCOD9385795
_publ_section_title
;
Structure prediction by ZEFSAII (Michael W. Deem and Ramdas Pophale) SiO2 
 PCOD9385795
Probable space group: P M M M
;
_chemical_formula_sum "Si O2"
_cell_formula_units_Z 48
_cell_length_a 7.934234
_cell_length_b 9.298634
_cell_length_c 32.062922
_cell_angle_alpha 90.000000
_cell_angle_beta 90.000000
_cell_angle_gamma 90.000000
_cell_volume 2365.523447
_symmetry_space_group_name_H-M "P M M M"
_symmetry_group_IT_number 47
_symmetry_cell_setting 'orthorhombic'
loop_
_space_group_symop_operation_xyz
x,y,z
-x,-y,z
x,-y,-z
-x,y,-z
-x,-y,-z
x,y,-z
-x,y,z
x,-y,z
loop_
_atom_site_type_symbol
_atom_site_label
_atom_site_fract_x
_atom_site_fract_y
_atom_site_fract_z
Si Si1 0.206191 0.165971 0.500000
Si Si2 0.200282 0.334552 0.909838
Si Si3 0.206084 0.665838 0.582992
Si Si4 0.206493 0.165691 0.333925
Si Si5 0.701088 0.665208 0.000000
Si Si6 0.300589 0.162701 0.171687
Si Si7 0.201196 0.662467 0.747158
O O1 0.260016 0.249482 0.458399
O O2 0.000000 0.165720 0.500000
O O3 0.260211 0.000000 0.500000
O O4 0.266729 0.500000 0.907527
O O5 0.241433 0.273231 0.955749
O O6 0.268043 0.239547 0.872286
O O7 0.000000 0.341272 0.905563
O O8 0.260561 0.500000 0.582684
O O9 0.259017 0.748158 0.624841
O O10 0.000000 0.665333 0.582882
O O11 0.265358 0.245767 0.292086
O O12 0.000000 0.165083 0.333670
O O13 0.260659 0.000000 0.334928
O O14 0.767515 0.500000 0.000000
O O15 0.500000 0.662222 0.000000
O O16 0.500000 0.155076 0.177860
O O17 0.230326 0.256764 0.209511
O O18 0.231402 0.000000 0.172091
O O19 0.269660 0.500000 0.748024
O O20 0.000000 0.652099 0.741482
#
# Coordination Sequence:
#
# PCOD9385795 Si02
#       7
#     4   8   8   8   4   8   8
#     4   9  15  21  29  43  67 103 148 195 244 299
#     4  10  20  35  57  84 111 140 177 219 260 305
#     4   9  15  22  32  48  73 107 149 196 243 293
#     4   9  16  26  41  61  86 117 153 195 244 297
#     4   9  17  31  54  83 114 147 180 216 260 307
#     4  11  24  39  54  75 104 137 172 211 257 308
#     4  10  20  34  53  76  99 126 164 208 253 304
#
# _framework density 20.291492000000002
#
# number of rings (size 3 to 8) (size 9 to 14) (size 15 to 20)
#    0.000    2.333    0.000    3.500    0.000   11.333 
#    0.000    0.417    0.000    2.500    0.000    0.000 
#    0.000    0.000    0.000    0.750    0.000   14.667 
#
# Total GULP energy -268028.867825 kJ/mol
# GULP energy per Si atom -5583.934746 kJ/mol
# Density = 2.024531 g / cm^3
# Si number density = 20.291492 Si / 1000 Ang^3
#
#
#
# Elastic Constant Matrix: (Units=GPa)
#
#
# Indices 1 2 3 4 5 6 
#
# 1 17.9652 2.9117 -9.2848 0.0000 0.0000 0.0000
# 2 2.9117 190.1665 114.1722 0.0000 0.0000 0.0000
# 3 -9.2848 114.1722 192.5961 0.0000 0.0000 0.0000
# 4 0.0000 0.0000 0.0000 -30.7361 0.0000 0.0000
# 5 0.0000 0.0000 0.0000 0.0000 -48.7469 0.0000
# 6 0.0000 0.0000 0.0000 0.0000 0.0000 8.9449
#
#
#
# Elastic Compliance Matrix: (Units=1/GPa)
#
#
# Indices 1 2 3 4 5 6 
#
# 1 0.059034 -0.004056 0.005251 0.000000 0.000000 0.000000
# 2 -0.004056 0.008443 -0.005201 0.000000 0.000000 0.000000
# 3 0.005251 -0.005201 0.008528 0.000000 0.000000 0.000000
# 4 0.000000 0.000000 0.000000 -0.032535 0.000000 0.000000
# 5 0.000000 0.000000 0.000000 0.000000 -0.020514 0.000000
# 6 0.000000 0.000000 0.000000 0.000000 0.000000 0.111795
#
#
# Mechanical properties :
#
#
# Convention : Reuss Voigt Hill
#
# Bulk Modulus (GPa) = 14.70741 68.48067 41.59404
# Shear Modulus (GPa) = 30.22458 5.42096 17.82277
#
# Velocity S-wave (km/s) = 3.86362 1.63626 2.96689
# Velocity P-wave (km/s) = 5.21221 6.11486 5.68149
#
# Compressibility (1/GPa) = 0.06799296
#
# Stress axis : x y z
#
# Youngs Moduli (GPa) = 16.93932 118.44135 117.25682
#
# Poissons Ratio (x) = 0.48042 -0.61566
# Poissons Ratio (y) = 0.06871 0.60981
# Poissons Ratio (z) = -0.08894 0.61597
#
# Static dielectric constant tensor:
#      x y z
#    x 1.735280 0.000000 0.000000 
#    y 0.000000 1.712300 0.000000 
#    z 0.000000 0.000000 1.688010 
# 
# From -- ./inp_files/2551.got.cif
#   From: 2010.05.17/outbox.cif.g08.bks.cpg/sg47_2_cif.got.tgz:2551.got - 2010.06.03 20:15:42.
