data_PCOD9385821
_publ_section_title
;
Structure prediction by ZEFSAII (Michael W. Deem and Ramdas Pophale) SiO2 
 PCOD9385821
Probable space group: P M M M
;
_chemical_formula_sum "Si O2"
_cell_formula_units_Z 48
_cell_length_a 28.646372
_cell_length_b 9.701430
_cell_length_c 7.437334
_cell_angle_alpha 90.000000
_cell_angle_beta 90.000000
_cell_angle_gamma 90.000000
_cell_volume 2066.915239
_symmetry_space_group_name_H-M "P M M M"
_symmetry_group_IT_number 47
_symmetry_cell_setting 'orthorhombic'
loop_
_space_group_symop_operation_xyz
x,y,z
-x,-y,z
x,-y,-z
-x,y,-z
-x,-y,-z
x,y,-z
-x,y,z
x,-y,z
loop_
_atom_site_type_symbol
_atom_site_label
_atom_site_fract_x
_atom_site_fract_y
_atom_site_fract_z
Si Si1 0.732988 0.842226 0.779996
Si Si2 0.347380 0.352581 0.219039
Si Si3 0.447750 0.697374 0.795218
Si Si4 0.000000 0.339011 0.280007
Si Si5 0.088647 0.158999 0.714913
Si Si6 0.555639 0.000000 0.301241
Si Si7 0.180099 0.657929 0.784747
O O1 0.684186 0.774070 0.722311
O O2 0.774605 0.741824 0.719908
O O3 0.738787 0.000000 0.721937
O O4 0.733317 0.842998 0.000000
O O5 0.324367 0.500000 0.260594
O O6 0.400331 0.356914 0.289177
O O7 0.350671 0.344282 0.000000
O O8 0.500000 0.676830 0.715895
O O9 0.435889 0.859377 0.798662
O O10 0.450867 0.648796 0.000000
O O11 0.045220 0.251853 0.220649
O O12 0.000000 0.500000 0.223068
O O13 0.000000 0.341897 0.500000
O O14 0.083314 0.148664 0.500000
O O15 0.135324 0.246341 0.749377
O O16 0.090093 0.000000 0.782800
O O17 0.500000 0.000000 0.322881
O O18 0.577108 0.000000 0.500000
O O19 0.175757 0.500000 0.716987
O O20 0.184794 0.647852 0.000000
#
# Coordination Sequence:
#
# PCOD9385821 Si02
#       7
#     8   8   8   4   8   4   8
#     4   9  17  29  47  71  99 131 167 207 251 301
#     4   9  17  28  44  69 100 130 160 198 245 297
#     4   9  17  28  45  70  98 125 156 198 245 290
#     4   9  17  31  52  77 106 141 180 218 256 303
#     4  10  20  34  54  80 109 141 177 216 258 306
#     4   9  17  29  45  65  91 123 157 191 231 282
#     4  10  20  34  53  77 105 136 172 216 263 308
#
# _framework density 23.223013999999999
#
# number of rings (size 3 to 8) (size 9 to 14) (size 15 to 20)
#    0.000    2.667    0.000    2.000    1.167    6.333 
#    0.000    2.083    0.000    4.000    0.000    2.333 
#    0.000    0.000    0.000    0.000    0.000    0.000 
#
# Total GULP energy -267791.319796 kJ/mol
# GULP energy per Si atom -5578.985829 kJ/mol
# Density = 2.317016 g / cm^3
# Si number density = 23.223014 Si / 1000 Ang^3
#
#
#
# Elastic Constant Matrix: (Units=GPa)
#
#
# Indices 1 2 3 4 5 6 
#
# 1 185.5139 102.5216 -0.5645 0.0000 0.0000 0.0000
# 2 102.5216 254.0383 13.5716 0.0000 0.0000 0.0000
# 3 -0.5645 13.5716 77.9270 0.0000 0.0000 0.0000
# 4 0.0000 0.0000 0.0000 5.3609 0.0000 0.0000
# 5 0.0000 0.0000 0.0000 0.0000 14.6533 0.0000
# 6 0.0000 0.0000 0.0000 0.0000 0.0000 32.4340
#
#
#
# Elastic Compliance Matrix: (Units=1/GPa)
#
#
# Indices 1 2 3 4 5 6 
#
# 1 0.006961 -0.002838 0.000545 0.000000 0.000000 0.000000
# 2 -0.002838 0.005131 -0.000914 0.000000 0.000000 0.000000
# 3 0.000545 -0.000914 0.012996 0.000000 0.000000 0.000000
# 4 0.000000 0.000000 0.000000 0.186535 0.000000 0.000000
# 5 0.000000 0.000000 0.000000 0.000000 0.068244 0.000000
# 6 0.000000 0.000000 0.000000 0.000000 0.000000 0.030832
#
#
# Mechanical properties :
#
#
# Convention : Reuss Voigt Hill
#
# Bulk Modulus (GPa) = 53.55682 83.17075 68.36378
# Shear Modulus (GPa) = 15.46374 37.28634 26.37504
#
# Velocity S-wave (km/s) = 2.58326 4.01131 3.37371
# Velocity P-wave (km/s) = 5.65771 7.57270 6.68414
#
# Compressibility (1/GPa) = 0.01867176
#
# Stress axis : x y z
#
# Youngs Moduli (GPa) = 143.66668 194.90762 76.94877
#
# Poissons Ratio (x) = 0.55318 -0.04191
# Poissons Ratio (y) = 0.40775 0.07034
# Poissons Ratio (z) = -0.07826 0.17816
#
# Static dielectric constant tensor:
#      x y z
#    x 1.853250 0.000000 0.000000 
#    y 0.000000 1.924040 0.000000 
#    z 0.000000 0.000000 1.951580 
# 
# From -- ./inp_files/13821.got.cif
#   From: 2010.05.17/outbox.cif.g08.bks.cpg/sg47_7_cif.got.tgz:13821.got - 2010.06.03 20:15:42.
