data_PCOD9385999
_publ_section_title
;
Structure prediction by ZEFSAII (Michael W. Deem and Ramdas Pophale) SiO2 
 PCOD9385999
Probable space group: P M M M
;
_chemical_formula_sum "Si O2"
_cell_formula_units_Z 48
_cell_length_a 9.434369
_cell_length_b 7.940764
_cell_length_c 33.599032
_cell_angle_alpha 90.000000
_cell_angle_beta 90.000000
_cell_angle_gamma 90.000000
_cell_volume 2517.108365
_symmetry_space_group_name_H-M "P M M M"
_symmetry_group_IT_number 47
_symmetry_cell_setting 'orthorhombic'
loop_
_space_group_symop_operation_xyz
x,y,z
-x,-y,z
x,-y,-z
-x,y,-z
-x,-y,-z
x,y,-z
-x,y,z
x,-y,z
loop_
_atom_site_type_symbol
_atom_site_label
_atom_site_fract_x
_atom_site_fract_y
_atom_site_fract_z
Si Si1 0.661237 0.200805 0.740313
Si Si2 0.663035 0.793343 0.500000
Si Si3 0.670316 0.301773 0.896351
Si Si4 0.661626 0.300095 0.347994
Si Si5 0.840033 0.798958 0.576188
Si Si6 0.839386 0.297829 0.182864
Si Si7 0.672137 0.000000 0.954607
O O1 0.500000 0.266437 0.746470
O O2 0.710067 0.260961 0.696874
O O3 0.760754 0.251151 0.776536
O O4 0.655027 0.000000 0.739107
O O5 0.500000 0.738768 0.500000
O O6 0.745479 0.735678 0.539451
O O7 0.661994 0.000000 0.500000
O O8 0.500000 0.290972 0.890835
O O9 0.702636 0.500000 0.904932
O O10 0.748299 0.248360 0.855738
O O11 0.711986 0.169479 0.930635
O O12 0.500000 0.232527 0.352089
O O13 0.655992 0.500000 0.352564
O O14 0.762611 0.231859 0.382146
O O15 0.000000 0.730452 0.575725
O O16 0.849542 0.000000 0.570847
O O17 0.846076 0.500000 0.181553
O O18 0.000000 0.231397 0.181490
O O19 0.500000 0.000000 0.955826
O O20 0.723843 0.000000 0.000000
#
# Coordination Sequence:
#
# PCOD9385999 Si02
#       7
#     8   4   8   8   8   8   4
#     4  10  21  36  56  81 107 138 178 223 269 320
#     4   9  17  31  54  81 106 135 172 216 264 313
#     4   9  18  33  54  79 109 146 185 228 280 335
#     4  10  21  37  56  77 103 138 178 218 262 314
#     4  10  20  34  54  80 109 139 172 213 262 317
#     4  10  21  36  54  78 109 144 181 224 273 324
#     4   9  18  32  53  83 113 141 183 237 285 334
#
# _framework density 19.069500999999999
#
# number of rings (size 3 to 8) (size 9 to 14) (size 15 to 20)
#    0.000    2.333    0.000    2.250    1.167    6.000 
#    0.000    2.083    0.000    3.500    0.000    2.333 
#    0.000    0.000    0.000    0.000    0.000    0.000 
#
# Total GULP energy -267872.462675 kJ/mol
# GULP energy per Si atom -5580.676306 kJ/mol
# Density = 1.902610 g / cm^3
# Si number density = 19.069501 Si / 1000 Ang^3
#
#
#
# Elastic Constant Matrix: (Units=GPa)
#
#
# Indices 1 2 3 4 5 6 
#
# 1 102.6719 30.6256 97.1563 0.0000 0.0000 0.0000
# 2 30.6256 39.8310 36.3910 0.0000 0.0000 0.0000
# 3 97.1563 36.3910 181.1805 0.0000 0.0000 0.0000
# 4 0.0000 0.0000 0.0000 69.2675 0.0000 0.0000
# 5 0.0000 0.0000 0.0000 0.0000 0.4935 0.0000
# 6 0.0000 0.0000 0.0000 0.0000 0.0000 15.2107
#
#
#
# Elastic Compliance Matrix: (Units=1/GPa)
#
#
# Indices 1 2 3 4 5 6 
#
# 1 0.021378 -0.007304 -0.009997 0.000000 0.000000 0.000000
# 2 -0.007304 0.033244 -0.002761 0.000000 0.000000 0.000000
# 3 -0.009997 -0.002761 0.011435 0.000000 0.000000 0.000000
# 4 0.000000 0.000000 0.000000 0.014437 0.000000 0.000000
# 5 0.000000 0.000000 0.000000 0.000000 2.026274 0.000000
# 6 0.000000 0.000000 0.000000 0.000000 0.000000 0.065743
#
#
# Mechanical properties :
#
#
# Convention : Reuss Voigt Hill
#
# Bulk Modulus (GPa) = 38.55918 72.44768 55.50343
# Shear Modulus (GPa) = 2.25096 27.62839 14.93967
#
# Velocity S-wave (km/s) = 1.08764 3.81047 2.80202
# Velocity P-wave (km/s) = 4.67349 7.57849 6.29583
#
# Compressibility (1/GPa) = 0.02593416
#
# Stress axis : x y z
#
# Youngs Moduli (GPa) = 46.77656 30.08047 87.45445
#
# Poissons Ratio (x) = 0.21971 0.87427
# Poissons Ratio (y) = 0.34166 0.24142
# Poissons Ratio (z) = 0.46762 0.08304
#
# Static dielectric constant tensor:
#      x y z
#    x 1.666190 0.000000 0.000000 
#    y 0.000000 1.686620 0.000000 
#    z 0.000000 0.000000 1.635420 
# 
# From -- ./inp_files/34129.got.cif
#   From: 2010.05.17/outbox.cif.g08.bks.cpg/sg47_18_cif.got.tgz:34129.got - 2010.06.03 20:15:42.
