data_PCOD9385916
_publ_section_title
;
Structure prediction by ZEFSAII (Michael W. Deem and Ramdas Pophale) SiO2 
 PCOD9385916
Probable space group: P M M M
;
_chemical_formula_sum "Si O2"
_cell_formula_units_Z 64
_cell_length_a 7.742711
_cell_length_b 15.233090
_cell_length_c 26.031898
_cell_angle_alpha 90.000000
_cell_angle_beta 90.000000
_cell_angle_gamma 90.000000
_cell_volume 3070.342974
_symmetry_space_group_name_H-M "P M M M"
_symmetry_group_IT_number 47
_symmetry_cell_setting 'orthorhombic'
loop_
_space_group_symop_operation_xyz
x,y,z
-x,-y,z
x,-y,-z
-x,y,-z
-x,-y,-z
x,y,-z
-x,y,z
x,-y,z
loop_
_atom_site_type_symbol
_atom_site_label
_atom_site_fract_x
_atom_site_fract_y
_atom_site_fract_z
Si Si1 0.203554 0.404552 0.576865
Si Si2 0.296689 0.098930 0.343532
Si Si3 0.212185 0.248833 0.864775
Si Si4 0.199841 0.775179 0.749934
Si Si5 0.210533 0.099642 0.057522
Si Si6 0.789350 0.398781 0.058042
Si Si7 0.292197 0.403848 0.303665
Si Si8 0.792557 0.789422 0.444619
O O1 0.275986 0.500000 0.560408
O O2 0.223231 0.401720 0.638345
O O3 0.275587 0.310976 0.558898
O O4 0.000000 0.405756 0.563690
O O5 0.500000 0.089802 0.347629
O O6 0.265247 0.155002 0.291851
O O7 0.245176 0.154188 0.394063
O O8 0.220219 0.000000 0.342062
O O9 0.276430 0.232734 0.807061
O O10 0.266062 0.167547 0.899970
O O11 0.267957 0.335664 0.895912
O O12 0.000000 0.252231 0.863057
O O13 0.218714 0.678554 0.726023
O O14 0.000000 0.797542 0.756387
O O15 0.000000 0.100002 0.057532
O O16 0.265792 0.000000 0.067340
O O17 0.264610 0.125021 0.000000
O O18 0.736775 0.500000 0.065160
O O19 0.000000 0.396938 0.057986
O O20 0.737015 0.370740 0.000000
O O21 0.500000 0.396361 0.305552
O O22 0.248148 0.500000 0.281602
O O23 0.735916 0.827168 0.500000
O O24 0.000000 0.782814 0.445595
#
# Coordination Sequence:
#
# PCOD9385916 Si02
#       8
#     8   8   8   8   8   8   8   8
#     4   9  17  31  54  84 117 150 180 210 251 308
#     4  11  25  44  63  80 103 142 190 235 281 334
#     4   9  17  26  39  64  98 133 170 212 260 319
#     4  11  22  35  54  81 111 144 181 225 280 334
#     4   8  13  22  37  57  85 124 165 203 250 313
#     4   8  13  22  37  58  90 136 182 217 254 307
#     4  10  20  34  54  78 106 143 184 223 262 310
#     4  10  21  37  60  91 122 149 179 220 272 328
#
# _framework density 20.844577000000001
#
# number of rings (size 3 to 8) (size 9 to 14) (size 15 to 20)
#    0.000    2.500    1.250    2.250    0.000    5.000 
#    0.000    5.000    0.000    0.000    0.000    2.625 
#    0.000    8.000    0.000   22.000    0.000   18.000 
#
# Total GULP energy -356922.586637 kJ/mol
# GULP energy per Si atom -5576.915416 kJ/mol
# Density = 2.079713 g / cm^3
# Si number density = 20.844577 Si / 1000 Ang^3
#
#
#
# Elastic Constant Matrix: (Units=GPa)
#
#
# Indices 1 2 3 4 5 6 
#
# 1 33.5078 4.7197 5.7740 0.0000 0.0000 0.0000
# 2 4.7197 151.0887 111.5099 0.0000 0.0000 0.0000
# 3 5.7740 111.5099 191.4441 0.0000 0.0000 0.0000
# 4 0.0000 0.0000 0.0000 -9.6259 0.0000 0.0000
# 5 0.0000 0.0000 0.0000 0.0000 -136.5707 0.0000
# 6 0.0000 0.0000 0.0000 0.0000 0.0000 14.5191
#
#
#
# Elastic Compliance Matrix: (Units=1/GPa)
#
#
# Indices 1 2 3 4 5 6 
#
# 1 0.030019 -0.000473 -0.000630 0.000000 0.000000 0.000000
# 2 -0.000473 0.011617 -0.006752 0.000000 0.000000 0.000000
# 3 -0.000630 -0.006752 0.009175 0.000000 0.000000 0.000000
# 4 0.000000 0.000000 0.000000 -0.103887 0.000000 0.000000
# 5 0.000000 0.000000 0.000000 0.000000 -0.007322 0.000000
# 6 0.000000 0.000000 0.000000 0.000000 0.000000 0.068875
#
#
# Mechanical properties :
#
#
# Convention : Reuss Voigt Hill
#
# Bulk Modulus (GPa) = 28.48899 68.89418 48.69158
# Shear Modulus (GPa) = 139.32661 -9.39969 64.96346
#
# Velocity S-wave (km/s) = 8.18449 -2.12584 5.58868
# Velocity P-wave (km/s) = 10.14945 5.20553 8.06563
#
# Compressibility (1/GPa) = 0.03510129
#
# Stress axis : x y z
#
# Youngs Moduli (GPa) = 33.31229 86.08259 108.98772
#
# Poissons Ratio (x) = 0.04070 0.06866
# Poissons Ratio (y) = 0.01575 0.73590
# Poissons Ratio (z) = 0.02099 0.58124
#
# Static dielectric constant tensor:
#      x y z
#    x 1.771730 0.000000 0.000000 
#    y 0.000000 1.762930 0.000000 
#    z 0.000000 0.000000 1.753910 
# 
# From -- ./inp_files/32131.got.cif
#   From: 2010.05.17/outbox.cif.g08.bks.cpg/sg47_17_cif.got.tgz:32131.got - 2010.06.03 20:15:42.
