data_PCOD9385922
_publ_section_title
;
Structure prediction by ZEFSAII (Michael W. Deem and Ramdas Pophale) SiO2 
 PCOD9385922
Probable space group: P M M M
;
_chemical_formula_sum "Si O2"
_cell_formula_units_Z 40
_cell_length_a 13.287993
_cell_length_b 8.728167
_cell_length_c 20.142607
_cell_angle_alpha 90.000000
_cell_angle_beta 90.000000
_cell_angle_gamma 90.000000
_cell_volume 2336.135974
_symmetry_space_group_name_H-M "P M M M"
_symmetry_group_IT_number 47
_symmetry_cell_setting 'orthorhombic'
loop_
_space_group_symop_operation_xyz
x,y,z
-x,-y,z
x,-y,-z
-x,y,-z
-x,-y,-z
x,y,-z
-x,y,z
x,-y,z
loop_
_atom_site_type_symbol
_atom_site_label
_atom_site_fract_x
_atom_site_fract_y
_atom_site_fract_z
Si Si1 0.280354 0.687714 0.423475
Si Si2 0.115665 0.816555 0.829011
Si Si3 0.884500 0.315263 0.316720
Si Si4 0.500000 0.177616 0.080556
Si Si5 0.500000 0.676093 0.580667
Si Si6 0.287435 0.683219 0.077567
O O1 0.262214 0.733532 0.500000
O O2 0.283917 0.500000 0.423662
O O3 0.193549 0.734659 0.373081
O O4 0.391499 0.743603 0.401387
O O5 0.137296 0.757479 0.754722
O O6 0.196421 0.748891 0.879560
O O7 0.000000 0.770272 0.844910
O O8 0.120562 0.000000 0.830391
O O9 0.877855 0.500000 0.310587
O O10 0.000000 0.277351 0.334548
O O11 0.603937 0.256280 0.101961
O O12 0.500000 0.000000 0.099588
O O13 0.500000 0.187110 0.000000
O O14 0.500000 0.500000 0.604684
O O15 0.500000 0.671018 0.500000
O O16 0.287408 0.500000 0.080832
O O17 0.276161 0.728732 0.000000
#
# Coordination Sequence:
#
# PCOD9385922 Si02
#       6
#     8   8   8   4   4   8
#     4   8  13  22  39  64  91 118 150 189 234 285
#     4  10  21  36  52  69  94 131 170 206 248 301
#     4   9  17  29  45  65  91 122 154 193 242 291
#     4   9  17  31  52  77 106 137 165 195 236 287
#     4   7  10  18  33  56  88 119 143 175 224 277
#     4  10  20  34  54  79 104 129 161 203 248 293
#
# _framework density 17.12229
#
# number of rings (size 3 to 8) (size 9 to 14) (size 15 to 20)
#    0.000    3.000    0.000    2.700    0.000    4.400 
#    0.000    5.000    0.000    3.000    0.000    2.800 
#    0.000    2.400    0.000    0.000    0.000    0.000 
#
# Total GULP energy -222804.747496 kJ/mol
# GULP energy per Si atom -5570.118687 kJ/mol
# Density = 1.708332 g / cm^3
# Si number density = 17.122290 Si / 1000 Ang^3
#
#
#
# Elastic Constant Matrix: (Units=GPa)
#
#
# Indices 1 2 3 4 5 6 
#
# 1 182.3707 43.8289 107.0134 0.0000 0.0000 0.0000
# 2 43.8289 23.4846 29.6168 0.0000 0.0000 0.0000
# 3 107.0134 29.6168 85.5309 0.0000 0.0000 0.0000
# 4 0.0000 0.0000 0.0000 5.2779 0.0000 0.0000
# 5 0.0000 0.0000 0.0000 0.0000 -20.4954 0.0000
# 6 0.0000 0.0000 0.0000 0.0000 0.0000 20.8534
#
#
#
# Elastic Compliance Matrix: (Units=1/GPa)
#
#
# Indices 1 2 3 4 5 6 
#
# 1 0.022217 -0.011375 -0.023858 0.000000 0.000000 0.000000
# 2 -0.011375 0.081414 -0.013959 0.000000 0.000000 0.000000
# 3 -0.023858 -0.013959 0.046376 0.000000 0.000000 0.000000
# 4 0.000000 0.000000 0.000000 0.189470 0.000000 0.000000
# 5 0.000000 0.000000 0.000000 0.000000 -0.048791 0.000000
# 6 0.000000 0.000000 0.000000 0.000000 0.000000 0.047954
#
#
# Mechanical properties :
#
#
# Convention : Reuss Voigt Hill
#
# Bulk Modulus (GPa) = 19.37153 72.47827 45.92490
# Shear Modulus (GPa) = 11.00760 8.52231 9.76496
#
# Velocity S-wave (km/s) = 2.53826 2.23341 2.39070
# Velocity P-wave (km/s) = 4.46414 7.00518 5.87372
#
# Compressibility (1/GPa) = 0.05162216
#
# Stress axis : x y z
#
# Youngs Moduli (GPa) = 45.01113 12.28283 21.56301
#
# Poissons Ratio (x) = 0.13972 0.51445
# Poissons Ratio (y) = 0.51200 0.30101
# Poissons Ratio (z) = 1.07388 0.17146
#
# Static dielectric constant tensor:
#      x y z
#    x 1.597360 0.000000 0.000000 
#    y 0.000000 1.570250 0.000000 
#    z 0.000000 0.000000 1.550540 
# 
# From -- ./inp_files/10743.got.cif
#   From: 2010.05.17/outbox.cif.g08.bks.cpg/sg47_6_cif.got.tgz:10743.got - 2010.06.03 20:15:42.
