data_PCOD9385002
_publ_section_title
;
Structure prediction by ZEFSAII (Michael W. Deem and Ramdas Pophale) SiO2 
 PCOD9385002
Probable space group: P M M M
;
_chemical_formula_sum "Si O2"
_cell_formula_units_Z 52
_cell_length_a 24.044817
_cell_length_b 9.589112
_cell_length_c 14.079568
_cell_angle_alpha 90.000000
_cell_angle_beta 90.000000
_cell_angle_gamma 90.000000
_cell_volume 3246.304075
_symmetry_space_group_name_H-M "P M M M"
_symmetry_group_IT_number 47
_symmetry_cell_setting 'orthorhombic'
loop_
_space_group_symop_operation_xyz
x,y,z
-x,-y,z
x,-y,-z
-x,y,-z
-x,-y,-z
x,y,-z
-x,y,z
x,-y,z
loop_
_atom_site_type_symbol
_atom_site_label
_atom_site_fract_x
_atom_site_fract_y
_atom_site_fract_z
Si Si1 0.061807 0.662422 0.115300
Si Si2 0.830981 0.833686 0.888293
Si Si3 0.607851 0.836302 0.887184
Si Si4 0.500000 0.660925 0.116176
Si Si5 0.562467 0.158588 0.615234
Si Si6 0.330459 0.335936 0.613032
Si Si7 0.720656 0.834146 0.770865
O O1 0.068900 0.500000 0.141057
O O2 0.114008 0.754001 0.146273
O O3 0.000000 0.708325 0.146941
O O4 0.061366 0.668788 0.000000
O O5 0.775886 0.798285 0.829498
O O6 0.839626 0.000000 0.881768
O O7 0.822110 0.800650 0.000000
O O8 0.555913 0.742661 0.855205
O O9 0.665520 0.807091 0.833954
O O10 0.594017 0.000000 0.874210
O O11 0.616062 0.814244 0.000000
O O12 0.500000 0.500000 0.147283
O O13 0.500000 0.662079 0.000000
O O14 0.560948 0.155216 0.500000
O O15 0.500000 0.193732 0.646950
O O16 0.610353 0.266295 0.639765
O O17 0.575979 0.000000 0.646536
O O18 0.322500 0.316229 0.500000
O O19 0.330635 0.500000 0.632924
O O20 0.285701 0.254449 0.675543
O O21 0.721562 0.000000 0.750668
#
# Coordination Sequence:
#
# PCOD9385002 Si02
#       7
#     8   8   8   4   8   8   8
#     4   8  14  25  41  63  94 132 168 194 218 256
#     4   9  17  29  46  70  99 127 157 195 232 264
#     4   9  17  31  50  68  87 114 148 184 223 270
#     4   9  17  29  45  65  88 113 144 185 229 268
#     4   8  14  27  48  69  85 104 133 171 219 277
#     4  10  21  35  49  66  89 116 147 187 234 280
#     4  10  20  33  49  69  91 119 154 190 229 276
#
# _framework density 16.018215999999999
#
# number of rings (size 3 to 8) (size 9 to 14) (size 15 to 20)
#    0.000    3.000    0.000    2.077    0.000    5.538 
#    1.385    3.077    0.000    4.615    0.000    0.000 
#    0.000    0.615    0.000    6.769    0.000    5.231 
#
# Total GULP energy -289938.533704 kJ/mol
# GULP energy per Si atom -5575.741033 kJ/mol
# Density = 1.598176 g / cm^3
# Si number density = 16.018216 Si / 1000 Ang^3
#
#
#
# Elastic Constant Matrix: (Units=GPa)
#
#
# Indices 1 2 3 4 5 6 
#
# 1 146.3636 81.6381 45.6564 0.0000 0.0000 0.0000
# 2 81.6381 69.7460 38.2241 0.0000 0.0000 0.0000
# 3 45.6564 38.2241 57.6890 0.0000 0.0000 0.0000
# 4 0.0000 0.0000 0.0000 15.5818 0.0000 0.0000
# 5 0.0000 0.0000 0.0000 0.0000 12.6399 0.0000
# 6 0.0000 0.0000 0.0000 0.0000 0.0000 -49.4369
#
#
#
# Elastic Compliance Matrix: (Units=1/GPa)
#
#
# Indices 1 2 3 4 5 6 
#
# 1 0.019692 -0.022780 -0.000490 0.000000 0.000000 0.000000
# 2 -0.022780 0.048867 -0.014349 0.000000 0.000000 0.000000
# 3 -0.000490 -0.014349 0.027230 0.000000 0.000000 0.000000
# 4 0.000000 0.000000 0.000000 0.064177 0.000000 0.000000
# 5 0.000000 0.000000 0.000000 0.000000 0.079114 0.000000
# 6 0.000000 0.000000 0.000000 0.000000 0.000000 -0.020228
#
#
# Mechanical properties :
#
#
# Convention : Reuss Voigt Hill
#
# Bulk Modulus (GPa) = 48.66687 67.20399 57.93543
# Shear Modulus (GPa) = 16.61449 2.97564 9.79506
#
# Velocity S-wave (km/s) = 3.22409 1.36444 2.47553
# Velocity P-wave (km/s) = 6.65641 6.67294 6.66468
#
# Compressibility (1/GPa) = 0.02054786
#
# Stress axis : x y z
#
# Youngs Moduli (GPa) = 50.78291 20.46389 36.72397
#
# Poissons Ratio (x) = 0.46618 0.01801
# Poissons Ratio (y) = 1.15686 0.52697
# Poissons Ratio (z) = 0.02490 0.29365
#
# Static dielectric constant tensor:
#      x y z
#    x 1.523570 0.000000 0.000000 
#    y 0.000000 1.533280 0.000000 
#    z 0.000000 0.000000 1.554940 
# 
# From -- ./inp_files/6957.got.cif
#   From: 2010.05.17/outbox.cif.g08.bks.cpg/sg47_4_cif.got.tgz:6957.got - 2010.06.03 20:15:42.
