data_PCOD9385798
_publ_section_title
;
Structure prediction by ZEFSAII (Michael W. Deem and Ramdas Pophale) SiO2 
 PCOD9385798
Probable space group: P M M M
;
_chemical_formula_sum "Si O2"
_cell_formula_units_Z 48
_cell_length_a 15.019434
_cell_length_b 21.207405
_cell_length_c 8.180603
_cell_angle_alpha 90.000000
_cell_angle_beta 90.000000
_cell_angle_gamma 90.000000
_cell_volume 2605.712007
_symmetry_space_group_name_H-M "P M M M"
_symmetry_group_IT_number 47
_symmetry_cell_setting 'orthorhombic'
loop_
_space_group_symop_operation_xyz
x,y,z
-x,-y,z
x,-y,-z
-x,y,-z
-x,-y,-z
x,y,-z
-x,y,z
x,-y,z
loop_
_atom_site_type_symbol
_atom_site_label
_atom_site_fract_x
_atom_site_fract_y
_atom_site_fract_z
Si Si1 0.398134 0.308214 0.804703
Si Si2 0.098006 0.762015 0.300798
Si Si3 0.289713 0.430551 0.698051
Si Si4 0.398896 0.071181 0.196818
Si Si5 0.901970 0.386083 0.301210
Si Si6 0.716355 0.188212 0.305525
O O1 0.500000 0.307386 0.743888
O O2 0.349319 0.372958 0.757888
O O3 0.343028 0.248796 0.739255
O O4 0.399891 0.303106 0.000000
O O5 0.098142 0.764178 0.500000
O O6 0.107369 0.687959 0.258613
O O7 0.183682 0.799805 0.240399
O O8 0.000000 0.783495 0.245856
O O9 0.289606 0.428334 0.500000
O O10 0.321254 0.500000 0.748986
O O11 0.187203 0.420836 0.753454
O O12 0.500000 0.086076 0.253054
O O13 0.330733 0.124807 0.247249
O O14 0.376877 0.000000 0.252893
O O15 0.401198 0.070012 0.000000
O O16 0.903054 0.389916 0.500000
O O17 0.000000 0.408036 0.245057
O O18 0.722187 0.185426 0.500000
#
# Coordination Sequence:
#
# PCOD9385798 Si02
#       6
#     8   8   8   8   8   8
#     4  11  24  39  53  70  97 136 177 212 253 312
#     4   8  14  26  47  75 105 134 163 201 252 306
#     4  10  20  34  53  77 102 128 165 216 267 307
#     4   9  19  36  55  76 108 148 180 205 245 305
#     4   8  13  25  47  74 103 131 160 199 251 310
#     4  11  20  32  56  85 108 131 167 217 261 294
#
# _framework density 18.421068000000002
#
# number of rings (size 3 to 8) (size 9 to 14) (size 15 to 20)
#    0.000    2.500    1.667    3.000    0.000    5.000 
#    0.000    4.167    0.000    4.000    0.000    4.667 
#    0.000    0.000    0.000    0.000    0.000    0.000 
#
# Total GULP energy -267712.547358 kJ/mol
# GULP energy per Si atom -5577.344737 kJ/mol
# Density = 1.837914 g / cm^3
# Si number density = 18.421068 Si / 1000 Ang^3
#
#
#
# Elastic Constant Matrix: (Units=GPa)
#
#
# Indices 1 2 3 4 5 6 
#
# 1 134.3828 70.4151 6.1983 0.0000 0.0000 0.0000
# 2 70.4151 111.0770 8.1115 0.0000 0.0000 0.0000
# 3 6.1983 8.1115 11.7794 0.0000 0.0000 0.0000
# 4 0.0000 0.0000 0.0000 29.6533 0.0000 0.0000
# 5 0.0000 0.0000 0.0000 0.0000 54.2770 0.0000
# 6 0.0000 0.0000 0.0000 0.0000 0.0000 8.4594
#
#
#
# Elastic Compliance Matrix: (Units=1/GPa)
#
#
# Indices 1 2 3 4 5 6 
#
# 1 0.011155 -0.006995 -0.001053 0.000000 0.000000 0.000000
# 2 -0.006995 0.013865 -0.005867 0.000000 0.000000 0.000000
# 3 -0.001053 -0.005867 0.089488 0.000000 0.000000 0.000000
# 4 0.000000 0.000000 0.000000 0.033723 0.000000 0.000000
# 5 0.000000 0.000000 0.000000 0.000000 0.018424 0.000000
# 6 0.000000 0.000000 0.000000 0.000000 0.000000 0.118212
#
#
# Mechanical properties :
#
#
# Convention : Reuss Voigt Hill
#
# Bulk Modulus (GPa) = 11.53690 47.40989 29.47339
# Shear Modulus (GPa) = 14.63739 29.97889 22.30814
#
# Velocity S-wave (km/s) = 2.82192 4.03851 3.48374
# Velocity P-wave (km/s) = 4.11025 6.89483 5.67595
#
# Compressibility (1/GPa) = 0.08667842
#
# Stress axis : x y z
#
# Youngs Moduli (GPa) = 89.64484 72.12217 11.17466
#
# Poissons Ratio (x) = 0.50447 0.01177
# Poissons Ratio (y) = 0.62704 0.06557
# Poissons Ratio (z) = 0.09441 0.42316
#
# Static dielectric constant tensor:
#      x y z
#    x 1.662190 0.000000 0.000000 
#    y 0.000000 1.615760 0.000000 
#    z 0.000000 0.000000 1.656700 
# 
# From -- ./inp_files/6353.got.cif
#   From: 2010.05.17/outbox.cif.g08.bks.cpg/sg47_4_cif.got.tgz:6353.got - 2010.06.03 20:15:42.
