data_PCOD9385391
_publ_section_title
;
Structure prediction by ZEFSAII (Michael W. Deem and Ramdas Pophale) SiO2 
 PCOD9385391
Probable space group: P M M M
;
_chemical_formula_sum "Si O2"
_cell_formula_units_Z 36
_cell_length_a 19.029648
_cell_length_b 11.383245
_cell_length_c 7.543463
_cell_angle_alpha 90.000000
_cell_angle_beta 90.000000
_cell_angle_gamma 90.000000
_cell_volume 1634.058509
_symmetry_space_group_name_H-M "P M M M"
_symmetry_group_IT_number 47
_symmetry_cell_setting 'orthorhombic'
loop_
_space_group_symop_operation_xyz
x,y,z
-x,-y,z
x,-y,-z
-x,y,-z
-x,-y,-z
x,y,-z
-x,y,z
x,-y,z
loop_
_atom_site_type_symbol
_atom_site_label
_atom_site_fract_x
_atom_site_fract_y
_atom_site_fract_z
Si Si1 0.576069 0.637228 0.212684
Si Si2 0.082980 0.630462 0.784718
Si Si3 0.843621 0.866839 0.796055
Si Si4 0.421511 0.000000 0.716788
Si Si5 0.312256 0.189880 0.295534
O O1 0.500000 0.688931 0.276391
O O2 0.573408 0.500000 0.253100
O O3 0.649471 0.685904 0.284277
O O4 0.577378 0.650647 0.000000
O O5 0.108297 0.500000 0.724472
O O6 0.119381 0.750249 0.717308
O O7 0.000000 0.636720 0.746152
O O8 0.090892 0.630023 0.000000
O O9 0.760905 0.835775 0.796360
O O10 0.853208 0.000000 0.721036
O O11 0.868110 0.873933 0.000000
O O12 0.375327 0.109519 0.774571
O O13 0.500000 0.000000 0.783752
O O14 0.424468 0.000000 0.500000
O O15 0.299151 0.159214 0.500000
#
# Coordination Sequence:
#
# PCOD9385391 Si02
#       5
#     8   8   8   4   8
#     4   9  19  36  55  75 102 135 172 219 274 327
#     4   8  15  30  53  80 107 136 174 220 270 323
#     4  10  20  33  51  77 110 143 177 220 270 326
#     4   9  18  32  49  69  94 129 172 218 265 305
#     4  11  21  34  52  74 104 140 178 220 264 318
#
# _framework density 22.031034999999999
#
# number of rings (size 3 to 8) (size 9 to 14) (size 15 to 20)
#    0.000    2.556    1.111    2.667    0.000    3.111 
#    0.000    5.556    0.000    3.333    0.000    3.111 
#    0.000    0.000    0.000    0.000    0.000    0.000 
#
# Total GULP energy -200589.781729 kJ/mol
# GULP energy per Si atom -5571.938381 kJ/mol
# Density = 2.198089 g / cm^3
# Si number density = 22.031035 Si / 1000 Ang^3
#
#
#
# Elastic Constant Matrix: (Units=GPa)
#
#
# Indices 1 2 3 4 5 6 
#
# 1 82.6671 77.9086 -1.3273 0.0000 0.0000 0.0000
# 2 77.9086 177.8439 8.9347 0.0000 0.0000 0.0000
# 3 -1.3273 8.9347 50.2669 0.0000 0.0000 0.0000
# 4 0.0000 0.0000 0.0000 1.7103 0.0000 0.0000
# 5 0.0000 0.0000 0.0000 0.0000 -49.6218 0.0000
# 6 0.0000 0.0000 0.0000 0.0000 0.0000 -286.4565
#
#
#
# Elastic Compliance Matrix: (Units=1/GPa)
#
#
# Indices 1 2 3 4 5 6 
#
# 1 0.020839 -0.009239 0.002193 0.000000 0.000000 0.000000
# 2 -0.009239 0.009770 -0.001981 0.000000 0.000000 0.000000
# 3 0.002193 -0.001981 0.020304 0.000000 0.000000 0.000000
# 4 0.000000 0.000000 0.000000 0.584686 0.000000 0.000000
# 5 0.000000 0.000000 0.000000 0.000000 -0.020152 0.000000
# 6 0.000000 0.000000 0.000000 0.000000 0.000000 -0.003491
#
#
# Mechanical properties :
#
#
# Convention : Reuss Voigt Hill
#
# Bulk Modulus (GPa) = 30.43365 53.53443 41.98404
# Shear Modulus (GPa) = 7.80076 -51.85613 -22.02769
#
# Velocity S-wave (km/s) = 1.88374 -4.85684 -3.16547
# Velocity P-wave (km/s) = 4.30991 2.66449 2.39539
#
# Compressibility (1/GPa) = 0.03285836
#
# Stress axis : x y z
#
# Youngs Moduli (GPa) = 47.98606 102.35525 49.25205
#
# Poissons Ratio (x) = 0.94569 -0.10799
# Poissons Ratio (y) = 0.44336 0.09754
# Poissons Ratio (z) = -0.10521 0.20272
#
# Static dielectric constant tensor:
#      x y z
#    x 1.771840 0.000000 0.000000 
#    y 0.000000 2.052930 0.000000 
#    z 0.000000 0.000000 1.859580 
# 
# From -- ./inp_files/8659.got.cif
#   From: 2010.05.17/outbox.cif.g08.bks.cpg/sg47_5_cif.got.tgz:8659.got - 2010.06.03 20:15:42.
