data_PCOD9385047
_publ_section_title
;
Structure prediction by ZEFSAII (Michael W. Deem and Ramdas Pophale) SiO2 
 PCOD9385047
Probable space group: P M M M
;
_chemical_formula_sum "Si O2"
_cell_formula_units_Z 52
_cell_length_a 15.755656
_cell_length_b 23.650814
_cell_length_c 7.879796
_cell_angle_alpha 90.000000
_cell_angle_beta 90.000000
_cell_angle_gamma 90.000000
_cell_volume 2936.280608
_symmetry_space_group_name_H-M "P M M M"
_symmetry_group_IT_number 47
_symmetry_cell_setting 'orthorhombic'
loop_
_space_group_symop_operation_xyz
x,y,z
-x,-y,z
x,-y,-z
-x,y,-z
-x,-y,-z
x,y,-z
-x,y,z
x,-y,z
loop_
_atom_site_type_symbol
_atom_site_label
_atom_site_fract_x
_atom_site_fract_y
_atom_site_fract_z
Si Si1 0.000000 0.064887 0.202211
Si Si2 0.099314 0.568831 0.000000
Si Si3 0.500000 0.065205 0.203726
Si Si4 0.664260 0.138007 0.298466
Si Si5 0.404140 0.618999 0.303047
Si Si6 0.404084 0.744816 0.198588
Si Si7 0.773379 0.568050 0.300809
Si Si8 0.818306 0.064549 0.702728
O O1 0.911220 0.089305 0.262306
O O2 0.000000 0.000000 0.269194
O O3 0.000000 0.063408 0.000000
O O4 0.152937 0.586174 0.831508
O O5 0.098273 0.500000 0.000000
O O6 0.000000 0.586989 0.000000
O O7 0.582299 0.099639 0.261720
O O8 0.500000 0.000000 0.264706
O O9 0.500000 0.064364 0.000000
O O10 0.672692 0.143534 0.500000
O O11 0.653490 0.201046 0.229304
O O12 0.744755 0.104151 0.228079
O O13 0.409074 0.601865 0.500000
O O14 0.500000 0.609458 0.229902
O O15 0.387087 0.686243 0.292548
O O16 0.319506 0.588617 0.236667
O O17 0.500000 0.762864 0.246371
O O18 0.403079 0.730898 0.000000
O O19 0.785362 0.586247 0.500000
O O20 0.772964 0.500000 0.301968
O O21 0.807492 0.060687 0.500000
O O22 0.813502 0.000000 0.770876
#
# Coordination Sequence:
#
# PCOD9385047 Si02
#       8
#     4   4   4   8   8   8   8   8
#     4   9  17  29  47  71  95 119 147 185 234 287
#     4   9  18  32  51  77 109 145 184 224 265 316
#     4  11  23  35  47  67  99 133 160 197 250 299
#     4  11  21  33  51  71  94 126 165 204 242 293
#     4   9  18  32  51  75 104 139 178 215 255 307
#     4  10  20  33  49  70  98 131 170 211 250 292
#     4   9  18  32  51  79 113 145 179 221 267 317
#     4   9  18  32  49  70  94 120 152 190 236 291
#
# _framework density 17.709479999999999
#
# number of rings (size 3 to 8) (size 9 to 14) (size 15 to 20)
#    0.000    2.385    0.769    1.846    1.077    4.615 
#    0.000    4.615    0.000    1.385    2.000    0.000 
#    0.000    0.000    0.000    0.000    0.000    0.000 
#
# Total GULP energy -289691.044874 kJ/mol
# GULP energy per Si atom -5570.981632 kJ/mol
# Density = 1.766917 g / cm^3
# Si number density = 17.709480 Si / 1000 Ang^3
#
#
#
# Elastic Constant Matrix: (Units=GPa)
#
#
# Indices 1 2 3 4 5 6 
#
# 1 151.1585 29.1964 26.4428 0.0000 0.0000 0.0000
# 2 29.1964 20.8500 8.9843 0.0000 0.0000 0.0000
# 3 26.4428 8.9843 50.0859 0.0000 0.0000 0.0000
# 4 0.0000 0.0000 0.0000 14.8955 0.0000 0.0000
# 5 0.0000 0.0000 0.0000 0.0000 35.7914 0.0000
# 6 0.0000 0.0000 0.0000 0.0000 0.0000 23.6602
#
#
#
# Elastic Compliance Matrix: (Units=1/GPa)
#
#
# Indices 1 2 3 4 5 6 
#
# 1 0.009424 -0.011978 -0.002827 0.000000 0.000000 0.000000
# 2 -0.011978 0.067204 -0.005731 0.000000 0.000000 0.000000
# 3 -0.002827 -0.005731 0.022486 0.000000 0.000000 0.000000
# 4 0.000000 0.000000 0.000000 0.067135 0.000000 0.000000
# 5 0.000000 0.000000 0.000000 0.000000 0.027940 0.000000
# 6 0.000000 0.000000 0.000000 0.000000 0.000000 0.042265
#
#
# Mechanical properties :
#
#
# Convention : Reuss Voigt Hill
#
# Bulk Modulus (GPa) = 17.22883 39.03793 28.13338
# Shear Modulus (GPa) = 16.84230 25.36748 21.10489
#
# Velocity S-wave (km/s) = 3.08723 3.78884 3.45589
# Velocity P-wave (km/s) = 4.73895 6.42120 5.64312
#
# Compressibility (1/GPa) = 0.05804224
#
# Stress axis : x y z
#
# Youngs Moduli (GPa) = 106.11666 14.88009 44.47209
#
# Poissons Ratio (x) = 0.17823 0.12571
# Poissons Ratio (y) = 1.27106 0.25487
# Poissons Ratio (z) = 0.29995 0.08528
#
# Static dielectric constant tensor:
#      x y z
#    x 1.628250 0.000000 0.000000 
#    y 0.000000 1.586330 0.000000 
#    z 0.000000 0.000000 1.643610 
# 
# From -- ./inp_files/7153.got.cif
#   From: 2010.05.17/outbox.cif.g08.bks.cpg/sg47_4_cif.got.tgz:7153.got - 2010.06.03 20:15:42.
