data_PCOD9385025
_publ_section_title
;
Structure prediction by ZEFSAII (Michael W. Deem and Ramdas Pophale) SiO2 
 PCOD9385025
Probable space group: P M M M
;
_chemical_formula_sum "Si O2"
_cell_formula_units_Z 44
_cell_length_a 31.831157
_cell_length_b 9.368180
_cell_length_c 7.484991
_cell_angle_alpha 90.000000
_cell_angle_beta 90.000000
_cell_angle_gamma 90.000000
_cell_volume 2232.024379
_symmetry_space_group_name_H-M "P M M M"
_symmetry_group_IT_number 47
_symmetry_cell_setting 'orthorhombic'
loop_
_space_group_symop_operation_xyz
x,y,z
-x,-y,z
x,-y,-z
-x,y,-z
-x,-y,-z
x,y,-z
-x,y,z
x,-y,z
loop_
_atom_site_type_symbol
_atom_site_label
_atom_site_fract_x
_atom_site_fract_y
_atom_site_fract_z
Si Si1 0.045193 0.172536 0.213168
Si Si2 0.219916 0.339127 0.712969
Si Si3 0.452322 0.326678 0.000000
Si Si4 0.615392 0.670018 0.710932
Si Si5 0.136338 0.163642 0.784828
Si Si6 0.699517 0.836200 0.281814
O O1 0.090846 0.219782 0.281322
O O2 0.000000 0.223511 0.285585
O O3 0.045766 0.000000 0.233523
O O4 0.044409 0.200883 0.000000
O O5 0.225934 0.348748 0.500000
O O6 0.219556 0.500000 0.784787
O O7 0.175872 0.260344 0.741194
O O8 0.259014 0.246476 0.781522
O O9 0.424731 0.286591 0.827599
O O10 0.454509 0.500000 0.000000
O O11 0.500000 0.272737 0.000000
O O12 0.608461 0.694264 0.500000
O O13 0.622421 0.500000 0.735960
O O14 0.657047 0.754114 0.768422
O O15 0.142703 0.000000 0.721868
O O16 0.133358 0.157282 0.000000
O O17 0.700336 0.836684 0.500000
O O18 0.699509 0.000000 0.223108
#
# Coordination Sequence:
#
# PCOD9385025 Si02
#       6
#     8   8   4   8   8   8
#     4   7  10  19  38  63  88 114 146 188 238 287
#     4  10  20  33  49  69  95 129 166 200 240 295
#     4   9  18  32  51  79 111 139 173 215 254 297
#     4   9  17  31  52  76 103 136 173 213 256 302
#     4   9  17  29  46  70  97 121 152 197 245 294
#     4   9  17  31  52  74  95 123 162 205 246 291
#
# _framework density 19.713048000000001
#
# number of rings (size 3 to 8) (size 9 to 14) (size 15 to 20)
#    0.000    3.182    0.000    2.727    0.000    4.000 
#    1.636    2.273    0.000    2.182    0.000    8.909 
#    0.000    0.000    0.000    0.000    0.000    0.000 
#
# Total GULP energy -245262.862355 kJ/mol
# GULP energy per Si atom -5574.155963 kJ/mol
# Density = 1.966818 g / cm^3
# Si number density = 19.713048 Si / 1000 Ang^3
#
#
#
# Elastic Constant Matrix: (Units=GPa)
#
#
# Indices 1 2 3 4 5 6 
#
# 1 246.9657 94.1709 39.2406 0.0000 0.0000 0.0000
# 2 94.1709 88.2863 24.5720 0.0000 0.0000 0.0000
# 3 39.2406 24.5720 60.9779 0.0000 0.0000 0.0000
# 4 0.0000 0.0000 0.0000 9.4666 0.0000 0.0000
# 5 0.0000 0.0000 0.0000 0.0000 25.3977 0.0000
# 6 0.0000 0.0000 0.0000 0.0000 0.0000 25.4354
#
#
#
# Elastic Compliance Matrix: (Units=1/GPa)
#
#
# Indices 1 2 3 4 5 6 
#
# 1 0.006974 -0.006972 -0.001679 0.000000 0.000000 0.000000
# 2 -0.006972 0.019727 -0.003463 0.000000 0.000000 0.000000
# 3 -0.001679 -0.003463 0.018875 0.000000 0.000000 0.000000
# 4 0.000000 0.000000 0.000000 0.105634 0.000000 0.000000
# 5 0.000000 0.000000 0.000000 0.000000 0.039374 0.000000
# 6 0.000000 0.000000 0.000000 0.000000 0.000000 0.039315
#
#
# Mechanical properties :
#
#
# Convention : Reuss Voigt Hill
#
# Bulk Modulus (GPa) = 46.83895 79.13298 62.98597
# Shear Modulus (GPa) = 19.13924 27.94305 23.54115
#
# Velocity S-wave (km/s) = 3.11929 3.76904 3.45946
# Velocity P-wave (km/s) = 6.06509 7.69224 6.92661
#
# Compressibility (1/GPa) = 0.02134975
#
# Stress axis : x y z
#
# Youngs Moduli (GPa) = 143.38161 50.69113 52.98006
#
# Poissons Ratio (x) = 0.35342 0.08894
# Poissons Ratio (y) = 0.99966 0.18346
# Poissons Ratio (z) = 0.24069 0.17553
#
# Static dielectric constant tensor:
#      x y z
#    x 1.697870 0.000000 0.000000 
#    y 0.000000 1.666630 0.000000 
#    z 0.000000 0.000000 1.787410 
# 
# From -- ./inp_files/13642.got.cif
#   From: 2010.05.17/outbox.cif.g08.bks.cpg/sg47_7_cif.got.tgz:13642.got - 2010.06.03 20:15:42.
