data_PCOD9385146
_publ_section_title
;
Structure prediction by ZEFSAII (Michael W. Deem and Ramdas Pophale) SiO2 
 PCOD9385146
Probable space group: P M M M
;
_chemical_formula_sum "Si O2"
_cell_formula_units_Z 48
_cell_length_a 9.133504
_cell_length_b 32.655298
_cell_length_c 9.037355
_cell_angle_alpha 90.000000
_cell_angle_beta 90.000000
_cell_angle_gamma 90.000000
_cell_volume 2695.457055
_symmetry_space_group_name_H-M "P M M M"
_symmetry_group_IT_number 47
_symmetry_cell_setting 'orthorhombic'
loop_
_space_group_symop_operation_xyz
x,y,z
-x,-y,z
x,-y,-z
-x,y,-z
-x,-y,-z
x,y,-z
-x,y,z
x,-y,z
loop_
_atom_site_type_symbol
_atom_site_label
_atom_site_fract_x
_atom_site_fract_y
_atom_site_fract_z
Si Si1 0.822120 0.545285 0.672765
Si Si2 0.677770 0.044095 0.824819
Si Si3 0.824245 0.628765 0.174385
Si Si4 0.672598 0.293771 0.676183
Si Si5 0.329510 0.866874 0.180535
Si Si6 0.828263 0.783763 0.178190
O O1 0.782447 0.550106 0.500000
O O2 0.772703 0.500000 0.722994
O O3 0.773922 0.584569 0.764880
O O4 0.000000 0.544857 0.679202
O O5 0.500000 0.044850 0.816167
O O6 0.725807 0.088465 0.766035
O O7 0.726704 0.000000 0.761586
O O8 0.713784 0.043396 0.000000
O O9 0.747035 0.665756 0.258096
O O10 0.000000 0.631717 0.197690
O O11 0.796785 0.631803 0.000000
O O12 0.692876 0.292946 0.500000
O O13 0.500000 0.294164 0.708762
O O14 0.744806 0.253729 0.747532
O O15 0.500000 0.861785 0.222789
O O16 0.237574 0.827495 0.226292
O O17 0.326334 0.868348 0.000000
O O18 0.000000 0.781587 0.211716
O O19 0.810886 0.780860 0.000000
#
# Coordination Sequence:
#
# PCOD9385146 Si02
#       6
#     8   8   8   8   8   8
#     4   8  14  26  46  73 105 140 174 205 238 277
#     4   7   9  14  27  50  80 114 153 193 229 268
#     4  10  20  33  52  79 107 134 165 201 243 290
#     4  11  24  39  54  72  94 123 161 203 247 295
#     4   8  13  22  38  60  87 121 158 195 236 279
#     4  10  20  33  50  72  97 125 158 196 240 292
#
# _framework density 17.807742000000001
#
# number of rings (size 3 to 8) (size 9 to 14) (size 15 to 20)
#    0.000    3.000    0.000    4.000    0.000    5.667 
#    0.000    1.667    0.000    1.000    0.000    7.000 
#    0.000    0.667    0.000    7.667    0.000    8.833 
#
# Total GULP energy -267347.779852 kJ/mol
# GULP energy per Si atom -5569.745414 kJ/mol
# Density = 1.776721 g / cm^3
# Si number density = 17.807742 Si / 1000 Ang^3
#
#
#
# Elastic Constant Matrix: (Units=GPa)
#
#
# Indices 1 2 3 4 5 6 
#
# 1 47.0177 65.0975 41.4047 0.0000 0.0000 0.0000
# 2 65.0975 207.2104 55.1173 0.0000 0.0000 0.0000
# 3 41.4047 55.1173 26.2850 0.0000 0.0000 0.0000
# 4 0.0000 0.0000 0.0000 -31.5571 0.0000 0.0000
# 5 0.0000 0.0000 0.0000 0.0000 15.8850 0.0000
# 6 0.0000 0.0000 0.0000 0.0000 0.0000 24.0898
#
#
#
# Elastic Compliance Matrix: (Units=1/GPa)
#
#
# Indices 1 2 3 4 5 6 
#
# 1 -0.042819 -0.010151 0.088736 0.000000 0.000000 0.000000
# 2 -0.010151 0.008506 -0.001846 0.000000 0.000000 0.000000
# 3 0.088736 -0.001846 -0.097862 0.000000 0.000000 0.000000
# 4 0.000000 0.000000 0.000000 -0.031689 0.000000 0.000000
# 5 0.000000 0.000000 0.000000 0.000000 0.062952 0.000000
# 6 0.000000 0.000000 0.000000 0.000000 0.000000 0.041511
#
#
# Mechanical properties :
#
#
# Convention : Reuss Voigt Hill
#
# Bulk Modulus (GPa) = 46.94590 67.08356 57.01473
# Shear Modulus (GPa) = -24.29836 9.60979 -7.34428
#
# Velocity S-wave (km/s) = -3.69790 2.32554 -2.03302
# Velocity P-wave (km/s) = 2.86134 6.70549 5.15514
#
# Compressibility (1/GPa) = 0.02130111
#
# Stress axis : x y z
#
# Youngs Moduli (GPa) = -23.35426 117.56027 -10.21844
#
# Poissons Ratio (x) = 1.19340 0.90674
# Poissons Ratio (y) = -0.23708 -0.01887
# Poissons Ratio (z) = 2.07235 0.21705
#
# Static dielectric constant tensor:
#      x y z
#    x 1.596030 0.000000 0.000000 
#    y 0.000000 1.637740 0.000000 
#    z 0.000000 0.000000 1.594800 
# 
# From -- ./inp_files/2493.got.cif
#   From: 2010.05.17/outbox.cif.g08.bks.cpg/sg47_2_cif.got.tgz:2493.got - 2010.06.03 20:15:42.
