data_PCOD9385746
_publ_section_title
;
Structure prediction by ZEFSAII (Michael W. Deem and Ramdas Pophale) SiO2 
 PCOD9385746
Probable space group: P M M M
;
_chemical_formula_sum "Si O2"
_cell_formula_units_Z 52
_cell_length_a 27.489251
_cell_length_b 13.121932
_cell_length_c 7.480125
_cell_angle_alpha 90.000000
_cell_angle_beta 90.000000
_cell_angle_gamma 90.000000
_cell_volume 2698.171465
_symmetry_space_group_name_H-M "P M M M"
_symmetry_group_IT_number 47
_symmetry_cell_setting 'orthorhombic'
loop_
_space_group_symop_operation_xyz
x,y,z
-x,-y,z
x,-y,-z
-x,y,-z
-x,-y,-z
x,y,-z
-x,y,z
x,-y,z
loop_
_atom_site_type_symbol
_atom_site_label
_atom_site_fract_x
_atom_site_fract_y
_atom_site_fract_z
Si Si1 0.394030 0.381199 0.781384
Si Si2 0.884530 0.115105 0.712420
Si Si3 0.772743 0.885330 0.213589
Si Si4 0.945407 0.687459 0.210461
Si Si5 0.291648 0.300602 0.781221
Si Si6 0.231599 0.500000 0.781932
Si Si7 0.119833 0.500000 0.219429
Si Si8 0.500000 0.623765 0.790756
O O1 0.387011 0.500000 0.730695
O O2 0.347345 0.316890 0.724941
O O3 0.447288 0.345410 0.717279
O O4 0.395351 0.380579 0.000000
O O5 0.888678 0.110080 0.500000
O O6 0.828901 0.144797 0.755739
O O7 0.921464 0.201540 0.773466
O O8 0.892730 0.000000 0.783701
O O9 0.735298 0.801194 0.281389
O O10 0.766337 0.000000 0.285263
O O11 0.766332 0.890053 0.000000
O O12 0.909317 0.600258 0.280493
O O13 0.000000 0.683896 0.286086
O O14 0.949488 0.665737 0.000000
O O15 0.260370 0.398996 0.726391
O O16 0.291581 0.299583 0.000000
O O17 0.175787 0.500000 0.722561
O O18 0.231650 0.500000 0.000000
O O19 0.121297 0.500000 0.000000
O O20 0.500000 0.500000 0.783658
O O21 0.500000 0.652693 0.000000
#
# Coordination Sequence:
#
# PCOD9385746 Si02
#       8
#     8   8   8   8   8   4   4   4
#     4   8  11  16  25  43  73 105 139 175 210 248
#     4  10  21  36  52  69  91 119 149 183 225 271
#     4   9  17  29  45  64  85 110 141 176 215 261
#     4  10  20  34  53  75  96 118 147 183 220 259
#     4   9  14  20  33  55  81 105 133 174 216 250
#     4   9  14  19  32  55  80 103 128 162 207 250
#     4   9  17  30  48  70  95 120 145 176 215 260
#     4   7  10  14  22  36  63 107 144 169 203 248
#
# _framework density 19.272311999999999
#
# number of rings (size 3 to 8) (size 9 to 14) (size 15 to 20)
#    0.000    3.000    0.769    2.538    0.000    4.923 
#    0.000    1.923    0.000    0.923    0.000    0.538 
#    0.000    4.308    0.000    0.692    0.000   11.615 
#
# Total GULP energy -290012.919810 kJ/mol
# GULP energy per Si atom -5577.171535 kJ/mol
# Density = 1.922845 g / cm^3
# Si number density = 19.272312 Si / 1000 Ang^3
#
#
#
# Elastic Constant Matrix: (Units=GPa)
#
#
# Indices 1 2 3 4 5 6 
#
# 1 192.7057 76.3343 2.0675 0.0000 0.0000 0.0000
# 2 76.3343 71.7718 -0.4093 0.0000 0.0000 0.0000
# 3 2.0675 -0.4093 53.3671 0.0000 0.0000 0.0000
# 4 0.0000 0.0000 0.0000 12.9882 0.0000 0.0000
# 5 0.0000 0.0000 0.0000 0.0000 -28.9532 0.0000
# 6 0.0000 0.0000 0.0000 0.0000 0.0000 7.7027
#
#
#
# Elastic Compliance Matrix: (Units=1/GPa)
#
#
# Indices 1 2 3 4 5 6 
#
# 1 0.008977 -0.009550 -0.000421 0.000000 0.000000 0.000000
# 2 -0.009550 0.024093 0.000555 0.000000 0.000000 0.000000
# 3 -0.000421 0.000555 0.018759 0.000000 0.000000 0.000000
# 4 0.000000 0.000000 0.000000 0.076993 0.000000 0.000000
# 5 0.000000 0.000000 0.000000 0.000000 -0.034538 0.000000
# 6 0.000000 0.000000 0.000000 0.000000 0.000000 0.129824
#
#
# Mechanical properties :
#
#
# Convention : Reuss Voigt Hill
#
# Bulk Modulus (GPa) = 30.30634 52.64772 41.47703
# Shear Modulus (GPa) = 19.68991 14.33768 17.01380
#
# Velocity S-wave (km/s) = 3.19982 2.73051 2.97444
# Velocity P-wave (km/s) = 5.42322 6.10885 5.77621
#
# Compressibility (1/GPa) = 0.03299640
#
# Stress axis : x y z
#
# Youngs Moduli (GPa) = 111.40155 41.50614 53.30863
#
# Poissons Ratio (x) = 0.39637 0.02244
# Poissons Ratio (y) = 1.06384 -0.02957
# Poissons Ratio (z) = 0.04690 -0.02302
#
# Static dielectric constant tensor:
#      x y z
#    x 1.676770 0.000000 0.000000 
#    y 0.000000 1.639360 0.000000 
#    z 0.000000 0.000000 1.723170 
# 
# From -- ./inp_files/13358.got.cif
#   From: 2010.05.17/outbox.cif.g08.bks.cpg/sg47_7_cif.got.tgz:13358.got - 2010.06.03 20:15:42.
