data_PCOD9385153
_publ_section_title
;
Structure prediction by ZEFSAII (Michael W. Deem and Ramdas Pophale) SiO2 
 PCOD9385153
Probable space group: P M M M
;
_chemical_formula_sum "Si O2"
_cell_formula_units_Z 64
_cell_length_a 30.389020
_cell_length_b 14.824719
_cell_length_c 8.907752
_cell_angle_alpha 90.000000
_cell_angle_beta 90.000000
_cell_angle_gamma 90.000000
_cell_volume 4013.019615
_symmetry_space_group_name_H-M "P M M M"
_symmetry_group_IT_number 47
_symmetry_cell_setting 'orthorhombic'
loop_
_space_group_symop_operation_xyz
x,y,z
-x,-y,z
x,-y,-z
-x,y,-z
-x,-y,-z
x,y,-z
-x,y,z
x,-y,z
loop_
_atom_site_type_symbol
_atom_site_label
_atom_site_fract_x
_atom_site_fract_y
_atom_site_fract_z
Si Si1 0.698167 0.762936 0.825274
Si Si2 0.643765 0.396422 0.676764
Si Si3 0.229793 0.894330 0.320774
Si Si4 0.452767 0.164162 0.671172
Si Si5 0.450339 0.646099 0.177803
Si Si6 0.862237 0.890811 0.829717
Si Si7 0.641113 0.899687 0.671048
Si Si8 0.048583 0.109568 0.323966
O O1 0.678766 0.671798 0.751641
O O2 0.738192 0.818715 0.749228
O O3 0.658814 0.833218 0.795178
O O4 0.707043 0.748882 0.000000
O O5 0.640892 0.374767 0.500000
O O6 0.658071 0.500000 0.694979
O O7 0.594183 0.389191 0.744283
O O8 0.234295 0.893155 0.500000
O O9 0.179991 0.871146 0.272070
O O10 0.237834 0.000000 0.271645
O O11 0.451235 0.202253 0.500000
O O12 0.500000 0.119057 0.689652
O O13 0.449693 0.247532 0.783857
O O14 0.411204 0.100937 0.682918
O O15 0.500000 0.614561 0.225988
O O16 0.447113 0.629842 0.000000
O O17 0.908816 0.857616 0.765251
O O18 0.865210 0.000000 0.832781
O O19 0.854989 0.859778 0.000000
O O20 0.652331 0.868797 0.500000
O O21 0.658906 0.000000 0.687628
O O22 0.052774 0.132257 0.500000
O O23 0.000000 0.139137 0.270653
O O24 0.048675 0.000000 0.315748
#
# Coordination Sequence:
#
# PCOD9385153 Si02
#       8
#     8   8   8   8   8   8   8   8
#     4  12  24  37  54  74  97 123 151 191 239 282
#     4  11  24  41  60  79  98 122 153 186 223 275
#     4  10  20  34  52  71  94 127 165 203 242 286
#     4   9  17  30  49  70  94 125 156 184 215 257
#     4  10  20  34  54  79 104 126 147 177 221 269
#     4   9  16  25  38  59  87 117 155 204 251 291
#     4  10  20  33  50  72  98 127 158 189 222 266
#     4   8  13  21  33  50  76 114 159 203 246 291
#
# _framework density 15.948089
#
# number of rings (size 3 to 8) (size 9 to 14) (size 15 to 20)
#    0.000    2.125    1.250    3.375    0.000    6.500 
#    0.000    3.750    0.000    0.000    0.000    2.625 
#    0.000    0.000    0.000    0.000    0.000    0.625 
#
# Total GULP energy -356474.785330 kJ/mol
# GULP energy per Si atom -5569.918521 kJ/mol
# Density = 1.591179 g / cm^3
# Si number density = 15.948089 Si / 1000 Ang^3
#
#
#
# Elastic Constant Matrix: (Units=GPa)
#
#
# Indices 1 2 3 4 5 6 
#
# 1 120.5087 31.4076 45.3978 0.0000 0.0000 0.0000
# 2 31.4076 58.1685 31.9597 0.0000 0.0000 0.0000
# 3 45.3978 31.9597 76.9542 0.0000 0.0000 0.0000
# 4 0.0000 0.0000 0.0000 -61.6219 0.0000 0.0000
# 5 0.0000 0.0000 0.0000 0.0000 6.5724 0.0000
# 6 0.0000 0.0000 0.0000 0.0000 0.0000 9.3117
#
#
#
# Elastic Compliance Matrix: (Units=1/GPa)
#
#
# Indices 1 2 3 4 5 6 
#
# 1 0.011084 -0.003099 -0.005252 0.000000 0.000000 0.000000
# 2 -0.003099 0.023141 -0.007782 0.000000 0.000000 0.000000
# 3 -0.005252 -0.007782 0.019325 0.000000 0.000000 0.000000
# 4 0.000000 0.000000 0.000000 -0.016228 0.000000 0.000000
# 5 0.000000 0.000000 0.000000 0.000000 0.152151 0.000000
# 6 0.000000 0.000000 0.000000 0.000000 0.000000 0.107392
#
#
# Mechanical properties :
#
#
# Convention : Reuss Voigt Hill
#
# Bulk Modulus (GPa) = 46.98505 52.57351 49.77928
# Shear Modulus (GPa) = 14.87095 0.64352 7.75723
#
# Velocity S-wave (km/s) = 3.05693 0.63591 2.20785
# Velocity P-wave (km/s) = 6.47958 5.79449 6.14659
#
# Compressibility (1/GPa) = 0.02128337
#
# Stress axis : x y z
#
# Youngs Moduli (GPa) = 90.21688 43.21402 51.74665
#
# Poissons Ratio (x) = 0.13394 0.27177
# Poissons Ratio (y) = 0.27962 0.40270
# Poissons Ratio (z) = 0.47380 0.33629
#
# Static dielectric constant tensor:
#      x y z
#    x 1.567730 0.000000 0.000000 
#    y 0.000000 1.519170 0.000000 
#    z 0.000000 0.000000 1.556680 
# 
# From -- ./inp_files/14309.got.cif
#   From: 2010.05.17/outbox.cif.g08.bks.cpg/sg47_8_cif.got.tgz:14309.got - 2010.06.03 20:15:42.
