data_PCOD9385467
_publ_section_title
;
Structure prediction by ZEFSAII (Michael W. Deem and Ramdas Pophale) SiO2 
 PCOD9385467
Probable space group: P M M M
;
_chemical_formula_sum "Si O2"
_cell_formula_units_Z 64
_cell_length_a 21.457117
_cell_length_b 20.275267
_cell_length_c 8.173824
_cell_angle_alpha 90.000000
_cell_angle_beta 90.000000
_cell_angle_gamma 90.000000
_cell_volume 3556.012128
_symmetry_space_group_name_H-M "P M M M"
_symmetry_group_IT_number 47
_symmetry_cell_setting 'orthorhombic'
loop_
_space_group_symop_operation_xyz
x,y,z
-x,-y,z
x,-y,-z
-x,y,-z
-x,-y,-z
x,y,-z
-x,y,z
x,-y,z
loop_
_atom_site_type_symbol
_atom_site_label
_atom_site_fract_x
_atom_site_fract_y
_atom_site_fract_z
Si Si1 0.687643 0.790655 0.305438
Si Si2 0.067798 0.787186 0.195676
Si Si3 0.740772 0.072921 0.300675
Si Si4 0.113088 0.073601 0.302412
Si Si5 0.568827 0.709293 0.802997
Si Si6 0.374702 0.427035 0.802221
Si Si7 0.190190 0.287941 0.805194
Si Si8 0.230939 0.426227 0.303889
O O1 0.682439 0.794386 0.500000
O O2 0.702255 0.864264 0.241069
O O3 0.624797 0.757842 0.241317
O O4 0.747669 0.745841 0.265204
O O5 0.077194 0.864511 0.231039
O O6 0.127968 0.747795 0.260028
O O7 0.000000 0.766164 0.260267
O O8 0.067380 0.777862 0.000000
O O9 0.738876 0.073155 0.500000
O O10 0.813744 0.080757 0.257310
O O11 0.720186 0.000000 0.246275
O O12 0.109113 0.076382 0.500000
O O13 0.092573 0.000000 0.251800
O O14 0.500000 0.728679 0.743892
O O15 0.586371 0.635619 0.743163
O O16 0.566882 0.706237 0.000000
O O17 0.395025 0.500000 0.745647
O O18 0.302768 0.418087 0.751483
O O19 0.377147 0.427096 0.000000
O O20 0.192350 0.365338 0.765733
O O21 0.192822 0.279079 0.000000
O O22 0.229194 0.423351 0.500000
O O23 0.211186 0.500000 0.251587
#
# Coordination Sequence:
#
# PCOD9385467 Si02
#       8
#     8   8   8   8   8   8   8   8
#     4  11  20  32  55  80 102 132 172 217 263 307
#     4  10  22  37  51  72 105 142 177 216 260 306
#     4   8  15  29  50  76 103 129 163 212 263 306
#     4   9  17  31  51  75 104 138 176 213 252 305
#     4  10  21  35  50  72 106 144 177 212 256 306
#     4   9  17  30  49  73 102 137 174 207 244 295
#     4  11  21  34  54  77 103 136 174 213 255 307
#     4  10  20  33  52  79 107 132 164 210 260 306
#
# _framework density 17.997689000000001
#
# number of rings (size 3 to 8) (size 9 to 14) (size 15 to 20)
#    0.000    2.250    2.500    1.875    0.000    2.500 
#    0.000    2.500    0.000    2.250    0.000    7.875 
#    0.000    0.000    0.000    0.000    0.000    0.000 
#
# Total GULP energy -356982.401051 kJ/mol
# GULP energy per Si atom -5577.850016 kJ/mol
# Density = 1.795673 g / cm^3
# Si number density = 17.997689 Si / 1000 Ang^3
#
#
#
# Elastic Constant Matrix: (Units=GPa)
#
#
# Indices 1 2 3 4 5 6 
#
# 1 117.3136 64.1518 5.9935 0.0000 0.0000 0.0000
# 2 64.1518 110.5229 -1.4713 0.0000 0.0000 0.0000
# 3 5.9935 -1.4713 6.5200 0.0000 0.0000 0.0000
# 4 0.0000 0.0000 0.0000 20.9465 0.0000 0.0000
# 5 0.0000 0.0000 0.0000 0.0000 -6.3686 0.0000
# 6 0.0000 0.0000 0.0000 0.0000 0.0000 15.7820
#
#
#
# Elastic Compliance Matrix: (Units=1/GPa)
#
#
# Indices 1 2 3 4 5 6 
#
# 1 0.013724 -0.008158 -0.014457 0.000000 0.000000 0.000000
# 2 -0.008158 0.013925 0.010642 0.000000 0.000000 0.000000
# 3 -0.014457 0.010642 0.169064 0.000000 0.000000 0.000000
# 4 0.000000 0.000000 0.000000 0.047741 0.000000 0.000000
# 5 0.000000 0.000000 0.000000 0.000000 -0.157020 0.000000
# 6 0.000000 0.000000 0.000000 0.000000 0.000000 0.063363
#
#
# Mechanical properties :
#
#
# Convention : Reuss Voigt Hill
#
# Bulk Modulus (GPa) = 5.78815 41.30050 23.54432
# Shear Modulus (GPa) = 21.52082 17.11747 19.31915
#
# Velocity S-wave (km/s) = 3.46172 3.08733 3.27987
# Velocity P-wave (km/s) = 4.38190 5.97547 5.23962
#
# Compressibility (1/GPa) = 0.17276686
#
# Stress axis : x y z
#
# Youngs Moduli (GPa) = 72.86422 71.81289 5.91490
#
# Poissons Ratio (x) = 0.58588 0.08551
# Poissons Ratio (y) = 0.59446 -0.06295
# Poissons Ratio (z) = 1.05339 -0.76424
#
# Static dielectric constant tensor:
#      x y z
#    x 1.615130 0.000000 0.000000 
#    y 0.000000 1.641760 0.000000 
#    z 0.000000 0.000000 1.631820 
# 
# From -- ./inp_files/11840.got.cif
#   From: 2010.05.17/outbox.cif.g08.bks.cpg/sg47_6_cif.got.tgz:11840.got - 2010.06.03 20:15:42.
