data_PCOD9385946
_publ_section_title
;
Structure prediction by ZEFSAII (Michael W. Deem and Ramdas Pophale) SiO2 
 PCOD9385946
Probable space group: P M M M
;
_chemical_formula_sum "Si O2"
_cell_formula_units_Z 48
_cell_length_a 9.344009
_cell_length_b 7.797410
_cell_length_c 33.097175
_cell_angle_alpha 90.000000
_cell_angle_beta 90.000000
_cell_angle_gamma 90.000000
_cell_volume 2411.429364
_symmetry_space_group_name_H-M "P M M M"
_symmetry_group_IT_number 47
_symmetry_cell_setting 'orthorhombic'
loop_
_space_group_symop_operation_xyz
x,y,z
-x,-y,z
x,-y,-z
-x,y,-z
-x,-y,-z
x,y,-z
-x,y,z
x,-y,z
loop_
_atom_site_type_symbol
_atom_site_label
_atom_site_fract_x
_atom_site_fract_y
_atom_site_fract_z
Si Si1 0.836896 0.792933 0.262331
Si Si2 0.662846 0.206621 0.659679
Si Si3 0.663720 0.296042 0.817305
Si Si4 0.670733 0.805419 0.907231
Si Si5 0.830467 0.500000 0.048056
Si Si6 0.836645 0.293476 0.420766
Si Si7 0.665250 0.710064 0.500000
O O1 0.742580 0.729840 0.300045
O O2 0.764584 0.745210 0.220096
O O3 0.000000 0.730665 0.265013
O O4 0.840078 0.000000 0.264563
O O5 0.500000 0.271270 0.656863
O O6 0.753420 0.249800 0.620072
O O7 0.656456 0.000000 0.662402
O O8 0.500000 0.242467 0.807715
O O9 0.663809 0.500000 0.824156
O O10 0.706411 0.211193 0.859631
O O11 0.500000 0.770699 0.910446
O O12 0.757673 0.666249 0.932150
O O13 0.697504 0.000000 0.920696
O O14 0.000000 0.500000 0.056077
O O15 0.807880 0.500000 0.000000
O O16 0.842935 0.500000 0.423594
O O17 0.748784 0.232820 0.459897
O O18 0.000000 0.229016 0.420251
O O19 0.664968 0.500000 0.500000
O O20 0.500000 0.764967 0.500000
#
# Coordination Sequence:
#
# PCOD9385946 Si02
#       7
#     8   8   8   8   4   8   4
#     4  10  21  36  54  78 109 146 187 229 278 339
#     4  10  21  37  56  77 104 141 184 229 278 332
#     4  10  20  36  59  86 117 152 192 241 294 348
#     4  10  21  40  67  95 124 163 212 264 316 371
#     4  11  25  43  63  91 131 173 211 259 317 378
#     4  10  20  34  54  79 106 136 172 217 271 331
#     4   9  17  31  52  77 104 135 172 216 266 323
#
# _framework density 19.905206
#
# number of rings (size 3 to 8) (size 9 to 14) (size 15 to 20)
#    0.000    2.000    0.833    2.500    0.000    7.667 
#    0.000    2.083    0.000    2.500    0.000    0.000 
#    0.000    0.000    0.000    0.000    0.000    0.000 
#
# Total GULP energy -268262.438956 kJ/mol
# GULP energy per Si atom -5588.800812 kJ/mol
# Density = 1.985990 g / cm^3
# Si number density = 19.905206 Si / 1000 Ang^3
#
#
#
# Elastic Constant Matrix: (Units=GPa)
#
#
# Indices 1 2 3 4 5 6 
#
# 1 176.1884 47.7191 111.5893 0.0000 0.0000 0.0000
# 2 47.7191 61.4302 48.4346 0.0000 0.0000 0.0000
# 3 111.5893 48.4346 153.1509 0.0000 0.0000 0.0000
# 4 0.0000 0.0000 0.0000 38.8877 0.0000 0.0000
# 5 0.0000 0.0000 0.0000 0.0000 47.9882 0.0000
# 6 0.0000 0.0000 0.0000 0.0000 0.0000 20.7604
#
#
#
# Elastic Compliance Matrix: (Units=1/GPa)
#
#
# Indices 1 2 3 4 5 6 
#
# 1 0.010925 -0.002945 -0.007029 0.000000 0.000000 0.000000
# 2 -0.002945 0.022480 -0.004964 0.000000 0.000000 0.000000
# 3 -0.007029 -0.004964 0.013221 0.000000 0.000000 0.000000
# 4 0.000000 0.000000 0.000000 0.025715 0.000000 0.000000
# 5 0.000000 0.000000 0.000000 0.000000 0.020838 0.000000
# 6 0.000000 0.000000 0.000000 0.000000 0.000000 0.048169
#
#
# Mechanical properties :
#
#
# Convention : Reuss Voigt Hill
#
# Bulk Modulus (GPa) = 59.69867 89.58393 74.64130
# Shear Modulus (GPa) = 28.27952 33.72903 31.00427
#
# Velocity S-wave (km/s) = 3.77332 4.12088 3.95092
# Velocity P-wave (km/s) = 7.00289 8.23074 7.64152
#
# Compressibility (1/GPa) = 0.01675079
#
# Stress axis : x y z
#
# Youngs Moduli (GPa) = 91.53206 44.48456 75.63805
#
# Poissons Ratio (x) = 0.13099 0.53166
# Poissons Ratio (y) = 0.26953 0.37545
# Poissons Ratio (z) = 0.64338 0.22081
#
# Static dielectric constant tensor:
#      x y z
#    x 1.683890 0.000000 0.000000 
#    y 0.000000 1.727930 0.000000 
#    z 0.000000 0.000000 1.654480 
# 
# From -- ./inp_files/34126.got.cif
#   From: 2010.05.17/outbox.cif.g08.bks.cpg/sg47_18_cif.got.tgz:34126.got - 2010.06.03 20:15:42.
