data_PCOD9385637
_publ_section_title
;
Structure prediction by ZEFSAII (Michael W. Deem and Ramdas Pophale) SiO2 
 PCOD9385637
Probable space group: P M M M
;
_chemical_formula_sum "Si O2"
_cell_formula_units_Z 53
_cell_length_a 15.732469
_cell_length_b 14.801937
_cell_length_c 13.548121
_cell_angle_alpha 90.000000
_cell_angle_beta 90.000000
_cell_angle_gamma 90.000000
_cell_volume 3154.964689
_symmetry_space_group_name_H-M "P M M M"
_symmetry_group_IT_number 47
_symmetry_cell_setting 'orthorhombic'
loop_
_space_group_symop_operation_xyz
x,y,z
-x,-y,z
x,-y,-z
-x,y,-z
-x,-y,-z
x,y,-z
-x,y,z
x,-y,z
loop_
_atom_site_type_symbol
_atom_site_label
_atom_site_fract_x
_atom_site_fract_y
_atom_site_fract_z
Si Si1 0.726185 0.750437 0.890222
Si Si2 0.598317 0.107553 0.805496
Si Si3 0.818283 0.740867 0.312918
Si Si4 0.595555 0.392742 0.182343
Si Si5 0.298641 0.893520 0.388306
Si Si6 0.000000 0.688775 0.390409
Si Si7 0.324613 0.392689 0.388870
Si Si8 0.000000 0.500000 0.500000
O O1 0.663346 0.835127 0.870845
O O2 0.794518 0.746311 0.802525
O O3 0.665491 0.663677 0.875332
O O4 0.761611 0.753519 0.000000
O O5 0.500000 0.133056 0.819760
O O6 0.628969 0.125821 0.692969
O O7 0.605899 0.000000 0.822994
O O8 0.782342 0.832936 0.360784
O O9 0.915045 0.718862 0.335163
O O10 0.759762 0.663022 0.362568
O O11 0.500000 0.367182 0.154372
O O12 0.605539 0.500000 0.167621
O O13 0.610795 0.374160 0.299269
O O14 0.325881 0.873193 0.500000
O O15 0.279326 0.000000 0.381798
O O16 0.000000 0.732341 0.500000
O O17 0.000000 0.581565 0.415304
O O18 0.353611 0.370097 0.500000
O O19 0.306858 0.500000 0.386844
#
# Coordination Sequence:
#
# PCOD9385637 Si02
#       8
#     8   8   8   8   8   4   8   1
#     4  10  21  36  51  68  92 129 172 212 253 296
#     4   9  18  31  48  74 104 132 171 222 267 304
#     4  10  20  34  51  72 100 129 161 203 248 294
#     4   9  18  31  45  65  93 124 161 203 241 282
#     4   9  17  30  48  71 103 142 175 203 243 303
#     4  10  20  34  56  85 111 127 151 188 238 305
#     4   9  17  27  45  69  95 126 156 189 236 297
#     4   8  24  32  56  96 112 132 150 184 248 312
#
# _framework density 16.798919999999999
#
# number of rings (size 3 to 8) (size 9 to 14) (size 15 to 20)
#    0.226    2.415    0.000    1.811    1.057    2.415 
#    0.000    5.283    0.000    6.792    0.000    0.528 
#    0.000    4.830    0.000    0.000    0.000    0.000 
#
# Total GULP energy -295145.231708 kJ/mol
# GULP energy per Si atom -5568.777957 kJ/mol
# Density = 1.676068 g / cm^3
# Si number density = 16.798920 Si / 1000 Ang^3
#
#
#
# Elastic Constant Matrix: (Units=GPa)
#
#
# Indices 1 2 3 4 5 6 
#
# 1 76.7036 19.5371 10.8185 0.0000 0.0000 0.0000
# 2 19.5371 46.2845 16.1967 0.0000 0.0000 0.0000
# 3 10.8185 16.1967 92.9174 0.0000 0.0000 0.0000
# 4 0.0000 0.0000 0.0000 14.8967 0.0000 0.0000
# 5 0.0000 0.0000 0.0000 0.0000 3.9899 0.0000
# 6 0.0000 0.0000 0.0000 0.0000 0.0000 8.5879
#
#
#
# Elastic Compliance Matrix: (Units=1/GPa)
#
#
# Indices 1 2 3 4 5 6 
#
# 1 0.014647 -0.005949 -0.000668 0.000000 0.000000 0.000000
# 2 -0.005949 0.025425 -0.003739 0.000000 0.000000 0.000000
# 3 -0.000668 -0.003739 0.011492 0.000000 0.000000 0.000000
# 4 0.000000 0.000000 0.000000 0.067129 0.000000 0.000000
# 5 0.000000 0.000000 0.000000 0.000000 0.250634 0.000000
# 6 0.000000 0.000000 0.000000 0.000000 0.000000 0.116443
#
#
# Mechanical properties :
#
#
# Convention : Reuss Voigt Hill
#
# Bulk Modulus (GPa) = 32.41395 34.33444 33.37420
# Shear Modulus (GPa) = 9.67557 16.78511 13.23034
#
# Velocity S-wave (km/s) = 2.40253 3.16441 2.80941
# Velocity P-wave (km/s) = 5.19936 5.81671 5.51668
#
# Compressibility (1/GPa) = 0.03085092
#
# Stress axis : x y z
#
# Youngs Moduli (GPa) = 68.27504 39.33140 87.01802
#
# Poissons Ratio (x) = 0.23397 0.05816
# Poissons Ratio (y) = 0.40614 0.32539
# Poissons Ratio (z) = 0.04564 0.14707
#
# Static dielectric constant tensor:
#      x y z
#    x 1.534950 0.000000 0.000000 
#    y 0.000000 1.589690 0.000000 
#    z 0.000000 0.000000 1.587870 
# 
# From -- ./inp_files/17686.got.cif
#   From: 2010.05.17/outbox.cif.g08.bks.cpg/sg47_9_cif.got.tgz:17686.got - 2010.06.03 20:15:42.
