data_PCOD9385141
_publ_section_title
;
Structure prediction by ZEFSAII (Michael W. Deem and Ramdas Pophale) SiO2 
 PCOD9385141
Probable space group: P M M M
;
_chemical_formula_sum "Si O2"
_cell_formula_units_Z 40
_cell_length_a 19.803580
_cell_length_b 13.154047
_cell_length_c 9.282581
_cell_angle_alpha 90.000000
_cell_angle_beta 90.000000
_cell_angle_gamma 90.000000
_cell_volume 2418.086564
_symmetry_space_group_name_H-M "P M M M"
_symmetry_group_IT_number 47
_symmetry_cell_setting 'orthorhombic'
loop_
_space_group_symop_operation_xyz
x,y,z
-x,-y,z
x,-y,-z
-x,y,-z
-x,-y,-z
x,y,-z
-x,y,z
x,-y,z
loop_
_atom_site_type_symbol
_atom_site_label
_atom_site_fract_x
_atom_site_fract_y
_atom_site_fract_z
Si Si1 0.421684 0.000000 0.175646
Si Si2 0.281389 0.384183 0.673251
Si Si3 0.000000 0.620840 0.162276
Si Si4 0.868317 0.306637 0.670622
Si Si5 0.331287 0.188530 0.831320
Si Si6 0.823051 0.882003 0.164762
O O1 0.383862 0.896603 0.222678
O O2 0.500000 0.000000 0.216253
O O3 0.417113 0.000000 0.000000
O O4 0.287255 0.375875 0.500000
O O5 0.298797 0.500000 0.715264
O O6 0.202282 0.362917 0.709174
O O7 0.324565 0.294721 0.746850
O O8 0.067215 0.652109 0.246403
O O9 0.000000 0.500000 0.153269
O O10 0.000000 0.663612 0.000000
O O11 0.877582 0.315750 0.500000
O O12 0.857719 0.190991 0.721099
O O13 0.257366 0.136506 0.823639
O O14 0.345366 0.209473 0.000000
O O15 0.837885 0.000000 0.186180
O O16 0.841995 0.853589 0.000000
#
# Coordination Sequence:
#
# PCOD9385141 Si02
#       6
#     4   8   4   8   8   8
#     4   9  16  28  49  77 107 134 161 198 243 289
#     4   9  18  32  49  71  99 129 162 203 250 294
#     4  11  23  37  52  69  92 123 159 198 242 295
#     4  10  20  33  50  72  96 125 160 200 246 294
#     4   9  16  28  48  74 100 129 165 201 242 289
#     4   9  16  29  49  71  98 128 158 197 243 290
#
# _framework density 16.542003999999999
#
# number of rings (size 3 to 8) (size 9 to 14) (size 15 to 20)
#    0.000    2.600    1.000    1.500    0.000    3.200 
#    0.000    1.000    0.000    4.800    0.000    4.200 
#    0.000    0.000    0.000    0.000    0.000    0.000 
#
# Total GULP energy -222911.872346 kJ/mol
# GULP energy per Si atom -5572.796809 kJ/mol
# Density = 1.650435 g / cm^3
# Si number density = 16.542004 Si / 1000 Ang^3
#
#
#
# Elastic Constant Matrix: (Units=GPa)
#
#
# Indices 1 2 3 4 5 6 
#
# 1 79.7752 55.4471 38.3974 0.0000 0.0000 0.0000
# 2 55.4471 129.1223 45.6930 0.0000 0.0000 0.0000
# 3 38.3974 45.6930 48.2861 0.0000 0.0000 0.0000
# 4 0.0000 0.0000 0.0000 22.8675 0.0000 0.0000
# 5 0.0000 0.0000 0.0000 0.0000 12.2686 0.0000
# 6 0.0000 0.0000 0.0000 0.0000 0.0000 19.8537
#
#
#
# Elastic Compliance Matrix: (Units=1/GPa)
#
#
# Indices 1 2 3 4 5 6 
#
# 1 0.022228 -0.004946 -0.012995 0.000000 0.000000 0.000000
# 2 -0.004946 0.012744 -0.008127 0.000000 0.000000 0.000000
# 3 -0.012995 -0.008127 0.038734 0.000000 0.000000 0.000000
# 4 0.000000 0.000000 0.000000 0.043730 0.000000 0.000000
# 5 0.000000 0.000000 0.000000 0.000000 0.081509 0.000000
# 6 0.000000 0.000000 0.000000 0.000000 0.000000 0.050368
#
#
# Mechanical properties :
#
#
# Convention : Reuss Voigt Hill
#
# Bulk Modulus (GPa) = 46.36047 59.58430 52.97239
# Shear Modulus (GPa) = 16.20011 18.84103 17.52057
#
# Velocity S-wave (km/s) = 3.13282 3.37854 3.25800
# Velocity P-wave (km/s) = 6.41661 7.16363 6.80038
#
# Compressibility (1/GPa) = 0.02157010
#
# Stress axis : x y z
#
# Youngs Moduli (GPa) = 44.98834 78.46539 25.81724
#
# Poissons Ratio (x) = 0.38812 0.33550
# Poissons Ratio (y) = 0.22253 0.20981
# Poissons Ratio (z) = 0.58462 0.63766
#
# Static dielectric constant tensor:
#      x y z
#    x 1.538200 0.000000 0.000000 
#    y 0.000000 1.556220 0.000000 
#    z 0.000000 0.000000 1.563140 
# 
# From -- ./inp_files/10644.got.cif
#   From: 2010.05.17/outbox.cif.g08.bks.cpg/sg47_6_cif.got.tgz:10644.got - 2010.06.03 20:15:42.
