data_PCOD9385969
_publ_section_title
;
Structure prediction by ZEFSAII (Michael W. Deem and Ramdas Pophale) SiO2 
 PCOD9385969
Probable space group: P M M M
;
_chemical_formula_sum "Si O2"
_cell_formula_units_Z 44
_cell_length_a 7.580826
_cell_length_b 29.831854
_cell_length_c 9.550885
_cell_angle_alpha 90.000000
_cell_angle_beta 90.000000
_cell_angle_gamma 90.000000
_cell_volume 2159.933545
_symmetry_space_group_name_H-M "P M M M"
_symmetry_group_IT_number 47
_symmetry_cell_setting 'orthorhombic'
loop_
_space_group_symop_operation_xyz
x,y,z
-x,-y,z
x,-y,-z
-x,y,-z
-x,-y,-z
x,y,-z
-x,y,z
x,-y,z
loop_
_atom_site_type_symbol
_atom_site_label
_atom_site_fract_x
_atom_site_fract_y
_atom_site_fract_z
Si Si1 0.708986 0.669625 0.159711
Si Si2 0.787704 0.048199 0.668185
Si Si3 0.783410 0.500000 0.838712
Si Si4 0.208221 0.584134 0.342114
Si Si5 0.211963 0.770012 0.840758
Si Si6 0.216020 0.145708 0.662651
O O1 0.500000 0.664718 0.151029
O O2 0.773426 0.631168 0.262657
O O3 0.747439 0.719993 0.211092
O O4 0.781234 0.665249 0.000000
O O5 0.758580 0.048634 0.500000
O O6 0.724855 0.096844 0.718956
O O7 0.000000 0.047629 0.687958
O O8 0.719651 0.000000 0.721473
O O9 0.722436 0.544045 0.755150
O O10 0.000000 0.500000 0.841553
O O11 0.726138 0.500000 0.000000
O O12 0.281824 0.584913 0.500000
O O13 0.000000 0.575333 0.354845
O O14 0.277374 0.811368 0.748822
O O15 0.000000 0.773679 0.845070
O O16 0.279097 0.772899 0.000000
O O17 0.266943 0.149616 0.500000
O O18 0.000000 0.145290 0.665397
#
# Coordination Sequence:
#
# PCOD9385969 Si02
#       6
#     8   8   4   8   8   8
#     4  10  21  36  52  70  94 126 164 202 239 282
#     4   7   9  14  26  46  73 104 136 170 210 258
#     4   9  17  31  54  81 106 133 164 196 228 267
#     4  10  20  34  54  80 107 132 159 194 236 279
#     4   9  17  29  45  64  87 116 149 187 232 279
#     4   8  13  21  35  56  80 107 142 181 218 263
#
# _framework density 20.370996999999999
#
# number of rings (size 3 to 8) (size 9 to 14) (size 15 to 20)
#    0.000    3.182    0.000    3.000    0.000    4.000 
#    0.000    2.273    0.000    3.273    0.000    3.818 
#    0.000    0.727    0.000    9.091    0.000    8.364 
#
# Total GULP energy -245214.591879 kJ/mol
# GULP energy per Si atom -5573.058906 kJ/mol
# Density = 2.032463 g / cm^3
# Si number density = 20.370997 Si / 1000 Ang^3
#
#
#
# Elastic Constant Matrix: (Units=GPa)
#
#
# Indices 1 2 3 4 5 6 
#
# 1 43.2138 -3.7371 5.2957 0.0000 0.0000 0.0000
# 2 -3.7371 234.2238 112.3945 0.0000 0.0000 0.0000
# 3 5.2957 112.3945 101.7219 0.0000 0.0000 0.0000
# 4 0.0000 0.0000 0.0000 35.9823 0.0000 0.0000
# 5 0.0000 0.0000 0.0000 0.0000 -1.0719 0.0000
# 6 0.0000 0.0000 0.0000 0.0000 0.0000 -59.7375
#
#
#
# Elastic Compliance Matrix: (Units=1/GPa)
#
#
# Indices 1 2 3 4 5 6 
#
# 1 0.023751 0.002070 -0.003523 0.000000 0.000000 0.000000
# 2 0.002070 0.009268 -0.010348 0.000000 0.000000 0.000000
# 3 -0.003523 -0.010348 0.021448 0.000000 0.000000 0.000000
# 4 0.000000 0.000000 0.000000 0.027791 0.000000 0.000000
# 5 0.000000 0.000000 0.000000 0.000000 -0.932930 0.000000
# 6 0.000000 0.000000 0.000000 0.000000 0.000000 -0.016740
#
#
# Mechanical properties :
#
#
# Convention : Reuss Voigt Hill
#
# Bulk Modulus (GPa) = 32.40032 67.45175 49.92604
# Shear Modulus (GPa) = -5.99867 12.71500 3.35817
#
# Velocity S-wave (km/s) = -1.71788 2.50105 1.28533
# Velocity P-wave (km/s) = 3.46480 6.44390 5.17343
#
# Compressibility (1/GPa) = 0.03086390
#
# Stress axis : x y z
#
# Youngs Moduli (GPa) = 42.10260 107.89566 46.62378
#
# Poissons Ratio (x) = -0.22331 0.16427
# Poissons Ratio (y) = -0.08714 0.48248
# Poissons Ratio (z) = 0.14834 1.11655
#
# Static dielectric constant tensor:
#      x y z
#    x 1.753280 0.000000 0.000000 
#    y 0.000000 1.740770 0.000000 
#    z 0.000000 0.000000 1.642260 
# 
# From -- ./inp_files/2265.got.cif
#   From: 2010.05.17/outbox.cif.g08.bks.cpg/sg47_2_cif.got.tgz:2265.got - 2010.06.03 20:15:42.
