data_PCOD9385738
_publ_section_title
;
Structure prediction by ZEFSAII (Michael W. Deem and Ramdas Pophale) SiO2 
 PCOD9385738
Probable space group: P M M M
;
_chemical_formula_sum "Si O2"
_cell_formula_units_Z 52
_cell_length_a 28.700612
_cell_length_b 13.199947
_cell_length_c 7.945911
_cell_angle_alpha 90.000000
_cell_angle_beta 90.000000
_cell_angle_gamma 90.000000
_cell_volume 3010.281027
_symmetry_space_group_name_H-M "P M M M"
_symmetry_group_IT_number 47
_symmetry_cell_setting 'orthorhombic'
loop_
_space_group_symop_operation_xyz
x,y,z
-x,-y,z
x,-y,-z
-x,y,-z
-x,-y,-z
x,y,-z
-x,y,z
x,-y,z
loop_
_atom_site_type_symbol
_atom_site_label
_atom_site_fract_x
_atom_site_fract_y
_atom_site_fract_z
Si Si1 0.730779 0.885431 0.799450
Si Si2 0.088855 0.120318 0.192781
Si Si3 0.553050 0.718316 0.199601
Si Si4 0.373066 0.885717 0.299929
Si Si5 0.817184 0.248001 0.801691
Si Si6 0.947817 0.751386 0.500000
Si Si7 0.553207 0.500000 0.299683
Si Si8 0.855369 0.620653 0.500000
O O1 0.677727 0.853638 0.765620
O O2 0.769853 0.806940 0.742706
O O3 0.736663 0.000000 0.729831
O O4 0.737139 0.891935 0.000000
O O5 0.141293 0.164829 0.204060
O O6 0.060227 0.179026 0.335019
O O7 0.088619 0.000000 0.222023
O O8 0.072671 0.138645 0.000000
O O9 0.500000 0.725749 0.270317
O O10 0.586374 0.807877 0.257067
O O11 0.573336 0.607559 0.244549
O O12 0.549736 0.723723 0.000000
O O13 0.369653 0.890969 0.500000
O O14 0.382356 0.000000 0.234479
O O15 0.831103 0.334267 0.668497
O O16 0.813332 0.279735 0.000000
O O17 0.907710 0.666508 0.500000
O O18 0.000000 0.710221 0.500000
O O19 0.500000 0.500000 0.230347
O O20 0.551469 0.500000 0.500000
O O21 0.855005 0.500000 0.500000
#
# Coordination Sequence:
#
# PCOD9385738 Si02
#       8
#     8   8   8   8   8   4   4   4
#     4   9  17  31  53  79 106 135 164 199 247 306
#     4   9  17  30  49  76 109 141 173 209 255 314
#     4  10  20  34  53  74  98 132 175 220 262 310
#     4  10  21  34  49  74 107 140 173 210 256 311
#     4   9  18  33  55  80 105 134 170 215 262 313
#     4  10  21  35  50  73 105 140 181 222 260 307
#     4   9  17  31  53  77  97 121 159 209 263 309
#     4  10  22  38  57  78 100 135 180 226 272 309
#
# _framework density 17.274135000000001
#
# number of rings (size 3 to 8) (size 9 to 14) (size 15 to 20)
#    0.000    2.538    0.000    1.846    1.077    6.308 
#    0.000    3.077    1.692    0.000    0.000    4.308 
#    0.000    0.000    0.000    0.000    0.000    0.000 
#
# Total GULP energy -289823.122797 kJ/mol
# GULP energy per Si atom -5573.521592 kJ/mol
# Density = 1.723482 g / cm^3
# Si number density = 17.274135 Si / 1000 Ang^3
#
#
#
# Elastic Constant Matrix: (Units=GPa)
#
#
# Indices 1 2 3 4 5 6 
#
# 1 96.2421 70.5243 28.5703 0.0000 0.0000 0.0000
# 2 70.5243 115.6712 42.3037 0.0000 0.0000 0.0000
# 3 28.5703 42.3037 63.0142 0.0000 0.0000 0.0000
# 4 0.0000 0.0000 0.0000 12.2657 0.0000 0.0000
# 5 0.0000 0.0000 0.0000 0.0000 16.2657 0.0000
# 6 0.0000 0.0000 0.0000 0.0000 0.0000 8.0908
#
#
#
# Elastic Compliance Matrix: (Units=1/GPa)
#
#
# Indices 1 2 3 4 5 6 
#
# 1 0.018839 -0.011083 -0.001101 0.000000 0.000000 0.000000
# 2 -0.011083 0.017979 -0.007045 0.000000 0.000000 0.000000
# 3 -0.001101 -0.007045 0.021098 0.000000 0.000000 0.000000
# 4 0.000000 0.000000 0.000000 0.081528 0.000000 0.000000
# 5 0.000000 0.000000 0.000000 0.000000 0.061479 0.000000
# 6 0.000000 0.000000 0.000000 0.000000 0.000000 0.123597
#
#
# Mechanical properties :
#
#
# Convention : Reuss Voigt Hill
#
# Bulk Modulus (GPa) = 51.39291 61.96935 56.68113
# Shear Modulus (GPa) = 13.53307 16.22638 14.87973
#
# Velocity S-wave (km/s) = 2.80202 3.06820 2.93812
# Velocity P-wave (km/s) = 6.34700 6.96446 6.66289
#
# Compressibility (1/GPa) = 0.01945794
#
# Stress axis : x y z
#
# Youngs Moduli (GPa) = 53.08143 55.61967 47.39781
#
# Poissons Ratio (x) = 0.61646 0.05217
# Poissons Ratio (y) = 0.58833 0.33391
# Poissons Ratio (z) = 0.05843 0.39184
#
# Static dielectric constant tensor:
#      x y z
#    x 1.597610 0.000000 0.000000 
#    y 0.000000 1.568580 0.000000 
#    z 0.000000 0.000000 1.603010 
# 
# From -- ./inp_files/13352.got.cif
#   From: 2010.05.17/outbox.cif.g08.bks.cpg/sg47_7_cif.got.tgz:13352.got - 2010.06.03 20:15:42.
