data_PCOD9385063
_publ_section_title
;
Structure prediction by ZEFSAII (Michael W. Deem and Ramdas Pophale) SiO2 
 PCOD9385063
Probable space group: P M M M
;
_chemical_formula_sum "Si O2"
_cell_formula_units_Z 44
_cell_length_a 29.309138
_cell_length_b 7.570459
_cell_length_c 9.503752
_cell_angle_alpha 90.000000
_cell_angle_beta 90.000000
_cell_angle_gamma 90.000000
_cell_volume 2108.726969
_symmetry_space_group_name_H-M "P M M M"
_symmetry_group_IT_number 47
_symmetry_cell_setting 'orthorhombic'
loop_
_space_group_symop_operation_xyz
x,y,z
-x,-y,z
x,-y,-z
-x,y,-z
-x,-y,-z
x,y,-z
-x,y,z
x,-y,z
loop_
_atom_site_type_symbol
_atom_site_label
_atom_site_fract_x
_atom_site_fract_y
_atom_site_fract_z
Si Si1 0.900855 0.786889 0.160872
Si Si2 0.000000 0.796088 0.828709
Si Si3 0.448593 0.212877 0.840082
Si Si4 0.274908 0.716631 0.161824
Si Si5 0.360988 0.709770 0.341612
Si Si6 0.811897 0.711003 0.340749
O O1 0.859491 0.743080 0.262505
O O2 0.950694 0.718885 0.209875
O O3 0.904450 0.000000 0.154768
O O4 0.892116 0.725721 0.000000
O O5 0.000000 0.000000 0.779741
O O6 0.000000 0.798074 0.000000
O O7 0.500000 0.272865 0.803946
O O8 0.409538 0.265356 0.732626
O O9 0.449502 0.000000 0.842987
O O10 0.438205 0.273157 0.000000
O O11 0.274891 0.500000 0.160166
O O12 0.320252 0.777435 0.243009
O O13 0.230178 0.776377 0.246459
O O14 0.274289 0.773925 0.000000
O O15 0.359995 0.782556 0.500000
O O16 0.353394 0.500000 0.352192
O O17 0.811439 0.781200 0.500000
O O18 0.806038 0.500000 0.349824
#
# Coordination Sequence:
#
# PCOD9385063 Si02
#       6
#     8   4   8   8   8   8
#     4   9  17  31  52  75  97 124 162 206 248 290
#     4   7  12  26  48  71  94 122 158 201 246 289
#     4   9  19  36  55  74  99 133 171 208 246 289
#     4   9  17  31  52  74  96 127 166 204 243 289
#     4  10  20  33  51  77 106 132 161 201 247 294
#     4  10  20  33  49  71 101 134 164 197 242 294
#
# _framework density 20.865670999999999
#
# number of rings (size 3 to 8) (size 9 to 14) (size 15 to 20)
#    0.000    2.818    0.000    3.273    0.000    5.818 
#    0.000    4.545    0.000    9.818    0.000    0.000 
#    0.000    0.000    0.000    0.000    0.000    0.000 
#
# Total GULP energy -245539.721457 kJ/mol
# GULP energy per Si atom -5580.448215 kJ/mol
# Density = 2.081818 g / cm^3
# Si number density = 20.865671 Si / 1000 Ang^3
#
#
#
# Elastic Constant Matrix: (Units=GPa)
#
#
# Indices 1 2 3 4 5 6 
#
# 1 202.0699 -0.7276 140.2634 0.0000 0.0000 0.0000
# 2 -0.7276 46.1555 7.3285 0.0000 0.0000 0.0000
# 3 140.2634 7.3285 194.4447 0.0000 0.0000 0.0000
# 4 0.0000 0.0000 0.0000 5.1774 0.0000 0.0000
# 5 0.0000 0.0000 0.0000 0.0000 -24.1464 0.0000
# 6 0.0000 0.0000 0.0000 0.0000 0.0000 24.5582
#
#
#
# Elastic Compliance Matrix: (Units=1/GPa)
#
#
# Indices 1 2 3 4 5 6 
#
# 1 0.009990 0.001310 -0.007256 0.000000 0.000000 0.000000
# 2 0.001310 0.021968 -0.001773 0.000000 0.000000 0.000000
# 3 -0.007256 -0.001773 0.010443 0.000000 0.000000 0.000000
# 4 0.000000 0.000000 0.000000 0.193147 0.000000 0.000000
# 5 0.000000 0.000000 0.000000 0.000000 -0.041414 0.000000
# 6 0.000000 0.000000 0.000000 0.000000 0.000000 0.040720
#
#
# Mechanical properties :
#
#
# Convention : Reuss Voigt Hill
#
# Bulk Modulus (GPa) = 37.08646 81.82209 59.45428
# Shear Modulus (GPa) = 19.28423 20.83823 20.06123
#
# Velocity S-wave (km/s) = 3.04338 3.16363 3.10408
# Velocity P-wave (km/s) = 5.49200 7.25559 6.43450
#
# Compressibility (1/GPa) = 0.02696402
#
# Stress axis : x y z
#
# Youngs Moduli (GPa) = 100.10200 45.52083 95.75359
#
# Poissons Ratio (x) = -0.05961 0.69474
# Poissons Ratio (y) = -0.13109 0.16973
# Poissons Ratio (z) = 0.72629 0.08069
#
# Static dielectric constant tensor:
#      x y z
#    x 1.735920 0.000000 0.000000 
#    y 0.000000 1.805990 0.000000 
#    z 0.000000 0.000000 1.716040 
# 
# From -- ./inp_files/2028.got.cif
#   From: 2010.05.17/outbox.cif.g08.bks.cpg/sg47_2_cif.got.tgz:2028.got - 2010.06.03 20:15:42.
