data_PCOD9385596
_publ_section_title
;
Structure prediction by ZEFSAII (Michael W. Deem and Ramdas Pophale) SiO2 
 PCOD9385596
Probable space group: P M M M
;
_chemical_formula_sum "Si O2"
_cell_formula_units_Z 52
_cell_length_a 26.676057
_cell_length_b 9.084754
_cell_length_c 14.153730
_cell_angle_alpha 90.000000
_cell_angle_beta 90.000000
_cell_angle_gamma 90.000000
_cell_volume 3430.091578
_symmetry_space_group_name_H-M "P M M M"
_symmetry_group_IT_number 47
_symmetry_cell_setting 'orthorhombic'
loop_
_space_group_symop_operation_xyz
x,y,z
-x,-y,z
x,-y,-z
-x,y,-z
-x,-y,-z
x,y,-z
-x,y,z
x,-y,z
loop_
_atom_site_type_symbol
_atom_site_label
_atom_site_fract_x
_atom_site_fract_y
_atom_site_fract_z
Si Si1 0.942959 0.326589 0.886239
Si Si2 0.758838 0.326611 0.113424
Si Si3 0.149130 0.824658 0.218049
Si Si4 0.000000 0.168334 0.385422
Si Si5 0.104087 0.324916 0.388392
Si Si6 0.656149 0.168640 0.114940
Si Si7 0.555618 0.327888 0.114792
O O1 0.936001 0.500000 0.862814
O O2 0.899885 0.231977 0.838370
O O3 0.000000 0.284811 0.859458
O O4 0.939324 0.314444 0.000000
O O5 0.763183 0.500000 0.133561
O O6 0.802322 0.237544 0.165093
O O7 0.704160 0.265845 0.141372
O O8 0.764035 0.307469 0.000000
O O9 0.144059 0.753897 0.321840
O O10 0.149764 0.000000 0.222455
O O11 0.949852 0.256390 0.360716
O O12 0.000000 0.160746 0.500000
O O13 0.000000 0.000000 0.349660
O O14 0.111806 0.297748 0.500000
O O15 0.103626 0.500000 0.373332
O O16 0.603279 0.235528 0.147979
O O17 0.662374 0.000000 0.145094
O O18 0.654693 0.169662 0.000000
O O19 0.500000 0.278048 0.145528
O O20 0.561476 0.500000 0.139498
O O21 0.555682 0.321330 0.000000
#
# Coordination Sequence:
#
# PCOD9385596 Si02
#       7
#     8   8   8   4   8   8   8
#     4   9  19  36  54  69  88 116 148 180 215 259
#     4  10  20  34  50  65  85 116 154 191 225 265
#     4  12  24  34  49  71  94 116 142 181 226 267
#     4   9  17  31  51  73  94 111 130 163 207 251
#     4  10  21  37  55  72  91 117 146 174 209 260
#     4   9  16  25  38  57  81 108 141 184 230 267
#     4   8  13  21  33  50  74 106 144 182 219 261
#
# _framework density 15.159945
#
# number of rings (size 3 to 8) (size 9 to 14) (size 15 to 20)
#    0.000    2.385    0.000    4.385    1.077    7.385 
#    0.000    2.308    0.000    0.000    0.000    0.000 
#    0.000    0.000    0.000    0.000    0.000    0.769 
#
# Total GULP energy -290078.232190 kJ/mol
# GULP energy per Si atom -5578.427542 kJ/mol
# Density = 1.512544 g / cm^3
# Si number density = 15.159945 Si / 1000 Ang^3
#
#
#
# Elastic Constant Matrix: (Units=GPa)
#
#
# Indices 1 2 3 4 5 6 
#
# 1 112.1271 69.3991 34.7094 0.0000 0.0000 0.0000
# 2 69.3991 115.4766 34.4434 0.0000 0.0000 0.0000
# 3 34.7094 34.4434 38.9020 0.0000 0.0000 0.0000
# 4 0.0000 0.0000 0.0000 16.3240 0.0000 0.0000
# 5 0.0000 0.0000 0.0000 0.0000 4.7954 0.0000
# 6 0.0000 0.0000 0.0000 0.0000 0.0000 201.2686
#
#
#
# Elastic Compliance Matrix: (Units=1/GPa)
#
#
# Indices 1 2 3 4 5 6 
#
# 1 0.015732 -0.007158 -0.007699 0.000000 0.000000 0.000000
# 2 -0.007158 0.015025 -0.006916 0.000000 0.000000 0.000000
# 3 -0.007699 -0.006916 0.038698 0.000000 0.000000 0.000000
# 4 0.000000 0.000000 0.000000 0.061259 0.000000 0.000000
# 5 0.000000 0.000000 0.000000 0.000000 0.208534 0.000000
# 6 0.000000 0.000000 0.000000 0.000000 0.000000 0.004968
#
#
# Mechanical properties :
#
#
# Convention : Reuss Voigt Hill
#
# Bulk Modulus (GPa) = 38.59685 60.40108 49.49896
# Shear Modulus (GPa) = 12.61358 53.00784 32.81071
#
# Velocity S-wave (km/s) = 2.88763 5.91960 4.65725
# Velocity P-wave (km/s) = 6.05251 9.30866 7.85124
#
# Compressibility (1/GPa) = 0.02590885
#
# Stress axis : x y z
#
# Youngs Moduli (GPa) = 63.56383 66.55752 25.84136
#
# Poissons Ratio (x) = 0.47645 0.19894
# Poissons Ratio (y) = 0.45502 0.17871
# Poissons Ratio (z) = 0.48936 0.46029
#
# Static dielectric constant tensor:
#      x y z
#    x 1.501750 0.000000 0.000000 
#    y 0.000000 1.504560 0.000000 
#    z 0.000000 0.000000 1.504770 
# 
# From -- ./inp_files/25683.got.cif
#   From: 2010.05.17/outbox.cif.g08.bks.cpg/sg47_13_cif.got.tgz:25683.got - 2010.06.03 20:15:42.
