data_PCOD9385163
_publ_section_title
;
Structure prediction by ZEFSAII (Michael W. Deem and Ramdas Pophale) SiO2 
 PCOD9385163
Probable space group: P M M M
;
_chemical_formula_sum "Si O2"
_cell_formula_units_Z 64
_cell_length_a 20.980598
_cell_length_b 8.474384
_cell_length_c 18.342469
_cell_angle_alpha 90.000000
_cell_angle_beta 90.000000
_cell_angle_gamma 90.000000
_cell_volume 3261.247773
_symmetry_space_group_name_H-M "P M M M"
_symmetry_group_IT_number 47
_symmetry_cell_setting 'orthorhombic'
loop_
_space_group_symop_operation_xyz
x,y,z
-x,-y,z
x,-y,-z
-x,y,-z
-x,-y,-z
x,y,-z
-x,y,z
x,-y,z
loop_
_atom_site_type_symbol
_atom_site_label
_atom_site_fract_x
_atom_site_fract_y
_atom_site_fract_z
Si Si1 0.741538 0.688303 0.121504
Si Si2 0.071988 0.815040 0.620938
Si Si3 0.126860 0.814527 0.079101
Si Si4 0.075665 0.326443 0.773208
Si Si5 0.293954 0.688087 0.285674
Si Si6 0.569378 0.809516 0.758189
Si Si7 0.604671 0.190897 0.920520
Si Si8 0.789993 0.809096 0.580048
O O1 0.751887 0.500000 0.115320
O O2 0.798043 0.782367 0.084007
O O3 0.737459 0.732055 0.207494
O O4 0.674771 0.735969 0.086379
O O5 0.086679 0.791995 0.706765
O O6 0.136324 0.750763 0.584703
O O7 0.000000 0.748766 0.606607
O O8 0.068206 0.000000 0.602882
O O9 0.099938 0.727160 0.149048
O O10 0.113300 0.000000 0.085011
O O11 0.103075 0.758556 0.000000
O O12 0.102238 0.500000 0.754302
O O13 0.000000 0.337686 0.778621
O O14 0.294581 0.500000 0.288953
O O15 0.367216 0.746412 0.280825
O O16 0.253187 0.751576 0.353249
O O17 0.500000 0.759154 0.728990
O O18 0.572299 0.762951 0.844105
O O19 0.572135 0.000000 0.755381
O O20 0.608228 0.000000 0.919316
O O21 0.577303 0.235225 0.000000
O O22 0.764419 0.765207 0.500000
O O23 0.792343 0.000000 0.584301
#
# Coordination Sequence:
#
# PCOD9385163 Si02
#       8
#     8   8   8   8   8   8   8   8
#     4  10  20  33  50  72  98 131 173 216 257 306
#     4   9  18  34  57  83 111 144 178 211 251 303
#     4  11  23  35  48  68  94 126 167 217 270 318
#     4  10  21  36  53  72  95 126 166 211 257 307
#     4  10  21  36  55  79 107 141 179 219 263 313
#     4   9  18  33  54  79 106 140 182 225 270 319
#     4   9  17  29  46  71 105 141 175 214 260 309
#     4  10  21  36  56  84 115 144 174 211 256 307
#
# _framework density 19.624390999999999
#
# number of rings (size 3 to 8) (size 9 to 14) (size 15 to 20)
#    0.000    2.250    0.000    2.625    0.000    8.750 
#    0.000    3.750    0.000    0.375    0.000    8.750 
#    0.000    0.000    0.000    0.000    0.000    0.000 
#
# Total GULP energy -356946.005420 kJ/mol
# GULP energy per Si atom -5577.281335 kJ/mol
# Density = 1.957973 g / cm^3
# Si number density = 19.624391 Si / 1000 Ang^3
#
#
#
# Elastic Constant Matrix: (Units=GPa)
#
#
# Indices 1 2 3 4 5 6 
#
# 1 64.0472 14.2859 57.4328 0.0000 0.0000 0.0000
# 2 14.2859 10.7724 12.8859 0.0000 0.0000 0.0000
# 3 57.4328 12.8859 107.0582 0.0000 0.0000 0.0000
# 4 0.0000 0.0000 0.0000 9.8327 0.0000 0.0000
# 5 0.0000 0.0000 0.0000 0.0000 -12.4033 0.0000
# 6 0.0000 0.0000 0.0000 0.0000 0.0000 10.4502
#
#
#
# Elastic Compliance Matrix: (Units=1/GPa)
#
#
# Indices 1 2 3 4 5 6 
#
# 1 0.036575 -0.029244 -0.016101 0.000000 0.000000 0.000000
# 2 -0.029244 0.131825 -0.000179 0.000000 0.000000 0.000000
# 3 -0.016101 -0.000179 0.018000 0.000000 0.000000 0.000000
# 4 0.000000 0.000000 0.000000 0.101701 0.000000 0.000000
# 5 0.000000 0.000000 0.000000 0.000000 -0.080624 0.000000
# 6 0.000000 0.000000 0.000000 0.000000 0.000000 0.095692
#
#
# Mechanical properties :
#
#
# Convention : Reuss Voigt Hill
#
# Bulk Modulus (GPa) = 10.48737 39.00967 24.74852
# Shear Modulus (GPa) = 11.73707 8.06081 9.89894
#
# Velocity S-wave (km/s) = 2.44823 2.02891 2.24837
# Velocity P-wave (km/s) = 3.65342 5.04083 4.40212
#
# Compressibility (1/GPa) = 0.09535276
#
# Stress axis : x y z
#
# Youngs Moduli (GPa) = 27.34137 7.58579 55.55605
#
# Poissons Ratio (x) = 0.22184 0.89451
# Poissons Ratio (y) = 0.79957 0.00993
# Poissons Ratio (z) = 0.44022 0.00136
#
# Static dielectric constant tensor:
#      x y z
#    x 1.716140 0.000000 0.000000 
#    y 0.000000 1.684920 0.000000 
#    z 0.000000 0.000000 1.708320 
# 
# From -- ./inp_files/28784.got.cif
#   From: 2010.05.17/outbox.cif.g08.bks.cpg/sg47_15_cif.got.tgz:28784.got - 2010.06.03 20:15:42.
