data_PCOD9385959
_publ_section_title
;
Structure prediction by ZEFSAII (Michael W. Deem and Ramdas Pophale) SiO2 
 PCOD9385959
Probable space group: P M M M
;
_chemical_formula_sum "Si O2"
_cell_formula_units_Z 52
_cell_length_a 19.987385
_cell_length_b 8.711148
_cell_length_c 16.113317
_cell_angle_alpha 90.000000
_cell_angle_beta 90.000000
_cell_angle_gamma 90.000000
_cell_volume 2805.539073
_symmetry_space_group_name_H-M "P M M M"
_symmetry_group_IT_number 47
_symmetry_cell_setting 'orthorhombic'
loop_
_space_group_symop_operation_xyz
x,y,z
-x,-y,z
x,-y,-z
-x,y,-z
-x,-y,-z
x,y,-z
-x,y,z
x,-y,z
loop_
_atom_site_type_symbol
_atom_site_label
_atom_site_fract_x
_atom_site_fract_y
_atom_site_fract_z
Si Si1 0.425340 0.317029 0.675735
Si Si2 0.924080 0.815370 0.175505
Si Si3 0.288148 0.684888 0.407468
Si Si4 0.789778 0.816253 0.748604
Si Si5 0.714049 0.316952 0.908495
Si Si6 0.918713 0.326559 0.000000
Si Si7 0.575752 0.182715 0.859360
O O1 0.500000 0.290431 0.641961
O O2 0.419803 0.500000 0.694702
O O3 0.365068 0.276644 0.615018
O O4 0.418890 0.225933 0.761898
O O5 0.867174 0.768064 0.239993
O O6 0.901411 0.757552 0.084979
O O7 0.000000 0.760225 0.191621
O O8 0.926020 0.000000 0.173314
O O9 0.270985 0.739190 0.500000
O O10 0.282971 0.500000 0.406315
O O11 0.243155 0.750110 0.333921
O O12 0.750609 0.759600 0.830500
O O13 0.786186 0.000000 0.746369
O O14 0.720230 0.500000 0.900746
O O15 0.636140 0.269752 0.903127
O O16 0.739965 0.270726 0.000000
O O17 0.892608 0.500000 0.000000
O O18 0.000000 0.331800 0.000000
O O19 0.500000 0.224735 0.885751
O O20 0.583670 0.000000 0.870308
#
# Coordination Sequence:
#
# PCOD9385959 Si02
#       7
#     8   8   8   8   8   4   8
#     4   9  17  31  53  79 108 143 181 222 271 329
#     4   9  19  36  56  79 110 147 186 227 274 329
#     4  10  21  37  58  84 114 148 184 226 279 336
#     4  11  23  38  59  84 111 146 185 229 281 332
#     4  11  24  39  55  78 110 150 192 232 276 330
#     4   9  17  29  49  81 115 145 180 219 262 317
#     4  10  20  34  54  79 108 143 185 235 285 328
#
# _framework density 18.534763000000002
#
# number of rings (size 3 to 8) (size 9 to 14) (size 15 to 20)
#    0.000    2.077    1.538    1.615    1.077    5.231 
#    0.000    3.077    0.000    0.462    0.000    6.462 
#    0.000    0.000    0.000    0.000    0.000    0.000 
#
# Total GULP energy -290289.884825 kJ/mol
# GULP energy per Si atom -5582.497785 kJ/mol
# Density = 1.849258 g / cm^3
# Si number density = 18.534763 Si / 1000 Ang^3
#
#
#
# Elastic Constant Matrix: (Units=GPa)
#
#
# Indices 1 2 3 4 5 6 
#
# 1 117.8291 26.5703 73.8539 0.0000 0.0000 0.0000
# 2 26.5703 18.4413 27.4227 0.0000 0.0000 0.0000
# 3 73.8539 27.4227 135.4936 0.0000 0.0000 0.0000
# 4 0.0000 0.0000 0.0000 -36.5749 0.0000 0.0000
# 5 0.0000 0.0000 0.0000 0.0000 13.8995 0.0000
# 6 0.0000 0.0000 0.0000 0.0000 0.0000 16.4232
#
#
#
# Elastic Compliance Matrix: (Units=1/GPa)
#
#
# Indices 1 2 3 4 5 6 
#
# 1 0.014905 -0.013438 -0.005404 0.000000 0.000000 0.000000
# 2 -0.013438 0.089688 -0.010827 0.000000 0.000000 0.000000
# 3 -0.005404 -0.010827 0.012518 0.000000 0.000000 0.000000
# 4 0.000000 0.000000 0.000000 -0.027341 0.000000 0.000000
# 5 0.000000 0.000000 0.000000 0.000000 0.071945 0.000000
# 6 0.000000 0.000000 0.000000 0.000000 0.000000 0.060890
#
#
# Mechanical properties :
#
#
# Convention : Reuss Voigt Hill
#
# Bulk Modulus (GPa) = 17.30981 58.60645 37.95813
# Shear Modulus (GPa) = 16.60025 8.34402 12.47213
#
# Velocity S-wave (km/s) = 2.99595 2.12405 2.59686
# Velocity P-wave (km/s) = 4.61812 6.14035 5.43281
#
# Compressibility (1/GPa) = 0.05777072
#
# Stress axis : x y z
#
# Youngs Moduli (GPa) = 67.09380 11.14973 79.88815
#
# Poissons Ratio (x) = 0.14983 0.43174
# Poissons Ratio (y) = 0.90162 0.86497
# Poissons Ratio (z) = 0.36259 0.12072
#
# Static dielectric constant tensor:
#      x y z
#    x 1.682160 0.000000 0.000000 
#    y 0.000000 1.623970 0.000000 
#    z 0.000000 0.000000 1.619890 
# 
# From -- ./inp_files/24983.got.cif
#   From: 2010.05.17/outbox.cif.g08.bks.cpg/sg47_13_cif.got.tgz:24983.got - 2010.06.03 20:15:42.
