data_PCOD9385649
_publ_section_title
;
Structure prediction by ZEFSAII (Michael W. Deem and Ramdas Pophale) SiO2 
 PCOD9385649
Probable space group: P M M M
;
_chemical_formula_sum "Si O2"
_cell_formula_units_Z 52
_cell_length_a 14.271577
_cell_length_b 15.605659
_cell_length_c 14.490880
_cell_angle_alpha 90.000000
_cell_angle_beta 90.000000
_cell_angle_gamma 90.000000
_cell_volume 3227.370596
_symmetry_space_group_name_H-M "P M M M"
_symmetry_group_IT_number 47
_symmetry_cell_setting 'orthorhombic'
loop_
_space_group_symop_operation_xyz
x,y,z
-x,-y,z
x,-y,-z
-x,y,-z
-x,-y,-z
x,y,-z
-x,y,z
x,-y,z
loop_
_atom_site_type_symbol
_atom_site_label
_atom_site_fract_x
_atom_site_fract_y
_atom_site_fract_z
Si Si1 0.275162 0.738265 0.389622
Si Si2 0.390603 0.398443 0.280022
Si Si3 0.886374 0.000000 0.605558
Si Si4 0.890168 0.253882 0.104832
Si Si5 0.262714 0.400728 0.893966
Si Si6 0.609145 0.094737 0.611889
Si Si7 0.110984 0.822298 0.703302
O O1 0.270486 0.737112 0.500000
O O2 0.330787 0.657086 0.351406
O O3 0.331921 0.823464 0.358179
O O4 0.172544 0.750056 0.346584
O O5 0.500000 0.374477 0.281997
O O6 0.383939 0.500000 0.299490
O O7 0.344054 0.383635 0.179786
O O8 0.861190 0.086514 0.659217
O O9 0.849728 0.000000 0.500000
O O10 0.000000 0.000000 0.600196
O O11 0.822731 0.335130 0.119824
O O12 0.872812 0.186695 0.187063
O O13 0.000000 0.278583 0.110852
O O14 0.874011 0.222059 0.000000
O O15 0.232772 0.500000 0.881976
O O16 0.295037 0.391237 0.000000
O O17 0.611760 0.094758 0.500000
O O18 0.500000 0.103779 0.638302
O O19 0.642161 0.000000 0.642036
O O20 0.000000 0.811011 0.686824
#
# Coordination Sequence:
#
# PCOD9385649 Si02
#       7
#     8   8   4   8   8   8   8
#     4  11  21  32  50  72  97 134 175 211 252 303
#     4  10  21  36  52  73 101 131 169 215 259 304
#     4   9  18  32  49  71 102 138 174 209 245 291
#     4   9  17  31  52  77 104 131 161 203 255 308
#     4   9  17  31  52  77 103 129 160 201 253 312
#     4   8  15  28  45  67  94 121 155 203 253 296
#     4  10  20  34  51  75 104 134 168 210 255 304
#
# _framework density 16.112186999999999
#
# number of rings (size 3 to 8) (size 9 to 14) (size 15 to 20)
#    0.000    2.538    1.538    1.385    1.077    2.769 
#    0.000    4.231    0.000    2.769    0.000    1.077 
#    0.000    0.000    0.000    8.308    0.000    0.615 
#
# Total GULP energy -289699.741982 kJ/mol
# GULP energy per Si atom -5571.148884 kJ/mol
# Density = 1.607551 g / cm^3
# Si number density = 16.112187 Si / 1000 Ang^3
#
#
#
# Elastic Constant Matrix: (Units=GPa)
#
#
# Indices 1 2 3 4 5 6 
#
# 1 74.7367 42.0097 49.1247 0.0000 0.0000 0.0000
# 2 42.0097 57.1323 50.1123 0.0000 0.0000 0.0000
# 3 49.1247 50.1123 104.5528 0.0000 0.0000 0.0000
# 4 0.0000 0.0000 0.0000 26.6997 0.0000 0.0000
# 5 0.0000 0.0000 0.0000 0.0000 17.8946 0.0000
# 6 0.0000 0.0000 0.0000 0.0000 0.0000 24.8350
#
#
#
# Elastic Compliance Matrix: (Units=1/GPa)
#
#
# Indices 1 2 3 4 5 6 
#
# 1 0.024178 -0.013482 -0.004898 0.000000 0.000000 0.000000
# 2 -0.013482 0.037717 -0.011743 0.000000 0.000000 0.000000
# 3 -0.004898 -0.011743 0.017495 0.000000 0.000000 0.000000
# 4 0.000000 0.000000 0.000000 0.037454 0.000000 0.000000
# 5 0.000000 0.000000 0.000000 0.000000 0.055883 0.000000
# 6 0.000000 0.000000 0.000000 0.000000 0.000000 0.040266
#
#
# Mechanical properties :
#
#
# Convention : Reuss Voigt Hill
#
# Bulk Modulus (GPa) = 52.23917 57.65727 54.94822
# Shear Modulus (GPa) = 17.88145 20.23089 19.05617
#
# Velocity S-wave (km/s) = 3.33499 3.54733 3.44280
# Velocity P-wave (km/s) = 6.87911 7.25538 7.06975
#
# Compressibility (1/GPa) = 0.01914272
#
# Stress axis : x y z
#
# Youngs Moduli (GPa) = 41.35952 26.51341 57.16056
#
# Poissons Ratio (x) = 0.35745 0.27999
# Poissons Ratio (y) = 0.55760 0.67125
# Poissons Ratio (z) = 0.20259 0.31135
#
# Static dielectric constant tensor:
#      x y z
#    x 1.551830 0.000000 0.000000 
#    y 0.000000 1.533990 0.000000 
#    z 0.000000 0.000000 1.536020 
# 
# From -- ./inp_files/23658.got.cif
#   From: 2010.05.17/outbox.cif.g08.bks.cpg/sg47_12_cif.got.tgz:23658.got - 2010.06.03 20:15:42.
