data_PCOD9385735
_publ_section_title
;
Structure prediction by ZEFSAII (Michael W. Deem and Ramdas Pophale) SiO2 
 PCOD9385735
Probable space group: P M M M
;
_chemical_formula_sum "Si O2"
_cell_formula_units_Z 44
_cell_length_a 7.606584
_cell_length_b 9.467353
_cell_length_c 29.415363
_cell_angle_alpha 90.000000
_cell_angle_beta 90.000000
_cell_angle_gamma 90.000000
_cell_volume 2118.324300
_symmetry_space_group_name_H-M "P M M M"
_symmetry_group_IT_number 47
_symmetry_cell_setting 'orthorhombic'
loop_
_space_group_symop_operation_xyz
x,y,z
-x,-y,z
x,-y,-z
-x,y,-z
-x,-y,-z
x,y,-z
-x,y,z
x,-y,z
loop_
_atom_site_type_symbol
_atom_site_label
_atom_site_fract_x
_atom_site_fract_y
_atom_site_fract_z
Si Si1 0.214307 0.337074 0.551037
Si Si2 0.797025 0.328064 0.000000
Si Si3 0.791766 0.341034 0.724307
Si Si4 0.215629 0.162159 0.361681
Si Si5 0.291657 0.840489 0.187630
Si Si6 0.787815 0.661683 0.901225
O O1 0.270322 0.296430 0.500000
O O2 0.266436 0.500000 0.559168
O O3 0.272323 0.236413 0.591594
O O4 0.000000 0.335379 0.551098
O O5 0.719997 0.289343 0.950885
O O6 0.799189 0.500000 0.000000
O O7 0.000000 0.278848 0.000000
O O8 0.719098 0.500000 0.727410
O O9 0.722302 0.251800 0.681698
O O10 0.771906 0.255735 0.770920
O O11 0.000000 0.353998 0.716258
O O12 0.000000 0.162307 0.361451
O O13 0.271501 0.000000 0.358728
O O14 0.500000 0.849731 0.192642
O O15 0.255052 0.764115 0.139951
O O16 0.218641 0.000000 0.189181
O O17 0.727428 0.500000 0.892483
O O18 0.000000 0.655319 0.904761
#
# Coordination Sequence:
#
# PCOD9385735 Si02
#       6
#     8   4   8   8   8   8
#     4   8  13  21  33  51  80 119 158 194 234 281
#     4   7  12  26  50  79 106 128 156 199 242 279
#     4  10  20  34  53  74  94 121 161 206 249 294
#     4   9  16  25  39  61  89 120 154 194 240 290
#     4  11  24  38  50  69 100 134 165 200 245 294
#     4   9  17  32  56  82 104 129 164 203 242 285
#
# _framework density 20.771137
#
# number of rings (size 3 to 8) (size 9 to 14) (size 15 to 20)
#    0.000    2.818    0.000    3.818    0.000    7.636 
#    0.000    2.727    0.000    4.364    0.000    0.000 
#    0.000    0.727    0.000    7.636    0.000   10.545 
#
# Total GULP energy -245512.244135 kJ/mol
# GULP energy per Si atom -5579.823730 kJ/mol
# Density = 2.072386 g / cm^3
# Si number density = 20.771137 Si / 1000 Ang^3
#
#
#
# Elastic Constant Matrix: (Units=GPa)
#
#
# Indices 1 2 3 4 5 6 
#
# 1 42.6121 4.9777 -3.5940 0.0000 0.0000 0.0000
# 2 4.9777 178.9842 133.7209 0.0000 0.0000 0.0000
# 3 -3.5940 133.7209 209.9668 0.0000 0.0000 0.0000
# 4 0.0000 0.0000 0.0000 0.0441 0.0000 0.0000
# 5 0.0000 0.0000 0.0000 0.0000 -52.9626 0.0000
# 6 0.0000 0.0000 0.0000 0.0000 0.0000 17.5406
#
#
#
# Elastic Compliance Matrix: (Units=1/GPa)
#
#
# Indices 1 2 3 4 5 6 
#
# 1 0.023816 -0.001845 0.001582 0.000000 0.000000 0.000000
# 2 -0.001845 0.010801 -0.006911 0.000000 0.000000 0.000000
# 3 0.001582 -0.006911 0.009191 0.000000 0.000000 0.000000
# 4 0.000000 0.000000 0.000000 22.697851 0.000000 0.000000
# 5 0.000000 0.000000 0.000000 0.000000 -0.018881 0.000000
# 6 0.000000 0.000000 0.000000 0.000000 0.000000 0.057011
#
#
# Mechanical properties :
#
#
# Convention : Reuss Voigt Hill
#
# Bulk Modulus (GPa) = 33.94071 77.97470 55.95771
# Shear Modulus (GPa) = 0.21926 12.68830 6.45378
#
# Velocity S-wave (km/s) = 0.32525 2.47424 1.76461
# Velocity P-wave (km/s) = 4.06409 6.76638 5.58125
#
# Compressibility (1/GPa) = 0.02946314
#
# Stress axis : x y z
#
# Youngs Moduli (GPa) = 41.98779 92.58073 108.80340
#
# Poissons Ratio (x) = 0.17078 -0.17218
# Poissons Ratio (y) = 0.07745 0.75190
# Poissons Ratio (z) = -0.06644 0.63979
#
# Static dielectric constant tensor:
#      x y z
#    x 1.783170 0.000000 0.000000 
#    y 0.000000 1.714590 0.000000 
#    z 0.000000 0.000000 1.734610 
# 
# From -- ./inp_files/33881.got.cif
#   From: 2010.05.17/outbox.cif.g08.bks.cpg/sg47_17_cif.got.tgz:33881.got - 2010.06.03 20:15:42.
