data_PCOD9385365
_publ_section_title
;
Structure prediction by ZEFSAII (Michael W. Deem and Ramdas Pophale) SiO2 
 PCOD9385365
Probable space group: P M M M
;
_chemical_formula_sum "Si O2"
_cell_formula_units_Z 64
_cell_length_a 7.597377
_cell_length_b 26.151737
_cell_length_c 15.072412
_cell_angle_alpha 90.000000
_cell_angle_beta 90.000000
_cell_angle_gamma 90.000000
_cell_volume 2994.656228
_symmetry_space_group_name_H-M "P M M M"
_symmetry_group_IT_number 47
_symmetry_cell_setting 'orthorhombic'
loop_
_space_group_symop_operation_xyz
x,y,z
-x,-y,z
x,-y,-z
-x,y,-z
-x,-y,-z
x,y,-z
-x,y,z
x,-y,z
loop_
_atom_site_type_symbol
_atom_site_label
_atom_site_fract_x
_atom_site_fract_y
_atom_site_fract_z
Si Si1 0.291063 0.841522 0.100742
Si Si2 0.285395 0.442424 0.602379
Si Si3 0.211748 0.196284 0.402974
Si Si4 0.295829 0.750036 0.777544
Si Si5 0.283995 0.635825 0.248704
Si Si6 0.796284 0.945040 0.203137
Si Si7 0.705921 0.076503 0.402708
Si Si8 0.714456 0.443198 0.101086
O O1 0.500000 0.833524 0.093896
O O2 0.218616 0.792496 0.155131
O O3 0.272637 0.893586 0.157556
O O4 0.221445 0.846264 0.000000
O O5 0.232491 0.435966 0.500000
O O6 0.500000 0.442557 0.604705
O O7 0.231703 0.500000 0.631579
O O8 0.227015 0.395798 0.664325
O O9 0.260648 0.217470 0.500000
O O10 0.288143 0.225649 0.320019
O O11 0.273869 0.137753 0.400157
O O12 0.000000 0.196240 0.396056
O O13 0.500000 0.743172 0.803700
O O14 0.219212 0.693308 0.767297
O O15 0.500000 0.637686 0.252375
O O16 0.229340 0.600710 0.166626
O O17 0.784450 0.942043 0.310194
O O18 0.000000 0.946058 0.178571
O O19 0.715943 0.000000 0.176042
O O20 0.776817 0.060284 0.500000
O O21 0.500000 0.063221 0.400862
O O22 0.500000 0.443163 0.101537
O O23 0.769402 0.500000 0.129729
O O24 0.770625 0.435231 0.000000
#
# Coordination Sequence:
#
# PCOD9385365 Si02
#       8
#     8   8   8   8   8   8   8   8
#     4  10  22  40  59  78 104 141 184 228 277 333
#     4   8  13  21  33  51  81 124 168 207 252 306
#     4  10  20  34  54  78 105 140 178 215 258 310
#     4  10  20  33  51  77 106 138 176 220 271 324
#     4   9  16  24  37  60  91 126 165 210 259 310
#     4  11  24  40  60  87 116 145 180 224 271 321
#     4  10  20  35  58  87 117 148 180 214 256 309
#     4   8  13  21  34  54  84 125 168 206 250 307
#
# _framework density 21.371400999999999
#
# number of rings (size 3 to 8) (size 9 to 14) (size 15 to 20)
#    0.000    2.500    1.250    2.250    0.000    5.750 
#    0.000    6.250    0.000    0.000    0.000    0.000 
#    0.000    2.000    0.000    8.250    0.000    6.500 
#
# Total GULP energy -357036.990757 kJ/mol
# GULP energy per Si atom -5578.702981 kJ/mol
# Density = 2.132276 g / cm^3
# Si number density = 21.371401 Si / 1000 Ang^3
#
#
#
# Elastic Constant Matrix: (Units=GPa)
#
#
# Indices 1 2 3 4 5 6 
#
# 1 47.8381 1.6557 -1.6461 0.0000 0.0000 0.0000
# 2 1.6557 201.2575 105.1549 0.0000 0.0000 0.0000
# 3 -1.6461 105.1549 137.6279 0.0000 0.0000 0.0000
# 4 0.0000 0.0000 0.0000 -9.0602 0.0000 0.0000
# 5 0.0000 0.0000 0.0000 0.0000 105.3171 0.0000
# 6 0.0000 0.0000 0.0000 0.0000 0.0000 9.2957
#
#
#
# Elastic Compliance Matrix: (Units=1/GPa)
#
#
# Indices 1 2 3 4 5 6 
#
# 1 0.020943 -0.000505 0.000636 0.000000 0.000000 0.000000
# 2 -0.000505 0.008283 -0.006334 0.000000 0.000000 0.000000
# 3 0.000636 -0.006334 0.012113 0.000000 0.000000 0.000000
# 4 0.000000 0.000000 0.000000 -0.110373 0.000000 0.000000
# 5 0.000000 0.000000 0.000000 0.000000 0.009495 0.000000
# 6 0.000000 0.000000 0.000000 0.000000 0.000000 0.107577
#
#
# Mechanical properties :
#
#
# Convention : Reuss Voigt Hill
#
# Bulk Modulus (GPa) = 34.56230 66.33918 50.45074
# Shear Modulus (GPa) = 71.33849 39.88110 55.60980
#
# Velocity S-wave (km/s) = 5.78384 4.32452 5.10658
# Velocity P-wave (km/s) = 7.79815 7.48624 7.64378
#
# Compressibility (1/GPa) = 0.02893326
#
# Stress axis : x y z
#
# Youngs Moduli (GPa) = 47.74819 120.73615 82.55375
#
# Poissons Ratio (x) = 0.06093 -0.05251
# Poissons Ratio (y) = 0.02410 0.52292
# Poissons Ratio (z) = -0.03037 0.76478
#
# Static dielectric constant tensor:
#      x y z
#    x 1.815330 0.000000 0.000000 
#    y 0.000000 1.773760 0.000000 
#    z 0.000000 0.000000 1.767680 
# 
# From -- ./inp_files/21890.got.cif
#   From: 2010.05.17/outbox.cif.g08.bks.cpg/sg47_11_cif.got.tgz:21890.got - 2010.06.03 20:15:42.
