data_PCOD9385503
_publ_section_title
;
Structure prediction by ZEFSAII (Michael W. Deem and Ramdas Pophale) SiO2 
 PCOD9385503
Probable space group: P M M M
;
_chemical_formula_sum "Si O2"
_cell_formula_units_Z 40
_cell_length_a 26.356534
_cell_length_b 8.417516
_cell_length_c 9.438355
_cell_angle_alpha 90.000000
_cell_angle_beta 90.000000
_cell_angle_gamma 90.000000
_cell_volume 2093.960846
_symmetry_space_group_name_H-M "P M M M"
_symmetry_group_IT_number 47
_symmetry_cell_setting 'orthorhombic'
loop_
_space_group_symop_operation_xyz
x,y,z
-x,-y,z
x,-y,-z
-x,y,-z
-x,-y,-z
x,y,-z
-x,y,z
x,-y,z
loop_
_atom_site_type_symbol
_atom_site_label
_atom_site_fract_x
_atom_site_fract_y
_atom_site_fract_z
Si Si1 0.847082 0.189725 0.837304
Si Si2 0.750942 0.690020 0.662593
Si Si3 0.654471 0.192244 0.162319
Si Si4 0.058089 0.691821 0.664071
Si Si5 0.442956 0.806377 0.663673
O O1 0.801735 0.259914 0.743981
O O2 0.900435 0.236359 0.767379
O O3 0.842011 0.000000 0.837255
O O4 0.843968 0.246042 0.000000
O O5 0.751575 0.748008 0.500000
O O6 0.748333 0.500000 0.660382
O O7 0.702318 0.754732 0.745809
O O8 0.602242 0.247867 0.235437
O O9 0.653657 0.000000 0.161078
O O10 0.658690 0.246912 0.000000
O O11 0.068415 0.736611 0.500000
O O12 0.060878 0.500000 0.671342
O O13 0.000000 0.737971 0.697278
O O14 0.433835 0.759652 0.500000
O O15 0.500000 0.755670 0.704148
O O16 0.442901 0.000000 0.666158
#
# Coordination Sequence:
#
# PCOD9385503 Si02
#       5
#     8   8   8   8   8
#     4  11  24  39  56  82 114 144 177 220 269 320
#     4  11  24  40  58  79 103 136 180 225 269 321
#     4  10  20  33  52  80 111 141 175 217 266 319
#     4   9  19  37  60  85 113 146 185 225 263 309
#     4   8  14  26  46  73 105 141 179 217 259 309
#
# _framework density 19.102554999999999
#
# number of rings (size 3 to 8) (size 9 to 14) (size 15 to 20)
#    0.000    2.200    0.000    4.200    0.000   10.800 
#    0.000    5.000    0.000    0.600    0.000    4.200 
#    0.000    0.000    0.000    0.000    0.000    0.000 
#
# Total GULP energy -223386.227399 kJ/mol
# GULP energy per Si atom -5584.655685 kJ/mol
# Density = 1.905908 g / cm^3
# Si number density = 19.102555 Si / 1000 Ang^3
#
#
#
# Elastic Constant Matrix: (Units=GPa)
#
#
# Indices 1 2 3 4 5 6 
#
# 1 150.8575 16.8129 118.1387 0.0000 0.0000 0.0000
# 2 16.8129 13.3893 24.4413 0.0000 0.0000 0.0000
# 3 118.1387 24.4413 180.5737 0.0000 0.0000 0.0000
# 4 0.0000 0.0000 0.0000 130.7457 0.0000 0.0000
# 5 0.0000 0.0000 0.0000 0.0000 -93.4106 0.0000
# 6 0.0000 0.0000 0.0000 0.0000 0.0000 59.2001
#
#
#
# Elastic Compliance Matrix: (Units=1/GPa)
#
#
# Indices 1 2 3 4 5 6 
#
# 1 0.013606 -0.001110 -0.008751 0.000000 0.000000 0.000000
# 2 -0.001110 0.099286 -0.012712 0.000000 0.000000 0.000000
# 3 -0.008751 -0.012712 0.012984 0.000000 0.000000 0.000000
# 4 0.000000 0.000000 0.000000 0.007648 0.000000 0.000000
# 5 0.000000 0.000000 0.000000 0.000000 -0.010705 0.000000
# 6 0.000000 0.000000 0.000000 0.000000 0.000000 0.016892
#
#
# Mechanical properties :
#
#
# Convention : Reuss Voigt Hill
#
# Bulk Modulus (GPa) = 12.38725 73.73404 43.06065
# Shear Modulus (GPa) = 23.61090 31.66890 27.63990
#
# Velocity S-wave (km/s) = 3.51950 4.07607 3.80797
# Velocity P-wave (km/s) = 4.79735 7.79970 6.47495
#
# Compressibility (1/GPa) = 0.08072816
#
# Stress axis : x y z
#
# Youngs Moduli (GPa) = 73.49924 10.07194 77.01843
#
# Poissons Ratio (x) = 0.01118 0.67400
# Poissons Ratio (y) = 0.08158 0.97910
# Poissons Ratio (z) = 0.64320 0.12804
#
# Static dielectric constant tensor:
#      x y z
#    x 1.635960 0.000000 0.000000 
#    y 0.000000 1.666050 0.000000 
#    z 0.000000 0.000000 1.652100 
# 
# From -- ./inp_files/1353.got.cif
#   From: 2010.05.17/outbox.cif.g08.bks.cpg/sg47_1_cif.got.tgz:1353.got - 2010.06.03 20:15:42.
