data_PCOD9385776
_publ_section_title
;
Structure prediction by ZEFSAII (Michael W. Deem and Ramdas Pophale) SiO2 
 PCOD9385776
Probable space group: P M M M
;
_chemical_formula_sum "Si O2"
_cell_formula_units_Z 44
_cell_length_a 31.244990
_cell_length_b 7.637035
_cell_length_c 9.633945
_cell_angle_alpha 90.000000
_cell_angle_beta 90.000000
_cell_angle_gamma 90.000000
_cell_volume 2298.843114
_symmetry_space_group_name_H-M "P M M M"
_symmetry_group_IT_number 47
_symmetry_cell_setting 'orthorhombic'
loop_
_space_group_symop_operation_xyz
x,y,z
-x,-y,z
x,-y,-z
-x,y,-z
-x,-y,-z
x,y,-z
-x,y,z
x,-y,z
loop_
_atom_site_type_symbol
_atom_site_label
_atom_site_fract_x
_atom_site_fract_y
_atom_site_fract_z
Si Si1 0.222250 0.709803 0.341212
Si Si2 0.952535 0.786202 0.160671
Si Si3 0.614378 0.798530 0.337594
Si Si4 0.697836 0.712629 0.840106
Si Si5 0.451451 0.500000 0.668328
Si Si6 0.873235 0.789461 0.341939
O O1 0.226072 0.777707 0.500000
O O2 0.226419 0.500000 0.348321
O O3 0.259856 0.774224 0.241672
O O4 0.174373 0.748344 0.289226
O O5 0.912637 0.723596 0.250679
O O6 0.000000 0.732377 0.209774
O O7 0.952072 0.000000 0.163318
O O8 0.948042 0.734439 0.000000
O O9 0.624909 0.759137 0.500000
O O10 0.656073 0.770305 0.244278
O O11 0.576524 0.669023 0.292809
O O12 0.600791 0.000000 0.329986
O O13 0.698110 0.500000 0.840280
O O14 0.697195 0.770678 0.000000
O O15 0.500000 0.500000 0.721243
O O16 0.453839 0.500000 0.500000
O O17 0.875847 0.722977 0.500000
O O18 0.876652 0.000000 0.346475
#
# Coordination Sequence:
#
# PCOD9385776 Si02
#       6
#     8   8   8   8   4   8
#     4   9  18  32  49  68  95 132 167 201 248 308
#     4   8  14  25  41  61  85 114 148 187 236 293
#     4  10  20  34  56  84 112 146 185 224 271 324
#     4  10  20  34  53  76 103 137 177 220 265 314
#     4   9  18  34  57  85 117 149 183 229 276 317
#     4   9  17  28  43  65  90 114 147 195 244 290
#
# _framework density 19.140063000000001
#
# number of rings (size 3 to 8) (size 9 to 14) (size 15 to 20)
#    0.000    2.818    0.909    1.091    0.000    3.273 
#    0.000    5.455    0.000    1.636    0.000    5.091 
#    0.000    0.000    0.000    0.000    0.000    0.000 
#
# Total GULP energy -245433.011174 kJ/mol
# GULP energy per Si atom -5578.022981 kJ/mol
# Density = 1.909650 g / cm^3
# Si number density = 19.140063 Si / 1000 Ang^3
#
#
#
# Elastic Constant Matrix: (Units=GPa)
#
#
# Indices 1 2 3 4 5 6 
#
# 1 218.1094 38.1542 95.0050 0.0000 0.0000 0.0000
# 2 38.1542 55.3634 26.4576 0.0000 0.0000 0.0000
# 3 95.0050 26.4576 80.4965 0.0000 0.0000 0.0000
# 4 0.0000 0.0000 0.0000 9.5368 0.0000 0.0000
# 5 0.0000 0.0000 0.0000 0.0000 -24.7389 0.0000
# 6 0.0000 0.0000 0.0000 0.0000 0.0000 19.0408
#
#
#
# Elastic Compliance Matrix: (Units=1/GPa)
#
#
# Indices 1 2 3 4 5 6 
#
# 1 0.009528 -0.001414 -0.010781 0.000000 0.000000 0.000000
# 2 -0.001414 0.021638 -0.005443 0.000000 0.000000 0.000000
# 3 -0.010781 -0.005443 0.026935 0.000000 0.000000 0.000000
# 4 0.000000 0.000000 0.000000 0.104857 0.000000 0.000000
# 5 0.000000 0.000000 0.000000 0.000000 -0.040422 0.000000
# 6 0.000000 0.000000 0.000000 0.000000 0.000000 0.052519
#
#
# Mechanical properties :
#
#
# Convention : Reuss Voigt Hill
#
# Bulk Modulus (GPa) = 43.80883 74.80032 59.30458
# Shear Modulus (GPa) = 22.94217 13.72456 18.33337
#
# Velocity S-wave (km/s) = 3.46590 2.68070 3.09828
# Velocity P-wave (km/s) = 6.24139 6.98190 6.62200
#
# Compressibility (1/GPa) = 0.02282645
#
# Stress axis : x y z
#
# Youngs Moduli (GPa) = 104.95244 46.21439 37.12587
#
# Poissons Ratio (x) = 0.06537 0.40024
# Poissons Ratio (y) = 0.14845 0.20206
# Poissons Ratio (z) = 1.13144 0.25153
#
# Static dielectric constant tensor:
#      x y z
#    x 1.641000 0.000000 0.000000 
#    y 0.000000 1.714830 0.000000 
#    z 0.000000 0.000000 1.651760 
# 
# From -- ./inp_files/2310.got.cif
#   From: 2010.05.17/outbox.cif.g08.bks.cpg/sg47_2_cif.got.tgz:2310.got - 2010.06.03 20:15:42.
