data_PCOD9385454
_publ_section_title
;
Structure prediction by ZEFSAII (Michael W. Deem and Ramdas Pophale) SiO2 
 PCOD9385454
Probable space group: P M M M
;
_chemical_formula_sum "Si O2"
_cell_formula_units_Z 56
_cell_length_a 16.112322
_cell_length_b 7.505164
_cell_length_c 20.605727
_cell_angle_alpha 90.000000
_cell_angle_beta 90.000000
_cell_angle_gamma 90.000000
_cell_volume 2491.760293
_symmetry_space_group_name_H-M "P M M M"
_symmetry_group_IT_number 47
_symmetry_cell_setting 'orthorhombic'
loop_
_space_group_symop_operation_xyz
x,y,z
-x,-y,z
x,-y,-z
-x,y,-z
-x,-y,-z
x,y,-z
-x,y,z
x,-y,z
loop_
_atom_site_type_symbol
_atom_site_label
_atom_site_fract_x
_atom_site_fract_y
_atom_site_fract_z
Si Si1 0.592538 0.703575 0.905353
Si Si2 0.903862 0.717568 0.186213
Si Si3 0.595719 0.204084 0.241051
Si Si4 0.000000 0.785799 0.574743
Si Si5 0.596666 0.217528 0.500000
Si Si6 0.777988 0.282745 0.928177
Si Si7 0.850003 0.292661 0.330735
Si Si8 0.326675 0.796885 0.367580
O O1 0.500000 0.782120 0.920226
O O2 0.590133 0.500000 0.928588
O O3 0.599683 0.701835 0.827532
O O4 0.681737 0.781250 0.925705
O O5 0.903950 0.500000 0.185964
O O6 0.837929 0.775157 0.130845
O O7 0.876184 0.773603 0.258944
O O8 0.000000 0.772038 0.174526
O O9 0.500000 0.198590 0.260976
O O10 0.644171 0.288339 0.300360
O O11 0.624466 0.000000 0.229170
O O12 0.922634 0.723924 0.617317
O O13 0.000000 0.723580 0.500000
O O14 0.000000 0.000000 0.573512
O O15 0.500000 0.262856 0.500000
O O16 0.640344 0.281765 0.434316
O O17 0.603732 0.000000 0.500000
O O18 0.773995 0.500000 0.923651
O O19 0.811337 0.238273 0.000000
O O20 0.828693 0.500000 0.322673
O O21 0.771341 0.198813 0.362055
O O22 0.360385 0.000000 0.364947
#
# Coordination Sequence:
#
# PCOD9385454 Si02
#       8
#     8   8   8   4   4   8   8   8
#     4   9  17  29  46  70 101 134 169 215 275 335
#     4   9  17  31  50  73 104 139 177 220 267 321
#     4   9  17  30  49  73 101 135 179 228 271 317
#     4  11  25  43  63  85 112 141 176 226 275 319
#     4   9  18  34  55  76 103 142 183 223 268 315
#     4   9  17  28  45  72 104 138 177 221 269 322
#     4  11  22  38  59  83 113 147 180 217 272 335
#     4  10  20  33  52  78 106 137 180 227 270 317
#
# _framework density 22.474072
#
# number of rings (size 3 to 8) (size 9 to 14) (size 15 to 20)
#    0.000    2.429    0.714    1.929    1.000    4.571 
#    0.000    2.857    0.000    2.143    0.000    2.000 
#    0.000    0.571    0.000    0.000    0.000    0.000 
#
# Total GULP energy -312484.410045 kJ/mol
# GULP energy per Si atom -5580.078751 kJ/mol
# Density = 2.242292 g / cm^3
# Si number density = 22.474072 Si / 1000 Ang^3
#
#
#
# Elastic Constant Matrix: (Units=GPa)
#
#
# Indices 1 2 3 4 5 6 
#
# 1 141.7358 0.5686 104.3458 0.0000 0.0000 0.0000
# 2 0.5686 67.6974 9.3008 0.0000 0.0000 0.0000
# 3 104.3458 9.3008 200.5657 0.0000 0.0000 0.0000
# 4 0.0000 0.0000 0.0000 539.8197 0.0000 0.0000
# 5 0.0000 0.0000 0.0000 0.0000 75.8996 0.0000
# 6 0.0000 0.0000 0.0000 0.0000 0.0000**********
#
#
#
# Elastic Compliance Matrix: (Units=1/GPa)
#
#
# Indices 1 2 3 4 5 6 
#
# 1 0.011471 0.000728 -0.006002 0.000000 0.000000 0.000000
# 2 0.000728 0.014913 -0.001070 0.000000 0.000000 0.000000
# 3 -0.006002 -0.001070 0.008158 0.000000 0.000000 0.000000
# 4 0.000000 0.000000 0.000000 0.001852 0.000000 0.000000
# 5 0.000000 0.000000 0.000000 0.000000 0.013175 0.000000
# 6 0.000000 0.000000 0.000000 0.000000 0.000000 0.000002
#
#
# Mechanical properties :
#
#
# Convention : Reuss Voigt Hill
#
# Bulk Modulus (GPa) = 45.75871 70.93659 58.34765
# Shear Modulus (GPa) = 71.89754 82644.38166 41358.13960
#
# Velocity S-wave (km/s) = 5.66222 191.97146 135.80336
# Velocity P-wave (km/s) = 7.94686 221.74089 156.89515
#
# Compressibility (1/GPa) = 0.02185376
#
# Stress axis : x y z
#
# Youngs Moduli (GPa) = 87.17810 67.05758 122.58101
#
# Poissons Ratio (x) = -0.04883 0.73567
# Poissons Ratio (y) = -0.06348 0.13121
# Poissons Ratio (z) = 0.52320 0.07178
#
# Static dielectric constant tensor:
#      x y z
#    x 1.839800 0.000000 0.000000 
#    y 0.000000 1.901930 0.000000 
#    z 0.000000 0.000000 1.818790 
# 
# From -- ./inp_files/30999.got.cif
#   From: 2010.05.17/outbox.cif.g08.bks.cpg/sg47_16_cif.got.tgz:30999.got - 2010.06.03 20:15:42.
