data_PCOD9385608
_publ_section_title
;
Structure prediction by ZEFSAII (Michael W. Deem and Ramdas Pophale) SiO2 
 PCOD9385608
Probable space group: P M M M
;
_chemical_formula_sum "Si O2"
_cell_formula_units_Z 52
_cell_length_a 25.873324
_cell_length_b 7.489570
_cell_length_c 15.032038
_cell_angle_alpha 90.000000
_cell_angle_beta 90.000000
_cell_angle_gamma 90.000000
_cell_volume 2912.909394
_symmetry_space_group_name_H-M "P M M M"
_symmetry_group_IT_number 47
_symmetry_cell_setting 'orthorhombic'
loop_
_space_group_symop_operation_xyz
x,y,z
-x,-y,z
x,-y,-z
-x,y,-z
-x,-y,-z
x,y,-z
-x,y,z
x,-y,z
loop_
_atom_site_type_symbol
_atom_site_label
_atom_site_fract_x
_atom_site_fract_y
_atom_site_fract_z
Si Si1 0.142590 0.212264 0.605331
Si Si2 0.281550 0.784720 0.098102
Si Si3 0.403615 0.287856 0.902115
Si Si4 0.058525 0.500000 0.607609
Si Si5 0.342148 0.212320 0.399797
Si Si6 0.755737 0.218201 0.286138
Si Si7 0.443212 0.284616 0.714146
O O1 0.153231 0.243079 0.500000
O O2 0.092567 0.326935 0.631204
O O3 0.192066 0.268479 0.663149
O O4 0.134272 0.000000 0.616452
O O5 0.342062 0.738276 0.109552
O O6 0.250232 0.721926 0.184104
O O7 0.278586 0.000000 0.097071
O O8 0.265479 0.719926 0.000000
O O9 0.413635 0.500000 0.904818
O O10 0.431245 0.217394 0.814083
O O11 0.417765 0.215406 0.000000
O O12 0.055275 0.500000 0.500000
O O13 0.000000 0.500000 0.642272
O O14 0.342480 0.284742 0.500000
O O15 0.294620 0.280872 0.340566
O O16 0.396359 0.237995 0.350427
O O17 0.333972 0.000000 0.406074
O O18 0.754905 0.000000 0.285564
O O19 0.500000 0.223921 0.684825
O O20 0.443973 0.500000 0.718229
#
# Coordination Sequence:
#
# PCOD9385608 Si02
#       7
#     8   8   8   4   8   8   8
#     4   9  17  30  48  71 101 137 173 207 244 284
#     4   9  16  27  46  69  92 119 148 183 234 290
#     4   9  17  30  47  66  87 111 144 185 230 286
#     4   9  18  32  48  72 107 141 176 212 242 279
#     4  10  20  34  51  68  86 114 152 192 238 288
#     4   9  16  29  48  69  95 122 151 192 239 286
#     4  10  21  35  48  64  87 114 148 191 237 287
#
# _framework density 17.851568
#
# number of rings (size 3 to 8) (size 9 to 14) (size 15 to 20)
#    0.000    2.692    1.538    0.462    0.000    3.385 
#    2.769    4.615    0.000    0.000    0.000    3.231 
#    0.000    1.231    0.000    6.000    0.000    0.154 
#
# Total GULP energy -290024.751971 kJ/mol
# GULP energy per Si atom -5577.399076 kJ/mol
# Density = 1.781094 g / cm^3
# Si number density = 17.851568 Si / 1000 Ang^3
#
#
#
# Elastic Constant Matrix: (Units=GPa)
#
#
# Indices 1 2 3 4 5 6 
#
# 1 132.6971 16.8435 68.7836 0.0000 0.0000 0.0000
# 2 16.8435 52.5384 16.6062 0.0000 0.0000 0.0000
# 3 68.7836 16.6062 118.9681 0.0000 0.0000 0.0000
# 4 0.0000 0.0000 0.0000 9.1449 0.0000 0.0000
# 5 0.0000 0.0000 0.0000 0.0000 15.2144 0.0000
# 6 0.0000 0.0000 0.0000 0.0000 0.0000 19.2459
#
#
#
# Elastic Compliance Matrix: (Units=1/GPa)
#
#
# Indices 1 2 3 4 5 6 
#
# 1 0.010883 -0.001569 -0.006073 0.000000 0.000000 0.000000
# 2 -0.001569 0.020139 -0.001904 0.000000 0.000000 0.000000
# 3 -0.006073 -0.001904 0.012183 0.000000 0.000000 0.000000
# 4 0.000000 0.000000 0.000000 0.109351 0.000000 0.000000
# 5 0.000000 0.000000 0.000000 0.000000 0.065727 0.000000
# 6 0.000000 0.000000 0.000000 0.000000 0.000000 0.051959
#
#
# Mechanical properties :
#
#
# Convention : Reuss Voigt Hill
#
# Bulk Modulus (GPa) = 41.47354 56.51892 48.99623
# Shear Modulus (GPa) = 16.81394 22.18570 19.49982
#
# Velocity S-wave (km/s) = 3.07233 3.52914 3.30863
# Velocity P-wave (km/s) = 5.98903 6.95239 6.48861
#
# Compressibility (1/GPa) = 0.02411176
#
# Stress axis : x y z
#
# Youngs Moduli (GPa) = 91.88419 49.65596 82.08345
#
# Poissons Ratio (x) = 0.07793 0.49852
# Poissons Ratio (y) = 0.14421 0.15626
# Poissons Ratio (z) = 0.55804 0.09453
#
# Static dielectric constant tensor:
#      x y z
#    x 1.573480 0.000000 0.000000 
#    y 0.000000 1.695960 0.000000 
#    z 0.000000 0.000000 1.629540 
# 
# From -- ./inp_files/7027.got.cif
#   From: 2010.05.17/outbox.cif.g08.bks.cpg/sg47_4_cif.got.tgz:7027.got - 2010.06.03 20:15:42.
