data_PCOD9385395
_publ_section_title
;
Structure prediction by ZEFSAII (Michael W. Deem and Ramdas Pophale) SiO2 
 PCOD9385395
Probable space group: P M M M
;
_chemical_formula_sum "Si O2"
_cell_formula_units_Z 64
_cell_length_a 9.052429
_cell_length_b 14.872436
_cell_length_c 23.420627
_cell_angle_alpha 90.000000
_cell_angle_beta 90.000000
_cell_angle_gamma 90.000000
_cell_volume 3153.158148
_symmetry_space_group_name_H-M "P M M M"
_symmetry_group_IT_number 47
_symmetry_cell_setting 'orthorhombic'
loop_
_space_group_symop_operation_xyz
x,y,z
-x,-y,z
x,-y,-z
-x,y,-z
-x,-y,-z
x,y,-z
-x,y,z
x,-y,z
loop_
_atom_site_type_symbol
_atom_site_label
_atom_site_fract_x
_atom_site_fract_y
_atom_site_fract_z
Si Si1 0.672123 0.783914 0.431482
Si Si2 0.330143 0.242802 0.254419
Si Si3 0.324113 0.643284 0.064563
Si Si4 0.172114 0.399625 0.430562
Si Si5 0.172563 0.396995 0.185249
Si Si6 0.832946 0.168507 0.062150
Si Si7 0.661426 0.904609 0.157602
Si Si8 0.176845 0.895692 0.658683
O O1 0.685024 0.786628 0.500000
O O2 0.500000 0.793113 0.416399
O O3 0.733138 0.686028 0.411892
O O4 0.766456 0.862666 0.402903
O O5 0.500000 0.260943 0.271550
O O6 0.249783 0.331643 0.231056
O O7 0.332714 0.178366 0.199266
O O8 0.247803 0.180143 0.300277
O O9 0.500000 0.631079 0.069929
O O10 0.245777 0.607424 0.121821
O O11 0.278684 0.748001 0.064690
O O12 0.281387 0.610141 0.000000
O O13 0.176743 0.400518 0.500000
O O14 0.219970 0.500000 0.411752
O O15 0.000000 0.387460 0.414319
O O16 0.182593 0.500000 0.204613
O O17 0.000000 0.371772 0.179837
O O18 0.789667 0.103239 0.112251
O O19 0.000000 0.203147 0.068641
O O20 0.821342 0.125666 0.000000
O O21 0.500000 0.902433 0.128639
O O22 0.671632 0.000000 0.189073
O O23 0.000000 0.891085 0.662774
O O24 0.220701 0.000000 0.669865
#
# Coordination Sequence:
#
# PCOD9385395 Si02
#       8
#     8   8   8   8   8   8   8   8
#     4  10  21  37  60  93 132 171 210 257 311 364
#     4  11  23  42  67  91 118 154 197 249 303 358
#     4  10  20  35  57  85 118 158 204 252 305 366
#     4   8  14  27  50  81 119 164 209 249 291 343
#     4  11  24  41  63  92 125 161 202 250 307 370
#     4  10  20  33  51  77 111 151 194 242 297 354
#     4  10  21  36  56  83 112 147 191 238 294 357
#     4  11  25  44  67  94 124 162 206 252 305 366
#
# _framework density 20.29711
#
# number of rings (size 3 to 8) (size 9 to 14) (size 15 to 20)
#    0.000    1.875    1.250    3.000    0.000    6.500 
#    0.000    5.625    0.000    3.750    0.000    0.000 
#    0.000    0.000    0.000    0.000    0.000    0.000 
#
# Total GULP energy -356947.539426 kJ/mol
# GULP energy per Si atom -5577.305304 kJ/mol
# Density = 2.025091 g / cm^3
# Si number density = 20.297110 Si / 1000 Ang^3
#
#
#
# Elastic Constant Matrix: (Units=GPa)
#
#
# Indices 1 2 3 4 5 6 
#
# 1 100.6596 48.8648 38.5483 0.0000 0.0000 0.0000
# 2 48.8648 106.8590 34.3727 0.0000 0.0000 0.0000
# 3 38.5483 34.3727 52.5419 0.0000 0.0000 0.0000
# 4 0.0000 0.0000 0.0000 -41.4695 0.0000 0.0000
# 5 0.0000 0.0000 0.0000 0.0000 29.3990 0.0000
# 6 0.0000 0.0000 0.0000 0.0000 0.0000 18.3906
#
#
#
# Elastic Compliance Matrix: (Units=1/GPa)
#
#
# Indices 1 2 3 4 5 6 
#
# 1 0.015209 -0.004263 -0.008370 0.000000 0.000000 0.000000
# 2 -0.004263 0.013047 -0.005408 0.000000 0.000000 0.000000
# 3 -0.008370 -0.005408 0.028711 0.000000 0.000000 0.000000
# 4 0.000000 0.000000 0.000000 -0.024114 0.000000 0.000000
# 5 0.000000 0.000000 0.000000 0.000000 0.034015 0.000000
# 6 0.000000 0.000000 0.000000 0.000000 0.000000 0.054376
#
#
# Mechanical properties :
#
#
# Convention : Reuss Voigt Hill
#
# Bulk Modulus (GPa) = 47.87838 55.95912 51.91875
# Shear Modulus (GPa) = 30.43478 10.48232 20.45855
#
# Velocity S-wave (km/s) = 3.87649 2.27501 3.17827
# Velocity P-wave (km/s) = 6.60880 5.87628 6.25328
#
# Compressibility (1/GPa) = 0.02088625
#
# Stress axis : x y z
#
# Youngs Moduli (GPa) = 65.75061 76.64686 34.82995
#
# Poissons Ratio (x) = 0.32671 0.29152
# Poissons Ratio (y) = 0.28027 0.18836
# Poissons Ratio (z) = 0.55032 0.41450
#
# Static dielectric constant tensor:
#      x y z
#    x 1.713190 0.000000 0.000000 
#    y 0.000000 1.721280 0.000000 
#    z 0.000000 0.000000 1.756010 
# 
# From -- ./inp_files/32145.got.cif
#   From: 2010.05.17/outbox.cif.g08.bks.cpg/sg47_17_cif.got.tgz:32145.got - 2010.06.03 20:15:42.
