data_PCOD9386347
_publ_section_title
;
Structure prediction by ZEFSAII (Michael W. Deem and Ramdas Pophale) SiO2 
 PCOD9386347
Probable space group: P M M M
;
_chemical_formula_sum "Si O2"
_cell_formula_units_Z 40
_cell_length_a 9.424705
_cell_length_b 8.297967
_cell_length_c 28.315570
_cell_angle_alpha 90.000000
_cell_angle_beta 90.000000
_cell_angle_gamma 90.000000
_cell_volume 2214.444383
_symmetry_space_group_name_H-M "P M M M"
_symmetry_group_IT_number 47
_symmetry_cell_setting 'orthorhombic'
loop_
_space_group_symop_operation_xyz
x,y,z
-x,-y,z
x,-y,-z
-x,y,-z
-x,-y,-z
x,y,-z
-x,y,z
x,-y,z
loop_
_atom_site_type_symbol
_atom_site_label
_atom_site_fract_x
_atom_site_fract_y
_atom_site_fract_z
Si Si1 0.327288 0.814718 0.113380
Si Si2 0.337271 0.191983 0.400005
Si Si3 0.673078 0.500000 0.945264
Si Si4 0.337587 0.193376 0.778460
Si Si5 0.335835 0.308002 0.500000
Si Si6 0.839229 0.307982 0.689645
O O1 0.500000 0.819004 0.111899
O O2 0.280938 0.666249 0.080398
O O3 0.289697 0.775540 0.167775
O O4 0.281083 0.000000 0.102052
O O5 0.500000 0.255031 0.395879
O O6 0.274901 0.249490 0.450222
O O7 0.247799 0.244820 0.355107
O O8 0.343576 0.000000 0.400903
O O9 0.500000 0.500000 0.943534
O O10 0.715349 0.500000 0.000000
O O11 0.500000 0.252740 0.773033
O O12 0.238803 0.262331 0.738044
O O13 0.340949 0.000000 0.773388
O O14 0.336699 0.500000 0.500000
O O15 0.500000 0.247465 0.500000
O O16 0.843680 0.500000 0.686234
O O17 0.000000 0.244387 0.689336
#
# Coordination Sequence:
#
# PCOD9386347 Si02
#       6
#     8   8   4   8   4   8
#     4   8  15  27  42  64  95 128 167 213 254 301
#     4  10  20  35  56  80 104 132 169 209 249 298
#     4   9  16  24  38  64  97 135 173 204 249 308
#     4   9  18  33  53  75  97 128 172 215 256 305
#     4   9  17  31  54  81 106 131 162 204 250 295
#     4  11  24  37  49  72 105 136 168 209 257 308
#
# _framework density 18.063222
#
# number of rings (size 3 to 8) (size 9 to 14) (size 15 to 20)
#    0.000    2.600    0.000    3.300    1.400    7.200 
#    0.000    2.500    0.000    3.000    0.000    0.000 
#    0.000    1.600    0.000    4.400    0.000    4.400 
#
# Total GULP energy -222964.872588 kJ/mol
# GULP energy per Si atom -5574.121815 kJ/mol
# Density = 1.802211 g / cm^3
# Si number density = 18.063222 Si / 1000 Ang^3
#
#
#
# Elastic Constant Matrix: (Units=GPa)
#
#
# Indices 1 2 3 4 5 6 
#
# 1 48.4132 26.1211 51.1775 0.0000 0.0000 0.0000
# 2 26.1211 83.8906 86.6590 0.0000 0.0000 0.0000
# 3 51.1775 86.6590 161.9098 0.0000 0.0000 0.0000
# 4 0.0000 0.0000 0.0000 41.1010 0.0000 0.0000
# 5 0.0000 0.0000 0.0000 0.0000 -5.6266 0.0000
# 6 0.0000 0.0000 0.0000 0.0000 0.0000 13.2591
#
#
#
# Elastic Compliance Matrix: (Units=1/GPa)
#
#
# Indices 1 2 3 4 5 6 
#
# 1 0.031062 0.001052 -0.010381 0.000000 0.000000 0.000000
# 2 0.001052 0.026697 -0.014621 0.000000 0.000000 0.000000
# 3 -0.010381 -0.014621 0.017284 0.000000 0.000000 0.000000
# 4 0.000000 0.000000 0.000000 0.024330 0.000000 0.000000
# 5 0.000000 0.000000 0.000000 0.000000 -0.177727 0.000000
# 6 0.000000 0.000000 0.000000 0.000000 0.000000 0.075420
#
#
# Mechanical properties :
#
#
# Convention : Reuss Voigt Hill
#
# Bulk Modulus (GPa) = 36.84481 69.12541 52.98511
# Shear Modulus (GPa) = 92.56876 18.43042 55.49959
#
# Velocity S-wave (km/s) = 7.16647 3.19772 5.54904
# Velocity P-wave (km/s) = 9.42973 7.21010 8.39361
#
# Compressibility (1/GPa) = 0.02714086
#
# Stress axis : x y z
#
# Youngs Moduli (GPa) = 32.19360 37.45801 57.85856
#
# Poissons Ratio (x) = -0.03941 0.60066
# Poissons Ratio (y) = -0.03387 0.84597
# Poissons Ratio (z) = 0.33422 0.54769
#
# Static dielectric constant tensor:
#      x y z
#    x 1.612990 0.000000 0.000000 
#    y 0.000000 1.624000 0.000000 
#    z 0.000000 0.000000 1.613750 
# 
# From -- ./inp_files/13082.got.cif
#   From: 2010.05.17/outbox.cif.g08.bks.cpg/sg47_7_cif.got.tgz:13082.got - 2010.06.03 20:15:42.
