data_PCOD9386941
_publ_section_title
;
Structure prediction by ZEFSAII (Michael W. Deem and Ramdas Pophale) SiO2 
 PCOD9386941
Probable space group: P M M M
;
_chemical_formula_sum "Si O2"
_cell_formula_units_Z 48
_cell_length_a 9.806165
_cell_length_b 7.598013
_cell_length_c 32.349266
_cell_angle_alpha 90.000000
_cell_angle_beta 90.000000
_cell_angle_gamma 90.000000
_cell_volume 2410.258704
_symmetry_space_group_name_H-M "P M M M"
_symmetry_group_IT_number 47
_symmetry_cell_setting 'orthorhombic'
loop_
_space_group_symop_operation_xyz
x,y,z
-x,-y,z
x,-y,-z
-x,y,-z
-x,-y,-z
x,y,-z
-x,y,z
x,-y,z
loop_
_atom_site_type_symbol
_atom_site_label
_atom_site_fract_x
_atom_site_fract_y
_atom_site_fract_z
Si Si1 0.344245 0.714526 0.046970
Si Si2 0.843416 0.715893 0.122480
Si Si3 0.844919 0.288902 0.633818
Si Si4 0.834815 0.709271 0.544490
Si Si5 0.346143 0.790907 0.289241
Si Si6 0.654824 0.708602 0.803092
O O1 0.500000 0.767575 0.056915
O O2 0.343439 0.500000 0.047041
O O3 0.237672 0.772002 0.081443
O O4 0.312982 0.770227 0.000000
O O5 0.844599 0.500000 0.122627
O O6 0.758326 0.776569 0.162490
O O7 0.000000 0.773147 0.123052
O O8 0.853479 0.500000 0.629535
O O9 0.790042 0.221195 0.589314
O O10 0.750495 0.253916 0.672767
O O11 0.000000 0.223607 0.640270
O O12 0.788042 0.782866 0.500000
O O13 0.804414 0.500000 0.543498
O O14 0.000000 0.725220 0.545253
O O15 0.500000 0.719063 0.295068
O O16 0.296942 0.732085 0.244013
O O17 0.354749 0.000000 0.287537
O O18 0.500000 0.781207 0.806205
O O19 0.644509 0.500000 0.810460
#
# Coordination Sequence:
#
# PCOD9386941 Si02
#       6
#     8   8   8   8   8   8
#     4   8  13  21  33  50  76 112 148 176 206 251
#     4   9  16  24  36  57  83 109 139 178 221 261
#     4   9  17  29  48  74  98 120 150 188 229 273
#     4   7  10  19  38  65  94 119 144 179 222 264
#     4  10  21  35  49  66  90 121 156 192 231 276
#     4   9  17  30  47  63  81 110 147 184 223 268
#
# _framework density 19.914874000000001
#
# number of rings (size 3 to 8) (size 9 to 14) (size 15 to 20)
#    0.000    3.333    0.000    3.000    0.000    4.333 
#    0.000    3.333    0.000    1.000    0.000    5.833 
#    0.000    0.667    0.000    7.667    0.000    9.833 
#
# Total GULP energy -267432.124628 kJ/mol
# GULP energy per Si atom -5571.502596 kJ/mol
# Density = 1.986955 g / cm^3
# Si number density = 19.914874 Si / 1000 Ang^3
#
#
#
# Elastic Constant Matrix: (Units=GPa)
#
#
# Indices 1 2 3 4 5 6 
#
# 1 103.7991 5.3750 126.5700 0.0000 0.0000 0.0000
# 2 5.3750 41.2522 1.5230 0.0000 0.0000 0.0000
# 3 126.5700 1.5230 224.4012 0.0000 0.0000 0.0000
# 4 0.0000 0.0000 0.0000 -42.6334 0.0000 0.0000
# 5 0.0000 0.0000 0.0000 0.0000 37.0147 0.0000
# 6 0.0000 0.0000 0.0000 0.0000 0.0000 5.3257
#
#
#
# Elastic Compliance Matrix: (Units=1/GPa)
#
#
# Indices 1 2 3 4 5 6 
#
# 1 0.031333 -0.003431 -0.017650 0.000000 0.000000 0.000000
# 2 -0.003431 0.024623 0.001768 0.000000 0.000000 0.000000
# 3 -0.017650 0.001768 0.014399 0.000000 0.000000 0.000000
# 4 0.000000 0.000000 0.000000 -0.023456 0.000000 0.000000
# 5 0.000000 0.000000 0.000000 0.000000 0.027016 0.000000
# 6 0.000000 0.000000 0.000000 0.000000 0.000000 0.187770
#
#
# Mechanical properties :
#
#
# Convention : Reuss Voigt Hill
#
# Bulk Modulus (GPa) = 31.51568 70.70982 51.11275
# Shear Modulus (GPa) = 16.08293 15.67369 15.87831
#
# Velocity S-wave (km/s) = 2.84489 2.80846 2.82673
# Velocity P-wave (km/s) = 5.16243 6.78968 6.03119
#
# Compressibility (1/GPa) = 0.03173024
#
# Stress axis : x y z
#
# Youngs Moduli (GPa) = 31.91484 40.61262 69.44729
#
# Poissons Ratio (x) = 0.13934 1.22573
# Poissons Ratio (y) = 0.10950 -0.12279
# Poissons Ratio (z) = 0.56329 -0.07181
#
# Static dielectric constant tensor:
#      x y z
#    x 1.668190 0.000000 0.000000 
#    y 0.000000 1.734050 0.000000 
#    z 0.000000 0.000000 1.728730 
# 
# From -- ./inp_files/34027.got.cif
#   From: 2010.05.17/outbox.cif.g08.bks.cpg/sg47_18_cif.got.tgz:34027.got - 2010.06.03 20:15:42.
