data_PCOD9386872
_publ_section_title
;
Structure prediction by ZEFSAII (Michael W. Deem and Ramdas Pophale) SiO2 
 PCOD9386872
Probable space group: P M M M
;
_chemical_formula_sum "Si O2"
_cell_formula_units_Z 53
_cell_length_a 21.981711
_cell_length_b 8.085232
_cell_length_c 15.384065
_cell_angle_alpha 90.000000
_cell_angle_beta 90.000000
_cell_angle_gamma 90.000000
_cell_volume 2734.167308
_symmetry_space_group_name_H-M "P M M M"
_symmetry_group_IT_number 47
_symmetry_cell_setting 'orthorhombic'
loop_
_space_group_symop_operation_xyz
x,y,z
-x,-y,z
x,-y,-z
-x,y,-z
-x,-y,-z
x,y,-z
-x,y,z
x,-y,z
loop_
_atom_site_type_symbol
_atom_site_label
_atom_site_fract_x
_atom_site_fract_y
_atom_site_fract_z
Si Si1 0.126857 0.693491 0.741550
Si Si2 0.363857 0.199878 0.598613
Si Si3 0.000000 0.701453 0.353872
Si Si4 0.568225 0.698691 0.768541
Si Si5 0.330112 0.302171 0.901060
Si Si6 0.000000 0.000000 0.500000
Si Si7 0.197049 0.805497 0.097865
Si Si8 0.775366 0.800193 0.598949
O O1 0.131517 0.500000 0.757554
O O2 0.144942 0.776482 0.832054
O O3 0.176406 0.740428 0.668563
O O4 0.060536 0.727497 0.703150
O O5 0.378783 0.252083 0.500000
O O6 0.408732 0.263148 0.671894
O O7 0.294075 0.252946 0.617352
O O8 0.364477 0.000000 0.600096
O O9 0.000000 0.500000 0.380877
O O10 0.000000 0.848221 0.425421
O O11 0.500000 0.762477 0.783465
O O12 0.566423 0.500000 0.778022
O O13 0.618533 0.764143 0.836314
O O14 0.337258 0.500000 0.904867
O O15 0.261371 0.268410 0.870722
O O16 0.335712 0.237536 0.000000
O O17 0.207105 0.000000 0.091865
O O18 0.184536 0.740984 0.000000
O O19 0.790896 0.747944 0.500000
O O20 0.775873 0.000000 0.599882
#
# Coordination Sequence:
#
# PCOD9386872 Si02
#       8
#     8   8   4   8   8   1   8   8
#     4  11  23  39  58  84 123 156 191 244 286 339
#     4   9  19  36  53  73 101 134 176 230 279 331
#     4  10  27  45  62  97 130 164 218 256 292 360
#     4  10  21  34  49  73 104 139 180 224 272 331
#     4   9  18  34  56  81 109 142 179 221 280 344
#     4  12  26  44  76  86 122 192 206 252 310 342
#     4  10  21  37  60  88 115 145 188 240 289 347
#     4   9  19  34  56  83 110 141 185 232 284 348
#
# _framework density 19.384329000000001
#
# number of rings (size 3 to 8) (size 9 to 14) (size 15 to 20)
#    0.000    2.264    0.000    2.830    3.170    6.038 
#    0.000    4.906    0.000    2.264    0.000    3.170 
#    0.000    0.000    0.000    0.000    0.000    0.000 
#
# Total GULP energy -295433.574620 kJ/mol
# GULP energy per Si atom -5574.218389 kJ/mol
# Density = 1.934021 g / cm^3
# Si number density = 19.384329 Si / 1000 Ang^3
#
#
#
# Elastic Constant Matrix: (Units=GPa)
#
#
# Indices 1 2 3 4 5 6 
#
# 1 87.4149 30.3635 62.9821 0.0000 0.0000 0.0000
# 2 30.3635 32.2577 26.2705 0.0000 0.0000 0.0000
# 3 62.9821 26.2705 91.7077 0.0000 0.0000 0.0000
# 4 0.0000 0.0000 0.0000 29.1244 0.0000 0.0000
# 5 0.0000 0.0000 0.0000 0.0000 2.9114 0.0000
# 6 0.0000 0.0000 0.0000 0.0000 0.0000 155.7485
#
#
#
# Elastic Compliance Matrix: (Units=1/GPa)
#
#
# Indices 1 2 3 4 5 6 
#
# 1 0.026301 -0.013103 -0.014309 0.000000 0.000000 0.000000
# 2 -0.013103 0.046961 -0.004454 0.000000 0.000000 0.000000
# 3 -0.014309 -0.004454 0.022007 0.000000 0.000000 0.000000
# 4 0.000000 0.000000 0.000000 0.034335 0.000000 0.000000
# 5 0.000000 0.000000 0.000000 0.000000 0.343472 0.000000
# 6 0.000000 0.000000 0.000000 0.000000 0.000000 0.006421
#
#
# Mechanical properties :
#
#
# Convention : Reuss Voigt Hill
#
# Bulk Modulus (GPa) = 31.70856 50.06806 40.88831
# Shear Modulus (GPa) = 9.02950 43.67449 26.35200
#
# Velocity S-wave (km/s) = 2.16062 4.75181 3.69107
# Velocity P-wave (km/s) = 4.75581 7.48275 6.26934
#
# Compressibility (1/GPa) = 0.03153723
#
# Stress axis : x y z
#
# Youngs Moduli (GPa) = 38.02204 21.29431 45.44018
#
# Poissons Ratio (x) = 0.27902 0.65020
# Poissons Ratio (y) = 0.49820 0.20238
# Poissons Ratio (z) = 0.54406 0.09484
#
# Static dielectric constant tensor:
#      x y z
#    x 1.667490 0.000000 0.000000 
#    y 0.000000 1.694460 0.000000 
#    z 0.000000 0.000000 1.694790 
# 
# From -- ./inp_files/25102.got.cif
#   From: 2010.05.17/outbox.cif.g08.bks.cpg/sg47_13_cif.got.tgz:25102.got - 2010.06.03 20:15:42.
