data_PCOD9386602
_publ_section_title
;
Structure prediction by ZEFSAII (Michael W. Deem and Ramdas Pophale) SiO2 
 PCOD9386602
Probable space group: P M M M
;
_chemical_formula_sum "Si O2"
_cell_formula_units_Z 64
_cell_length_a 20.558534
_cell_length_b 18.323593
_cell_length_c 8.410221
_cell_angle_alpha 90.000000
_cell_angle_beta 90.000000
_cell_angle_gamma 90.000000
_cell_volume 3168.182476
_symmetry_space_group_name_H-M "P M M M"
_symmetry_group_IT_number 47
_symmetry_cell_setting 'orthorhombic'
loop_
_space_group_symop_operation_xyz
x,y,z
-x,-y,z
x,-y,-z
-x,y,-z
-x,-y,-z
x,y,-z
-x,y,z
x,-y,z
loop_
_atom_site_type_symbol
_atom_site_label
_atom_site_fract_x
_atom_site_fract_y
_atom_site_fract_z
Si Si1 0.922799 0.230810 0.173374
Si Si2 0.430084 0.240953 0.692986
Si Si3 0.924709 0.380349 0.683975
Si Si4 0.749120 0.121148 0.186387
Si Si5 0.881788 0.920855 0.314715
Si Si6 0.608485 0.920222 0.692325
Si Si7 0.211209 0.579993 0.811955
Si Si8 0.285232 0.278232 0.690155
O O1 0.907894 0.294164 0.298147
O O2 0.905957 0.149629 0.222776
O O3 0.000000 0.233370 0.160316
O O4 0.893902 0.249030 0.000000
O O5 0.430362 0.244177 0.500000
O O6 0.500000 0.270860 0.748860
O O7 0.426623 0.155039 0.737746
O O8 0.361642 0.277381 0.741523
O O9 0.921873 0.401838 0.500000
O O10 0.866199 0.416820 0.778210
O O11 0.000000 0.392163 0.738385
O O12 0.804533 0.083755 0.290446
O O13 0.679806 0.088402 0.233633
O O14 0.746855 0.207512 0.227212
O O15 0.762309 0.110446 0.000000
O O16 0.898739 0.914119 0.500000
O O17 0.905281 0.000000 0.257085
O O18 0.613261 0.918616 0.500000
O O19 0.581179 0.000000 0.736100
O O20 0.234565 0.500000 0.756738
O O21 0.248045 0.647509 0.731029
O O22 0.221619 0.585803 0.000000
O O23 0.283038 0.265896 0.500000
#
# Coordination Sequence:
#
# PCOD9386602 Si02
#       8
#     8   8   8   8   8   8   8   8
#     4  10  21  37  56  76 100 132 171 215 262 315
#     4   8  15  29  51  80 109 139 181 231 280 326
#     4  10  21  38  61  87 115 147 182 219 259 310
#     4  11  21  33  51  73 100 135 176 220 266 319
#     4  11  23  36  50  69  96 131 173 224 277 324
#     4   9  17  29  46  71 105 142 179 222 271 320
#     4  11  24  40  59  85 117 149 179 215 261 315
#     4  10  20  36  59  83 109 142 180 224 270 320
#
# _framework density 20.200856999999999
#
# number of rings (size 3 to 8) (size 9 to 14) (size 15 to 20)
#    0.000    2.000    0.000    4.875    0.000    6.000 
#    0.000    3.750    0.000    9.750    0.000    6.125 
#    0.000    0.000    0.000    0.000    0.000    0.000 
#
# Total GULP energy -357161.542338 kJ/mol
# GULP energy per Si atom -5580.649099 kJ/mol
# Density = 2.015488 g / cm^3
# Si number density = 20.200857 Si / 1000 Ang^3
#
#
#
# Elastic Constant Matrix: (Units=GPa)
#
#
# Indices 1 2 3 4 5 6 
#
# 1 50.6380 30.9634 5.7573 0.0000 0.0000 0.0000
# 2 30.9634 98.4106 3.6031 0.0000 0.0000 0.0000
# 3 5.7573 3.6031 27.5071 0.0000 0.0000 0.0000
# 4 0.0000 0.0000 0.0000 19.4854 0.0000 0.0000
# 5 0.0000 0.0000 0.0000 0.0000 -0.3363 0.0000
# 6 0.0000 0.0000 0.0000 0.0000 0.0000 -6.7754
#
#
#
# Elastic Compliance Matrix: (Units=1/GPa)
#
#
# Indices 1 2 3 4 5 6 
#
# 1 0.024928 -0.007689 -0.004210 0.000000 0.000000 0.000000
# 2 -0.007689 0.012582 -0.000039 0.000000 0.000000 0.000000
# 3 -0.004210 -0.000039 0.037241 0.000000 0.000000 0.000000
# 4 0.000000 0.000000 0.000000 0.051321 0.000000 0.000000
# 5 0.000000 0.000000 0.000000 0.000000 -2.973240 0.000000
# 6 0.000000 0.000000 0.000000 0.000000 0.000000 -0.147593
#
#
# Mechanical properties :
#
#
# Convention : Reuss Voigt Hill
#
# Bulk Modulus (GPa) = 19.65619 28.57813 24.11716
# Shear Modulus (GPa) = -1.69266 11.55686 4.93210
#
# Velocity S-wave (km/s) = -0.91637 2.39445 1.56423
# Velocity P-wave (km/s) = 2.93800 4.67143 3.90218
#
# Compressibility (1/GPa) = 0.05087457
#
# Stress axis : x y z
#
# Youngs Moduli (GPa) = 40.11495 79.47729 26.85242
#
# Poissons Ratio (x) = 0.61111 0.11306
# Poissons Ratio (y) = 0.30845 0.00104
# Poissons Ratio (z) = 0.16890 0.00308
#
# Static dielectric constant tensor:
#      x y z
#    x 1.743930 0.000000 0.000000 
#    y 0.000000 1.738260 0.000000 
#    z 0.000000 0.000000 1.696940 
# 
# From -- ./inp_files/10070.got.cif
#   From: 2010.05.17/outbox.cif.g08.bks.cpg/sg47_6_cif.got.tgz:10070.got - 2010.06.03 20:15:42.
