data_PCOD9386662
_publ_section_title
;
Structure prediction by ZEFSAII (Michael W. Deem and Ramdas Pophale) SiO2 
 PCOD9386662
Probable space group: P M M M
;
_chemical_formula_sum "Si O2"
_cell_formula_units_Z 37
_cell_length_a 17.456434
_cell_length_b 11.755578
_cell_length_c 9.898465
_cell_angle_alpha 90.000000
_cell_angle_beta 90.000000
_cell_angle_gamma 90.000000
_cell_volume 2031.268670
_symmetry_space_group_name_H-M "P M M M"
_symmetry_group_IT_number 47
_symmetry_cell_setting 'orthorhombic'
loop_
_space_group_symop_operation_xyz
x,y,z
-x,-y,z
x,-y,-z
-x,y,-z
-x,-y,-z
x,y,-z
-x,y,z
x,-y,z
loop_
_atom_site_type_symbol
_atom_site_label
_atom_site_fract_x
_atom_site_fract_y
_atom_site_fract_z
Si Si1 0.205605 0.364874 0.849073
Si Si2 0.302656 0.000000 0.837743
Si Si3 0.369322 0.244396 0.159314
Si Si4 0.500000 0.362534 0.337279
Si Si5 0.124047 0.000000 0.752110
Si Si6 0.086374 0.247201 0.655943
Si Si7 0.000000 0.000000 0.000000
O O1 0.210993 0.500000 0.838956
O O2 0.289088 0.310962 0.833506
O O3 0.147267 0.315145 0.742491
O O4 0.178066 0.333952 0.000000
O O5 0.349064 0.885678 0.801530
O O6 0.215145 0.000000 0.785101
O O7 0.295968 0.000000 0.000000
O O8 0.428201 0.304954 0.260100
O O9 0.394466 0.246906 0.000000
O O10 0.500000 0.500000 0.317824
O O11 0.500000 0.342039 0.500000
O O12 0.104651 0.114142 0.671533
O O13 0.068199 0.000000 0.882157
O O14 0.090478 0.280161 0.500000
O O15 0.000000 0.267501 0.706089
#
# Coordination Sequence:
#
# PCOD9386662 Si02
#       7
#     8   4   8   4   4   8   1
#     4  10  22  39  62  90 118 154 207 263 309 361
#     4  10  20  36  63  96 127 154 194 249 305 370
#     4  10  21  40  67  94 123 157 197 249 309 370
#     4  11  25  44  65  92 126 163 206 251 296 361
#     4  12  21  37  59  93 124 157 208 255 311 365
#     4  11  24  39  57  83 122 165 206 253 307 372
#     4  12  24  28  70 100 122 170 206 276 320 354
#
# _framework density 18.215216999999999
#
# number of rings (size 3 to 8) (size 9 to 14) (size 15 to 20)
#    0.000    1.405    3.784    1.297    1.514    5.189 
#    0.000    4.865    0.000    0.000    0.000    0.000 
#    0.000    0.000    0.000    0.000    0.000    0.000 
#
# Total GULP energy -206323.413134 kJ/mol
# GULP energy per Si atom -5576.308463 kJ/mol
# Density = 1.817376 g / cm^3
# Si number density = 18.215217 Si / 1000 Ang^3
#
#
#
# Elastic Constant Matrix: (Units=GPa)
#
#
# Indices 1 2 3 4 5 6 
#
# 1 111.5336 65.9407 73.9587 0.0000 0.0000 0.0000
# 2 65.9407 79.1662 57.2392 0.0000 0.0000 0.0000
# 3 73.9587 57.2392 98.4193 0.0000 0.0000 0.0000
# 4 0.0000 0.0000 0.0000 -4.7751 0.0000 0.0000
# 5 0.0000 0.0000 0.0000 0.0000 12.5720 0.0000
# 6 0.0000 0.0000 0.0000 0.0000 0.0000 45.4523
#
#
#
# Elastic Compliance Matrix: (Units=1/GPa)
#
#
# Indices 1 2 3 4 5 6 
#
# 1 0.022473 -0.011231 -0.010356 0.000000 0.000000 0.000000
# 2 -0.011231 0.027410 -0.007502 0.000000 0.000000 0.000000
# 3 -0.010356 -0.007502 0.022305 0.000000 0.000000 0.000000
# 4 0.000000 0.000000 0.000000 -0.209421 0.000000 0.000000
# 5 0.000000 0.000000 0.000000 0.000000 0.079542 0.000000
# 6 0.000000 0.000000 0.000000 0.000000 0.000000 0.022001
#
#
# Mechanical properties :
#
#
# Convention : Reuss Voigt Hill
#
# Bulk Modulus (GPa) = 71.36912 75.93293 73.65102
# Shear Modulus (GPa) = 184.10435 16.78189 100.44312
#
# Velocity S-wave (km/s) = 10.06435 3.03860 7.43385
# Velocity P-wave (km/s) = 13.20307 7.35444 10.68665
#
# Compressibility (1/GPa) = 0.01401166
#
# Stress axis : x y z
#
# Youngs Moduli (GPa) = 44.49795 36.48246 44.83201
#
# Poissons Ratio (x) = 0.40974 0.46427
# Poissons Ratio (y) = 0.49976 0.33632
# Poissons Ratio (z) = 0.46081 0.27368
#
# Static dielectric constant tensor:
#      x y z
#    x 1.601710 0.000000 0.000000 
#    y 0.000000 1.623250 0.000000 
#    z 0.000000 0.000000 1.616350 
# 
# From -- ./inp_files/8716.got.cif
#   From: 2010.05.17/outbox.cif.g08.bks.cpg/sg47_5_cif.got.tgz:8716.got - 2010.06.03 20:15:42.
