data_PCOD9386679
_publ_section_title
;
Structure prediction by ZEFSAII (Michael W. Deem and Ramdas Pophale) SiO2 
 PCOD9386679
Probable space group: P M M M
;
_chemical_formula_sum "Si O2"
_cell_formula_units_Z 40
_cell_length_a 10.048593
_cell_length_b 7.434318
_cell_length_c 24.776785
_cell_angle_alpha 90.000000
_cell_angle_beta 90.000000
_cell_angle_gamma 90.000000
_cell_volume 1850.935745
_symmetry_space_group_name_H-M "P M M M"
_symmetry_group_IT_number 47
_symmetry_cell_setting 'orthorhombic'
loop_
_space_group_symop_operation_xyz
x,y,z
-x,-y,z
x,-y,-z
-x,y,-z
-x,-y,-z
x,y,-z
-x,y,z
x,-y,z
loop_
_atom_site_type_symbol
_atom_site_label
_atom_site_fract_x
_atom_site_fract_y
_atom_site_fract_z
Si Si1 0.745768 0.292842 0.367891
Si Si2 0.150190 0.780699 0.062188
Si Si3 0.500000 0.721123 0.562413
Si Si4 0.000000 0.783236 0.437871
Si Si5 0.651857 0.785027 0.845909
Si Si6 0.152002 0.283965 0.746336
O O1 0.707975 0.500000 0.356769
O O2 0.626535 0.216049 0.403276
O O3 0.788392 0.213753 0.310271
O O4 0.872858 0.286244 0.406213
O O5 0.264280 0.716914 0.102602
O O6 0.000000 0.725802 0.078768
O O7 0.150892 0.000000 0.063041
O O8 0.170894 0.726776 0.000000
O O9 0.500000 0.500000 0.560455
O O10 0.500000 0.779363 0.500000
O O11 0.000000 0.727026 0.500000
O O12 0.000000 0.000000 0.435935
O O13 0.500000 0.716361 0.841109
O O14 0.744963 0.753550 0.794102
O O15 0.641796 0.000000 0.852195
O O16 0.142013 0.500000 0.741532
O O17 0.000000 0.218297 0.755633
#
# Coordination Sequence:
#
# PCOD9386679 Si02
#       6
#     8   8   4   4   8   8
#     4  10  20  37  59  81 105 139 182 224 266 316
#     4   8  14  27  49  76 106 142 183 224 264 308
#     4   9  18  32  55  85 107 129 170 221 268 314
#     4  11  23  37  55  83 115 143 174 215 268 325
#     4  10  21  34  51  80 113 145 181 218 267 327
#     4  10  21  37  56  78 103 137 184 229 271 318
#
# _framework density 21.610690999999999
#
# number of rings (size 3 to 8) (size 9 to 14) (size 15 to 20)
#    0.000    2.400    1.000    2.100    1.400    4.400 
#    0.000    2.500    0.000    2.400    0.000    4.200 
#    0.000    0.000    0.000    0.000    0.000    0.000 
#
# Total GULP energy -223340.760237 kJ/mol
# GULP energy per Si atom -5583.519006 kJ/mol
# Density = 2.156150 g / cm^3
# Si number density = 21.610691 Si / 1000 Ang^3
#
#
#
# Elastic Constant Matrix: (Units=GPa)
#
#
# Indices 1 2 3 4 5 6 
#
# 1 241.0440 -0.6120 136.2006 0.0000 0.0000 0.0000
# 2 -0.6120 70.7921 -1.1849 0.0000 0.0000 0.0000
# 3 136.2006 -1.1849 184.6057 0.0000 0.0000 0.0000
# 4 0.0000 0.0000 0.0000 6.9772 0.0000 0.0000
# 5 0.0000 0.0000 0.0000 0.0000 25.4707 0.0000
# 6 0.0000 0.0000 0.0000 0.0000 0.0000 11.5644
#
#
#
# Elastic Compliance Matrix: (Units=1/GPa)
#
#
# Indices 1 2 3 4 5 6 
#
# 1 0.007115 -0.000026 -0.005249 0.000000 0.000000 0.000000
# 2 -0.000026 0.014127 0.000110 0.000000 0.000000 0.000000
# 3 -0.005249 0.000110 0.009291 0.000000 0.000000 0.000000
# 4 0.000000 0.000000 0.000000 0.143324 0.000000 0.000000
# 5 0.000000 0.000000 0.000000 0.000000 0.039261 0.000000
# 6 0.000000 0.000000 0.000000 0.000000 0.000000 0.086472
#
#
# Mechanical properties :
#
#
# Convention : Reuss Voigt Hill
#
# Bulk Modulus (GPa) = 49.50098 85.02767 67.26433
# Shear Modulus (GPa) = 15.79008 32.93833 24.36421
#
# Velocity S-wave (km/s) = 2.70601 3.90830 3.36134
# Velocity P-wave (km/s) = 5.72003 7.73285 6.80131
#
# Compressibility (1/GPa) = 0.02020162
#
# Stress axis : x y z
#
# Youngs Moduli (GPa) = 140.55537 70.78402 107.63636
#
# Poissons Ratio (x) = 0.00187 0.56501
# Poissons Ratio (y) = 0.00370 -0.01185
# Poissons Ratio (z) = 0.73782 -0.00780
#
# Static dielectric constant tensor:
#      x y z
#    x 1.728540 0.000000 0.000000 
#    y 0.000000 1.866880 0.000000 
#    z 0.000000 0.000000 1.748800 
# 
# From -- ./inp_files/33084.got.cif
#   From: 2010.05.17/outbox.cif.g08.bks.cpg/sg47_17_cif.got.tgz:33084.got - 2010.06.03 20:15:42.
