data_PCOD9386895
_publ_section_title
;
Structure prediction by ZEFSAII (Michael W. Deem and Ramdas Pophale) SiO2 
 PCOD9386895
Probable space group: P M M M
;
_chemical_formula_sum "Si O2"
_cell_formula_units_Z 52
_cell_length_a 20.840902
_cell_length_b 16.488340
_cell_length_c 8.037261
_cell_angle_alpha 90.000000
_cell_angle_beta 90.000000
_cell_angle_gamma 90.000000
_cell_volume 2761.859092
_symmetry_space_group_name_H-M "P M M M"
_symmetry_group_IT_number 47
_symmetry_cell_setting 'orthorhombic'
loop_
_space_group_symop_operation_xyz
x,y,z
-x,-y,z
x,-y,-z
-x,y,-z
-x,-y,-z
x,y,-z
-x,y,z
x,-y,z
loop_
_atom_site_type_symbol
_atom_site_label
_atom_site_fract_x
_atom_site_fract_y
_atom_site_fract_z
Si Si1 0.299126 0.589011 0.202063
Si Si2 0.069704 0.094515 0.200022
Si Si3 0.842122 0.371374 0.683972
Si Si4 0.425165 0.909043 0.796730
Si Si5 0.196913 0.815429 0.684788
Si Si6 0.332784 0.768307 0.194583
Si Si7 0.070500 0.403841 0.000000
O O1 0.327514 0.500000 0.246697
O O2 0.226381 0.590406 0.268630
O O3 0.329760 0.675082 0.261313
O O4 0.296591 0.592691 0.000000
O O5 0.135831 0.133957 0.256771
O O6 0.000000 0.128351 0.259110
O O7 0.070873 0.000000 0.247193
O O8 0.068953 0.099466 0.000000
O O9 0.863116 0.398802 0.500000
O O10 0.828559 0.276056 0.677277
O O11 0.891135 0.383801 0.833169
O O12 0.500000 0.899422 0.752680
O O13 0.382809 0.833697 0.734219
O O14 0.404254 0.000000 0.743785
O O15 0.421646 0.908844 0.000000
O O16 0.215826 0.842487 0.500000
O O17 0.262053 0.808252 0.789759
O O18 0.348293 0.759301 0.000000
O O19 0.064555 0.500000 0.000000
O O20 0.000000 0.365289 0.000000
#
# Coordination Sequence:
#
# PCOD9386895 Si02
#       7
#     8   8   8   8   8   8   4
#     4   9  16  28  48  71  96 129 168 210 260 317
#     4   9  19  35  53  72  94 126 169 211 253 309
#     4  10  21  36  53  74 100 130 169 216 266 322
#     4   8  14  26  46  73 103 135 173 213 252 300
#     4  10  21  34  50  74 102 130 163 209 264 314
#     4   9  17  29  48  73 100 129 166 214 260 303
#     4  11  24  38  52  72  97 129 168 211 265 323
#
# _framework density 18.827898000000001
#
# number of rings (size 3 to 8) (size 9 to 14) (size 15 to 20)
#    0.000    2.692    0.769    1.846    2.154    3.385 
#    0.000    4.615    0.000    0.923    0.000    4.308 
#    0.000    0.000    0.000    7.692    0.000    8.000 
#
# Total GULP energy -289474.615115 kJ/mol
# GULP energy per Si atom -5566.819521 kJ/mol
# Density = 1.878504 g / cm^3
# Si number density = 18.827898 Si / 1000 Ang^3
#
#
#
# Elastic Constant Matrix: (Units=GPa)
#
#
# Indices 1 2 3 4 5 6 
#
# 1 76.9143 69.9962 16.1093 0.0000 0.0000 0.0000
# 2 69.9962 126.1861 16.7027 0.0000 0.0000 0.0000
# 3 16.1093 16.7027 47.6076 0.0000 0.0000 0.0000
# 4 0.0000 0.0000 0.0000 0.6214 0.0000 0.0000
# 5 0.0000 0.0000 0.0000 0.0000 -8.5365 0.0000
# 6 0.0000 0.0000 0.0000 0.0000 0.0000 11.2234
#
#
#
# Elastic Compliance Matrix: (Units=1/GPa)
#
#
# Indices 1 2 3 4 5 6 
#
# 1 0.026987 -0.014431 -0.004069 0.000000 0.000000 0.000000
# 2 -0.014431 0.016028 -0.000740 0.000000 0.000000 0.000000
# 3 -0.004069 -0.000740 0.022641 0.000000 0.000000 0.000000
# 4 0.000000 0.000000 0.000000 1.609255 0.000000 0.000000
# 5 0.000000 0.000000 0.000000 0.000000 -0.117144 0.000000
# 6 0.000000 0.000000 0.000000 0.000000 0.000000 0.089099
#
#
# Mechanical properties :
#
#
# Convention : Reuss Voigt Hill
#
# Bulk Modulus (GPa) = 36.79679 50.70273 43.74976
# Shear Modulus (GPa) = 2.95089 10.52165 6.73627
#
# Velocity S-wave (km/s) = 1.25328 2.36653 1.89356
# Velocity P-wave (km/s) = 4.65623 5.86987 5.29791
#
# Compressibility (1/GPa) = 0.02717628
#
# Stress axis : x y z
#
# Youngs Moduli (GPa) = 37.05509 62.39136 44.16685
#
# Poissons Ratio (x) = 0.90038 0.17970
# Poissons Ratio (y) = 0.53475 0.03269
# Poissons Ratio (z) = 0.15076 0.04617
#
# Static dielectric constant tensor:
#      x y z
#    x 1.634880 0.000000 0.000000 
#    y 0.000000 1.699230 0.000000 
#    z 0.000000 0.000000 1.091420 
# 
# From -- ./inp_files/9548.got.cif
#   From: 2010.05.17/outbox.cif.g08.bks.cpg/sg47_5_cif.got.tgz:9548.got - 2010.06.03 20:15:42.
