data_PCOD9386583
_publ_section_title
;
Structure prediction by ZEFSAII (Michael W. Deem and Ramdas Pophale) SiO2 
 PCOD9386583
Probable space group: P M M M
;
_chemical_formula_sum "Si O2"
_cell_formula_units_Z 40
_cell_length_a 10.435848
_cell_length_b 8.711861
_cell_length_c 24.630134
_cell_angle_alpha 90.000000
_cell_angle_beta 90.000000
_cell_angle_gamma 90.000000
_cell_volume 2239.264819
_symmetry_space_group_name_H-M "P M M M"
_symmetry_group_IT_number 47
_symmetry_cell_setting 'orthorhombic'
loop_
_space_group_symop_operation_xyz
x,y,z
-x,-y,z
x,-y,-z
-x,y,-z
-x,-y,-z
x,y,-z
-x,y,z
x,-y,z
loop_
_atom_site_type_symbol
_atom_site_label
_atom_site_fract_x
_atom_site_fract_y
_atom_site_fract_z
Si Si1 0.500000 0.684266 0.936615
Si Si2 0.000000 0.319702 0.934998
Si Si3 0.646065 0.186997 0.562102
Si Si4 0.148136 0.185578 0.348836
Si Si5 0.250405 0.182721 0.121579
Si Si6 0.849311 0.683183 0.230250
O O1 0.500000 0.500000 0.934372
O O2 0.374840 0.747538 0.906815
O O3 0.500000 0.730350 0.000000
O O4 0.874224 0.242327 0.910461
O O5 0.000000 0.500000 0.920080
O O6 0.000000 0.307449 0.000000
O O7 0.673235 0.234869 0.500000
O O8 0.500000 0.233593 0.575806
O O9 0.752391 0.237498 0.605113
O O10 0.647558 0.000000 0.562286
O O11 0.180706 0.255142 0.290203
O O12 0.000000 0.226650 0.361525
O O13 0.154019 0.000000 0.345169
O O14 0.233648 0.239999 0.183263
O O15 0.255653 0.000000 0.120116
O O16 0.835234 0.500000 0.228303
O O17 0.000000 0.719862 0.219912
#
# Coordination Sequence:
#
# PCOD9386583 Si02
#       6
#     4   4   8   8   8   8
#     4  11  25  45  65  85 117 157 190 227 284 351
#     4  11  23  39  61  89 119 153 192 231 280 343
#     4   8  14  26  45  71 104 140 175 216 271 330
#     4   9  17  29  48  75 105 135 175 227 275 322
#     4  12  24  39  62  89 117 149 191 242 288 335
#     4  10  20  36  58  80 109 148 188 230 282 343
#
# _framework density 17.863005999999999
#
# number of rings (size 3 to 8) (size 9 to 14) (size 15 to 20)
#    0.000    2.000    1.000    4.200    0.000    5.200 
#    1.800    2.000    0.000    0.600    0.000    4.200 
#    0.000    0.000    0.000    0.000    0.000    0.000 
#
# Total GULP energy -223362.967901 kJ/mol
# GULP energy per Si atom -5584.074198 kJ/mol
# Density = 1.782235 g / cm^3
# Si number density = 17.863006 Si / 1000 Ang^3
#
#
#
# Elastic Constant Matrix: (Units=GPa)
#
#
# Indices 1 2 3 4 5 6 
#
# 1 157.0568 50.7993 117.7552 0.0000 0.0000 0.0000
# 2 50.7993 58.7578 56.6689 0.0000 0.0000 0.0000
# 3 117.7552 56.6689 166.1164 0.0000 0.0000 0.0000
# 4 0.0000 0.0000 0.0000 49.2036 0.0000 0.0000
# 5 0.0000 0.0000 0.0000 0.0000 9.0257 0.0000
# 6 0.0000 0.0000 0.0000 0.0000 0.0000 24.0513
#
#
#
# Elastic Compliance Matrix: (Units=1/GPa)
#
#
# Indices 1 2 3 4 5 6 
#
# 1 0.014141 -0.003812 -0.008723 0.000000 0.000000 0.000000
# 2 -0.003812 0.026392 -0.006301 0.000000 0.000000 0.000000
# 3 -0.008723 -0.006301 0.014353 0.000000 0.000000 0.000000
# 4 0.000000 0.000000 0.000000 0.020324 0.000000 0.000000
# 5 0.000000 0.000000 0.000000 0.000000 0.110794 0.000000
# 6 0.000000 0.000000 0.000000 0.000000 0.000000 0.041578
#
#
# Mechanical properties :
#
#
# Convention : Reuss Voigt Hill
#
# Bulk Modulus (GPa) = 58.09705 92.48640 75.29173
# Shear Modulus (GPa) = 18.45074 26.90332 22.67703
#
# Velocity S-wave (km/s) = 3.21737 3.88505 3.56687
# Velocity P-wave (km/s) = 6.81148 8.48602 7.69444
#
# Compressibility (1/GPa) = 0.01721258
#
# Stress axis : x y z
#
# Youngs Moduli (GPa) = 70.71834 37.89061 69.67081
#
# Poissons Ratio (x) = 0.14444 0.60777
# Poissons Ratio (y) = 0.26958 0.43900
# Poissons Ratio (z) = 0.61691 0.23875
#
# Static dielectric constant tensor:
#      x y z
#    x 1.591760 0.000000 0.000000 
#    y 0.000000 1.594260 0.000000 
#    z 0.000000 0.000000 1.596880 
# 
# From -- ./inp_files/33040.got.cif
#   From: 2010.05.17/outbox.cif.g08.bks.cpg/sg47_17_cif.got.tgz:33040.got - 2010.06.03 20:15:42.
