data_PCOD9386499
_publ_section_title
;
Structure prediction by ZEFSAII (Michael W. Deem and Ramdas Pophale) SiO2 
 PCOD9386499
Probable space group: P M M M
;
_chemical_formula_sum "Si O2"
_cell_formula_units_Z 48
_cell_length_a 18.889079
_cell_length_b 8.147705
_cell_length_c 16.502966
_cell_angle_alpha 90.000000
_cell_angle_beta 90.000000
_cell_angle_gamma 90.000000
_cell_volume 2539.850092
_symmetry_space_group_name_H-M "P M M M"
_symmetry_group_IT_number 47
_symmetry_cell_setting 'orthorhombic'
loop_
_space_group_symop_operation_xyz
x,y,z
-x,-y,z
x,-y,-z
-x,y,-z
-x,-y,-z
x,y,-z
-x,y,z
x,-y,z
loop_
_atom_site_type_symbol
_atom_site_label
_atom_site_fract_x
_atom_site_fract_y
_atom_site_fract_z
Si Si1 0.585792 0.000000 0.590608
Si Si2 0.914591 0.803296 0.411885
Si Si3 0.584106 0.689383 0.000000
Si Si4 0.917277 0.198820 0.233749
Si Si5 0.187472 0.695683 0.906507
Si Si6 0.583972 0.682171 0.693369
Si Si7 0.338509 0.188112 0.843908
O O1 0.604936 0.167534 0.635948
O O2 0.500000 0.000000 0.587365
O O3 0.614118 0.000000 0.500000
O O4 0.889253 0.738177 0.500000
O O5 0.889978 0.743279 0.323078
O O6 0.000000 0.782053 0.410984
O O7 0.902029 0.000000 0.412820
O O8 0.613139 0.779289 0.921537
O O9 0.610135 0.500000 0.000000
O O10 0.500000 0.687376 0.000000
O O11 0.874014 0.262000 0.157046
O O12 0.000000 0.244626 0.227034
O O13 0.913651 0.000000 0.234040
O O14 0.197000 0.500000 0.908120
O O15 0.259073 0.774538 0.871811
O O16 0.174760 0.749724 0.000000
O O17 0.500000 0.701901 0.714203
O O18 0.591763 0.500000 0.657400
O O19 0.631578 0.698626 0.772910
O O20 0.344667 0.000000 0.817141
#
# Coordination Sequence:
#
# PCOD9386499 Si02
#       7
#     4   8   4   8   8   8   8
#     4   9  18  34  56  85 119 153 196 246 291 343
#     4   7  10  20  43  76 109 136 164 205 261 323
#     4  11  23  37  55  83 118 153 186 224 277 343
#     4   9  18  33  55  83 111 140 181 232 282 335
#     4  11  24  40  56  74 104 146 192 239 289 348
#     4  10  20  35  57  86 120 156 193 237 290 345
#     4  12  23  37  58  82 111 148 192 241 289 343
#
# _framework density 18.898752999999999
#
# number of rings (size 3 to 8) (size 9 to 14) (size 15 to 20)
#    0.000    2.167    1.667    4.250    0.000    4.667 
#    0.000    3.333    0.000    1.500    0.000    2.333 
#    0.000    0.000    0.000    0.000    0.000    0.000 
#
# Total GULP energy -267613.531097 kJ/mol
# GULP energy per Si atom -5575.281898 kJ/mol
# Density = 1.885574 g / cm^3
# Si number density = 18.898753 Si / 1000 Ang^3
#
#
#
# Elastic Constant Matrix: (Units=GPa)
#
#
# Indices 1 2 3 4 5 6 
#
# 1 45.0919 19.0543 37.0332 0.0000 0.0000 0.0000
# 2 19.0543 80.8997 38.4119 0.0000 0.0000 0.0000
# 3 37.0332 38.4119 143.4374 0.0000 0.0000 0.0000
# 4 0.0000 0.0000 0.0000 -7.4287 0.0000 0.0000
# 5 0.0000 0.0000 0.0000 0.0000 28.9111 0.0000
# 6 0.0000 0.0000 0.0000 0.0000 0.0000 22.6295
#
#
#
# Elastic Compliance Matrix: (Units=1/GPa)
#
#
# Indices 1 2 3 4 5 6 
#
# 1 0.029114 -0.003767 -0.006508 0.000000 0.000000 0.000000
# 2 -0.003767 0.014649 -0.002950 0.000000 0.000000 0.000000
# 3 -0.006508 -0.002950 0.009442 0.000000 0.000000 0.000000
# 4 0.000000 0.000000 0.000000 -0.134613 0.000000 0.000000
# 5 0.000000 0.000000 0.000000 0.000000 0.034589 0.000000
# 6 0.000000 0.000000 0.000000 0.000000 0.000000 0.044190
#
#
# Mechanical properties :
#
#
# Convention : Reuss Voigt Hill
#
# Bulk Modulus (GPa) = 37.37753 50.93640 44.15696
# Shear Modulus (GPa) = 152.72105 20.48436 86.60270
#
# Velocity S-wave (km/s) = 8.99920 3.29584 6.77673
# Velocity P-wave (km/s) = 11.30493 6.44159 9.20042
#
# Compressibility (1/GPa) = 0.02675404
#
# Stress axis : x y z
#
# Youngs Moduli (GPa) = 34.34824 68.26348 105.90996
#
# Poissons Ratio (x) = 0.25716 0.68924
# Poissons Ratio (y) = 0.12939 0.31247
# Poissons Ratio (z) = 0.22353 0.20140
#
# Static dielectric constant tensor:
#      x y z
#    x 1.634970 0.000000 0.000000 
#    y 0.000000 1.678940 0.000000 
#    z 0.000000 0.000000 1.671480 
# 
# From -- ./inp_files/24470.got.cif
#   From: 2010.05.17/outbox.cif.g08.bks.cpg/sg47_13_cif.got.tgz:24470.got - 2010.06.03 20:15:42.
