data_PCOD9386916
_publ_section_title
;
Structure prediction by ZEFSAII (Michael W. Deem and Ramdas Pophale) SiO2 
 PCOD9386916
Probable space group: P M M M
;
_chemical_formula_sum "Si O2"
_cell_formula_units_Z 64
_cell_length_a 7.605840
_cell_length_b 15.231817
_cell_length_c 25.916405
_cell_angle_alpha 90.000000
_cell_angle_beta 90.000000
_cell_angle_gamma 90.000000
_cell_volume 3002.435294
_symmetry_space_group_name_H-M "P M M M"
_symmetry_group_IT_number 47
_symmetry_cell_setting 'orthorhombic'
loop_
_space_group_symop_operation_xyz
x,y,z
-x,-y,z
x,-y,-z
-x,y,-z
-x,-y,-z
x,y,-z
-x,y,z
x,-y,z
loop_
_atom_site_type_symbol
_atom_site_label
_atom_site_fract_x
_atom_site_fract_y
_atom_site_fract_z
Si Si1 0.289019 0.746742 0.364379
Si Si2 0.792440 0.599405 0.845147
Si Si3 0.299662 0.721905 0.750293
Si Si4 0.788695 0.100536 0.557493
Si Si5 0.211399 0.095386 0.921404
Si Si6 0.714549 0.599453 0.558213
Si Si7 0.210547 0.095810 0.798413
Si Si8 0.215203 0.709546 0.943665
O O1 0.500000 0.739584 0.360684
O O2 0.218542 0.732208 0.306679
O O3 0.257420 0.836999 0.395001
O O4 0.221456 0.669885 0.401325
O O5 0.721110 0.500000 0.840921
O O6 0.776545 0.655729 0.792753
O O7 0.721478 0.654607 0.894185
O O8 0.000000 0.591480 0.854919
O O9 0.500000 0.692303 0.744225
O O10 0.294587 0.819773 0.773286
O O11 0.727217 0.131056 0.500000
O O12 0.000000 0.098583 0.555417
O O13 0.727637 0.000000 0.564471
O O14 0.239000 0.098143 0.859803
O O15 0.275900 0.188879 0.941461
O O16 0.000000 0.094222 0.930486
O O17 0.278544 0.000000 0.939640
O O18 0.770316 0.620682 0.500000
O O19 0.500000 0.601027 0.558459
O O20 0.767575 0.500000 0.570249
O O21 0.000000 0.101780 0.790543
O O22 0.269685 0.000000 0.779175
O O23 0.000000 0.712315 0.940899
O O24 0.261762 0.672417 0.000000
#
# Coordination Sequence:
#
# PCOD9386916 Si02
#       8
#     8   8   8   8   8   8   8   8
#     4  10  21  34  51  78 107 137 176 222 268 312
#     4  10  21  38  58  77 102 139 183 229 276 332
#     4  11  23  36  52  77 109 143 180 225 273 323
#     4   9  19  36  56  79 110 148 186 222 265 317
#     4   8  13  23  43  72 103 132 162 201 253 311
#     4   8  14  27  49  74  97 122 155 199 252 307
#     4   9  17  32  55  77 100 136 178 216 257 311
#     4   9  16  27  48  79 110 135 166 219 279 326
#
# _framework density 21.316029
#
# number of rings (size 3 to 8) (size 9 to 14) (size 15 to 20)
#    0.000    2.750    1.250    2.250    0.000    4.000 
#    0.000    6.875    0.000    0.750    0.000    2.625 
#    0.000    2.000    0.000    0.000    0.000    0.000 
#
# Total GULP energy -356934.438531 kJ/mol
# GULP energy per Si atom -5577.100602 kJ/mol
# Density = 2.126751 g / cm^3
# Si number density = 21.316029 Si / 1000 Ang^3
#
#
#
# Elastic Constant Matrix: (Units=GPa)
#
#
# Indices 1 2 3 4 5 6 
#
# 1 39.5770 4.1092 10.0404 0.0000 0.0000 0.0000
# 2 4.1092 156.5675 104.8989 0.0000 0.0000 0.0000
# 3 10.0404 104.8989 156.9380 0.0000 0.0000 0.0000
# 4 0.0000 0.0000 0.0000 183.0191 0.0000 0.0000
# 5 0.0000 0.0000 0.0000 0.0000 43.7592 0.0000
# 6 0.0000 0.0000 0.0000 0.0000 0.0000 3.4936
#
#
#
# Elastic Compliance Matrix: (Units=1/GPa)
#
#
# Indices 1 2 3 4 5 6 
#
# 1 0.025736 0.000775 -0.002164 0.000000 0.000000 0.000000
# 2 0.000775 0.011590 -0.007797 0.000000 0.000000 0.000000
# 3 -0.002164 -0.007797 0.011722 0.000000 0.000000 0.000000
# 4 0.000000 0.000000 0.000000 0.005464 0.000000 0.000000
# 5 0.000000 0.000000 0.000000 0.000000 0.022852 0.000000
# 6 0.000000 0.000000 0.000000 0.000000 0.000000 0.286238
#
#
# Mechanical properties :
#
#
# Convention : Reuss Voigt Hill
#
# Bulk Modulus (GPa) = 32.59953 65.68660 49.14307
# Shear Modulus (GPa) = 12.74860 61.65664 37.20262
#
# Velocity S-wave (km/s) = 2.44821 5.38403 4.18220
# Velocity P-wave (km/s) = 4.82890 8.33864 6.81363
#
# Compressibility (1/GPa) = 0.03067529
#
# Stress axis : x y z
#
# Youngs Moduli (GPa) = 38.85638 86.27816 85.31116
#
# Poissons Ratio (x) = -0.06683 0.18463
# Poissons Ratio (y) = -0.03010 0.66515
# Poissons Ratio (z) = 0.08409 0.67269
#
# Static dielectric constant tensor:
#      x y z
#    x 1.818050 0.000000 0.000000 
#    y 0.000000 1.764610 0.000000 
#    z 0.000000 0.000000 1.773630 
# 
# From -- ./inp_files/12721.got.cif
#   From: 2010.05.17/outbox.cif.g08.bks.cpg/sg47_7_cif.got.tgz:12721.got - 2010.06.03 20:15:42.
