data_PCOD9386325
_publ_section_title
;
Structure prediction by ZEFSAII (Michael W. Deem and Ramdas Pophale) SiO2 
 PCOD9386325
Probable space group: P M M M
;
_chemical_formula_sum "Si O2"
_cell_formula_units_Z 44
_cell_length_a 14.479217
_cell_length_b 13.973221
_cell_length_c 12.165355
_cell_angle_alpha 90.000000
_cell_angle_beta 90.000000
_cell_angle_gamma 90.000000
_cell_volume 2461.310427
_symmetry_space_group_name_H-M "P M M M"
_symmetry_group_IT_number 47
_symmetry_cell_setting 'orthorhombic'
loop_
_space_group_symop_operation_xyz
x,y,z
-x,-y,z
x,-y,-z
-x,y,-z
-x,-y,-z
x,y,-z
-x,y,z
x,-y,z
loop_
_atom_site_type_symbol
_atom_site_label
_atom_site_fract_x
_atom_site_fract_y
_atom_site_fract_z
Si Si1 0.893307 0.884982 0.500000
Si Si2 0.731705 0.386658 0.672310
Si Si3 0.811720 0.713303 0.869594
Si Si4 0.778860 0.886842 0.719245
Si Si5 0.107512 0.385680 0.500000
Si Si6 0.000000 0.393249 0.868187
Si Si7 0.394692 0.787952 0.626446
O O1 0.838582 0.858390 0.610831
O O2 0.000000 0.854164 0.500000
O O3 0.893877 0.000000 0.500000
O O4 0.715509 0.500000 0.660727
O O5 0.744071 0.353621 0.798318
O O6 0.826125 0.362561 0.604325
O O7 0.650853 0.317771 0.629421
O O8 0.807980 0.819810 0.820253
O O9 0.910248 0.666822 0.842734
O O10 0.795917 0.711177 0.000000
O O11 0.673746 0.857333 0.692199
O O12 0.789224 0.000000 0.737719
O O13 0.100434 0.500000 0.500000
O O14 0.000000 0.351502 0.500000
O O15 0.000000 0.500000 0.817939
O O16 0.000000 0.404313 0.000000
O O17 0.394113 0.820281 0.500000
O O18 0.500000 0.786773 0.666145
#
# Coordination Sequence:
#
# PCOD9386325 Si02
#       7
#     4   8   8   8   4   4   8
#     4   9  18  33  55  82 110 144 181 216 268 333
#     4  10  20  35  55  80 113 150 190 231 275 333
#     4  10  22  36  53  80 111 150 195 234 273 320
#     4  10  21  38  59  83 112 145 186 232 279 336
#     4   9  18  31  49  78 113 149 188 225 268 323
#     4   9  18  34  53  76 109 148 193 234 267 310
#     4  10  20  35  55  83 116 144 175 224 286 345
#
# _framework density 17.876655
#
# number of rings (size 3 to 8) (size 9 to 14) (size 15 to 20)
#    0.000    2.273    1.818    0.545    2.545    2.182 
#    0.000    5.455    0.000   10.364    0.000   10.182 
#    0.000    0.000    0.000    0.000    0.000    0.000 
#
# Total GULP energy -245249.031126 kJ/mol
# GULP energy per Si atom -5573.841616 kJ/mol
# Density = 1.783597 g / cm^3
# Si number density = 17.876655 Si / 1000 Ang^3
#
#
#
# Elastic Constant Matrix: (Units=GPa)
#
#
# Indices 1 2 3 4 5 6 
#
# 1 111.6749 22.9606 29.5363 0.0000 0.0000 0.0000
# 2 22.9606 120.3400 21.5109 0.0000 0.0000 0.0000
# 3 29.5363 21.5109 100.3519 0.0000 0.0000 0.0000
# 4 0.0000 0.0000 0.0000 2.8835 0.0000 0.0000
# 5 0.0000 0.0000 0.0000 0.0000 18.1957 0.0000
# 6 0.0000 0.0000 0.0000 0.0000 0.0000 21.8576
#
#
#
# Elastic Compliance Matrix: (Units=1/GPa)
#
#
# Indices 1 2 3 4 5 6 
#
# 1 0.009941 -0.001428 -0.002620 0.000000 0.000000 0.000000
# 2 -0.001428 0.008846 -0.001476 0.000000 0.000000 0.000000
# 3 -0.002620 -0.001476 0.011052 0.000000 0.000000 0.000000
# 4 0.000000 0.000000 0.000000 0.346799 0.000000 0.000000
# 5 0.000000 0.000000 0.000000 0.000000 0.054958 0.000000
# 6 0.000000 0.000000 0.000000 0.000000 0.000000 0.045751
#
#
# Mechanical properties :
#
#
# Convention : Reuss Voigt Hill
#
# Bulk Modulus (GPa) = 53.21518 53.37583 53.29550
# Shear Modulus (GPa) = 10.10796 25.81129 17.95962
#
# Velocity S-wave (km/s) = 2.38045 3.80393 3.17305
# Velocity P-wave (km/s) = 6.11457 7.01540 6.58042
#
# Compressibility (1/GPa) = 0.01879163
#
# Stress axis : x y z
#
# Youngs Moduli (GPa) = 100.59208 113.04371 90.47856
#
# Poissons Ratio (x) = 0.16148 0.23703
# Poissons Ratio (y) = 0.14369 0.13353
# Poissons Ratio (z) = 0.26353 0.16683
#
# Static dielectric constant tensor:
#      x y z
#    x 1.624950 0.000000 0.000000 
#    y 0.000000 1.624180 0.000000 
#    z 0.000000 0.000000 1.625430 
# 
# From -- ./inp_files/17461.got.cif
#   From: 2010.05.17/outbox.cif.g08.bks.cpg/sg47_9_cif.got.tgz:17461.got - 2010.06.03 20:15:42.
