data_PCOD9386500
_publ_section_title
;
Structure prediction by ZEFSAII (Michael W. Deem and Ramdas Pophale) SiO2 
 PCOD9386500
Probable space group: P M M M
;
_chemical_formula_sum "Si O2"
_cell_formula_units_Z 48
_cell_length_a 14.947019
_cell_length_b 14.973335
_cell_length_c 11.959969
_cell_angle_alpha 90.000000
_cell_angle_beta 90.000000
_cell_angle_gamma 90.000000
_cell_volume 2676.721466
_symmetry_space_group_name_H-M "P M M M"
_symmetry_group_IT_number 47
_symmetry_cell_setting 'orthorhombic'
loop_
_space_group_symop_operation_xyz
x,y,z
-x,-y,z
x,-y,-z
-x,y,-z
-x,-y,-z
x,y,-z
-x,y,z
x,-y,z
loop_
_atom_site_type_symbol
_atom_site_label
_atom_site_fract_x
_atom_site_fract_y
_atom_site_fract_z
Si Si1 0.650501 0.599231 0.130452
Si Si2 0.163746 0.596770 0.757556
Si Si3 0.223333 0.102877 0.782987
Si Si4 0.895102 0.351120 0.000000
Si Si5 0.109280 0.854915 0.000000
Si Si6 0.401790 0.800237 0.867143
Si Si7 0.896917 0.774493 0.633289
O O1 0.607802 0.500000 0.140749
O O2 0.730336 0.602468 0.219967
O O3 0.599924 0.692335 0.145408
O O4 0.683558 0.602506 0.000000
O O5 0.140466 0.500000 0.709148
O O6 0.129110 0.602534 0.884709
O O7 0.126757 0.679178 0.688261
O O8 0.315384 0.154998 0.811082
O O9 0.170163 0.153885 0.685833
O O10 0.242349 0.000000 0.756831
O O11 0.156440 0.106371 0.889979
O O12 0.860947 0.249412 0.000000
O O13 0.000000 0.341573 0.000000
O O14 0.000000 0.863522 0.000000
O O15 0.500000 0.832571 0.828978
O O16 0.394474 0.818402 0.000000
O O17 0.889300 0.770140 0.500000
O O18 0.000000 0.796364 0.662822
#
# Coordination Sequence:
#
# PCOD9386500 Si02
#       7
#     8   8   8   4   4   8   8
#     4   9  16  29  52  83 118 153 189 228 276 337
#     4  11  20  33  55  84 119 157 193 234 285 346
#     4  12  24  40  61  85 116 150 193 250 302 355
#     4  11  19  29  49  79 116 151 187 231 281 340
#     4  11  21  35  58  86 116 153 192 237 295 353
#     4  10  20  35  57  88 126 160 188 226 288 363
#     4  11  25  43  61  83 114 155 203 250 296 348
#
# _framework density 17.932385
#
# number of rings (size 3 to 8) (size 9 to 14) (size 15 to 20)
#    0.000    1.333    5.000    1.500    0.000    4.667 
#    0.000    4.167    0.000    0.500    0.000    1.167 
#    0.000    2.667    0.000    0.000    0.000    0.000 
#
# Total GULP energy -267699.981469 kJ/mol
# GULP energy per Si atom -5577.082947 kJ/mol
# Density = 1.789157 g / cm^3
# Si number density = 17.932385 Si / 1000 Ang^3
#
#
#
# Elastic Constant Matrix: (Units=GPa)
#
#
# Indices 1 2 3 4 5 6 
#
# 1 116.4525 61.8802 44.5476 0.0000 0.0000 0.0000
# 2 61.8802 136.0012 33.3584 0.0000 0.0000 0.0000
# 3 44.5476 33.3584 58.3553 0.0000 0.0000 0.0000
# 4 0.0000 0.0000 0.0000 -4.2999 0.0000 0.0000
# 5 0.0000 0.0000 0.0000 0.0000 14.1769 0.0000
# 6 0.0000 0.0000 0.0000 0.0000 0.0000 -0.9533
#
#
#
# Elastic Compliance Matrix: (Units=1/GPa)
#
#
# Indices 1 2 3 4 5 6 
#
# 1 0.014064 -0.004380 -0.008232 0.000000 0.000000 0.000000
# 2 -0.004380 0.009916 -0.002325 0.000000 0.000000 0.000000
# 3 -0.008232 -0.002325 0.024750 0.000000 0.000000 0.000000
# 4 0.000000 0.000000 0.000000 -0.232566 0.000000 0.000000
# 5 0.000000 0.000000 0.000000 0.000000 0.070537 0.000000
# 6 0.000000 0.000000 0.000000 0.000000 0.000000 -1.048960
#
#
# Mechanical properties :
#
#
# Convention : Reuss Voigt Hill
#
# Bulk Modulus (GPa) = 53.03516 65.59794 59.31655
# Shear Modulus (GPa) = -4.44010 13.18627 4.37308
#
# Velocity S-wave (km/s) = -1.57525 2.71464 1.56331
# Velocity P-wave (km/s) = 5.13135 6.81805 6.03393
#
# Compressibility (1/GPa) = 0.01885542
#
# Stress axis : x y z
#
# Youngs Moduli (GPa) = 71.10521 100.84824 40.40417
#
# Poissons Ratio (x) = 0.44168 0.33262
# Poissons Ratio (y) = 0.31142 0.09394
# Poissons Ratio (z) = 0.58537 0.23447
#
# Static dielectric constant tensor:
#      x y z
#    x 1.649890 0.000000 0.000000 
#    y 0.000000 1.665030 0.000000 
#    z 0.000000 0.000000 1.569720 
# 
# From -- ./inp_files/17562.got.cif
#   From: 2010.05.17/outbox.cif.g08.bks.cpg/sg47_9_cif.got.tgz:17562.got - 2010.06.03 20:15:42.
