data_PCOD9386119
_publ_section_title
;
Structure prediction by ZEFSAII (Michael W. Deem and Ramdas Pophale) SiO2 
 PCOD9386119
Probable space group: P M M M
;
_chemical_formula_sum "Si O2"
_cell_formula_units_Z 64
_cell_length_a 7.772637
_cell_length_b 15.041307
_cell_length_c 26.168654
_cell_angle_alpha 90.000000
_cell_angle_beta 90.000000
_cell_angle_gamma 90.000000
_cell_volume 3059.393546
_symmetry_space_group_name_H-M "P M M M"
_symmetry_group_IT_number 47
_symmetry_cell_setting 'orthorhombic'
loop_
_space_group_symop_operation_xyz
x,y,z
-x,-y,z
x,-y,-z
-x,y,-z
-x,-y,-z
x,y,-z
-x,y,z
x,-y,z
loop_
_atom_site_type_symbol
_atom_site_label
_atom_site_fract_x
_atom_site_fract_y
_atom_site_fract_z
Si Si1 0.295678 0.210563 0.942104
Si Si2 0.703475 0.598155 0.710793
Si Si3 0.798688 0.401804 0.593991
Si Si4 0.795424 0.782809 0.751811
Si Si5 0.706860 0.900473 0.848716
Si Si6 0.792972 0.595401 0.060297
Si Si7 0.789381 0.897682 0.344858
Si Si8 0.789272 0.787078 0.556726
O O1 0.500000 0.196442 0.946202
O O2 0.225522 0.139752 0.901949
O O3 0.270875 0.310197 0.920097
O O4 0.223767 0.206142 0.000000
O O5 0.500000 0.595939 0.701678
O O6 0.757847 0.500000 0.729524
O O7 0.787744 0.612589 0.655172
O O8 0.740195 0.680661 0.747208
O O9 0.723450 0.500000 0.583111
O O10 0.727594 0.313684 0.567543
O O11 0.000000 0.405881 0.579923
O O12 0.745278 0.833478 0.802972
O O13 0.729032 0.838347 0.702856
O O14 0.000000 0.783262 0.748403
O O15 0.500000 0.905288 0.852827
O O16 0.772092 0.000000 0.838413
O O17 0.733294 0.500000 0.081969
O O18 0.000000 0.596543 0.063085
O O19 0.745290 0.595050 0.000000
O O20 0.734447 0.851477 0.397596
O O21 0.000000 0.897464 0.344279
O O22 0.734531 0.000000 0.340640
O O23 0.738433 0.815704 0.500000
O O24 0.000000 0.785254 0.558317
#
# Coordination Sequence:
#
# PCOD9386119 Si02
#       8
#     8   8   8   8   8   8   8   8
#     4   9  18  33  54  80 109 143 182 221 263 313
#     4  10  20  34  55  82 109 138 173 214 265 325
#     4   9  16  28  47  72 103 137 174 216 264 319
#     4  11  21  36  58  81 107 138 176 223 270 320
#     4  10  22  39  57  80 111 144 180 224 272 320
#     4   8  14  26  46  73 105 140 176 214 258 308
#     4   9  17  29  46  71 101 132 169 216 268 315
#     4   9  16  26  42  69 104 138 174 217 266 319
#
# _framework density 20.919177999999999
#
# number of rings (size 3 to 8) (size 9 to 14) (size 15 to 20)
#    0.000    2.625    1.250    1.500    0.000    3.000 
#    0.000    5.625    0.000    1.125    0.000    4.375 
#    0.000    1.000    0.000    0.000    0.000    0.000 
#
# Total GULP energy -356989.480341 kJ/mol
# GULP energy per Si atom -5577.960630 kJ/mol
# Density = 2.087157 g / cm^3
# Si number density = 20.919178 Si / 1000 Ang^3
#
#
#
# Elastic Constant Matrix: (Units=GPa)
#
#
# Indices 1 2 3 4 5 6 
#
# 1 29.7547 4.2314 2.4421 0.0000 0.0000 0.0000
# 2 4.2314 141.1835 68.6674 0.0000 0.0000 0.0000
# 3 2.4421 68.6674 98.9436 0.0000 0.0000 0.0000
# 4 0.0000 0.0000 0.0000 16.8587 0.0000 0.0000
# 5 0.0000 0.0000 0.0000 0.0000 16.2161 0.0000
# 6 0.0000 0.0000 0.0000 0.0000 0.0000 36.7681
#
#
#
# Elastic Compliance Matrix: (Units=1/GPa)
#
#
# Indices 1 2 3 4 5 6 
#
# 1 0.033755 -0.000915 -0.000198 0.000000 0.000000 0.000000
# 2 -0.000915 0.010717 -0.007415 0.000000 0.000000 0.000000
# 3 -0.000198 -0.007415 0.015258 0.000000 0.000000 0.000000
# 4 0.000000 0.000000 0.000000 0.059317 0.000000 0.000000
# 5 0.000000 0.000000 0.000000 0.000000 0.061667 0.000000
# 6 0.000000 0.000000 0.000000 0.000000 0.000000 0.027197
#
#
# Mechanical properties :
#
#
# Convention : Reuss Voigt Hill
#
# Bulk Modulus (GPa) = 23.43419 46.72928 35.08174
# Shear Modulus (GPa) = 20.90382 26.93798 23.92090
#
# Velocity S-wave (km/s) = 3.16455 3.59237 3.38522
# Velocity P-wave (km/s) = 4.95773 6.29232 5.66447
#
# Compressibility (1/GPa) = 0.04267269
#
# Stress axis : x y z
#
# Youngs Moduli (GPa) = 29.62562 93.31132 65.54092
#
# Poissons Ratio (x) = 0.08542 0.01296
# Poissons Ratio (y) = 0.02712 0.48598
# Poissons Ratio (z) = 0.00586 0.69190
#
# Static dielectric constant tensor:
#      x y z
#    x 1.786510 0.000000 0.000000 
#    y 0.000000 1.760930 0.000000 
#    z 0.000000 0.000000 1.732950 
# 
# From -- ./inp_files/32103.got.cif
#   From: 2010.05.17/outbox.cif.g08.bks.cpg/sg47_17_cif.got.tgz:32103.got - 2010.06.03 20:15:42.
