data_PCOD9386470
_publ_section_title
;
Structure prediction by ZEFSAII (Michael W. Deem and Ramdas Pophale) SiO2 
 PCOD9386470
Probable space group: P M M M
;
_chemical_formula_sum "Si O2"
_cell_formula_units_Z 56
_cell_length_a 22.254653
_cell_length_b 15.035569
_cell_length_c 8.385977
_cell_angle_alpha 90.000000
_cell_angle_beta 90.000000
_cell_angle_gamma 90.000000
_cell_volume 2806.043259
_symmetry_space_group_name_H-M "P M M M"
_symmetry_group_IT_number 47
_symmetry_cell_setting 'orthorhombic'
loop_
_space_group_symop_operation_xyz
x,y,z
-x,-y,z
x,-y,-z
-x,y,-z
-x,-y,-z
x,y,-z
-x,y,z
x,-y,z
loop_
_atom_site_type_symbol
_atom_site_label
_atom_site_fract_x
_atom_site_fract_y
_atom_site_fract_z
Si Si1 0.329578 0.897220 0.192330
Si Si2 0.568671 0.235043 0.307449
Si Si3 0.114126 0.310525 0.310936
Si Si4 0.653765 0.396230 0.306786
Si Si5 0.068286 0.500000 0.692866
Si Si6 0.930853 0.148182 0.169088
Si Si7 0.067705 0.897166 0.500000
Si Si8 0.755641 0.263963 0.190885
O O1 0.389827 0.845399 0.245670
O O2 0.276308 0.828849 0.240855
O O3 0.325442 0.000000 0.248752
O O4 0.328980 0.899472 0.000000
O O5 0.569205 0.231169 0.500000
O O6 0.500000 0.228731 0.252162
O O7 0.598710 0.330135 0.262914
O O8 0.099118 0.297919 0.500000
O O9 0.104244 0.412049 0.266182
O O10 0.071449 0.253152 0.196216
O O11 0.181624 0.280194 0.277407
O O12 0.658937 0.395139 0.500000
O O13 0.648113 0.500000 0.258527
O O14 0.711201 0.345243 0.234719
O O15 0.063995 0.500000 0.500000
O O16 0.000000 0.500000 0.754233
O O17 0.900450 0.119582 0.332931
O O18 0.000000 0.116023 0.170311
O O19 0.903698 0.122368 0.000000
O O20 0.000000 0.853495 0.500000
O O21 0.057490 0.000000 0.500000
O O22 0.764888 0.261580 0.000000
#
# Coordination Sequence:
#
# PCOD9386470 Si02
#       8
#     8   8   8   8   4   8   4   8
#     4   9  19  37  58  77 103 144 188 231 280 333
#     4   9  18  32  51  80 114 144 179 228 283 336
#     4  11  21  36  58  82 113 148 187 234 283 342
#     4   9  18  33  53  75 104 145 190 230 274 334
#     4   9  20  36  57  85 113 148 190 229 277 339
#     4  10  20  35  57  84 114 149 187 231 287 346
#     4   9  18  34  56  81 109 143 183 226 275 336
#     4  10  21  36  54  78 108 140 185 237 285 338
#
# _framework density 19.956928000000001
#
# number of rings (size 3 to 8) (size 9 to 14) (size 15 to 20)
#    0.000    2.429    0.714    1.286    1.000    2.857 
#    0.000    6.071    0.000    4.286    0.000    4.000 
#    0.000    0.000    0.000    0.000    0.000    0.000 
#
# Total GULP energy -311985.631541 kJ/mol
# GULP energy per Si atom -5571.171992 kJ/mol
# Density = 1.991151 g / cm^3
# Si number density = 19.956928 Si / 1000 Ang^3
#
#
#
# Elastic Constant Matrix: (Units=GPa)
#
#
# Indices 1 2 3 4 5 6 
#
# 1 110.8166 55.6708 9.8969 0.0000 0.0000 0.0000
# 2 55.6708 159.1780 25.2632 0.0000 0.0000 0.0000
# 3 9.8969 25.2632 77.8832 0.0000 0.0000 0.0000
# 4 0.0000 0.0000 0.0000 3.8897 0.0000 0.0000
# 5 0.0000 0.0000 0.0000 0.0000 20.6005 0.0000
# 6 0.0000 0.0000 0.0000 0.0000 0.0000 13.7501
#
#
#
# Elastic Compliance Matrix: (Units=1/GPa)
#
#
# Indices 1 2 3 4 5 6 
#
# 1 0.010949 -0.003804 -0.000157 0.000000 0.000000 0.000000
# 2 -0.003804 0.007945 -0.002094 0.000000 0.000000 0.000000
# 3 -0.000157 -0.002094 0.013539 0.000000 0.000000 0.000000
# 4 0.000000 0.000000 0.000000 0.257090 0.000000 0.000000
# 5 0.000000 0.000000 0.000000 0.000000 0.048542 0.000000
# 6 0.000000 0.000000 0.000000 0.000000 0.000000 0.072727
#
#
# Mechanical properties :
#
#
# Convention : Reuss Voigt Hill
#
# Bulk Modulus (GPa) = 49.20704 58.83772 54.02238
# Shear Modulus (GPa) = 11.63664 24.78452 18.21058
#
# Velocity S-wave (km/s) = 2.41734 3.52788 3.02403
# Velocity P-wave (km/s) = 5.70101 6.79272 6.27067
#
# Compressibility (1/GPa) = 0.02032229
#
# Stress axis : x y z
#
# Youngs Moduli (GPa) = 91.33108 125.86340 73.86133
#
# Poissons Ratio (x) = 0.47883 0.01162
# Poissons Ratio (y) = 0.34746 0.15465
# Poissons Ratio (z) = 0.01437 0.26353
#
# Static dielectric constant tensor:
#      x y z
#    x 1.705130 0.000000 0.000000 
#    y 0.000000 1.743930 0.000000 
#    z 0.000000 0.000000 1.756500 
# 
# From -- ./inp_files/11308.got.cif
#   From: 2010.05.17/outbox.cif.g08.bks.cpg/sg47_6_cif.got.tgz:11308.got - 2010.06.03 20:15:42.
