data_PCOD9386218
_publ_section_title
;
Structure prediction by ZEFSAII (Michael W. Deem and Ramdas Pophale) SiO2 
 PCOD9386218
Probable space group: P M M M
;
_chemical_formula_sum "Si O2"
_cell_formula_units_Z 64
_cell_length_a 8.703497
_cell_length_b 15.860912
_cell_length_c 24.435295
_cell_angle_alpha 90.000000
_cell_angle_beta 90.000000
_cell_angle_gamma 90.000000
_cell_volume 3373.180073
_symmetry_space_group_name_H-M "P M M M"
_symmetry_group_IT_number 47
_symmetry_cell_setting 'orthorhombic'
loop_
_space_group_symop_operation_xyz
x,y,z
-x,-y,z
x,-y,-z
-x,y,-z
-x,-y,-z
x,y,-z
-x,y,z
x,-y,z
loop_
_atom_site_type_symbol
_atom_site_label
_atom_site_fract_x
_atom_site_fract_y
_atom_site_fract_z
Si Si1 0.182974 0.855255 0.438594
Si Si2 0.817516 0.751158 0.257585
Si Si3 0.685164 0.593976 0.323709
Si Si4 0.684368 0.752935 0.864064
Si Si5 0.317056 0.906503 0.674624
Si Si6 0.814956 0.096928 0.936178
Si Si7 0.687037 0.595334 0.063006
Si Si8 0.316515 0.331787 0.560621
O O1 0.226772 0.883638 0.500000
O O2 0.267433 0.899342 0.388619
O O3 0.227198 0.756404 0.434901
O O4 0.000000 0.865461 0.432720
O O5 0.757690 0.667688 0.288100
O O6 0.750616 0.754599 0.196699
O O7 0.761917 0.832137 0.291846
O O8 0.000000 0.750398 0.255799
O O9 0.500000 0.598736 0.318255
O O10 0.734401 0.500000 0.307713
O O11 0.721604 0.610861 0.387615
O O12 0.500000 0.751034 0.861385
O O13 0.737254 0.834676 0.897754
O O14 0.738099 0.669170 0.896711
O O15 0.500000 0.896024 0.678466
O O16 0.275601 0.000000 0.695059
O O17 0.000000 0.103386 0.931519
O O18 0.772679 0.000000 0.922936
O O19 0.775151 0.112015 0.000000
O O20 0.500000 0.595634 0.063410
O O21 0.735425 0.500000 0.078017
O O22 0.734009 0.611534 0.000000
O O23 0.286601 0.367961 0.500000
O O24 0.500000 0.313546 0.563684
#
# Coordination Sequence:
#
# PCOD9386218 Si02
#       8
#     8   8   8   8   8   8   8   8
#     4  10  20  34  56  87 121 154 186 227 285 351
#     4  12  26  43  61  82 114 156 200 248 299 353
#     4  10  21  38  61  87 117 154 196 243 294 350
#     4  11  22  36  59  88 117 152 197 246 292 342
#     4  11  24  42  64  87 112 146 192 245 299 355
#     4   9  19  37  60  87 122 161 196 233 284 346
#     4   8  15  30  54  86 121 152 184 226 277 331
#     4   9  17  31  55  85 117 152 189 234 287 344
#
# _framework density 18.973193999999999
#
# number of rings (size 3 to 8) (size 9 to 14) (size 15 to 20)
#    0.000    2.000    1.250    3.375    0.000    4.500 
#    0.000    4.375    0.000    1.125    0.000    7.000 
#    0.000    0.000    0.000    0.000    0.000    0.000 
#
# Total GULP energy -357413.351399 kJ/mol
# GULP energy per Si atom -5584.583616 kJ/mol
# Density = 1.893001 g / cm^3
# Si number density = 18.973194 Si / 1000 Ang^3
#
#
#
# Elastic Constant Matrix: (Units=GPa)
#
#
# Indices 1 2 3 4 5 6 
#
# 1 47.1710 54.5962 47.9753 0.0000 0.0000 0.0000
# 2 54.5962 158.2455 103.2823 0.0000 0.0000 0.0000
# 3 47.9753 103.2823 139.3844 0.0000 0.0000 0.0000
# 4 0.0000 0.0000 0.0000 -7.7904 0.0000 0.0000
# 5 0.0000 0.0000 0.0000 0.0000 27.2070 0.0000
# 6 0.0000 0.0000 0.0000 0.0000 0.0000 -56.1176
#
#
#
# Elastic Compliance Matrix: (Units=1/GPa)
#
#
# Indices 1 2 3 4 5 6 
#
# 1 0.038141 -0.008890 -0.006540 0.000000 0.000000 0.000000
# 2 -0.008890 0.014310 -0.007544 0.000000 0.000000 0.000000
# 3 -0.006540 -0.007544 0.015015 0.000000 0.000000 0.000000
# 4 0.000000 0.000000 0.000000 -0.128363 0.000000 0.000000
# 5 0.000000 0.000000 0.000000 0.000000 0.036755 0.000000
# 6 0.000000 0.000000 0.000000 0.000000 0.000000 -0.017820
#
#
# Mechanical properties :
#
#
# Convention : Reuss Voigt Hill
#
# Bulk Modulus (GPa) = 46.47288 84.05649 65.26468
# Shear Modulus (GPa) = 448.03773 1.92296 224.98034
#
# Velocity S-wave (km/s) = 15.38360 1.00783 10.90117
# Velocity P-wave (km/s) = 18.44146 6.76411 13.88957
#
# Compressibility (1/GPa) = 0.02151793
#
# Stress axis : x y z
#
# Youngs Moduli (GPa) = 26.21846 69.88112 66.59922
#
# Poissons Ratio (x) = 0.62127 0.43557
# Poissons Ratio (y) = 0.23309 0.50239
# Poissons Ratio (z) = 0.17147 0.52715
#
# Static dielectric constant tensor:
#      x y z
#    x 1.639070 0.000000 0.000000 
#    y 0.000000 1.656530 0.000000 
#    z 0.000000 0.000000 1.641700 
# 
# From -- ./inp_files/32130.got.cif
#   From: 2010.05.17/outbox.cif.g08.bks.cpg/sg47_17_cif.got.tgz:32130.got - 2010.06.03 20:15:42.
