data_PCOD9386780
_publ_section_title
;
Structure prediction by ZEFSAII (Michael W. Deem and Ramdas Pophale) SiO2 
 PCOD9386780
Probable space group: P M M M
;
_chemical_formula_sum "Si O2"
_cell_formula_units_Z 52
_cell_length_a 10.126436
_cell_length_b 21.172617
_cell_length_c 14.742343
_cell_angle_alpha 90.000000
_cell_angle_beta 90.000000
_cell_angle_gamma 90.000000
_cell_volume 3160.804792
_symmetry_space_group_name_H-M "P M M M"
_symmetry_group_IT_number 47
_symmetry_cell_setting 'orthorhombic'
loop_
_space_group_symop_operation_xyz
x,y,z
-x,-y,z
x,-y,-z
-x,y,-z
-x,-y,-z
x,y,-z
-x,y,z
x,-y,z
loop_
_atom_site_type_symbol
_atom_site_label
_atom_site_fract_x
_atom_site_fract_y
_atom_site_fract_z
Si Si1 0.850585 0.670739 0.706127
Si Si2 0.345597 0.426631 0.609507
Si Si3 0.257902 0.657624 0.896540
Si Si4 0.160312 0.070074 0.395798
Si Si5 0.348528 0.198428 0.103065
Si Si6 0.500000 0.430162 0.109843
Si Si7 0.841529 0.184312 0.733747
O O1 0.749481 0.623521 0.657710
O O2 0.845331 0.659884 0.815078
O O3 0.814852 0.745053 0.695540
O O4 0.000000 0.660925 0.673106
O O5 0.334259 0.420875 0.500000
O O6 0.500000 0.415593 0.633097
O O7 0.314042 0.500000 0.632550
O O8 0.329365 0.725655 0.898608
O O9 0.367999 0.607179 0.867995
O O10 0.210911 0.645124 0.000000
O O11 0.203086 0.077680 0.500000
O O12 0.198908 0.129069 0.334801
O O13 0.000000 0.069912 0.396280
O O14 0.202141 0.000000 0.363930
O O15 0.500000 0.184281 0.128523
O O16 0.241142 0.175288 0.174519
O O17 0.325809 0.176018 0.000000
O O18 0.500000 0.500000 0.148464
O O19 0.500000 0.433236 0.000000
O O20 0.000000 0.181427 0.749903
#
# Coordination Sequence:
#
# PCOD9386780 Si02
#       7
#     8   8   8   8   8   4   8
#     4  10  21  32  47  75 104 129 156 192 245 299
#     4   9  20  39  58  72  88 118 163 209 247 285
#     4   9  17  30  46  65  94 127 160 197 234 279
#     4   8  14  27  49  74  98 127 162 196 233 283
#     4   9  16  28  47  67  91 127 167 202 237 280
#     4   9  16  26  42  64  85 111 154 201 239 273
#     4   9  18  30  46  73 104 128 156 198 242 283
#
# _framework density 16.451505999999998
#
# number of rings (size 3 to 8) (size 9 to 14) (size 15 to 20)
#    0.000    3.000    0.769    0.923    1.077    3.077 
#    0.000    5.385    0.000    1.385    0.000    7.538 
#    0.000    0.000    0.000    0.000    0.000    0.000 
#
# Total GULP energy -289502.403772 kJ/mol
# GULP energy per Si atom -5567.353919 kJ/mol
# Density = 1.641406 g / cm^3
# Si number density = 16.451506 Si / 1000 Ang^3
#
#
#
# Elastic Constant Matrix: (Units=GPa)
#
#
# Indices 1 2 3 4 5 6 
#
# 1 64.1162 50.9637 43.5057 0.0000 0.0000 0.0000
# 2 50.9637 115.4083 65.8966 0.0000 0.0000 0.0000
# 3 43.5057 65.8966 71.7101 0.0000 0.0000 0.0000
# 4 0.0000 0.0000 0.0000 18.1007 0.0000 0.0000
# 5 0.0000 0.0000 0.0000 0.0000 22.0121 0.0000
# 6 0.0000 0.0000 0.0000 0.0000 0.0000 14.3270
#
#
#
# Elastic Compliance Matrix: (Units=1/GPa)
#
#
# Indices 1 2 3 4 5 6 
#
# 1 0.028152 -0.005638 -0.011899 0.000000 0.000000 0.000000
# 2 -0.005638 0.019359 -0.014370 0.000000 0.000000 0.000000
# 3 -0.011899 -0.014370 0.034368 0.000000 0.000000 0.000000
# 4 0.000000 0.000000 0.000000 0.055246 0.000000 0.000000
# 5 0.000000 0.000000 0.000000 0.000000 0.045429 0.000000
# 6 0.000000 0.000000 0.000000 0.000000 0.000000 0.069799
#
#
# Mechanical properties :
#
#
# Convention : Reuss Voigt Hill
#
# Bulk Modulus (GPa) = 55.34760 63.55185 59.44973
# Shear Modulus (GPa) = 15.51889 16.94586 16.23238
#
# Velocity S-wave (km/s) = 3.07467 3.21292 3.14455
# Velocity P-wave (km/s) = 6.80593 7.24413 7.02845
#
# Compressibility (1/GPa) = 0.01806763
#
# Stress axis : x y z
#
# Youngs Moduli (GPa) = 35.52191 51.65491 29.09643
#
# Poissons Ratio (x) = 0.29121 0.34621
# Poissons Ratio (y) = 0.20026 0.41810
# Poissons Ratio (z) = 0.42267 0.74226
#
# Static dielectric constant tensor:
#      x y z
#    x 1.545060 0.000000 0.000000 
#    y 0.000000 1.551050 0.000000 
#    z 0.000000 0.000000 1.570220 
# 
# From -- ./inp_files/7006.got.cif
#   From: 2010.05.17/outbox.cif.g08.bks.cpg/sg47_4_cif.got.tgz:7006.got - 2010.06.03 20:15:42.
