data_PCOD9386350
_publ_section_title
;
Structure prediction by ZEFSAII (Michael W. Deem and Ramdas Pophale) SiO2 
 PCOD9386350
Probable space group: P M M M
;
_chemical_formula_sum "Si O2"
_cell_formula_units_Z 56
_cell_length_a 21.899617
_cell_length_b 7.900179
_cell_length_c 15.035992
_cell_angle_alpha 90.000000
_cell_angle_beta 90.000000
_cell_angle_gamma 90.000000
_cell_volume 2601.390423
_symmetry_space_group_name_H-M "P M M M"
_symmetry_group_IT_number 47
_symmetry_cell_setting 'orthorhombic'
loop_
_space_group_symop_operation_xyz
x,y,z
-x,-y,z
x,-y,-z
-x,y,-z
-x,-y,-z
x,y,-z
-x,y,z
x,-y,z
loop_
_atom_site_type_symbol
_atom_site_label
_atom_site_fract_x
_atom_site_fract_y
_atom_site_fract_z
Si Si1 0.572875 0.192310 0.096462
Si Si2 0.814194 0.203540 0.600700
Si Si3 0.699653 0.798244 0.285845
Si Si4 0.748924 0.204581 0.901298
Si Si5 0.933364 0.704803 0.287904
Si Si6 0.431781 0.306604 0.707391
Si Si7 0.891033 0.703013 0.902025
O O1 0.500000 0.175908 0.088963
O O2 0.578716 0.296236 0.186044
O O3 0.597729 0.000000 0.109482
O O4 0.594142 0.255761 0.000000
O O5 0.816543 0.268791 0.500000
O O6 0.754963 0.269143 0.653965
O O7 0.876133 0.240953 0.653481
O O8 0.808292 0.000000 0.596720
O O9 0.710691 0.735679 0.184173
O O10 0.632265 0.767643 0.325515
O O11 0.706545 0.000000 0.280674
O O12 0.819210 0.258972 0.889777
O O13 0.747514 0.000000 0.902541
O O14 0.729998 0.263659 0.000000
O O15 0.932752 0.500000 0.286073
O O16 0.924370 0.766009 0.186198
O O17 0.000000 0.759841 0.321309
O O18 0.500000 0.230248 0.690199
O O19 0.434565 0.500000 0.678844
O O20 0.899201 0.500000 0.904339
O O21 0.909230 0.768928 0.000000
#
# Coordination Sequence:
#
# PCOD9386350 Si02
#       7
#     8   8   8   8   8   8   8
#     4   8  14  26  44  65  93 134 181 222 260 308
#     4  10  22  41  63  86 111 140 181 233 285 336
#     4  10  20  35  56  80 106 140 181 225 276 333
#     4   9  17  30  50  76 105 138 180 229 276 321
#     4  10  21  36  56  85 120 155 190 229 273 324
#     4  10  21  34  49  74 107 140 175 220 274 330
#     4   9  17  30  50  77 111 151 191 228 267 313
#
# _framework density 21.526948999999998
#
# number of rings (size 3 to 8) (size 9 to 14) (size 15 to 20)
#    0.000    2.571    1.429    0.857    0.000    4.000 
#    0.000    5.714    0.000    0.429    0.000    6.000 
#    0.000    0.000    0.000    0.000    0.000    0.000 
#
# Total GULP energy -312156.779469 kJ/mol
# GULP energy per Si atom -5574.228205 kJ/mol
# Density = 2.147795 g / cm^3
# Si number density = 21.526949 Si / 1000 Ang^3
#
#
#
# Elastic Constant Matrix: (Units=GPa)
#
#
# Indices 1 2 3 4 5 6 
#
# 1 164.1433 0.7477 74.5457 0.0000 0.0000 0.0000
# 2 0.7477 15.4741 8.7868 0.0000 0.0000 0.0000
# 3 74.5457 8.7868 101.0142 0.0000 0.0000 0.0000
# 4 0.0000 0.0000 0.0000 13.2134 0.0000 0.0000
# 5 0.0000 0.0000 0.0000 0.0000 -9.2794 0.0000
# 6 0.0000 0.0000 0.0000 0.0000 0.0000 22.4246
#
#
#
# Elastic Compliance Matrix: (Units=1/GPa)
#
#
# Indices 1 2 3 4 5 6 
#
# 1 0.009355 0.003648 -0.007221 0.000000 0.000000 0.000000
# 2 0.003648 0.069405 -0.008730 0.000000 0.000000 0.000000
# 3 -0.007221 -0.008730 0.015988 0.000000 0.000000 0.000000
# 4 0.000000 0.000000 0.000000 0.075681 0.000000 0.000000
# 5 0.000000 0.000000 0.000000 0.000000 -0.107766 0.000000
# 6 0.000000 0.000000 0.000000 0.000000 0.000000 0.044594
#
#
# Mechanical properties :
#
#
# Convention : Reuss Voigt Hill
#
# Bulk Modulus (GPa) = 14.25657 49.86578 32.06118
# Shear Modulus (GPa) = 32.20765 18.37515 25.29140
#
# Velocity S-wave (km/s) = 3.87221 2.92479 3.43136
# Velocity P-wave (km/s) = 5.16034 5.88392 5.53397
#
# Compressibility (1/GPa) = 0.07014310
#
# Stress axis : x y z
#
# Youngs Moduli (GPa) = 106.89336 14.40821 62.54691
#
# Poissons Ratio (x) = -0.05257 0.45166
# Poissons Ratio (y) = -0.39000 0.54602
# Poissons Ratio (z) = 0.77190 0.12578
#
# Static dielectric constant tensor:
#      x y z
#    x 1.818910 0.000000 0.000000 
#    y 0.000000 1.844100 0.000000 
#    z 0.000000 0.000000 1.803500 
# 
# From -- ./inp_files/25117.got.cif
#   From: 2010.05.17/outbox.cif.g08.bks.cpg/sg47_13_cif.got.tgz:25117.got - 2010.06.03 20:15:42.
