data_PCOD9386626
_publ_section_title
;
Structure prediction by ZEFSAII (Michael W. Deem and Ramdas Pophale) SiO2 
 PCOD9386626
Probable space group: P M M M
;
_chemical_formula_sum "Si O2"
_cell_formula_units_Z 48
_cell_length_a 17.939942
_cell_length_b 9.056998
_cell_length_c 15.616956
_cell_angle_alpha 90.000000
_cell_angle_beta 90.000000
_cell_angle_gamma 90.000000
_cell_volume 2537.474539
_symmetry_space_group_name_H-M "P M M M"
_symmetry_group_IT_number 47
_symmetry_cell_setting 'orthorhombic'
loop_
_space_group_symop_operation_xyz
x,y,z
-x,-y,z
x,-y,-z
-x,y,-z
-x,-y,-z
x,y,-z
-x,y,z
x,-y,z
loop_
_atom_site_type_symbol
_atom_site_label
_atom_site_fract_x
_atom_site_fract_y
_atom_site_fract_z
Si Si1 0.585434 0.820761 0.500000
Si Si2 0.693981 0.178113 0.345187
Si Si3 0.000000 0.837253 0.898214
Si Si4 0.688408 0.320053 0.157886
Si Si5 0.148253 0.665190 0.147847
Si Si6 0.000000 0.166291 0.601699
Si Si7 0.585008 0.679593 0.000000
Si Si8 0.152243 0.667584 0.646819
O O1 0.500000 0.767672 0.500000
O O2 0.631449 0.778947 0.585164
O O3 0.583455 0.000000 0.500000
O O4 0.678176 0.246665 0.251116
O O5 0.773962 0.240771 0.376820
O O6 0.697574 0.000000 0.339208
O O7 0.075666 0.756828 0.872953
O O8 0.000000 0.000000 0.859771
O O9 0.000000 0.845945 0.000000
O O10 0.688856 0.500000 0.167920
O O11 0.770379 0.277699 0.121656
O O12 0.627988 0.277436 0.086772
O O13 0.138456 0.500000 0.113023
O O14 0.154172 0.657618 0.250371
O O15 0.924971 0.252758 0.625508
O O16 0.000000 0.155025 0.500000
O O17 0.000000 0.000000 0.638295
O O18 0.585078 0.500000 0.000000
O O19 0.500000 0.731048 0.000000
O O20 0.154319 0.500000 0.612583
#
# Coordination Sequence:
#
# PCOD9386626 Si02
#       8
#     4   8   4   8   8   4   4   8
#     4   9  20  38  59  84 115 152 191 231 282 351
#     4  10  20  36  60  86 114 151 193 238 290 345
#     4  11  24  35  46  74 110 139 174 225 276 318
#     4   9  19  36  58  85 115 148 190 234 281 342
#     4   9  19  35  55  75 100 139 184 225 266 322
#     4  11  24  37  52  80 116 151 190 231 276 334
#     4   9  18  34  59  88 117 150 186 231 289 349
#     4  10  21  38  58  81 110 145 189 237 284 332
#
# _framework density 18.916446000000001
#
# number of rings (size 3 to 8) (size 9 to 14) (size 15 to 20)
#    0.000    2.333    0.000    3.000    2.333    7.333 
#    0.000    1.667    0.000    4.000    0.000    0.000 
#    0.000    0.000    0.000    0.000    0.000    0.000 
#
# Total GULP energy -267739.399567 kJ/mol
# GULP energy per Si atom -5577.904158 kJ/mol
# Density = 1.887339 g / cm^3
# Si number density = 18.916446 Si / 1000 Ang^3
#
#
#
# Elastic Constant Matrix: (Units=GPa)
#
#
# Indices 1 2 3 4 5 6 
#
# 1 215.0298 68.1205 78.8070 0.0000 0.0000 0.0000
# 2 68.1205 76.2426 34.9462 0.0000 0.0000 0.0000
# 3 78.8070 34.9462 81.5626 0.0000 0.0000 0.0000
# 4 0.0000 0.0000 0.0000 29.1928 0.0000 0.0000
# 5 0.0000 0.0000 0.0000 0.0000 38.1281 0.0000
# 6 0.0000 0.0000 0.0000 0.0000 0.0000 -4.1007
#
#
#
# Elastic Compliance Matrix: (Units=1/GPa)
#
#
# Indices 1 2 3 4 5 6 
#
# 1 0.008360 -0.004687 -0.006069 0.000000 0.000000 0.000000
# 2 -0.004687 0.018950 -0.003590 0.000000 0.000000 0.000000
# 3 -0.006069 -0.003590 0.019663 0.000000 0.000000 0.000000
# 4 0.000000 0.000000 0.000000 0.034255 0.000000 0.000000
# 5 0.000000 0.000000 0.000000 0.000000 0.026227 0.000000
# 6 0.000000 0.000000 0.000000 0.000000 0.000000 -0.243860
#
#
# Mechanical properties :
#
#
# Convention : Reuss Voigt Hill
#
# Bulk Modulus (GPa) = 54.70722 81.84250 68.27486
# Shear Modulus (GPa) = -49.20295 25.37479 -11.91408
#
# Velocity S-wave (km/s) = -5.10560 3.66651 -2.51236
# Velocity P-wave (km/s) = 2.40270 7.82838 5.26833
#
# Compressibility (1/GPa) = 0.01827912
#
# Stress axis : x y z
#
# Youngs Moduli (GPa) = 119.62177 52.77151 50.85805
#
# Poissons Ratio (x) = 0.24736 0.30865
# Poissons Ratio (y) = 0.56072 0.18258
# Poissons Ratio (z) = 0.72597 0.18945
#
# Static dielectric constant tensor:
#      x y z
#    x 1.683700 0.000000 0.000000 
#    y 0.000000 1.673250 0.000000 
#    z 0.000000 0.000000 1.655480 
# 
# From -- ./inp_files/24536.got.cif
#   From: 2010.05.17/outbox.cif.g08.bks.cpg/sg47_13_cif.got.tgz:24536.got - 2010.06.03 20:15:42.
