data_PCOD9386747
_publ_section_title
;
Structure prediction by ZEFSAII (Michael W. Deem and Ramdas Pophale) SiO2 
 PCOD9386747
Probable space group: P M M M
;
_chemical_formula_sum "Si O2"
_cell_formula_units_Z 46
_cell_length_a 11.444373
_cell_length_b 18.800360
_cell_length_c 12.587454
_cell_angle_alpha 90.000000
_cell_angle_beta 90.000000
_cell_angle_gamma 90.000000
_cell_volume 2708.295611
_symmetry_space_group_name_H-M "P M M M"
_symmetry_group_IT_number 47
_symmetry_cell_setting 'orthorhombic'
loop_
_space_group_symop_operation_xyz
x,y,z
-x,-y,z
x,-y,-z
-x,y,-z
-x,-y,-z
x,y,-z
-x,y,z
x,-y,z
loop_
_atom_site_type_symbol
_atom_site_label
_atom_site_fract_x
_atom_site_fract_y
_atom_site_fract_z
Si Si1 0.364593 0.720691 0.376089
Si Si2 0.773721 0.662553 0.184396
Si Si3 0.862231 0.179704 0.875469
Si Si4 0.132106 0.084924 0.500000
Si Si5 0.297465 0.122237 0.696349
Si Si6 0.360732 0.582614 0.000000
Si Si7 0.000000 0.415705 0.876115
Si Si8 0.500000 0.000000 0.704462
O O1 0.330062 0.718382 0.500000
O O2 0.500000 0.699155 0.368034
O O3 0.285144 0.674158 0.298236
O O4 0.353077 0.801548 0.333771
O O5 0.817077 0.739729 0.143130
O O6 0.685933 0.625453 0.101807
O O7 0.886951 0.613502 0.182376
O O8 0.778356 0.131083 0.803586
O O9 0.000000 0.175014 0.845555
O O10 0.852571 0.162669 0.000000
O O11 0.205458 0.106572 0.602887
O O12 0.000000 0.114282 0.500000
O O13 0.124900 0.000000 0.500000
O O14 0.396727 0.062403 0.702091
O O15 0.317875 0.500000 0.000000
O O16 0.500000 0.581322 0.000000
O O17 0.000000 0.500000 0.879380
O O18 0.000000 0.389722 0.000000
#
# Coordination Sequence:
#
# PCOD9386747 Si02
#       8
#     8   8   8   4   8   4   4   2
#     4  10  21  38  59  84 116 156 203 244 292 351
#     4  11  20  35  57  89 121 154 196 246 298 349
#     4  10  20  38  60  83 115 154 196 236 293 355
#     4  11  22  36  56  84 114 144 184 239 300 347
#     4  11  22  37  59  86 114 150 192 246 295 352
#     4  11  22  35  55  87 125 160 196 243 296 350
#     4  11  20  34  61  93 123 156 192 244 304 359
#     4  12  24  41  61  86 118 152 197 241 310 346
#
# _framework density 16.984852
#
# number of rings (size 3 to 8) (size 9 to 14) (size 15 to 20)
#    0.000    1.304    5.217    1.565    0.000    0.696 
#    0.000    1.739    0.000    3.652    0.000    6.087 
#    0.000    0.000    0.000    0.000    0.000    0.000 
#
# Total GULP energy -256161.987595 kJ/mol
# GULP energy per Si atom -5568.738861 kJ/mol
# Density = 1.694619 g / cm^3
# Si number density = 16.984852 Si / 1000 Ang^3
#
#
#
# Elastic Constant Matrix: (Units=GPa)
#
#
# Indices 1 2 3 4 5 6 
#
# 1 149.4763 56.5861 77.6891 0.0000 0.0000 0.0000
# 2 56.5861 76.7650 45.4011 0.0000 0.0000 0.0000
# 3 77.6891 45.4011 127.7653 0.0000 0.0000 0.0000
# 4 0.0000 0.0000 0.0000 -10.1838 0.0000 0.0000
# 5 0.0000 0.0000 0.0000 0.0000 13.0455 0.0000
# 6 0.0000 0.0000 0.0000 0.0000 0.0000 44.1529
#
#
#
# Elastic Compliance Matrix: (Units=1/GPa)
#
#
# Indices 1 2 3 4 5 6 
#
# 1 0.011314 -0.005408 -0.004958 0.000000 0.000000 0.000000
# 2 -0.005408 0.019078 -0.003491 0.000000 0.000000 0.000000
# 3 -0.004958 -0.003491 0.012082 0.000000 0.000000 0.000000
# 4 0.000000 0.000000 0.000000 -0.098195 0.000000 0.000000
# 5 0.000000 0.000000 0.000000 0.000000 0.076655 0.000000
# 6 0.000000 0.000000 0.000000 0.000000 0.000000 0.022649
#
#
# Mechanical properties :
#
#
# Convention : Reuss Voigt Hill
#
# Bulk Modulus (GPa) = 67.74860 79.26212 73.50536
# Shear Modulus (GPa) = 65.60315 21.02493 43.31404
#
# Velocity S-wave (km/s) = 6.22160 3.52215 5.05539
# Velocity P-wave (km/s) = 9.57003 7.95665 8.80039
#
# Compressibility (1/GPa) = 0.01476045
#
# Stress axis : x y z
#
# Youngs Moduli (GPa) = 88.38569 52.41743 82.76658
#
# Poissons Ratio (x) = 0.28345 0.41036
# Poissons Ratio (y) = 0.47796 0.28894
# Poissons Ratio (z) = 0.43822 0.18299
#
# Static dielectric constant tensor:
#      x y z
#    x 1.546930 0.000000 0.000000 
#    y 0.000000 1.566730 0.000000 
#    z 0.000000 0.000000 1.534050 
# 
# From -- ./inp_files/16363.got.cif
#   From: 2010.05.17/outbox.cif.g08.bks.cpg/sg47_9_cif.got.tgz:16363.got - 2010.06.03 20:15:42.
