data_PCOD9386690
_publ_section_title
;
Structure prediction by ZEFSAII (Michael W. Deem and Ramdas Pophale) SiO2 
 PCOD9386690
Probable space group: P M M M
;
_chemical_formula_sum "Si O2"
_cell_formula_units_Z 48
_cell_length_a 8.768807
_cell_length_b 18.115221
_cell_length_c 15.871680
_cell_angle_alpha 90.000000
_cell_angle_beta 90.000000
_cell_angle_gamma 90.000000
_cell_volume 2521.198540
_symmetry_space_group_name_H-M "P M M M"
_symmetry_group_IT_number 47
_symmetry_cell_setting 'orthorhombic'
loop_
_space_group_symop_operation_xyz
x,y,z
-x,-y,z
x,-y,-z
-x,y,-z
-x,-y,-z
x,y,-z
-x,y,z
x,-y,z
loop_
_atom_site_type_symbol
_atom_site_label
_atom_site_fract_x
_atom_site_fract_y
_atom_site_fract_z
Si Si1 0.184424 0.916638 0.228170
Si Si2 0.817339 0.653424 0.164766
Si Si3 0.317606 0.198638 0.905027
Si Si4 0.682179 0.415824 0.500000
Si Si5 0.183004 0.312565 0.359113
Si Si6 0.681901 0.500000 0.100097
Si Si7 0.814455 0.145410 0.593635
O O1 0.250756 0.856311 0.164839
O O2 0.233676 0.900704 0.324639
O O3 0.000000 0.910527 0.226154
O O4 0.226834 0.000000 0.204166
O O5 0.746987 0.719434 0.110153
O O6 0.780263 0.672806 0.261855
O O7 0.752172 0.574044 0.139521
O O8 0.000000 0.653260 0.155594
O O9 0.500000 0.200631 0.897671
O O10 0.277417 0.174336 0.000000
O O11 0.737051 0.500000 0.500000
O O12 0.500000 0.415575 0.500000
O O13 0.741795 0.372563 0.581205
O O14 0.228655 0.230450 0.388228
O O15 0.000000 0.316852 0.368504
O O16 0.500000 0.500000 0.112757
O O17 0.712436 0.500000 0.000000
O O18 0.761810 0.122993 0.500000
O O19 0.000000 0.142462 0.592207
#
# Coordination Sequence:
#
# PCOD9386690 Si02
#       7
#     8   8   8   4   8   4   8
#     4  10  21  38  61  91 124 157 200 253 303 358
#     4  11  23  40  64  92 120 154 202 254 302 356
#     4  11  24  41  62  88 120 161 205 250 307 371
#     4  11  25  39  53  83 122 157 198 246 296 352
#     4  10  20  37  60  84 112 152 198 245 295 350
#     4  11  25  43  61  86 123 160 195 241 300 365
#     4   9  16  32  59  88 117 150 190 238 292 350
#
# _framework density 19.038563
#
# number of rings (size 3 to 8) (size 9 to 14) (size 15 to 20)
#    0.000    1.667    2.500    2.000    1.167    7.000 
#    0.000    3.333    0.000    0.000    0.000    1.167 
#    0.000    0.000    0.000    0.000    0.000    0.000 
#
# Total GULP energy -268159.647291 kJ/mol
# GULP energy per Si atom -5586.659319 kJ/mol
# Density = 1.899523 g / cm^3
# Si number density = 19.038563 Si / 1000 Ang^3
#
#
#
# Elastic Constant Matrix: (Units=GPa)
#
#
# Indices 1 2 3 4 5 6 
#
# 1 18.0107 20.6099 36.0105 0.0000 0.0000 0.0000
# 2 20.6099 110.6497 44.9908 0.0000 0.0000 0.0000
# 3 36.0105 44.9908 126.1416 0.0000 0.0000 0.0000
# 4 0.0000 0.0000 0.0000 9.8143 0.0000 0.0000
# 5 0.0000 0.0000 0.0000 0.0000 77.8562 0.0000
# 6 0.0000 0.0000 0.0000 0.0000 0.0000 -18.9231
#
#
#
# Elastic Compliance Matrix: (Units=1/GPa)
#
#
# Indices 1 2 3 4 5 6 
#
# 1 0.140983 -0.011573 -0.036119 0.000000 0.000000 0.000000
# 2 -0.011573 0.011521 -0.000805 0.000000 0.000000 0.000000
# 3 -0.036119 -0.000805 0.018526 0.000000 0.000000 0.000000
# 4 0.000000 0.000000 0.000000 0.101893 0.000000 0.000000
# 5 0.000000 0.000000 0.000000 0.000000 0.012844 0.000000
# 6 0.000000 0.000000 0.000000 0.000000 0.000000 -0.052845
#
#
# Mechanical properties :
#
#
# Convention : Reuss Voigt Hill
#
# Bulk Modulus (GPa) = 13.50739 50.89159 32.19949
# Shear Modulus (GPa) = 14.10062 23.96219 19.03140
#
# Velocity S-wave (km/s) = 2.72441 3.55154 3.16511
# Velocity P-wave (km/s) = 4.12392 6.60354 5.50516
#
# Compressibility (1/GPa) = 0.07403354
#
# Stress axis : x y z
#
# Youngs Moduli (GPa) = 7.09306 86.80122 53.97821
#
# Poissons Ratio (x) = 1.00459 1.94966
# Poissons Ratio (y) = 0.08209 0.04346
# Poissons Ratio (z) = 0.25620 0.06988
#
# Static dielectric constant tensor:
#      x y z
#    x 1.642110 0.000000 0.000000 
#    y 0.000000 1.628850 0.000000 
#    z 0.000000 0.000000 1.661570 
# 
# From -- ./inp_files/21083.got.cif
#   From: 2010.05.17/outbox.cif.g08.bks.cpg/sg47_11_cif.got.tgz:21083.got - 2010.06.03 20:15:42.
