data_PCOD9386371
_publ_section_title
;
Structure prediction by ZEFSAII (Michael W. Deem and Ramdas Pophale) SiO2 
 PCOD9386371
Probable space group: P M M M
;
_chemical_formula_sum "Si O2"
_cell_formula_units_Z 52
_cell_length_a 20.277259
_cell_length_b 8.778918
_cell_length_c 15.338719
_cell_angle_alpha 90.000000
_cell_angle_beta 90.000000
_cell_angle_gamma 90.000000
_cell_volume 2730.482090
_symmetry_space_group_name_H-M "P M M M"
_symmetry_group_IT_number 47
_symmetry_cell_setting 'orthorhombic'
loop_
_space_group_symop_operation_xyz
x,y,z
-x,-y,z
x,-y,-z
-x,y,-z
-x,-y,-z
x,y,-z
-x,y,z
x,-y,z
loop_
_atom_site_type_symbol
_atom_site_label
_atom_site_fract_x
_atom_site_fract_y
_atom_site_fract_z
Si Si1 0.177312 0.819700 0.636414
Si Si2 0.132697 0.179353 0.165229
Si Si3 0.623791 0.316973 0.220317
Si Si4 0.000000 0.680830 0.099227
Si Si5 0.269643 0.816681 0.096011
Si Si6 0.076875 0.317087 0.500000
Si Si7 0.500000 0.313775 0.897722
Si Si8 0.678183 0.684324 0.597912
O O1 0.160098 0.799052 0.737549
O O2 0.118280 0.745818 0.581516
O O3 0.247852 0.746409 0.613594
O O4 0.180705 0.000000 0.617809
O O5 0.193012 0.225903 0.103319
O O6 0.065633 0.265069 0.147109
O O7 0.120259 0.000000 0.152277
O O8 0.619938 0.500000 0.221802
O O9 0.689039 0.264093 0.170326
O O10 0.563169 0.263730 0.159644
O O11 0.631773 0.266094 0.321113
O O12 0.000000 0.500000 0.095731
O O13 0.000000 0.741806 0.000000
O O14 0.273554 0.000000 0.107568
O O15 0.295625 0.777757 0.000000
O O16 0.078739 0.500000 0.500000
O O17 0.000000 0.269285 0.500000
O O18 0.500000 0.500000 0.900027
O O19 0.500000 0.264535 0.000000
O O20 0.656863 0.729614 0.500000
O O21 0.681134 0.500000 0.600046
#
# Coordination Sequence:
#
# PCOD9386371 Si02
#       8
#     8   8   8   4   8   4   4   8
#     4  11  22  37  59  84 109 143 190 238 283 340
#     4  10  22  39  58  80 108 145 188 232 288 348
#     4  10  20  35  57  84 115 153 196 239 285 344
#     4  11  25  41  57  80 109 144 189 237 286 347
#     4  10  20  35  56  82 112 144 183 233 285 340
#     4  11  25  41  57  81 115 152 187 232 295 353
#     4   9  18  34  56  84 120 159 197 239 291 348
#     4  10  20  35  56  83 114 148 188 236 293 346
#
# _framework density 19.044256000000001
#
# number of rings (size 3 to 8) (size 9 to 14) (size 15 to 20)
#    0.000    1.769    2.308    1.846    1.077    4.615 
#    0.000    0.769    0.000    3.692    0.000    0.000 
#    0.000    2.462    0.000    0.000    0.000    0.000 
#
# Total GULP energy -290209.784257 kJ/mol
# GULP energy per Si atom -5580.957390 kJ/mol
# Density = 1.900091 g / cm^3
# Si number density = 19.044256 Si / 1000 Ang^3
#
#
#
# Elastic Constant Matrix: (Units=GPa)
#
#
# Indices 1 2 3 4 5 6 
#
# 1 103.6208 14.6795 62.9532 0.0000 0.0000 0.0000
# 2 14.6795 10.2839 32.3775 0.0000 0.0000 0.0000
# 3 62.9532 32.3775 139.4805 0.0000 0.0000 0.0000
# 4 0.0000 0.0000 0.0000 19.9980 0.0000 0.0000
# 5 0.0000 0.0000 0.0000 0.0000 15.9563 0.0000
# 6 0.0000 0.0000 0.0000 0.0000 0.0000 18.1817
#
#
#
# Elastic Compliance Matrix: (Units=1/GPa)
#
#
# Indices 1 2 3 4 5 6 
#
# 1 0.013297 -0.000318 -0.005928 0.000000 0.000000 0.000000
# 2 -0.000318 0.361262 -0.083716 0.000000 0.000000 0.000000
# 3 -0.005928 -0.083716 0.029278 0.000000 0.000000 0.000000
# 4 0.000000 0.000000 0.000000 0.050005 0.000000 0.000000
# 5 0.000000 0.000000 0.000000 0.000000 0.062671 0.000000
# 6 0.000000 0.000000 0.000000 0.000000 0.000000 0.055000
#
#
# Mechanical properties :
#
#
# Convention : Reuss Voigt Hill
#
# Bulk Modulus (GPa) = 4.46602 52.60062 28.53332
# Shear Modulus (GPa) = 6.05273 20.38552 13.21913
#
# Velocity S-wave (km/s) = 1.78470 3.27529 2.63749
# Velocity P-wave (km/s) = 2.56847 6.47947 4.92852
#
# Compressibility (1/GPa) = 0.22391325
#
# Stress axis : x y z
#
# Youngs Moduli (GPa) = 75.20587 2.76808 34.15574
#
# Poissons Ratio (x) = 0.00088 0.20246
# Poissons Ratio (y) = 0.02393 2.85937
# Poissons Ratio (z) = 0.44579 0.23173
#
# Static dielectric constant tensor:
#      x y z
#    x 1.636960 0.000000 0.000000 
#    y 0.000000 1.638840 0.000000 
#    z 0.000000 0.000000 1.702640 
# 
# From -- ./inp_files/25113.got.cif
#   From: 2010.05.17/outbox.cif.g08.bks.cpg/sg47_13_cif.got.tgz:25113.got - 2010.06.03 20:15:42.
