data_PCOD9386805
_publ_section_title
;
Structure prediction by ZEFSAII (Michael W. Deem and Ramdas Pophale) SiO2 
 PCOD9386805
Probable space group: P M M M
;
_chemical_formula_sum "Si O2"
_cell_formula_units_Z 52
_cell_length_a 7.618506
_cell_length_b 29.522424
_cell_length_c 14.164775
_cell_angle_alpha 90.000000
_cell_angle_beta 90.000000
_cell_angle_gamma 90.000000
_cell_volume 3185.895361
_symmetry_space_group_name_H-M "P M M M"
_symmetry_group_IT_number 47
_symmetry_cell_setting 'orthorhombic'
loop_
_space_group_symop_operation_xyz
x,y,z
-x,-y,z
x,-y,-z
-x,y,-z
-x,-y,-z
x,y,-z
-x,y,z
x,-y,z
loop_
_atom_site_type_symbol
_atom_site_label
_atom_site_fract_x
_atom_site_fract_y
_atom_site_fract_z
Si Si1 0.785689 0.221245 0.891159
Si Si2 0.794559 0.643081 0.604357
Si Si3 0.212385 0.405137 0.894354
Si Si4 0.293770 0.449924 0.300742
Si Si5 0.798572 0.120792 0.114971
Si Si6 0.500000 0.051930 0.115121
Si Si7 0.214877 0.312950 0.205614
O O1 0.734595 0.171093 0.857011
O O2 0.727280 0.264108 0.830581
O O3 0.000000 0.220930 0.891686
O O4 0.729982 0.227054 0.000000
O O5 0.717119 0.648224 0.500000
O O6 0.784901 0.591161 0.639477
O O7 0.721291 0.672957 0.690353
O O8 0.000000 0.654757 0.598394
O O9 0.271557 0.437555 0.809765
O O10 0.264834 0.354078 0.864205
O O11 0.000000 0.406355 0.894408
O O12 0.273096 0.416201 0.000000
O O13 0.500000 0.450162 0.321901
O O14 0.221671 0.500000 0.319712
O O15 0.670011 0.080765 0.144625
O O16 0.000000 0.114126 0.145226
O O17 0.799404 0.121747 0.000000
O O18 0.500000 0.000000 0.147042
O O19 0.500000 0.051198 0.000000
O O20 0.000000 0.312729 0.206610
#
# Coordination Sequence:
#
# PCOD9386805 Si02
#       7
#     8   8   8   8   8   4   8
#     4   8  12  19  35  57  78 102 131 162 196 236
#     4   9  18  32  49  67  84 102 128 166 207 247
#     4   9  17  29  46  66  86 108 133 163 198 239
#     4  10  21  34  46  61  81 106 135 165 200 244
#     4   8  14  23  34  50  72 100 137 177 213 249
#     4   9  16  24  34  48  70 104 143 183 220 245
#     4   8  13  23  41  63  83 103 130 160 194 243
#
# _framework density 16.321942
#
# number of rings (size 3 to 8) (size 9 to 14) (size 15 to 20)
#    0.000    3.308    0.000    2.769    0.000    4.615 
#    0.000    4.615    6.769    0.000    0.000    0.000 
#    0.000    0.000    0.000    0.000    0.000    1.538 
#
# Total GULP energy -289664.623989 kJ/mol
# GULP energy per Si atom -5570.473538 kJ/mol
# Density = 1.628479 g / cm^3
# Si number density = 16.321942 Si / 1000 Ang^3
#
#
#
# Elastic Constant Matrix: (Units=GPa)
#
#
# Indices 1 2 3 4 5 6 
#
# 1 41.2606 19.2446 1.0514 0.0000 0.0000 0.0000
# 2 19.2446 125.3330 21.4545 0.0000 0.0000 0.0000
# 3 1.0514 21.4545 59.1927 0.0000 0.0000 0.0000
# 4 0.0000 0.0000 0.0000 7.5000 0.0000 0.0000
# 5 0.0000 0.0000 0.0000 0.0000 -3.4274 0.0000
# 6 0.0000 0.0000 0.0000 0.0000 0.0000 27.7954
#
#
#
# Elastic Compliance Matrix: (Units=1/GPa)
#
#
# Indices 1 2 3 4 5 6 
#
# 1 0.026168 -0.004199 0.001057 0.000000 0.000000 0.000000
# 2 -0.004199 0.009180 -0.003253 0.000000 0.000000 0.000000
# 3 0.001057 -0.003253 0.018054 0.000000 0.000000 0.000000
# 4 0.000000 0.000000 0.000000 0.133333 0.000000 0.000000
# 5 0.000000 0.000000 0.000000 0.000000 -0.291770 0.000000
# 6 0.000000 0.000000 0.000000 0.000000 0.000000 0.035977
#
#
# Mechanical properties :
#
#
# Convention : Reuss Voigt Hill
#
# Bulk Modulus (GPa) = 24.62273 34.36526 29.49399
# Shear Modulus (GPa) = -117.00924 18.64269 -49.18328
#
# Velocity S-wave (km/s) = -8.47608 3.38329 -5.49533
# Velocity P-wave (km/s) = 8.98184 6.03014 4.70696
#
# Compressibility (1/GPa) = 0.04061288
#
# Stress axis : x y z
#
# Youngs Moduli (GPa) = 38.21507 108.92886 55.38879
#
# Poissons Ratio (x) = 0.45739 -0.05855
# Poissons Ratio (y) = 0.16046 0.18017
# Poissons Ratio (z) = -0.04040 0.35433
#
# Static dielectric constant tensor:
#      x y z
#    x 1.610800 0.000000 0.000000 
#    y 0.000000 1.548030 0.000000 
#    z 0.000000 0.000000 1.540140 
# 
# From -- ./inp_files/8036.got.cif
#   From: 2010.05.17/outbox.cif.g08.bks.cpg/sg47_5_cif.got.tgz:8036.got - 2010.06.03 20:15:42.
