data_PCOD9386621
_publ_section_title
;
Structure prediction by ZEFSAII (Michael W. Deem and Ramdas Pophale) SiO2 
 PCOD9386621
Probable space group: P M M M
;
_chemical_formula_sum "Si O2"
_cell_formula_units_Z 33
_cell_length_a 20.487516
_cell_length_b 9.594403
_cell_length_c 7.781395
_cell_angle_alpha 90.000000
_cell_angle_beta 90.000000
_cell_angle_gamma 90.000000
_cell_volume 1529.553682
_symmetry_space_group_name_H-M "P M M M"
_symmetry_group_IT_number 47
_symmetry_cell_setting 'orthorhombic'
loop_
_space_group_symop_operation_xyz
x,y,z
-x,-y,z
x,-y,-z
-x,y,-z
-x,-y,-z
x,y,-z
-x,y,z
x,-y,z
loop_
_atom_site_type_symbol
_atom_site_label
_atom_site_fract_x
_atom_site_fract_y
_atom_site_fract_z
Si Si1 0.000000 0.762664 0.202868
Si Si2 0.622135 0.657280 0.203134
Si Si3 0.500000 0.160863 0.211139
Si Si4 0.257349 0.156743 0.299123
Si Si5 0.000000 0.000000 0.500000
Si Si6 0.856806 0.652463 0.204278
O O1 0.933574 0.676147 0.227333
O O2 0.000000 0.880488 0.346856
O O3 0.000000 0.809793 0.000000
O O4 0.623367 0.500000 0.275122
O O5 0.563886 0.754819 0.270374
O O6 0.690283 0.737099 0.222631
O O7 0.609744 0.644332 0.000000
O O8 0.500000 0.000000 0.266962
O O9 0.500000 0.157959 0.000000
O O10 0.272305 0.148243 0.500000
O O11 0.185838 0.222829 0.279286
O O12 0.260949 0.000000 0.225921
O O13 0.837279 0.500000 0.272333
O O14 0.844141 0.653306 0.000000
#
# Coordination Sequence:
#
# PCOD9386621 Si02
#       6
#     4   8   4   8   1   8
#     4  10  24  43  67  95 130 169 212 264 318 376
#     4  10  20  36  59  87 117 152 196 245 298 358
#     4   9  17  31  56  87 118 151 192 242 296 357
#     4  11  25  40  57  84 121 158 200 249 302 363
#     4  12  26  40  66  98 136 168 212 258 320 386
#     4  10  22  42  66  91 121 159 203 255 311 369
#
# _framework density 21.574919999999999
#
# number of rings (size 3 to 8) (size 9 to 14) (size 15 to 20)
#    0.000    1.818    0.000    3.091    3.394    9.697 
#    0.000    1.212    0.000    3.636    0.000    0.000 
#    0.000    0.000    0.000    0.000    0.000    0.000 
#
# Total GULP energy -184069.247109 kJ/mol
# GULP energy per Si atom -5577.855973 kJ/mol
# Density = 2.152581 g / cm^3
# Si number density = 21.574920 Si / 1000 Ang^3
#
#
#
# Elastic Constant Matrix: (Units=GPa)
#
#
# Indices 1 2 3 4 5 6 
#
# 1 118.0959 60.9074 -6.8359 0.0000 0.0000 0.0000
# 2 60.9074 200.8515 24.1793 0.0000 0.0000 0.0000
# 3 -6.8359 24.1793 46.5084 0.0000 0.0000 0.0000
# 4 0.0000 0.0000 0.0000 48.0933 0.0000 0.0000
# 5 0.0000 0.0000 0.0000 0.0000 596.5889 0.0000
# 6 0.0000 0.0000 0.0000 0.0000 0.0000 -31.4678
#
#
#
# Elastic Compliance Matrix: (Units=1/GPa)
#
#
# Indices 1 2 3 4 5 6 
#
# 1 0.010524 -0.003603 0.003420 0.000000 0.000000 0.000000
# 2 -0.003603 0.006545 -0.003932 0.000000 0.000000 0.000000
# 3 0.003420 -0.003932 0.024048 0.000000 0.000000 0.000000
# 4 0.000000 0.000000 0.000000 0.020793 0.000000 0.000000
# 5 0.000000 0.000000 0.000000 0.000000 0.001676 0.000000
# 6 0.000000 0.000000 0.000000 0.000000 0.000000 -0.031779
#
#
# Mechanical properties :
#
#
# Convention : Reuss Voigt Hill
#
# Bulk Modulus (GPa) = 30.40735 57.99528 44.20131
# Shear Modulus (GPa) = 98.03850 141.78988 119.91419
#
# Velocity S-wave (km/s) = 6.74830 8.11557 7.46331
# Velocity P-wave (km/s) = 8.65124 10.71241 9.73652
#
# Compressibility (1/GPa) = 0.03288678
#
# Stress axis : x y z
#
# Youngs Moduli (GPa) = 95.02164 152.79351 41.58272
#
# Poissons Ratio (x) = 0.55052 -0.14221
# Poissons Ratio (y) = 0.34237 0.16351
# Poissons Ratio (z) = -0.32498 0.60081
#
# Static dielectric constant tensor:
#      x y z
#    x 1.758800 0.000000 0.000000 
#    y 0.000000 1.785540 0.000000 
#    z 0.000000 0.000000 1.798970 
# 
# From -- ./inp_files/10409.got.cif
#   From: 2010.05.17/outbox.cif.g08.bks.cpg/sg47_6_cif.got.tgz:10409.got - 2010.06.03 20:15:42.
