data_PCOD9386029
_publ_section_title
;
Structure prediction by ZEFSAII (Michael W. Deem and Ramdas Pophale) SiO2 
 PCOD9386029
Probable space group: P M M M
;
_chemical_formula_sum "Si O2"
_cell_formula_units_Z 38
_cell_length_a 11.458601
_cell_length_b 16.005062
_cell_length_c 12.630391
_cell_angle_alpha 90.000000
_cell_angle_beta 90.000000
_cell_angle_gamma 90.000000
_cell_volume 2316.358381
_symmetry_space_group_name_H-M "P M M M"
_symmetry_group_IT_number 47
_symmetry_cell_setting 'orthorhombic'
loop_
_space_group_symop_operation_xyz
x,y,z
-x,-y,z
x,-y,-z
-x,y,-z
-x,-y,-z
x,y,-z
-x,y,z
x,-y,z
loop_
_atom_site_type_symbol
_atom_site_label
_atom_site_fract_x
_atom_site_fract_y
_atom_site_fract_z
Si Si1 0.500000 0.900378 0.127223
Si Si2 0.690590 0.208222 0.750046
Si Si3 0.865446 0.327624 0.873307
Si Si4 0.267297 0.500000 0.874082
Si Si5 0.500000 0.317998 0.372463
Si Si6 0.129957 0.096843 0.627015
Si Si7 0.500000 0.500000 0.268585
O O1 0.609861 0.851983 0.178400
O O2 0.500000 0.000000 0.151781
O O3 0.500000 0.891573 0.000000
O O4 0.779900 0.261069 0.820807
O O5 0.609923 0.270688 0.681390
O O6 0.768307 0.151583 0.673988
O O7 0.810266 0.418479 0.851605
O O8 0.000000 0.322183 0.837080
O O9 0.865027 0.316417 0.000000
O O10 0.384984 0.500000 0.805587
O O11 0.296042 0.500000 0.000000
O O12 0.500000 0.310179 0.500000
O O13 0.500000 0.415078 0.337472
O O14 0.132845 0.099960 0.500000
O O15 0.000000 0.124641 0.661190
O O16 0.143397 0.000000 0.658455
#
# Coordination Sequence:
#
# PCOD9386029 Si02
#       7
#     4   8   8   4   4   8   2
#     4  10  22  37  52  74 107 144 177 215 265 317
#     4  11  20  35  55  78 104 137 179 217 262 305
#     4  10  20  34  54  81 110 138 170 211 259 312
#     4  10  20  35  56  82 109 138 172 211 256 314
#     4  11  24  37  54  76 104 139 181 222 262 307
#     4   9  18  33  54  79 105 134 170 214 262 309
#     4  12  20  40  54  80 102 148 174 210 266 310
#
# _framework density 16.405061
#
# number of rings (size 3 to 8) (size 9 to 14) (size 15 to 20)
#    0.000    1.789    2.105    3.789    0.000    1.263 
#    0.000    0.000    0.000    5.053    0.000   10.316 
#    0.000    0.000    0.000    0.000    0.000    0.000 
#
# Total GULP energy -212001.760070 kJ/mol
# GULP energy per Si atom -5578.993686 kJ/mol
# Density = 1.636772 g / cm^3
# Si number density = 16.405061 Si / 1000 Ang^3
#
#
#
# Elastic Constant Matrix: (Units=GPa)
#
#
# Indices 1 2 3 4 5 6 
#
# 1 162.0179 87.2033 62.3083 0.0000 0.0000 0.0000
# 2 87.2033 132.3531 61.3768 0.0000 0.0000 0.0000
# 3 62.3083 61.3768 68.2901 0.0000 0.0000 0.0000
# 4 0.0000 0.0000 0.0000 30.9828 0.0000 0.0000
# 5 0.0000 0.0000 0.0000 0.0000 9.8981 0.0000
# 6 0.0000 0.0000 0.0000 0.0000 0.0000 55.8084
#
#
#
# Elastic Compliance Matrix: (Units=1/GPa)
#
#
# Indices 1 2 3 4 5 6 
#
# 1 0.010804 -0.004368 -0.005933 0.000000 0.000000 0.000000
# 2 -0.004368 0.014721 -0.009245 0.000000 0.000000 0.000000
# 3 -0.005933 -0.009245 0.028366 0.000000 0.000000 0.000000
# 4 0.000000 0.000000 0.000000 0.032276 0.000000 0.000000
# 5 0.000000 0.000000 0.000000 0.000000 0.101030 0.000000
# 6 0.000000 0.000000 0.000000 0.000000 0.000000 0.017918
#
#
# Mechanical properties :
#
#
# Convention : Reuss Voigt Hill
#
# Bulk Modulus (GPa) = 67.56884 87.15976 77.36430
# Shear Modulus (GPa) = 20.06903 29.45601 24.76252
#
# Velocity S-wave (km/s) = 3.50143 4.24198 3.88937
# Velocity P-wave (km/s) = 7.59104 8.78850 8.21163
#
# Compressibility (1/GPa) = 0.01479972
#
# Stress axis : x y z
#
# Youngs Moduli (GPa) = 92.55415 67.93192 35.25355
#
# Poissons Ratio (x) = 0.29670 0.20915
# Poissons Ratio (y) = 0.40423 0.32593
# Poissons Ratio (z) = 0.54909 0.62806
#
# Static dielectric constant tensor:
#      x y z
#    x 1.537730 0.000000 0.000000 
#    y 0.000000 1.539830 0.000000 
#    z 0.000000 0.000000 1.521420 
# 
# From -- ./inp_files/16149.got.cif
#   From: 2010.05.17/outbox.cif.g08.bks.cpg/sg47_9_cif.got.tgz:16149.got - 2010.06.03 20:15:42.
