data_PCOD9386409
_publ_section_title
;
Structure prediction by ZEFSAII (Michael W. Deem and Ramdas Pophale) SiO2 
 PCOD9386409
Probable space group: P M M M
;
_chemical_formula_sum "Si O2"
_cell_formula_units_Z 48
_cell_length_a 7.787457
_cell_length_b 31.903317
_cell_length_c 9.397047
_cell_angle_alpha 90.000000
_cell_angle_beta 90.000000
_cell_angle_gamma 90.000000
_cell_volume 2334.656007
_symmetry_space_group_name_H-M "P M M M"
_symmetry_group_IT_number 47
_symmetry_cell_setting 'orthorhombic'
loop_
_space_group_symop_operation_xyz
x,y,z
-x,-y,z
x,-y,-z
-x,y,-z
-x,-y,-z
x,y,-z
-x,y,z
x,-y,z
loop_
_atom_site_type_symbol
_atom_site_label
_atom_site_fract_x
_atom_site_fract_y
_atom_site_fract_z
Si Si1 0.795160 0.500000 0.838665
Si Si2 0.206507 0.755170 0.837012
Si Si3 0.706310 0.417595 0.660896
Si Si4 0.789454 0.836040 0.336292
Si Si5 0.793942 0.082817 0.161832
Si Si6 0.704851 0.000000 0.661996
Si Si7 0.706517 0.338225 0.162743
O O1 0.742195 0.458569 0.753733
O O2 0.000000 0.500000 0.846582
O O3 0.725551 0.500000 0.000000
O O4 0.267413 0.792981 0.738252
O O5 0.251231 0.708534 0.785814
O O6 0.000000 0.757978 0.842239
O O7 0.270613 0.759476 0.000000
O O8 0.772782 0.421817 0.500000
O O9 0.500000 0.413701 0.652268
O O10 0.772114 0.375833 0.739390
O O11 0.734783 0.838918 0.500000
O O12 0.731185 0.876043 0.245007
O O13 0.000000 0.836207 0.336044
O O14 0.757742 0.041267 0.251795
O O15 0.000000 0.086811 0.152733
O O16 0.727521 0.080017 0.000000
O O17 0.500000 0.000000 0.653816
O O18 0.773825 0.000000 0.500000
O O19 0.500000 0.341532 0.157348
O O20 0.771321 0.342214 0.000000
#
# Coordination Sequence:
#
# PCOD9386409 Si02
#       7
#     4   8   8   8   8   4   8
#     4  11  24  39  56  80 108 137 172 215 262 312
#     4   9  17  30  49  73 101 133 170 213 258 304
#     4  10  21  37  57  80 106 138 176 216 260 311
#     4   9  17  30  50  76 104 134 170 213 260 308
#     4  10  20  35  57  82 105 134 176 220 260 308
#     4  11  24  39  54  76 108 141 172 211 262 316
#     4   9  18  33  52  74 102 137 175 213 255 305
#
# _framework density 20.559774000000001
#
# number of rings (size 3 to 8) (size 9 to 14) (size 15 to 20)
#    0.000    2.333    0.000    2.500    0.000    8.667 
#    0.000    2.500    0.000    3.000    0.000    0.000 
#    0.000    0.000    0.000    0.000    0.000    0.000 
#
# Total GULP energy -268089.745208 kJ/mol
# GULP energy per Si atom -5585.203025 kJ/mol
# Density = 2.051298 g / cm^3
# Si number density = 20.559774 Si / 1000 Ang^3
#
#
#
# Elastic Constant Matrix: (Units=GPa)
#
#
# Indices 1 2 3 4 5 6 
#
# 1 26.2668 0.7269 8.3232 0.0000 0.0000 0.0000
# 2 0.7269 229.5118 146.4466 0.0000 0.0000 0.0000
# 3 8.3232 146.4466 197.6564 0.0000 0.0000 0.0000
# 4 0.0000 0.0000 0.0000 -37.4815 0.0000 0.0000
# 5 0.0000 0.0000 0.0000 0.0000 11.7939 0.0000
# 6 0.0000 0.0000 0.0000 0.0000 0.0000 28.2707
#
#
#
# Elastic Compliance Matrix: (Units=1/GPa)
#
#
# Indices 1 2 3 4 5 6 
#
# 1 0.038953 0.001751 -0.002938 0.000000 0.000000 0.000000
# 2 0.001751 0.008343 -0.006255 0.000000 0.000000 0.000000
# 3 -0.002938 -0.006255 0.009817 0.000000 0.000000 0.000000
# 4 0.000000 0.000000 0.000000 -0.026680 0.000000 0.000000
# 5 0.000000 0.000000 0.000000 0.000000 0.084790 0.000000
# 6 0.000000 0.000000 0.000000 0.000000 0.000000 0.035372
#
#
# Mechanical properties :
#
#
# Convention : Reuss Voigt Hill
#
# Bulk Modulus (GPa) = 23.67972 84.93652 54.30812
# Shear Modulus (GPa) = 27.84657 20.37918 24.11288
#
# Velocity S-wave (km/s) = 3.68424 3.15177 3.42836
# Velocity P-wave (km/s) = 5.44432 7.39233 6.49181
#
# Compressibility (1/GPa) = 0.04223023
#
# Stress axis : x y z
#
# Youngs Moduli (GPa) = 25.67176 119.86544 101.86008
#
# Poissons Ratio (x) = -0.20990 0.29924
# Poissons Ratio (y) = -0.04495 0.63713
# Poissons Ratio (z) = 0.07542 0.74975
#
# Static dielectric constant tensor:
#      x y z
#    x 1.757810 0.000000 0.000000 
#    y 0.000000 1.692540 0.000000 
#    z 0.000000 0.000000 1.726830 
# 
# From -- ./inp_files/2687.got.cif
#   From: 2010.05.17/outbox.cif.g08.bks.cpg/sg47_2_cif.got.tgz:2687.got - 2010.06.03 20:15:42.
