data_PCOD9386835
_publ_section_title
;
Structure prediction by ZEFSAII (Michael W. Deem and Ramdas Pophale) SiO2 
 PCOD9386835
Probable space group: P M M M
;
_chemical_formula_sum "Si O2"
_cell_formula_units_Z 56
_cell_length_a 21.050515
_cell_length_b 15.744518
_cell_length_c 8.244394
_cell_angle_alpha 90.000000
_cell_angle_beta 90.000000
_cell_angle_gamma 90.000000
_cell_volume 2732.441254
_symmetry_space_group_name_H-M "P M M M"
_symmetry_group_IT_number 47
_symmetry_cell_setting 'orthorhombic'
loop_
_space_group_symop_operation_xyz
x,y,z
-x,-y,z
x,-y,-z
-x,y,-z
-x,-y,-z
x,y,-z
-x,y,z
x,-y,z
loop_
_atom_site_type_symbol
_atom_site_label
_atom_site_fract_x
_atom_site_fract_y
_atom_site_fract_z
Si Si1 0.931768 0.173529 0.312401
Si Si2 0.342438 0.597943 0.692200
Si Si3 0.804160 0.101496 0.183877
Si Si4 0.572219 0.247747 0.804908
Si Si5 0.664894 0.098418 0.801252
Si Si6 0.794306 0.398786 0.816264
Si Si7 0.931306 0.358536 0.811091
O O1 0.931137 0.201235 0.500000
O O2 0.867554 0.123992 0.278568
O O3 0.932016 0.256997 0.202343
O O4 0.000000 0.128105 0.285391
O O5 0.350606 0.595754 0.500000
O O6 0.350303 0.500000 0.752949
O O7 0.391330 0.665465 0.763654
O O8 0.270407 0.628031 0.730322
O O9 0.735506 0.128314 0.251378
O O10 0.799478 0.000000 0.175065
O O11 0.810966 0.134927 0.000000
O O12 0.500000 0.247882 0.743192
O O13 0.612477 0.165972 0.747162
O O14 0.569977 0.241245 0.000000
O O15 0.653717 0.000000 0.752033
O O16 0.666630 0.097999 0.000000
O O17 0.790058 0.500000 0.827195
O O18 0.863131 0.382351 0.737765
O O19 0.794250 0.362857 0.000000
O O20 0.000000 0.388093 0.743588
O O21 0.929668 0.386022 0.000000
#
# Coordination Sequence:
#
# PCOD9386835 Si02
#       7
#     8   8   8   8   8   8   8
#     4  10  21  34  47  68 101 138 176 221 268 312
#     4  10  22  39  57  79 111 150 189 229 273 324
#     4   9  18  33  53  75  99 132 175 220 265 315
#     4  10  21  36  58  89 117 143 179 222 271 326
#     4   8  16  33  56  83 114 144 176 218 268 323
#     4   9  18  33  54  79 105 135 174 221 270 317
#     4   9  18  32  50  73 102 137 175 215 263 319
#
# _framework density 20.494492999999999
#
# number of rings (size 3 to 8) (size 9 to 14) (size 15 to 20)
#    0.000    2.714    0.000    1.714    2.000    4.000 
#    0.000    5.714    0.000    1.286    0.000    5.000 
#    0.000    0.000    0.000    0.000    0.000    0.000 
#
# Total GULP energy -311993.690301 kJ/mol
# GULP energy per Si atom -5571.315898 kJ/mol
# Density = 2.044785 g / cm^3
# Si number density = 20.494493 Si / 1000 Ang^3
#
#
#
# Elastic Constant Matrix: (Units=GPa)
#
#
# Indices 1 2 3 4 5 6 
#
# 1 218.9486 75.4139 19.1748 0.0000 0.0000 0.0000
# 2 75.4139 71.3502 7.0154 0.0000 0.0000 0.0000
# 3 19.1748 7.0154 16.5320 0.0000 0.0000 0.0000
# 4 0.0000 0.0000 0.0000 2.9446 0.0000 0.0000
# 5 0.0000 0.0000 0.0000 0.0000 -328.0841 0.0000
# 6 0.0000 0.0000 0.0000 0.0000 0.0000 50.8505
#
#
#
# Elastic Compliance Matrix: (Units=1/GPa)
#
#
# Indices 1 2 3 4 5 6 
#
# 1 0.007662 -0.007539 -0.005688 0.000000 0.000000 0.000000
# 2 -0.007539 0.022044 -0.000610 0.000000 0.000000 0.000000
# 3 -0.005688 -0.000610 0.067345 0.000000 0.000000 0.000000
# 4 0.000000 0.000000 0.000000 0.339605 0.000000 0.000000
# 5 0.000000 0.000000 0.000000 0.000000 -0.003048 0.000000
# 6 0.000000 0.000000 0.000000 0.000000 0.000000 0.019665
#
#
# Mechanical properties :
#
#
# Convention : Reuss Voigt Hill
#
# Bulk Modulus (GPa) = 14.41399 56.67099 35.54249
# Shear Modulus (GPa) = 9.91920 -41.17601 -15.62840
#
# Velocity S-wave (km/s) = 2.20237 -4.48719 -2.76446
# Velocity P-wave (km/s) = 3.67636 0.93024 2.68151
#
# Compressibility (1/GPa) = 0.06937702
#
# Stress axis : x y z
#
# Youngs Moduli (GPa) = 130.51007 45.36353 14.84899
#
# Poissons Ratio (x) = 0.34201 0.08446
# Poissons Ratio (y) = 0.98397 0.00906
# Poissons Ratio (z) = 0.74231 0.02766
#
# Static dielectric constant tensor:
#      x y z
#    x 1.774890 0.000000 0.000000 
#    y 0.000000 1.720100 0.000000 
#    z 0.000000 0.000000 1.736720 
# 
# From -- ./inp_files/7334.got.cif
#   From: 2010.05.17/outbox.cif.g08.bks.cpg/sg47_4_cif.got.tgz:7334.got - 2010.06.03 20:15:42.
