data_PCOD9386658
_publ_section_title
;
Structure prediction by ZEFSAII (Michael W. Deem and Ramdas Pophale) SiO2 
 PCOD9386658
Probable space group: P M M M
;
_chemical_formula_sum "Si O2"
_cell_formula_units_Z 32
_cell_length_a 7.681394
_cell_length_b 23.131758
_cell_length_c 9.399182
_cell_angle_alpha 90.000000
_cell_angle_beta 90.000000
_cell_angle_gamma 90.000000
_cell_volume 1670.085637
_symmetry_space_group_name_H-M "P M M M"
_symmetry_group_IT_number 47
_symmetry_cell_setting 'orthorhombic'
loop_
_space_group_symop_operation_xyz
x,y,z
-x,-y,z
x,-y,-z
-x,y,-z
-x,-y,-z
x,y,-z
-x,y,z
x,-y,z
loop_
_atom_site_type_symbol
_atom_site_label
_atom_site_fract_x
_atom_site_fract_y
_atom_site_fract_z
Si Si1 0.696749 0.865976 0.668904
Si Si2 0.786963 0.500000 0.836808
Si Si3 0.797813 0.261332 0.327499
Si Si4 0.213144 0.612686 0.664741
Si Si5 0.000000 0.931324 0.168711
O O1 0.740776 0.868533 0.500000
O O2 0.500000 0.886858 0.686907
O O3 0.706447 0.798245 0.711752
O O4 0.833078 0.902313 0.758143
O O5 0.730623 0.441963 0.756242
O O6 0.000000 0.500000 0.833783
O O7 0.732197 0.500000 0.000000
O O8 0.793437 0.264720 0.500000
O O9 0.729897 0.324059 0.280260
O O10 0.000000 0.255671 0.284890
O O11 0.265625 0.605397 0.500000
O O12 0.000000 0.614340 0.665530
O O13 0.000000 0.000000 0.192659
O O14 0.000000 0.920605 0.000000
#
# Coordination Sequence:
#
# PCOD9386658 Si02
#       5
#     8   4   8   8   4
#     4  10  20  36  62  92 118 146 185 236 288 335
#     4   9  15  21  29  49  86 123 160 217 273 310
#     4   8  13  25  47  73 102 134 171 219 274 330
#     4   8  13  21  36  56  82 124 170 208 256 323
#     4  11  25  43  61  83 117 160 195 226 269 325
#
# _framework density 19.160693999999999
#
# number of rings (size 3 to 8) (size 9 to 14) (size 15 to 20)
#    0.000    3.000    1.250    2.250    0.000    3.500 
#    0.000    3.750    0.000    0.000    0.000    0.875 
#    0.000    7.000    0.000    0.000    0.000    0.000 
#
# Total GULP energy -178428.893119 kJ/mol
# GULP energy per Si atom -5575.902910 kJ/mol
# Density = 1.911708 g / cm^3
# Si number density = 19.160694 Si / 1000 Ang^3
#
#
#
# Elastic Constant Matrix: (Units=GPa)
#
#
# Indices 1 2 3 4 5 6 
#
# 1 69.3716 63.0074 44.2773 0.0000 0.0000 0.0000
# 2 63.0074 162.3205 87.5572 0.0000 0.0000 0.0000
# 3 44.2773 87.5572 82.0666 0.0000 0.0000 0.0000
# 4 0.0000 0.0000 0.0000 -30.2715 0.0000 0.0000
# 5 0.0000 0.0000 0.0000 0.0000 3.5882 0.0000
# 6 0.0000 0.0000 0.0000 0.0000 0.0000 -16.1853
#
#
#
# Elastic Compliance Matrix: (Units=1/GPa)
#
#
# Indices 1 2 3 4 5 6 
#
# 1 0.023881 -0.005465 -0.007054 0.000000 0.000000 0.000000
# 2 -0.005465 0.015763 -0.013869 0.000000 0.000000 0.000000
# 3 -0.007054 -0.013869 0.030788 0.000000 0.000000 0.000000
# 4 0.000000 0.000000 0.000000 -0.033034 0.000000 0.000000
# 5 0.000000 0.000000 0.000000 0.000000 0.278691 0.000000
# 6 0.000000 0.000000 0.000000 0.000000 0.000000 -0.061784
#
#
# Mechanical properties :
#
#
# Convention : Reuss Voigt Hill
#
# Bulk Modulus (GPa) = 56.63786 78.16026 67.39906
# Shear Modulus (GPa) = 15.97614 -0.64593 7.66511
#
# Velocity S-wave (km/s) = 2.89069 -0.58124 2.00228
# Velocity P-wave (km/s) = 6.38475 6.35846 6.37162
#
# Compressibility (1/GPa) = 0.01765604
#
# Stress axis : x y z
#
# Youngs Moduli (GPa) = 41.87462 63.43908 32.47982
#
# Poissons Ratio (x) = 0.34668 0.22911
# Poissons Ratio (y) = 0.22883 0.45047
# Poissons Ratio (z) = 0.29538 0.87986
#
# Static dielectric constant tensor:
#      x y z
#    x 1.710690 0.000000 0.000000 
#    y 0.000000 1.678910 0.000000 
#    z 0.000000 0.000000 1.628540 
# 
# From -- ./inp_files/1289.got.cif
#   From: 2010.05.17/outbox.cif.g08.bks.cpg/sg47_1_cif.got.tgz:1289.got - 2010.06.03 20:15:42.
