data_PCOD9386204
_publ_section_title
;
Structure prediction by ZEFSAII (Michael W. Deem and Ramdas Pophale) SiO2 
 PCOD9386204
Probable space group: P M M M
;
_chemical_formula_sum "Si O2"
_cell_formula_units_Z 64
_cell_length_a 9.725871
_cell_length_b 24.933990
_cell_length_c 14.569357
_cell_angle_alpha 90.000000
_cell_angle_beta 90.000000
_cell_angle_gamma 90.000000
_cell_volume 3533.138572
_symmetry_space_group_name_H-M "P M M M"
_symmetry_group_IT_number 47
_symmetry_cell_setting 'orthorhombic'
loop_
_space_group_symop_operation_xyz
x,y,z
-x,-y,z
x,-y,-z
-x,y,-z
-x,-y,-z
x,y,-z
-x,y,z
x,-y,z
loop_
_atom_site_type_symbol
_atom_site_label
_atom_site_fract_x
_atom_site_fract_y
_atom_site_fract_z
Si Si1 0.660248 0.062530 0.726004
Si Si2 0.155548 0.907138 0.894150
Si Si3 0.839757 0.562450 0.609630
Si Si4 0.652075 0.768287 0.697928
Si Si5 0.339033 0.356851 0.727389
Si Si6 0.154061 0.667270 0.105366
Si Si7 0.160728 0.144654 0.390157
Si Si8 0.252431 0.212821 0.102412
O O1 0.500000 0.079301 0.728052
O O2 0.731784 0.070312 0.824968
O O3 0.749662 0.098018 0.656598
O O4 0.665668 0.000000 0.701091
O O5 0.168053 0.842288 0.890872
O O6 0.000000 0.922832 0.868070
O O7 0.178777 0.923148 0.000000
O O8 0.823202 0.568231 0.500000
O O9 0.813217 0.500000 0.632402
O O10 0.740329 0.602160 0.662701
O O11 0.000000 0.573793 0.631133
O O12 0.500000 0.781620 0.661475
O O13 0.673407 0.704529 0.691835
O O14 0.770588 0.800916 0.647326
O O15 0.656434 0.783944 0.806106
O O16 0.500000 0.369239 0.733870
O O17 0.266369 0.356044 0.826433
O O18 0.166184 0.732196 0.106992
O O19 0.000000 0.652227 0.134209
O O20 0.175532 0.650916 0.000000
O O21 0.169579 0.142284 0.500000
O O22 0.000000 0.141023 0.363614
O O23 0.318698 0.212474 0.000000
#
# Coordination Sequence:
#
# PCOD9386204 Si02
#       8
#     8   8   8   8   8   8   8   8
#     4  11  25  43  62  84 110 142 180 224 276 335
#     4  10  20  34  56  86 117 148 182 222 268 319
#     4   9  19  37  60  84 110 144 190 241 286 329
#     4  10  21  36  55  83 119 155 186 220 270 331
#     4  10  21  34  52  83 120 155 188 226 276 332
#     4   9  17  30  50  77 111 152 194 232 271 319
#     4  11  25  43  63  85 107 137 180 231 285 336
#     4   9  17  29  51  84 116 145 182 223 266 319
#
# _framework density 18.114205999999999
#
# number of rings (size 3 to 8) (size 9 to 14) (size 15 to 20)
#    0.000    2.125    1.250    1.875    0.000    8.250 
#    0.000    9.375    0.000    0.375    0.000    2.625 
#    0.000    0.000    0.000    0.000    0.000    0.000 
#
# Total GULP energy -357081.607406 kJ/mol
# GULP energy per Si atom -5579.400116 kJ/mol
# Density = 1.807298 g / cm^3
# Si number density = 18.114206 Si / 1000 Ang^3
#
#
#
# Elastic Constant Matrix: (Units=GPa)
#
#
# Indices 1 2 3 4 5 6 
#
# 1 173.2825 72.2181 77.8675 0.0000 0.0000 0.0000
# 2 72.2181 70.8052 41.3023 0.0000 0.0000 0.0000
# 3 77.8675 41.3023 75.8625 0.0000 0.0000 0.0000
# 4 0.0000 0.0000 0.0000 9.5989 0.0000 0.0000
# 5 0.0000 0.0000 0.0000 0.0000 -23.1955 0.0000
# 6 0.0000 0.0000 0.0000 0.0000 0.0000 15.6034
#
#
#
# Elastic Compliance Matrix: (Units=1/GPa)
#
#
# Indices 1 2 3 4 5 6 
#
# 1 0.013343 -0.008236 -0.009211 0.000000 0.000000 0.000000
# 2 -0.008236 0.025779 -0.005582 0.000000 0.000000 0.000000
# 3 -0.009211 -0.005582 0.025676 0.000000 0.000000 0.000000
# 4 0.000000 0.000000 0.000000 0.104178 0.000000 0.000000
# 5 0.000000 0.000000 0.000000 0.000000 -0.043112 0.000000
# 6 0.000000 0.000000 0.000000 0.000000 0.000000 0.064089
#
#
# Mechanical properties :
#
#
# Convention : Reuss Voigt Hill
#
# Bulk Modulus (GPa) = 53.36310 78.08068 65.72189
# Shear Modulus (GPa) = 20.63924 8.97218 14.80571
#
# Velocity S-wave (km/s) = 3.37916 2.22797 2.86204
# Velocity P-wave (km/s) = 6.68940 7.05810 6.87622
#
# Compressibility (1/GPa) = 0.01873954
#
# Stress axis : x y z
#
# Youngs Moduli (GPa) = 74.94836 38.79094 38.94745
#
# Poissons Ratio (x) = 0.31946 0.35876
# Poissons Ratio (y) = 0.61724 0.21740
# Poissons Ratio (z) = 0.69038 0.21653
#
# Static dielectric constant tensor:
#      x y z
#    x 1.614870 0.000000 0.000000 
#    y 0.000000 1.608410 0.000000 
#    z 0.000000 0.000000 1.619250 
# 
# From -- ./inp_files/21899.got.cif
#   From: 2010.05.17/outbox.cif.g08.bks.cpg/sg47_11_cif.got.tgz:21899.got - 2010.06.03 20:15:42.
