data_PCOD9386836
_publ_section_title
;
Structure prediction by ZEFSAII (Michael W. Deem and Ramdas Pophale) SiO2 
 PCOD9386836
Probable space group: P M M M
;
_chemical_formula_sum "Si O2"
_cell_formula_units_Z 48
_cell_length_a 7.586451
_cell_length_b 36.458979
_cell_length_c 8.913672
_cell_angle_alpha 90.000000
_cell_angle_beta 90.000000
_cell_angle_gamma 90.000000
_cell_volume 2465.470490
_symmetry_space_group_name_H-M "P M M M"
_symmetry_group_IT_number 47
_symmetry_cell_setting 'orthorhombic'
loop_
_space_group_symop_operation_xyz
x,y,z
-x,-y,z
x,-y,-z
-x,y,-z
-x,-y,-z
x,y,-z
-x,y,z
x,-y,z
loop_
_atom_site_type_symbol
_atom_site_label
_atom_site_fract_x
_atom_site_fract_y
_atom_site_fract_z
Si Si1 0.291261 0.653900 0.832179
Si Si2 0.500000 0.053618 0.180711
Si Si3 0.788132 0.000000 0.681863
Si Si4 0.204068 0.192093 0.679837
Si Si5 0.793974 0.500000 0.683905
Si Si6 0.500000 0.133798 0.681498
Si Si7 0.788949 0.421425 0.330883
Si Si8 0.210429 0.267106 0.829439
O O1 0.500000 0.653641 0.843066
O O2 0.241470 0.616119 0.754736
O O3 0.245021 0.692979 0.758454
O O4 0.212693 0.654369 0.000000
O O5 0.325249 0.033911 0.249944
O O6 0.500000 0.095578 0.232836
O O7 0.500000 0.049652 0.000000
O O8 0.772886 0.000000 0.500000
O O9 0.000000 0.000000 0.717017
O O10 0.206770 0.195212 0.500000
O O11 0.329976 0.158502 0.720724
O O12 0.271643 0.230678 0.745822
O O13 0.000000 0.186199 0.726251
O O14 0.787152 0.500000 0.500000
O O15 0.719546 0.539563 0.732202
O O16 0.000000 0.500000 0.728336
O O17 0.500000 0.127758 0.500000
O O18 0.720134 0.417309 0.500000
O O19 0.000000 0.425932 0.339625
O O20 0.000000 0.263838 0.836615
O O21 0.281303 0.267657 0.000000
#
# Coordination Sequence:
#
# PCOD9386836 Si02
#       8
#     8   4   4   8   4   4   8   8
#     4  10  21  34  47  68  99 132 163 198 244 303
#     4  11  23  38  59  92 130 164 204 258 309 359
#     4  10  21  40  67  93 122 166 213 257 308 365
#     4   9  19  35  54  77 105 139 183 233 282 334
#     4   7  12  26  48  71  92 114 146 191 240 289
#     4  10  21  37  56  80 115 156 196 239 289 346
#     4   9  17  31  52  74  93 117 153 197 243 293
#     4   9  18  33  52  72  95 126 165 211 261 312
#
# _framework density 19.468900999999999
#
# number of rings (size 3 to 8) (size 9 to 14) (size 15 to 20)
#    0.000    2.667    0.000    3.000    1.167    4.000 
#    0.000    4.167    0.000    4.000    0.000    0.000 
#    0.000    0.000    0.000    0.000    0.000    0.000 
#
# Total GULP energy -267388.195799 kJ/mol
# GULP energy per Si atom -5570.587412 kJ/mol
# Density = 1.942459 g / cm^3
# Si number density = 19.468901 Si / 1000 Ang^3
#
#
#
# Elastic Constant Matrix: (Units=GPa)
#
#
# Indices 1 2 3 4 5 6 
#
# 1 99.8363 60.5422 31.8436 0.0000 0.0000 0.0000
# 2 60.5422 223.9727 63.9360 0.0000 0.0000 0.0000
# 3 31.8436 63.9360 48.6883 0.0000 0.0000 0.0000
# 4 0.0000 0.0000 0.0000 47.3349 0.0000 0.0000
# 5 0.0000 0.0000 0.0000 0.0000 12.9595 0.0000
# 6 0.0000 0.0000 0.0000 0.0000 0.0000 30.5109
#
#
#
# Elastic Compliance Matrix: (Units=1/GPa)
#
#
# Indices 1 2 3 4 5 6 
#
# 1 0.013071 -0.001748 -0.006253 0.000000 0.000000 0.000000
# 2 -0.001748 0.007376 -0.008543 0.000000 0.000000 0.000000
# 3 -0.006253 -0.008543 0.035846 0.000000 0.000000 0.000000
# 4 0.000000 0.000000 0.000000 0.021126 0.000000 0.000000
# 5 0.000000 0.000000 0.000000 0.000000 0.077164 0.000000
# 6 0.000000 0.000000 0.000000 0.000000 0.000000 0.032775
#
#
# Mechanical properties :
#
#
# Convention : Reuss Voigt Hill
#
# Bulk Modulus (GPa) = 43.09311 76.12676 59.60993
# Shear Modulus (GPa) = 21.91243 32.57276 27.24259
#
# Velocity S-wave (km/s) = 3.35850 4.09475 3.74476
# Velocity P-wave (km/s) = 6.10096 7.84491 7.02724
#
# Compressibility (1/GPa) = 0.02320557
#
# Stress axis : x y z
#
# Youngs Moduli (GPa) = 76.50512 135.57573 27.89686
#
# Poissons Ratio (x) = 0.23701 0.17444
# Poissons Ratio (y) = 0.13374 0.23831
# Poissons Ratio (z) = 0.47840 1.15816
#
# Static dielectric constant tensor:
#      x y z
#    x 1.709360 0.000000 0.000000 
#    y 0.000000 1.710430 0.000000 
#    z 0.000000 0.000000 1.814770 
# 
# From -- ./inp_files/2846.got.cif
#   From: 2010.05.17/outbox.cif.g08.bks.cpg/sg47_2_cif.got.tgz:2846.got - 2010.06.03 20:15:42.
