data_PCOD9386527
_publ_section_title
;
Structure prediction by ZEFSAII (Michael W. Deem and Ramdas Pophale) SiO2 
 PCOD9386527
Probable space group: P M M M
;
_chemical_formula_sum "Si O2"
_cell_formula_units_Z 48
_cell_length_a 8.500473
_cell_length_b 7.764313
_cell_length_c 33.359564
_cell_angle_alpha 90.000000
_cell_angle_beta 90.000000
_cell_angle_gamma 90.000000
_cell_volume 2201.742333
_symmetry_space_group_name_H-M "P M M M"
_symmetry_group_IT_number 47
_symmetry_cell_setting 'orthorhombic'
loop_
_space_group_symop_operation_xyz
x,y,z
-x,-y,z
x,-y,-z
-x,y,-z
-x,-y,-z
x,y,-z
-x,y,z
x,-y,z
loop_
_atom_site_type_symbol
_atom_site_label
_atom_site_fract_x
_atom_site_fract_y
_atom_site_fract_z
Si Si1 0.312954 0.201325 0.500000
Si Si2 0.319294 0.703535 0.754404
Si Si3 0.000000 0.291089 0.047136
Si Si4 0.682788 0.792312 0.666955
Si Si5 0.673215 0.299349 0.084753
Si Si6 0.813409 0.797338 0.416914
Si Si7 0.176372 0.798603 0.837283
O O1 0.500000 0.201111 0.500000
O O2 0.254787 0.278634 0.458019
O O3 0.256498 0.000000 0.500000
O O4 0.500000 0.770739 0.754913
O O5 0.324550 0.500000 0.760840
O O6 0.252041 0.735378 0.709963
O O7 0.223966 0.780681 0.791117
O O8 0.835019 0.225944 0.065891
O O9 0.000000 0.500000 0.053093
O O10 0.000000 0.256515 0.000000
O O11 0.500000 0.740097 0.665917
O O12 0.760130 0.726203 0.626031
O O13 0.691580 0.000000 0.666931
O O14 0.500000 0.224834 0.075037
O O15 0.668052 0.500000 0.072643
O O16 0.702503 0.289103 0.132474
O O17 0.000000 0.791024 0.419300
O O18 0.762939 0.000000 0.416410
O O19 0.000000 0.728490 0.843544
O O20 0.176454 0.000000 0.847370
#
# Coordination Sequence:
#
# PCOD9386527 Si02
#       7
#     4   8   4   8   8   8   8
#     4   9  15  23  37  59  88 121 156 193 240 298
#     4  10  21  36  54  77 104 136 176 220 268 323
#     4   9  18  34  57  87 123 157 191 237 285 328
#     4   9  17  30  47  67  95 131 168 207 254 308
#     4  10  20  35  58  86 116 153 194 235 283 335
#     4   9  16  25  39  61  90 122 157 200 247 296
#     4  11  23  37  55  80 110 145 185 229 278 331
#
# _framework density 21.800916000000001
#
# number of rings (size 3 to 8) (size 9 to 14) (size 15 to 20)
#    0.000    2.333    0.833    2.250    0.000    8.333 
#    0.000    3.333    0.000    1.000    0.000    1.750 
#    0.000    4.667    0.000    0.000    0.000    0.000 
#
# Total GULP energy -267840.594742 kJ/mol
# GULP energy per Si atom -5580.012390 kJ/mol
# Density = 2.175130 g / cm^3
# Si number density = 21.800916 Si / 1000 Ang^3
#
#
#
# Elastic Constant Matrix: (Units=GPa)
#
#
# Indices 1 2 3 4 5 6 
#
# 1 99.7704 13.0971 55.9160 0.0000 0.0000 0.0000
# 2 13.0971 33.0194 2.7925 0.0000 0.0000 0.0000
# 3 55.9160 2.7925 125.3186 0.0000 0.0000 0.0000
# 4 0.0000 0.0000 0.0000 12.3363 0.0000 0.0000
# 5 0.0000 0.0000 0.0000 0.0000 35.7272 0.0000
# 6 0.0000 0.0000 0.0000 0.0000 0.0000 3.3143
#
#
#
# Elastic Compliance Matrix: (Units=1/GPa)
#
#
# Indices 1 2 3 4 5 6 
#
# 1 0.014172 -0.005096 -0.006210 0.000000 0.000000 0.000000
# 2 -0.005096 0.032175 0.001557 0.000000 0.000000 0.000000
# 3 -0.006210 0.001557 0.010716 0.000000 0.000000 0.000000
# 4 0.000000 0.000000 0.000000 0.081062 0.000000 0.000000
# 5 0.000000 0.000000 0.000000 0.000000 0.027990 0.000000
# 6 0.000000 0.000000 0.000000 0.000000 0.000000 0.301727
#
#
# Mechanical properties :
#
#
# Convention : Reuss Voigt Hill
#
# Bulk Modulus (GPa) = 26.62090 44.63553 35.62822
# Shear Modulus (GPa) = 10.00277 22.69574 16.34925
#
# Velocity S-wave (km/s) = 2.14434 3.23002 2.74146
# Velocity P-wave (km/s) = 4.28583 5.86765 5.13798
#
# Compressibility (1/GPa) = 0.03756447
#
# Stress axis : x y z
#
# Youngs Moduli (GPa) = 70.55959 31.08006 93.31987
#
# Poissons Ratio (x) = 0.15839 0.57952
# Poissons Ratio (y) = 0.35959 -0.14529
# Poissons Ratio (z) = 0.43818 -0.04839
#
# Static dielectric constant tensor:
#      x y z
#    x 1.789990 0.000000 0.000000 
#    y 0.000000 1.827390 0.000000 
#    z 0.000000 0.000000 1.801810 
# 
# From -- ./inp_files/34123.got.cif
#   From: 2010.05.17/outbox.cif.g08.bks.cpg/sg47_18_cif.got.tgz:34123.got - 2010.06.03 20:15:42.
