data_PCOD9386842
_publ_section_title
;
Structure prediction by ZEFSAII (Michael W. Deem and Ramdas Pophale) SiO2 
 PCOD9386842
Probable space group: P M M M
;
_chemical_formula_sum "Si O2"
_cell_formula_units_Z 44
_cell_length_a 7.246780
_cell_length_b 17.206680
_cell_length_c 13.195272
_cell_angle_alpha 90.000000
_cell_angle_beta 90.000000
_cell_angle_gamma 90.000000
_cell_volume 1645.358375
_symmetry_space_group_name_H-M "P M M M"
_symmetry_group_IT_number 47
_symmetry_cell_setting 'orthorhombic'
loop_
_space_group_symop_operation_xyz
x,y,z
-x,-y,z
x,-y,-z
-x,y,-z
-x,-y,-z
x,y,-z
-x,y,z
x,-y,z
loop_
_atom_site_type_symbol
_atom_site_label
_atom_site_fract_x
_atom_site_fract_y
_atom_site_fract_z
Si Si1 0.223274 0.916112 0.620813
Si Si2 0.211506 0.583753 0.313634
Si Si3 0.723002 0.660061 0.115975
Si Si4 0.779515 0.250984 0.620361
Si Si5 0.722781 0.000000 0.121392
Si Si6 0.278006 0.168252 0.878847
O O1 0.266667 0.916824 0.500000
O O2 0.290878 0.832461 0.661186
O O3 0.000000 0.915708 0.626149
O O4 0.289401 0.000000 0.660863
O O5 0.291710 0.500000 0.341570
O O6 0.211862 0.594640 0.192518
O O7 0.296850 0.665297 0.348249
O O8 0.000000 0.583513 0.350750
O O9 0.500000 0.660263 0.116628
O O10 0.785245 0.745941 0.154653
O O11 0.781148 0.649813 0.000000
O O12 0.753768 0.246887 0.500000
O O13 0.000000 0.251808 0.638700
O O14 0.791854 0.084263 0.159245
O O15 0.500000 0.000000 0.129252
O O16 0.761398 0.000000 0.000000
O O17 0.500000 0.167309 0.870819
O O18 0.238576 0.169061 0.000000
#
# Coordination Sequence:
#
# PCOD9386842 Si02
#       6
#     8   8   8   8   4   8
#     4   7   9  15  32  60  90 118 149 184 222 266
#     4  10  21  34  48  69  96 125 157 196 244 292
#     4   9  18  33  52  71  91 120 160 202 242 284
#     4   8  14  26  45  68  94 124 157 192 229 275
#     4   7   8  12  28  56  85 107 132 173 220 260
#     4   7  10  18  35  60  85 108 139 180 222 263
#
# _framework density 26.741892
#
# number of rings (size 3 to 8) (size 9 to 14) (size 15 to 20)
#    0.000    3.909    0.000    3.818    0.000    1.455 
#    0.000    3.636    2.000    0.545    0.000    1.273 
#    0.000    3.636    0.000    4.545    0.000    3.636 
#
# Total GULP energy -245816.389725 kJ/mol
# GULP energy per Si atom -5586.736130 kJ/mol
# Density = 2.668103 g / cm^3
# Si number density = 26.741892 Si / 1000 Ang^3
#
#
#
# Elastic Constant Matrix: (Units=GPa)
#
#
# Indices 1 2 3 4 5 6 
#
# 1 124.6641 19.6092 7.0046 0.0000 0.0000 0.0000
# 2 19.6092 297.7761 41.9543 0.0000 0.0000 0.0000
# 3 7.0046 41.9543 59.3901 0.0000 0.0000 0.0000
# 4 0.0000 0.0000 0.0000 25.6454 0.0000 0.0000
# 5 0.0000 0.0000 0.0000 0.0000 7.5302 0.0000
# 6 0.0000 0.0000 0.0000 0.0000 0.0000 -1.5477
#
#
#
# Elastic Compliance Matrix: (Units=1/GPa)
#
#
# Indices 1 2 3 4 5 6 
#
# 1 0.008128 -0.000444 -0.000645 0.000000 0.000000 0.000000
# 2 -0.000444 0.003754 -0.002599 0.000000 0.000000 0.000000
# 3 -0.000645 -0.002599 0.018750 0.000000 0.000000 0.000000
# 4 0.000000 0.000000 0.000000 0.038993 0.000000 0.000000
# 5 0.000000 0.000000 0.000000 0.000000 0.132798 0.000000
# 6 0.000000 0.000000 0.000000 0.000000 0.000000 -0.646140
#
#
# Mechanical properties :
#
#
# Convention : Reuss Voigt Hill
#
# Bulk Modulus (GPa) = 43.00195 68.77406 55.88800
# Shear Modulus (GPa) = -11.66620 33.87639 11.10509
#
# Velocity S-wave (km/s) = -2.09093 3.56306 2.04003
# Velocity P-wave (km/s) = 3.20717 6.53458 5.14717
#
# Compressibility (1/GPa) = 0.02325476
#
# Stress axis : x y z
#
# Youngs Moduli (GPa) = 123.03631 266.40299 53.33318
#
# Poissons Ratio (x) = 0.11839 0.03438
# Poissons Ratio (y) = 0.05468 0.13863
# Poissons Ratio (z) = 0.07932 0.69246
#
# Static dielectric constant tensor:
#      x y z
#    x 2.028850 0.000000 0.000000 
#    y 0.000000 2.102270 0.000000 
#    z 0.000000 0.000000 2.133480 
# 
# From -- ./inp_files/22592.got.cif
#   From: 2010.05.17/outbox.cif.g08.bks.cpg/sg47_12_cif.got.tgz:22592.got - 2010.06.03 20:15:42.
