data_PCOD9386929
_publ_section_title
;
Structure prediction by ZEFSAII (Michael W. Deem and Ramdas Pophale) SiO2 
 PCOD9386929
Probable space group: P M M M
;
_chemical_formula_sum "Si O2"
_cell_formula_units_Z 52
_cell_length_a 15.372112
_cell_length_b 23.826031
_cell_length_c 7.568113
_cell_angle_alpha 90.000000
_cell_angle_beta 90.000000
_cell_angle_gamma 90.000000
_cell_volume 2771.869951
_symmetry_space_group_name_H-M "P M M M"
_symmetry_group_IT_number 47
_symmetry_cell_setting 'orthorhombic'
loop_
_space_group_symop_operation_xyz
x,y,z
-x,-y,z
x,-y,-z
-x,y,-z
-x,-y,-z
x,y,-z
-x,y,z
x,-y,z
loop_
_atom_site_type_symbol
_atom_site_label
_atom_site_fract_x
_atom_site_fract_y
_atom_site_fract_z
Si Si1 0.592232 0.931967 0.207869
Si Si2 0.100790 0.500000 0.215269
Si Si3 0.783835 0.607422 0.783646
Si Si4 0.402820 0.434208 0.215115
Si Si5 0.779632 0.936523 0.788080
Si Si6 0.902562 0.833715 0.290121
Si Si7 0.900421 0.709523 0.208673
O O1 0.500000 0.912821 0.285531
O O2 0.685676 0.916479 0.283550
O O3 0.592544 0.000000 0.214204
O O4 0.591170 0.916471 0.000000
O O5 0.155470 0.554819 0.268211
O O6 0.000000 0.500000 0.274339
O O7 0.098514 0.500000 0.000000
O O8 0.683929 0.598248 0.725318
O O9 0.832896 0.663580 0.721961
O O10 0.781197 0.607761 0.000000
O O11 0.500000 0.415659 0.272848
O O12 0.393119 0.500000 0.262927
O O13 0.403177 0.432178 0.000000
O O14 0.849192 0.888966 0.753549
O O15 0.799699 0.000000 0.723968
O O16 0.770657 0.940964 0.000000
O O17 0.907350 0.830394 0.500000
O O18 0.867975 0.773305 0.229461
O O19 0.000000 0.838722 0.216049
O O20 0.000000 0.705862 0.281016
O O21 0.907751 0.698406 0.000000
#
# Coordination Sequence:
#
# PCOD9386929 Si02
#       7
#     8   4   8   8   8   8   8
#     4   7  10  19  38  65  94 118 138 163 200 250
#     4   9  14  18  27  49  82 110 129 160 212 264
#     4   9  14  21  34  55  82 110 138 172 215 258
#     4   8  12  18  29  48  79 117 147 168 202 259
#     4   9  17  29  48  74  98 118 143 179 224 269
#     4  10  21  35  48  62  84 118 157 191 224 266
#     4   9  17  29  45  63  82 108 145 186 224 264
#
# _framework density 18.759896999999999
#
# number of rings (size 3 to 8) (size 9 to 14) (size 15 to 20)
#    0.000    3.308    0.769    2.769    0.000    3.385 
#    0.000    1.538    0.000    1.385    0.000    7.000 
#    0.000    3.077    0.000    1.692    0.000    1.538 
#
# Total GULP energy -289484.978447 kJ/mol
# GULP energy per Si atom -5567.018816 kJ/mol
# Density = 1.871720 g / cm^3
# Si number density = 18.759897 Si / 1000 Ang^3
#
#
#
# Elastic Constant Matrix: (Units=GPa)
#
#
# Indices 1 2 3 4 5 6 
#
# 1 158.2929 98.3673 5.2991 0.0000 0.0000 0.0000
# 2 98.3673 125.3005 0.4971 0.0000 0.0000 0.0000
# 3 5.2991 0.4971 42.2215 0.0000 0.0000 0.0000
# 4 0.0000 0.0000 0.0000 175.0174 0.0000 0.0000
# 5 0.0000 0.0000 0.0000 0.0000 178.3452 0.0000
# 6 0.0000 0.0000 0.0000 0.0000 0.0000 11.3500
#
#
#
# Elastic Compliance Matrix: (Units=1/GPa)
#
#
# Indices 1 2 3 4 5 6 
#
# 1 0.012423 -0.009747 -0.001444 0.000000 0.000000 0.000000
# 2 -0.009747 0.015628 0.001039 0.000000 0.000000 0.000000
# 3 -0.001444 0.001039 0.023854 0.000000 0.000000 0.000000
# 4 0.000000 0.000000 0.000000 0.005714 0.000000 0.000000
# 5 0.000000 0.000000 0.000000 0.000000 0.005607 0.000000
# 6 0.000000 0.000000 0.000000 0.000000 0.000000 0.088106
#
#
# Mechanical properties :
#
#
# Convention : Reuss Voigt Hill
#
# Bulk Modulus (GPa) = 31.64451 59.34909 45.49680
# Shear Modulus (GPa) = 27.44720 87.71929 57.58324
#
# Velocity S-wave (km/s) = 3.82917 6.84547 5.54630
# Velocity P-wave (km/s) = 6.03778 9.70492 8.08209
#
# Compressibility (1/GPa) = 0.03160106
#
# Stress axis : x y z
#
# Youngs Moduli (GPa) = 80.49881 63.98662 41.92234
#
# Poissons Ratio (x) = 0.62365 0.06055
# Poissons Ratio (y) = 0.78459 -0.04357
# Poissons Ratio (z) = 0.11627 -0.06650
#
# Static dielectric constant tensor:
#      x y z
#    x 1.714270 0.000000 0.000000 
#    y 0.000000 1.621760 0.000000 
#    z 0.000000 0.000000 1.707890 
# 
# From -- ./inp_files/7692.got.cif
#   From: 2010.05.17/outbox.cif.g08.bks.cpg/sg47_4_cif.got.tgz:7692.got - 2010.06.03 20:15:42.
