data_PCOD9386634
_publ_section_title
;
Structure prediction by ZEFSAII (Michael W. Deem and Ramdas Pophale) SiO2 
 PCOD9386634
Probable space group: P M M M
;
_chemical_formula_sum "Si O2"
_cell_formula_units_Z 64
_cell_length_a 9.025852
_cell_length_b 15.722273
_cell_length_c 24.260362
_cell_angle_alpha 90.000000
_cell_angle_beta 90.000000
_cell_angle_gamma 90.000000
_cell_volume 3442.712988
_symmetry_space_group_name_H-M "P M M M"
_symmetry_group_IT_number 47
_symmetry_cell_setting 'orthorhombic'
loop_
_space_group_symop_operation_xyz
x,y,z
-x,-y,z
x,-y,-z
-x,y,-z
-x,-y,-z
x,y,-z
-x,y,z
x,-y,z
loop_
_atom_site_type_symbol
_atom_site_label
_atom_site_fract_x
_atom_site_fract_y
_atom_site_fract_z
Si Si1 0.677686 0.403785 0.641972
Si Si2 0.825110 0.750611 0.065554
Si Si3 0.676801 0.403449 0.129704
Si Si4 0.178378 0.096981 0.367597
Si Si5 0.676481 0.903490 0.868450
Si Si6 0.825952 0.851562 0.756448
Si Si7 0.173989 0.353136 0.243471
Si Si8 0.321227 0.248012 0.436284
O O1 0.500000 0.396833 0.650366
O O2 0.709168 0.500000 0.623202
O O3 0.757770 0.386598 0.699759
O O4 0.722140 0.332038 0.598074
O O5 0.749889 0.667124 0.091049
O O6 0.755149 0.833064 0.094301
O O7 0.000000 0.748206 0.078009
O O8 0.804383 0.753669 0.000000
O O9 0.500000 0.391870 0.130787
O O10 0.709155 0.500000 0.111623
O O11 0.740989 0.389998 0.190942
O O12 0.218569 0.115495 0.303857
O O13 0.253467 0.166101 0.406468
O O14 0.000000 0.105697 0.371211
O O15 0.217886 0.000000 0.381767
O O16 0.500000 0.891772 0.870925
O O17 0.732020 0.889918 0.806013
O O18 0.711830 0.000000 0.885766
O O19 0.811398 0.749369 0.757475
O O20 0.000000 0.872519 0.764708
O O21 0.000000 0.373967 0.240105
O O22 0.275398 0.253203 0.500000
O O23 0.500000 0.242452 0.434644
#
# Coordination Sequence:
#
# PCOD9386634 Si02
#       8
#     8   8   8   8   8   8   8   8
#     4  10  21  37  58  84 115 152 193 238 290 348
#     4  11  25  44  65  89 118 157 204 250 295 344
#     4  11  24  41  63  91 123 159 197 240 294 354
#     4  10  21  38  60  85 114 150 190 233 285 345
#     4  11  24  40  62  93 125 158 196 241 295 352
#     4  10  20  36  60  88 119 155 193 237 291 350
#     4  11  21  35  60  91 121 154 192 237 291 349
#     4  10  22  39  58  81 111 149 193 242 292 341
#
# _framework density 18.58999
#
# number of rings (size 3 to 8) (size 9 to 14) (size 15 to 20)
#    0.000    1.500    2.500    2.250    0.000    7.750 
#    0.000    5.000    0.000    0.000    0.000    1.750 
#    0.000    0.000    0.000    0.000    0.000    0.000 
#
# Total GULP energy -357766.358618 kJ/mol
# GULP energy per Si atom -5590.099353 kJ/mol
# Density = 1.854768 g / cm^3
# Si number density = 18.589990 Si / 1000 Ang^3
#
#
#
# Elastic Constant Matrix: (Units=GPa)
#
#
# Indices 1 2 3 4 5 6 
#
# 1 63.8752 77.7085 64.5956 0.0000 0.0000 0.0000
# 2 77.7085 168.8159 85.8593 0.0000 0.0000 0.0000
# 3 64.5956 85.8593 110.7688 0.0000 0.0000 0.0000
# 4 0.0000 0.0000 0.0000 -4.9905 0.0000 0.0000
# 5 0.0000 0.0000 0.0000 0.0000 59.8138 0.0000
# 6 0.0000 0.0000 0.0000 0.0000 0.0000 -23.0445
#
#
#
# Elastic Compliance Matrix: (Units=1/GPa)
#
#
# Indices 1 2 3 4 5 6 
#
# 1 0.053374 -0.014425 -0.019944 0.000000 0.000000 0.000000
# 2 -0.014425 0.013677 -0.002189 0.000000 0.000000 0.000000
# 3 -0.019944 -0.002189 0.022355 0.000000 0.000000 0.000000
# 4 0.000000 0.000000 0.000000 -0.200382 0.000000 0.000000
# 5 0.000000 0.000000 0.000000 0.000000 0.016719 0.000000
# 6 0.000000 0.000000 0.000000 0.000000 0.000000 -0.043394
#
#
# Mechanical properties :
#
#
# Convention : Reuss Voigt Hill
#
# Bulk Modulus (GPa) = 61.39052 88.86519 75.12785
# Shear Modulus (GPa) = -84.59605 14.04219 -35.27693
#
# Velocity S-wave (km/s) = -6.75315 2.75137 -4.36091
# Velocity P-wave (km/s) = 5.26418 7.61576 3.89155
#
# Compressibility (1/GPa) = 0.01628916
#
# Stress axis : x y z
#
# Youngs Moduli (GPa) = 18.73583 73.11384 44.73231
#
# Poissons Ratio (x) = 1.05469 0.89213
# Poissons Ratio (y) = 0.27027 0.09793
# Poissons Ratio (z) = 0.37366 0.16007
#
# Static dielectric constant tensor:
#      x y z
#    x 1.623150 0.000000 0.000000 
#    y 0.000000 1.640110 0.000000 
#    z 0.000000 0.000000 1.605210 
# 
# From -- ./inp_files/7817.got.cif
#   From: 2010.05.17/outbox.cif.g08.bks.cpg/sg47_4_cif.got.tgz:7817.got - 2010.06.03 20:15:42.
