data_PCOD9386239
_publ_section_title
;
Structure prediction by ZEFSAII (Michael W. Deem and Ramdas Pophale) SiO2 
 PCOD9386239
Probable space group: P M M M
;
_chemical_formula_sum "Si O2"
_cell_formula_units_Z 32
_cell_length_a 8.108684
_cell_length_b 7.590394
_cell_length_c 24.215621
_cell_angle_alpha 90.000000
_cell_angle_beta 90.000000
_cell_angle_gamma 90.000000
_cell_volume 1490.425617
_symmetry_space_group_name_H-M "P M M M"
_symmetry_group_IT_number 47
_symmetry_cell_setting 'orthorhombic'
loop_
_space_group_symop_operation_xyz
x,y,z
-x,-y,z
x,-y,-z
-x,y,-z
-x,-y,-z
x,y,-z
-x,y,z
x,-y,z
loop_
_atom_site_type_symbol
_atom_site_label
_atom_site_fract_x
_atom_site_fract_y
_atom_site_fract_z
Si Si1 0.320352 0.284029 0.321611
Si Si2 0.806830 0.285806 0.560632
Si Si3 0.685262 0.712835 0.063659
Si Si4 0.000000 0.199609 0.862149
Si Si5 0.000000 0.701060 0.260328
O O1 0.500000 0.225409 0.302356
O O2 0.322226 0.500000 0.320484
O O3 0.289238 0.229448 0.384999
O O4 0.168027 0.220912 0.284668
O O5 0.748875 0.226419 0.500000
O O6 0.800821 0.500000 0.560227
O O7 0.000000 0.237910 0.566431
O O8 0.500000 0.769934 0.080765
O O9 0.684743 0.500000 0.063655
O O10 0.836678 0.768852 0.101558
O O11 0.710694 0.769807 0.000000
O O12 0.000000 0.305130 0.805436
O O13 0.000000 0.000000 0.843295
O O14 0.000000 0.500000 0.281659
#
# Coordination Sequence:
#
# PCOD9386239 Si02
#       5
#     8   8   8   4   4
#     4   9  16  26  42  63  87 121 166 212 259 312
#     4   8  12  19  33  55  87 123 152 188 250 323
#     4   9  19  38  64  91 117 146 181 220 263 316
#     4  12  25  37  54  82 115 151 187 226 273 324
#     4  10  20  35  50  66  94 133 179 228 263 300
#
# _framework density 21.470376999999999
#
# number of rings (size 3 to 8) (size 9 to 14) (size 15 to 20)
#    0.000    2.750    1.250    3.000    0.000    4.000 
#    0.000    6.250    0.000    0.000    0.000    0.000 
#    0.000    2.000    0.000    2.250    0.000    2.500 
#
# Total GULP energy -178552.905951 kJ/mol
# GULP energy per Si atom -5579.778311 kJ/mol
# Density = 2.142151 g / cm^3
# Si number density = 21.470377 Si / 1000 Ang^3
#
#
#
# Elastic Constant Matrix: (Units=GPa)
#
#
# Indices 1 2 3 4 5 6 
#
# 1 196.6304 4.9668 95.9028 0.0000 0.0000 0.0000
# 2 4.9668 47.8079 -6.6506 0.0000 0.0000 0.0000
# 3 95.9028 -6.6506 102.6787 0.0000 0.0000 0.0000
# 4 0.0000 0.0000 0.0000 -58.1001 0.0000 0.0000
# 5 0.0000 0.0000 0.0000 0.0000 -2.0418 0.0000
# 6 0.0000 0.0000 0.0000 0.0000 0.0000 51.4078
#
#
#
# Elastic Compliance Matrix: (Units=1/GPa)
#
#
# Indices 1 2 3 4 5 6 
#
# 1 0.009577 -0.002260 -0.009091 0.000000 0.000000 0.000000
# 2 -0.002260 0.021640 0.003512 0.000000 0.000000 0.000000
# 3 -0.009091 0.003512 0.018458 0.000000 0.000000 0.000000
# 4 0.000000 0.000000 0.000000 -0.017212 0.000000 0.000000
# 5 0.000000 0.000000 0.000000 0.000000 -0.489766 0.000000
# 6 0.000000 0.000000 0.000000 0.000000 0.000000 0.019452
#
#
# Mechanical properties :
#
#
# Convention : Reuss Voigt Hill
#
# Bulk Modulus (GPa) = 29.41366 59.50611 44.45988
# Shear Modulus (GPa) = -12.17017 15.11306 1.47145
#
# Velocity S-wave (km/s) = -2.38341 2.65600 0.82875
# Velocity P-wave (km/s) = 2.48096 6.09765 4.65492
#
# Compressibility (1/GPa) = 0.03399781
#
# Stress axis : x y z
#
# Youngs Moduli (GPa) = 104.41880 46.20990 54.17744
#
# Poissons Ratio (x) = 0.10442 0.49254
# Poissons Ratio (y) = 0.23595 -0.19028
# Poissons Ratio (z) = 0.94929 -0.16230
#
# Static dielectric constant tensor:
#      x y z
#    x 1.772750 0.000000 0.000000 
#    y 0.000000 1.832090 0.000000 
#    z 0.000000 0.000000 1.742430 
# 
# From -- ./inp_files/31627.got.cif
#   From: 2010.05.17/outbox.cif.g08.bks.cpg/sg47_16_cif.got.tgz:31627.got - 2010.06.03 20:15:42.
