data_PCOD9386963
_publ_section_title
;
Structure prediction by ZEFSAII (Michael W. Deem and Ramdas Pophale) SiO2 
 PCOD9386963
Probable space group: P M M M
;
_chemical_formula_sum "Si O2"
_cell_formula_units_Z 48
_cell_length_a 34.394393
_cell_length_b 7.711325
_cell_length_c 9.464862
_cell_angle_alpha 90.000000
_cell_angle_beta 90.000000
_cell_angle_gamma 90.000000
_cell_volume 2510.330731
_symmetry_space_group_name_H-M "P M M M"
_symmetry_group_IT_number 47
_symmetry_cell_setting 'orthorhombic'
loop_
_space_group_symop_operation_xyz
x,y,z
-x,-y,z
x,-y,-z
-x,y,-z
-x,-y,-z
x,y,-z
-x,y,z
x,-y,z
loop_
_atom_site_type_symbol
_atom_site_label
_atom_site_fract_x
_atom_site_fract_y
_atom_site_fract_z
Si Si1 0.340687 0.799333 0.327746
Si Si2 0.044219 0.000000 0.671531
Si Si3 0.500000 0.293884 0.841881
Si Si4 0.104285 0.704780 0.669077
Si Si5 0.743645 0.209021 0.338846
Si Si6 0.575332 0.208489 0.660574
Si Si7 0.819403 0.708049 0.840100
O O1 0.340903 0.800238 0.500000
O O2 0.298683 0.723238 0.288602
O O3 0.382604 0.723053 0.287052
O O4 0.340509 0.000000 0.279493
O O5 0.068705 0.171052 0.711026
O O6 0.042570 0.000000 0.500000
O O7 0.000000 0.000000 0.724201
O O8 0.500000 0.500000 0.851374
O O9 0.538745 0.244409 0.757757
O O10 0.500000 0.219674 0.000000
O O11 0.110344 0.721884 0.500000
O O12 0.097075 0.500000 0.697548
O O13 0.143163 0.763811 0.749820
O O14 0.750800 0.270409 0.500000
O O15 0.779469 0.250312 0.239147
O O16 0.740246 0.000000 0.345595
O O17 0.568391 0.271562 0.500000
O O18 0.579402 0.000000 0.652303
O O19 0.821976 0.500000 0.846670
O O20 0.819962 0.776354 0.000000
#
# Coordination Sequence:
#
# PCOD9386963 Si02
#       7
#     8   4   4   8   8   8   8
#     4   7  12  26  48  74 100 122 150 195 247 295
#     4   9  18  32  53  83 111 133 169 221 271 322
#     4  11  24  37  46  64  98 133 162 195 240 294
#     4   9  18  33  53  76 104 139 177 218 265 315
#     4   9  17  30  51  77 102 129 162 202 249 300
#     4   9  17  32  56  79  95 117 156 203 247 294
#     4  10  21  35  49  69 101 139 176 214 254 296
#
# _framework density 19.120985000000001
#
# number of rings (size 3 to 8) (size 9 to 14) (size 15 to 20)
#    0.000    3.000    0.000    3.000    1.167    3.667 
#    0.000    3.333    0.000    9.000    0.000    2.333 
#    0.000    0.000    0.000    0.000    0.000    0.000 
#
# Total GULP energy -267443.598173 kJ/mol
# GULP energy per Si atom -5571.741629 kJ/mol
# Density = 1.907746 g / cm^3
# Si number density = 19.120985 Si / 1000 Ang^3
#
#
#
# Elastic Constant Matrix: (Units=GPa)
#
#
# Indices 1 2 3 4 5 6 
#
# 1 233.2743 41.6172 85.3156 0.0000 0.0000 0.0000
# 2 41.6172 48.0222 22.8452 0.0000 0.0000 0.0000
# 3 85.3156 22.8452 73.5919 0.0000 0.0000 0.0000
# 4 0.0000 0.0000 0.0000 14.5495 0.0000 0.0000
# 5 0.0000 0.0000 0.0000 0.0000 -6.4754 0.0000
# 6 0.0000 0.0000 0.0000 0.0000 0.0000 148.7385
#
#
#
# Elastic Compliance Matrix: (Units=1/GPa)
#
#
# Indices 1 2 3 4 5 6 
#
# 1 0.007766 -0.002871 -0.008111 0.000000 0.000000 0.000000
# 2 -0.002871 0.025493 -0.004585 0.000000 0.000000 0.000000
# 3 -0.008111 -0.004585 0.024416 0.000000 0.000000 0.000000
# 4 0.000000 0.000000 0.000000 0.068731 0.000000 0.000000
# 5 0.000000 0.000000 0.000000 0.000000 -0.154431 0.000000
# 6 0.000000 0.000000 0.000000 0.000000 0.000000 0.006723
#
#
# Mechanical properties :
#
#
# Convention : Reuss Voigt Hill
#
# Bulk Modulus (GPa) = 37.68112 72.71604 55.19858
# Shear Modulus (GPa) = 267.67581 45.03657 156.35619
#
# Velocity S-wave (km/s) = 11.84460 4.85846 9.05260
# Velocity P-wave (km/s) = 14.38085 8.34175 11.75571
#
# Compressibility (1/GPa) = 0.02653849
#
# Stress axis : x y z
#
# Youngs Moduli (GPa) = 128.77264 39.22615 40.95743
#
# Poissons Ratio (x) = 0.11262 0.33223
# Poissons Ratio (y) = 0.36972 0.18781
# Poissons Ratio (z) = 1.04454 0.17987
#
# Static dielectric constant tensor:
#      x y z
#    x 1.688260 0.000000 0.000000 
#    y 0.000000 1.727100 0.000000 
#    z 0.000000 0.000000 1.646920 
# 
# From -- ./inp_files/13963.got.cif
#   From: 2010.05.17/outbox.cif.g08.bks.cpg/sg47_7_cif.got.tgz:13963.got - 2010.06.03 20:15:42.
