data_PCOD9386832
_publ_section_title
;
Structure prediction by ZEFSAII (Michael W. Deem and Ramdas Pophale) SiO2 
 PCOD9386832
Probable space group: P M M M
;
_chemical_formula_sum "Si O2"
_cell_formula_units_Z 44
_cell_length_a 31.246741
_cell_length_b 7.835086
_cell_length_c 10.008814
_cell_angle_alpha 90.000000
_cell_angle_beta 90.000000
_cell_angle_gamma 90.000000
_cell_volume 2450.366881
_symmetry_space_group_name_H-M "P M M M"
_symmetry_group_IT_number 47
_symmetry_cell_setting 'orthorhombic'
loop_
_space_group_symop_operation_xyz
x,y,z
-x,-y,z
x,-y,-z
-x,y,-z
-x,-y,-z
x,y,-z
-x,y,z
x,-y,z
loop_
_atom_site_type_symbol
_atom_site_label
_atom_site_fract_x
_atom_site_fract_y
_atom_site_fract_z
Si Si1 0.217640 0.703205 0.348346
Si Si2 0.951777 0.791421 0.153673
Si Si3 0.610942 0.803614 0.837334
Si Si4 0.706058 0.795227 0.848714
Si Si5 0.450774 0.500000 0.836921
Si Si6 0.877468 0.795470 0.348180
O O1 0.223603 0.771601 0.500000
O O2 0.216884 0.500000 0.355775
O O3 0.255779 0.752841 0.250522
O O4 0.170731 0.760407 0.300258
O O5 0.914578 0.729757 0.251412
O O6 0.000000 0.740051 0.193283
O O7 0.951165 0.000000 0.154858
O O8 0.944637 0.739451 0.000000
O O9 0.658766 0.741122 0.800634
O O10 0.575148 0.669009 0.794573
O O11 0.604097 0.000000 0.793043
O O12 0.610992 0.807255 0.000000
O O13 0.703245 0.000000 0.857300
O O14 0.713530 0.729767 0.000000
O O15 0.500000 0.500000 0.793385
O O16 0.450741 0.500000 0.000000
O O17 0.881038 0.728273 0.500000
O O18 0.882332 0.000000 0.354358
#
# Coordination Sequence:
#
# PCOD9386832 Si02
#       6
#     8   8   8   8   4   8
#     4  10  21  34  47  67  96 127 158 195 239 287
#     4   8  14  25  42  65  90 113 141 183 232 276
#     4   8  15  27  41  61  91 123 158 203 247 290
#     4   9  18  32  50  71  93 122 161 200 241 289
#     4   9  16  24  38  62  91 129 169 199 240 295
#     4   9  17  29  45  64  87 116 148 185 230 277
#
# _framework density 17.956496999999999
#
# number of rings (size 3 to 8) (size 9 to 14) (size 15 to 20)
#    0.000    3.182    0.000    2.182    1.273    2.909 
#    0.000    5.455    0.000    0.545    0.000    3.818 
#    0.000    1.455    0.000    4.000    0.000    4.000 
#
# Total GULP energy -245108.540906 kJ/mol
# GULP energy per Si atom -5570.648657 kJ/mol
# Density = 1.791563 g / cm^3
# Si number density = 17.956497 Si / 1000 Ang^3
#
#
#
# Elastic Constant Matrix: (Units=GPa)
#
#
# Indices 1 2 3 4 5 6 
#
# 1 203.8290 43.2163 79.4044 0.0000 0.0000 0.0000
# 2 43.2163 42.6857 18.0287 0.0000 0.0000 0.0000
# 3 79.4044 18.0287 46.8352 0.0000 0.0000 0.0000
# 4 0.0000 0.0000 0.0000 9.5622 0.0000 0.0000
# 5 0.0000 0.0000 0.0000 0.0000 2.4721 0.0000
# 6 0.0000 0.0000 0.0000 0.0000 0.0000 73.8768
#
#
#
# Elastic Compliance Matrix: (Units=1/GPa)
#
#
# Indices 1 2 3 4 5 6 
#
# 1 0.015449 -0.005467 -0.024087 0.000000 0.000000 0.000000
# 2 -0.005467 0.029910 -0.002244 0.000000 0.000000 0.000000
# 3 -0.024087 -0.002244 0.063053 0.000000 0.000000 0.000000
# 4 0.000000 0.000000 0.000000 0.104578 0.000000 0.000000
# 5 0.000000 0.000000 0.000000 0.000000 0.404517 0.000000
# 6 0.000000 0.000000 0.000000 0.000000 0.000000 0.013536
#
#
# Mechanical properties :
#
#
# Convention : Reuss Voigt Hill
#
# Bulk Modulus (GPa) = 22.31428 63.84985 43.08206
# Shear Modulus (GPa) = 7.04642 27.36224 17.20433
#
# Velocity S-wave (km/s) = 1.98310 3.90783 3.09870
# Velocity P-wave (km/s) = 4.20683 7.48310 6.07018
#
# Compressibility (1/GPa) = 0.04481435
#
# Stress axis : x y z
#
# Youngs Moduli (GPa) = 64.72951 33.43332 15.85959
#
# Poissons Ratio (x) = 0.18279 0.38202
# Poissons Ratio (y) = 0.35390 0.03559
# Poissons Ratio (z) = 1.55917 0.07503
#
# Static dielectric constant tensor:
#      x y z
#    x 1.615670 0.000000 0.000000 
#    y 0.000000 1.646760 0.000000 
#    z 0.000000 0.000000 1.560280 
# 
# From -- ./inp_files/13664.got.cif
#   From: 2010.05.17/outbox.cif.g08.bks.cpg/sg47_7_cif.got.tgz:13664.got - 2010.06.03 20:15:42.
