data_PCOD9386418
_publ_section_title
;
Structure prediction by ZEFSAII (Michael W. Deem and Ramdas Pophale) SiO2 
 PCOD9386418
Probable space group: P M M M
;
_chemical_formula_sum "Si O2"
_cell_formula_units_Z 44
_cell_length_a 8.768954
_cell_length_b 29.463863
_cell_length_c 9.520642
_cell_angle_alpha 90.000000
_cell_angle_beta 90.000000
_cell_angle_gamma 90.000000
_cell_volume 2459.822180
_symmetry_space_group_name_H-M "P M M M"
_symmetry_group_IT_number 47
_symmetry_cell_setting 'orthorhombic'
loop_
_space_group_symop_operation_xyz
x,y,z
-x,-y,z
x,-y,-z
-x,y,-z
-x,-y,-z
x,y,-z
-x,y,z
x,-y,z
loop_
_atom_site_type_symbol
_atom_site_label
_atom_site_fract_x
_atom_site_fract_y
_atom_site_fract_z
Si Si1 0.685806 0.050882 0.162674
Si Si2 0.313572 0.137670 0.661494
Si Si3 0.317867 0.416507 0.164743
Si Si4 0.182726 0.500000 0.336917
Si Si5 0.316221 0.774140 0.164251
Si Si6 0.824312 0.321088 0.829388
O O1 0.500000 0.051049 0.165665
O O2 0.737940 0.091906 0.260300
O O3 0.734237 0.000000 0.205004
O O4 0.729494 0.058262 0.000000
O O5 0.265264 0.138816 0.500000
O O6 0.500000 0.137308 0.663565
O O7 0.266138 0.182584 0.745775
O O8 0.500000 0.419389 0.172053
O O9 0.244641 0.455773 0.257279
O O10 0.263939 0.366605 0.212362
O O11 0.273445 0.422211 0.000000
O O12 0.230468 0.500000 0.500000
O O13 0.000000 0.500000 0.331292
O O14 0.500000 0.771233 0.170211
O O15 0.248535 0.726469 0.216257
O O16 0.274493 0.780571 0.000000
O O17 0.000000 0.324083 0.786328
O O18 0.818380 0.320165 0.000000
#
# Coordination Sequence:
#
# PCOD9386418 Si02
#       6
#     8   8   8   4   8   8
#     4   8  13  21  33  50  75 109 147 185 227 276
#     4   9  16  24  35  54  81 113 149 188 229 274
#     4  10  20  35  57  83 107 133 169 210 251 297
#     4  11  24  39  54  76 108 143 176 209 248 294
#     4   9  16  27  44  64  87 117 152 189 230 278
#     4   9  17  30  50  75  99 123 156 200 245 286
#
# _framework density 17.887471999999999
#
# number of rings (size 3 to 8) (size 9 to 14) (size 15 to 20)
#    0.000    2.818    0.000    2.727    0.000    7.636 
#    0.000    2.727    0.000    3.818    0.000    0.000 
#    0.000    0.727    0.000    8.364    0.000   10.727 
#
# Total GULP energy -245302.455395 kJ/mol
# GULP energy per Si atom -5575.055804 kJ/mol
# Density = 1.784676 g / cm^3
# Si number density = 17.887472 Si / 1000 Ang^3
#
#
#
# Elastic Constant Matrix: (Units=GPa)
#
#
# Indices 1 2 3 4 5 6 
#
# 1 21.9307 39.3568 29.4241 0.0000 0.0000 0.0000
# 2 39.3568 208.5147 103.3690 0.0000 0.0000 0.0000
# 3 29.4241 103.3690 93.9570 0.0000 0.0000 0.0000
# 4 0.0000 0.0000 0.0000 -4.2403 0.0000 0.0000
# 5 0.0000 0.0000 0.0000 0.0000 10.9641 0.0000
# 6 0.0000 0.0000 0.0000 0.0000 0.0000 -16.8952
#
#
#
# Elastic Compliance Matrix: (Units=1/GPa)
#
#
# Indices 1 2 3 4 5 6 
#
# 1 0.081958 -0.006040 -0.019022 0.000000 0.000000 0.000000
# 2 -0.006040 0.010995 -0.010205 0.000000 0.000000 0.000000
# 3 -0.019022 -0.010205 0.027827 0.000000 0.000000 0.000000
# 4 0.000000 0.000000 0.000000 -0.235833 0.000000 0.000000
# 5 0.000000 0.000000 0.000000 0.000000 0.091206 0.000000
# 6 0.000000 0.000000 0.000000 0.000000 0.000000 -0.059188
#
#
# Mechanical properties :
#
#
# Convention : Reuss Voigt Hill
#
# Bulk Modulus (GPa) = 19.90147 74.30025 47.10086
# Shear Modulus (GPa) = 1177.71725 8.11590 592.91658
#
# Velocity S-wave (km/s) = 25.68721 2.13238 18.22608
# Velocity P-wave (km/s) = 29.84840 6.90583 21.66354
#
# Compressibility (1/GPa) = 0.05024753
#
# Stress axis : x y z
#
# Youngs Moduli (GPa) = 12.20139 90.95379 35.93643
#
# Poissons Ratio (x) = 0.54932 0.68357
# Poissons Ratio (y) = 0.07369 0.36672
# Poissons Ratio (z) = 0.23209 0.92814
#
# Static dielectric constant tensor:
#      x y z
#    x 1.599600 0.000000 0.000000 
#    y 0.000000 1.602040 0.000000 
#    z 0.000000 0.000000 1.595230 
# 
# From -- ./inp_files/2022.got.cif
#   From: 2010.05.17/outbox.cif.g08.bks.cpg/sg47_2_cif.got.tgz:2022.got - 2010.06.03 20:15:42.
