data_PCOD9386007
_publ_section_title
;
Structure prediction by ZEFSAII (Michael W. Deem and Ramdas Pophale) SiO2 
 PCOD9386007
Probable space group: P M M M
;
_chemical_formula_sum "Si O2"
_cell_formula_units_Z 48
_cell_length_a 9.401245
_cell_length_b 31.869181
_cell_length_c 7.763987
_cell_angle_alpha 90.000000
_cell_angle_beta 90.000000
_cell_angle_gamma 90.000000
_cell_volume 2326.167978
_symmetry_space_group_name_H-M "P M M M"
_symmetry_group_IT_number 47
_symmetry_cell_setting 'orthorhombic'
loop_
_space_group_symop_operation_xyz
x,y,z
-x,-y,z
x,-y,-z
-x,y,-z
-x,-y,-z
x,y,-z
-x,y,z
x,-y,z
loop_
_atom_site_type_symbol
_atom_site_label
_atom_site_fract_x
_atom_site_fract_y
_atom_site_fract_z
Si Si1 0.839417 0.255366 0.705158
Si Si2 0.335487 0.500000 0.789073
Si Si3 0.662371 0.174087 0.795168
Si Si4 0.837229 0.581974 0.207480
Si Si5 0.338081 0.334754 0.707429
Si Si6 0.662311 0.919293 0.292819
Si Si7 0.162934 0.000000 0.288717
O O1 0.849691 0.261876 0.500000
O O2 0.762532 0.211084 0.731644
O O3 0.742492 0.293308 0.774050
O O4 0.000000 0.255872 0.775600
O O5 0.500000 0.500000 0.733844
O O6 0.251240 0.541486 0.732001
O O7 0.336230 0.500000 0.000000
O O8 0.500000 0.178284 0.725965
O O9 0.714558 0.127310 0.751169
O O10 0.655348 0.177428 0.000000
O O11 0.753511 0.624225 0.251700
O O12 0.000000 0.582461 0.271660
O O13 0.843584 0.579140 0.000000
O O14 0.346205 0.331503 0.500000
O O15 0.500000 0.337868 0.772857
O O16 0.657502 0.922107 0.500000
O O17 0.500000 0.922870 0.227838
O O18 0.756614 0.957962 0.230970
O O19 0.164867 0.000000 0.500000
O O20 0.000000 0.000000 0.234143
#
# Coordination Sequence:
#
# PCOD9386007 Si02
#       7
#     8   4   8   8   8   8   4
#     4  10  21  37  57  79 103 135 174 214 259 312
#     4   9  17  31  52  77 106 141 180 220 260 305
#     4  10  21  36  54  78 107 138 173 214 260 309
#     4  10  20  34  54  80 109 141 177 217 262 312
#     4  10  21  37  57  80 106 137 174 217 264 313
#     4   9  17  31  52  75 100 133 172 212 255 304
#     4   9  17  29  48  75 102 128 166 215 258 299
#
# _framework density 20.634795
#
# number of rings (size 3 to 8) (size 9 to 14) (size 15 to 20)
#    0.000    2.333    0.000    2.500    0.000    7.333 
#    0.000    2.500    0.000    5.000    0.000    0.000 
#    0.000    0.000    0.000    0.000    0.000    0.000 
#
# Total GULP energy -268098.356720 kJ/mol
# GULP energy per Si atom -5585.382432 kJ/mol
# Density = 2.058783 g / cm^3
# Si number density = 20.634795 Si / 1000 Ang^3
#
#
#
# Elastic Constant Matrix: (Units=GPa)
#
#
# Indices 1 2 3 4 5 6 
#
# 1 196.3960 140.8542 7.9205 0.0000 0.0000 0.0000
# 2 140.8542 216.7563 -3.1782 0.0000 0.0000 0.0000
# 3 7.9205 -3.1782 27.9029 0.0000 0.0000 0.0000
# 4 0.0000 0.0000 0.0000 28.3316 0.0000 0.0000
# 5 0.0000 0.0000 0.0000 0.0000 14.4970 0.0000
# 6 0.0000 0.0000 0.0000 0.0000 0.0000 50.3363
#
#
#
# Elastic Compliance Matrix: (Units=1/GPa)
#
#
# Indices 1 2 3 4 5 6 
#
# 1 0.009873 -0.006468 -0.003539 0.000000 0.000000 0.000000
# 2 -0.006468 0.008858 0.002845 0.000000 0.000000 0.000000
# 3 -0.003539 0.002845 0.037167 0.000000 0.000000 0.000000
# 4 0.000000 0.000000 0.000000 0.035296 0.000000 0.000000
# 5 0.000000 0.000000 0.000000 0.000000 0.068980 0.000000
# 6 0.000000 0.000000 0.000000 0.000000 0.000000 0.019866
#
#
# Mechanical properties :
#
#
# Convention : Reuss Voigt Hill
#
# Bulk Modulus (GPa) = 24.05331 81.36089 52.70710
# Shear Modulus (GPa) = 24.01270 38.33023 31.17147
#
# Velocity S-wave (km/s) = 3.41500 4.31461 3.89089
# Velocity P-wave (km/s) = 5.21840 8.02096 6.76636
#
# Compressibility (1/GPa) = 0.04157432
#
# Stress axis : x y z
#
# Youngs Moduli (GPa) = 101.28539 112.89130 26.90536
#
# Poissons Ratio (x) = 0.73015 0.09523
# Poissons Ratio (y) = 0.65508 -0.07654
# Poissons Ratio (z) = 0.35848 -0.32116
#
# Static dielectric constant tensor:
#      x y z
#    x 1.729870 0.000000 0.000000 
#    y 0.000000 1.693440 0.000000 
#    z 0.000000 0.000000 1.768620 
# 
# From -- ./inp_files/2637.got.cif
#   From: 2010.05.17/outbox.cif.g08.bks.cpg/sg47_2_cif.got.tgz:2637.got - 2010.06.03 20:15:42.
