data_PCOD9386243
_publ_section_title
;
Structure prediction by ZEFSAII (Michael W. Deem and Ramdas Pophale) SiO2 
 PCOD9386243
Probable space group: P M M M
;
_chemical_formula_sum "Si O2"
_cell_formula_units_Z 48
_cell_length_a 13.862209
_cell_length_b 12.816569
_cell_length_c 15.565530
_cell_angle_alpha 90.000000
_cell_angle_beta 90.000000
_cell_angle_gamma 90.000000
_cell_volume 2765.464801
_symmetry_space_group_name_H-M "P M M M"
_symmetry_group_IT_number 47
_symmetry_cell_setting 'orthorhombic'
loop_
_space_group_symop_operation_xyz
x,y,z
-x,-y,z
x,-y,-z
-x,y,-z
-x,-y,-z
x,y,-z
-x,y,z
x,-y,z
loop_
_atom_site_type_symbol
_atom_site_label
_atom_site_fract_x
_atom_site_fract_y
_atom_site_fract_z
Si Si1 0.615138 0.500000 0.593003
Si Si2 0.111134 0.000000 0.895004
Si Si3 0.114667 0.283769 0.400714
Si Si4 0.280754 0.879182 0.399117
Si Si5 0.115718 0.774333 0.097771
Si Si6 0.795871 0.377103 0.769279
Si Si7 0.387003 0.705905 0.704316
O O1 0.500000 0.500000 0.584244
O O2 0.662210 0.500000 0.500000
O O3 0.634325 0.392986 0.641874
O O4 0.154006 0.887775 0.869957
O O5 0.000000 0.000000 0.864808
O O6 0.109606 0.000000 0.000000
O O7 0.130177 0.320354 0.500000
O O8 0.176859 0.177555 0.391184
O O9 0.156493 0.355750 0.324634
O O10 0.000000 0.269187 0.389487
O O11 0.307626 0.873035 0.500000
O O12 0.355422 0.810733 0.344233
O O13 0.277240 0.000000 0.374026
O O14 0.140165 0.680777 0.160393
O O15 0.000000 0.785009 0.094098
O O16 0.149700 0.756770 0.000000
O O17 0.786784 0.500000 0.782606
O O18 0.691875 0.319632 0.776233
O O19 0.500000 0.705579 0.726651
#
# Coordination Sequence:
#
# PCOD9386243 Si02
#       7
#     4   4   8   8   8   8   8
#     4   9  16  28  50  74  90 117 170 226 270 307
#     4   7  12  28  54  80 104 130 162 203 250 302
#     4   9  19  35  51  70 102 146 188 219 251 300
#     4   9  18  32  50  73 100 131 171 220 271 319
#     4   9  18  34  57  84 111 137 168 211 264 316
#     4  11  22  35  51  77 107 139 178 222 266 315
#     4  10  20  35  51  70  98 134 173 219 271 316
#
# _framework density 17.356936999999999
#
# number of rings (size 3 to 8) (size 9 to 14) (size 15 to 20)
#    0.000    2.667    0.833    2.000    0.000    4.333 
#    6.000    4.167    0.000    0.500    0.000    1.167 
#    0.000    2.000    0.000    0.000    0.000    0.000 
#
# Total GULP energy -267212.735946 kJ/mol
# GULP energy per Si atom -5566.931999 kJ/mol
# Density = 1.731743 g / cm^3
# Si number density = 17.356937 Si / 1000 Ang^3
#
#
#
# Elastic Constant Matrix: (Units=GPa)
#
#
# Indices 1 2 3 4 5 6 
#
# 1 75.0533 25.1238 21.8201 0.0000 0.0000 0.0000
# 2 25.1238 116.8502 34.1903 0.0000 0.0000 0.0000
# 3 21.8201 34.1903 44.5258 0.0000 0.0000 0.0000
# 4 0.0000 0.0000 0.0000 32.8992 0.0000 0.0000
# 5 0.0000 0.0000 0.0000 0.0000 6.4329 0.0000
# 6 0.0000 0.0000 0.0000 0.0000 0.0000 15.1978
#
#
#
# Elastic Compliance Matrix: (Units=1/GPa)
#
#
# Indices 1 2 3 4 5 6 
#
# 1 0.015726 -0.001453 -0.006591 0.000000 0.000000 0.000000
# 2 -0.001453 0.011172 -0.007867 0.000000 0.000000 0.000000
# 3 -0.006591 -0.007867 0.031730 0.000000 0.000000 0.000000
# 4 0.000000 0.000000 0.000000 0.030396 0.000000 0.000000
# 5 0.000000 0.000000 0.000000 0.000000 0.155451 0.000000
# 6 0.000000 0.000000 0.000000 0.000000 0.000000 0.065799
#
#
# Mechanical properties :
#
#
# Convention : Reuss Voigt Hill
#
# Bulk Modulus (GPa) = 37.30437 44.29974 40.80206
# Shear Modulus (GPa) = 14.24371 21.25898 17.75134
#
# Velocity S-wave (km/s) = 2.86778 3.50353 3.20147
# Velocity P-wave (km/s) = 5.70129 6.47645 6.10120
#
# Compressibility (1/GPa) = 0.02680651
#
# Stress axis : x y z
#
# Youngs Moduli (GPa) = 63.58713 89.50818 31.51605
#
# Poissons Ratio (x) = 0.13003 0.20773
# Poissons Ratio (y) = 0.09237 0.24793
# Poissons Ratio (z) = 0.41913 0.70415
#
# Static dielectric constant tensor:
#      x y z
#    x 1.608930 0.000000 0.000000 
#    y 0.000000 1.614380 0.000000 
#    z 0.000000 0.000000 1.618120 
# 
# From -- ./inp_files/23599.got.cif
#   From: 2010.05.17/outbox.cif.g08.bks.cpg/sg47_12_cif.got.tgz:23599.got - 2010.06.03 20:15:42.
