data_PCOD9386046
_publ_section_title
;
Structure prediction by ZEFSAII (Michael W. Deem and Ramdas Pophale) SiO2 
 PCOD9386046
Probable space group: P M M M
;
_chemical_formula_sum "Si O2"
_cell_formula_units_Z 48
_cell_length_a 8.690652
_cell_length_b 9.303562
_cell_length_c 31.738139
_cell_angle_alpha 90.000000
_cell_angle_beta 90.000000
_cell_angle_gamma 90.000000
_cell_volume 2566.156116
_symmetry_space_group_name_H-M "P M M M"
_symmetry_group_IT_number 47
_symmetry_cell_setting 'orthorhombic'
loop_
_space_group_symop_operation_xyz
x,y,z
-x,-y,z
x,-y,-z
-x,y,-z
-x,-y,-z
x,y,-z
-x,y,z
x,-y,z
loop_
_atom_site_type_symbol
_atom_site_label
_atom_site_fract_x
_atom_site_fract_y
_atom_site_fract_z
Si Si1 0.184091 0.832441 0.245407
Si Si2 0.315961 0.167734 0.663947
Si Si3 0.187718 0.165383 0.500000
Si Si4 0.686118 0.832687 0.919227
Si Si5 0.813971 0.333267 0.583938
Si Si6 0.184533 0.332870 0.000000
Si Si7 0.685784 0.666646 0.165516
O O1 0.249960 0.786816 0.290731
O O2 0.247247 0.737606 0.207433
O O3 0.000000 0.825348 0.246570
O O4 0.229748 0.000000 0.238894
O O5 0.500000 0.176229 0.665013
O O6 0.251502 0.260726 0.625771
O O7 0.271473 0.000000 0.657662
O O8 0.236839 0.247375 0.457741
O O9 0.000000 0.166061 0.500000
O O10 0.238165 0.000000 0.500000
O O11 0.500000 0.827320 0.921568
O O12 0.733588 0.756360 0.875716
O O13 0.732247 0.000000 0.919838
O O14 0.753125 0.747734 0.958810
O O15 0.769332 0.500000 0.580983
O O16 0.000000 0.326571 0.585561
O O17 0.233675 0.500000 0.000000
O O18 0.000000 0.328327 0.000000
O O19 0.500000 0.672291 0.167783
O O20 0.731567 0.500000 0.161522
#
# Coordination Sequence:
#
# PCOD9386046 Si02
#       7
#     8   8   4   8   8   4   8
#     4  10  21  37  58  83 110 143 183 226 273 325
#     4  10  21  37  57  80 107 142 184 228 273 322
#     4   9  17  31  54  81 108 141 180 222 268 319
#     4  10  21  38  61  86 111 144 187 230 273 325
#     4  10  20  34  54  81 112 144 179 221 270 324
#     4  11  24  39  56  82 116 151 186 227 276 326
#     4  10  21  37  58  84 113 146 183 224 273 327
#
# _framework density 18.705020999999999
#
# number of rings (size 3 to 8) (size 9 to 14) (size 15 to 20)
#    0.000    2.000    0.000    3.250    0.000    9.000 
#    0.000    0.417    0.000    2.500    0.000    0.000 
#    0.000    0.000    0.000    0.000    0.000    0.000 
#
# Total GULP energy -268199.988403 kJ/mol
# GULP energy per Si atom -5587.499758 kJ/mol
# Density = 1.866245 g / cm^3
# Si number density = 18.705021 Si / 1000 Ang^3
#
#
#
# Elastic Constant Matrix: (Units=GPa)
#
#
# Indices 1 2 3 4 5 6 
#
# 1 15.9154 42.4626 41.2441 0.0000 0.0000 0.0000
# 2 42.4626 176.9397 138.2452 0.0000 0.0000 0.0000
# 3 41.2441 138.2452 217.2532 0.0000 0.0000 0.0000
# 4 0.0000 0.0000 0.0000 -263.1840 0.0000 0.0000
# 5 0.0000 0.0000 0.0000 0.0000 32.5761 0.0000
# 6 0.0000 0.0000 0.0000 0.0000 0.0000 26.1714
#
#
#
# Elastic Compliance Matrix: (Units=1/GPa)
#
#
# Indices 1 2 3 4 5 6 
#
# 1 0.194959 -0.035538 -0.014398 0.000000 0.000000 0.000000
# 2 -0.035538 0.017718 -0.004528 0.000000 0.000000 0.000000
# 3 -0.014398 -0.004528 0.010217 0.000000 0.000000 0.000000
# 4 0.000000 0.000000 0.000000 -0.003800 0.000000 0.000000
# 5 0.000000 0.000000 0.000000 0.000000 0.030697 0.000000
# 6 0.000000 0.000000 0.000000 0.000000 0.000000 0.038210
#
#
# Mechanical properties :
#
#
# Convention : Reuss Voigt Hill
#
# Bulk Modulus (GPa) = 8.77442 94.89023 51.83233
# Shear Modulus (GPa) = 11.49643 -28.34355 -8.42356
#
# Velocity S-wave (km/s) = 2.48184 -3.89690 -2.12442
# Velocity P-wave (km/s) = 3.59358 5.53102 4.66401
#
# Compressibility (1/GPa) = 0.11396765
#
# Stress axis : x y z
#
# Youngs Moduli (GPa) = 5.12928 56.44096 97.87195
#
# Poissons Ratio (x) = 2.00578 1.40917
# Poissons Ratio (y) = 0.18228 0.44314
# Poissons Ratio (z) = 0.07385 0.25555
#
# Static dielectric constant tensor:
#      x y z
#    x 1.636520 0.000000 0.000000 
#    y 0.000000 1.634480 0.000000 
#    z 0.000000 0.000000 1.601590 
# 
# From -- ./inp_files/34071.got.cif
#   From: 2010.05.17/outbox.cif.g08.bks.cpg/sg47_18_cif.got.tgz:34071.got - 2010.06.03 20:15:42.
