data_PCOD9386364
_publ_section_title
;
Structure prediction by ZEFSAII (Michael W. Deem and Ramdas Pophale) SiO2 
 PCOD9386364
Probable space group: P M M M
;
_chemical_formula_sum "Si O2"
_cell_formula_units_Z 56
_cell_length_a 8.967235
_cell_length_b 20.737566
_cell_length_c 15.477285
_cell_angle_alpha 90.000000
_cell_angle_beta 90.000000
_cell_angle_gamma 90.000000
_cell_volume 2878.134678
_symmetry_space_group_name_H-M "P M M M"
_symmetry_group_IT_number 47
_symmetry_cell_setting 'orthorhombic'
loop_
_space_group_symop_operation_xyz
x,y,z
-x,-y,z
x,-y,-z
-x,y,-z
-x,-y,-z
x,y,-z
-x,y,z
x,-y,z
loop_
_atom_site_type_symbol
_atom_site_label
_atom_site_fract_x
_atom_site_fract_y
_atom_site_fract_z
Si Si1 0.679165 0.570947 0.725830
Si Si2 0.335493 0.742753 0.101888
Si Si3 0.181887 0.926014 0.500000
Si Si4 0.172958 0.176047 0.641526
Si Si5 0.676117 0.000000 0.896144
Si Si6 0.172401 0.868377 0.838938
Si Si7 0.679999 0.312637 0.600415
Si Si8 0.176860 0.612859 0.100746
O O1 0.500000 0.575792 0.732197
O O2 0.715640 0.500000 0.689110
O O3 0.730515 0.629880 0.664588
O O4 0.744222 0.574481 0.822693
O O5 0.500000 0.734146 0.142859
O O6 0.268925 0.812471 0.117862
O O7 0.221189 0.686396 0.125132
O O8 0.352560 0.735797 0.000000
O O9 0.227921 0.882278 0.418844
O O10 0.000000 0.929418 0.500000
O O11 0.235227 0.000000 0.500000
O O12 0.176430 0.149824 0.738349
O O13 0.260143 0.242759 0.629619
O O14 0.000000 0.189077 0.618183
O O15 0.755320 0.936876 0.858759
O O16 0.500000 0.000000 0.875974
O O17 0.691649 0.000000 0.000000
O O18 0.000000 0.867149 0.868112
O O19 0.724015 0.323556 0.500000
O O20 0.500000 0.311331 0.603071
O O21 0.000000 0.603815 0.104112
O O22 0.222920 0.600006 0.000000
#
# Coordination Sequence:
#
# PCOD9386364 Si02
#       8
#     8   8   4   8   4   8   8   8
#     4  10  22  39  59  85 117 156 201 246 296 358
#     4  10  20  35  56  81 110 147 190 234 284 344
#     4   9  18  34  59  83 110 147 184 226 275 335
#     4  10  21  37  60  88 115 149 191 234 285 350
#     4  11  25  43  59  78 111 158 204 242 292 357
#     4  11  23  36  56  85 114 146 191 244 295 345
#     4  10  21  38  61  88 120 156 196 246 300 354
#     4  10  21  37  58  85 117 152 192 241 298 357
#
# _framework density 19.457046999999999
#
# number of rings (size 3 to 8) (size 9 to 14) (size 15 to 20)
#    0.000    1.857    0.714    2.786    1.000    8.857 
#    0.000    2.857    0.000    0.429    0.000    2.000 
#    0.000    0.000    0.000    0.000    0.000    0.000 
#
# Total GULP energy -312493.363027 kJ/mol
# GULP energy per Si atom -5580.238625 kJ/mol
# Density = 1.941276 g / cm^3
# Si number density = 19.457047 Si / 1000 Ang^3
#
#
#
# Elastic Constant Matrix: (Units=GPa)
#
#
# Indices 1 2 3 4 5 6 
#
# 1 38.0025 23.2214 28.9685 0.0000 0.0000 0.0000
# 2 23.2214 152.7007 51.8247 0.0000 0.0000 0.0000
# 3 28.9685 51.8247 69.8204 0.0000 0.0000 0.0000
# 4 0.0000 0.0000 0.0000 30.2684 0.0000 0.0000
# 5 0.0000 0.0000 0.0000 0.0000 11.7272 0.0000
# 6 0.0000 0.0000 0.0000 0.0000 0.0000 41.6043
#
#
#
# Elastic Compliance Matrix: (Units=1/GPa)
#
#
# Indices 1 2 3 4 5 6 
#
# 1 0.038524 -0.000580 -0.015553 0.000000 0.000000 0.000000
# 2 -0.000580 0.008763 -0.006264 0.000000 0.000000 0.000000
# 3 -0.015553 -0.006264 0.025425 0.000000 0.000000 0.000000
# 4 0.000000 0.000000 0.000000 0.033038 0.000000 0.000000
# 5 0.000000 0.000000 0.000000 0.000000 0.085272 0.000000
# 6 0.000000 0.000000 0.000000 0.000000 0.000000 0.024036
#
#
# Mechanical properties :
#
#
# Convention : Reuss Voigt Hill
#
# Bulk Modulus (GPa) = 35.81890 52.06142 43.94016
# Shear Modulus (GPa) = 18.57653 27.15392 22.86523
#
# Velocity S-wave (km/s) = 3.09325 3.73980 3.43179
# Velocity P-wave (km/s) = 5.58630 6.74265 6.19153
#
# Compressibility (1/GPa) = 0.02791822
#
# Stress axis : x y z
#
# Youngs Moduli (GPa) = 25.95758 114.11971 39.33174
#
# Poissons Ratio (x) = 0.06617 0.61174
# Poissons Ratio (y) = 0.01505 0.24636
# Poissons Ratio (z) = 0.40373 0.71480
#
# Static dielectric constant tensor:
#      x y z
#    x 1.677690 0.000000 0.000000 
#    y 0.000000 1.670770 0.000000 
#    z 0.000000 0.000000 1.567720 
# 
# From -- ./inp_files/7406.got.cif
#   From: 2010.05.17/outbox.cif.g08.bks.cpg/sg47_4_cif.got.tgz:7406.got - 2010.06.03 20:15:42.
