data_PCOD9386152
_publ_section_title
;
Structure prediction by ZEFSAII (Michael W. Deem and Ramdas Pophale) SiO2 
 PCOD9386152
Probable space group: P M M M
;
_chemical_formula_sum "Si O2"
_cell_formula_units_Z 64
_cell_length_a 25.943179
_cell_length_b 14.980419
_cell_length_c 8.021149
_cell_angle_alpha 90.000000
_cell_angle_beta 90.000000
_cell_angle_gamma 90.000000
_cell_volume 3117.336874
_symmetry_space_group_name_H-M "P M M M"
_symmetry_group_IT_number 47
_symmetry_cell_setting 'orthorhombic'
loop_
_space_group_symop_operation_xyz
x,y,z
-x,-y,z
x,-y,-z
-x,y,-z
-x,-y,-z
x,y,-z
-x,y,z
x,-y,z
loop_
_atom_site_type_symbol
_atom_site_label
_atom_site_fract_x
_atom_site_fract_y
_atom_site_fract_z
Si Si1 0.438639 0.096158 0.799931
Si Si2 0.057269 0.291659 0.702308
Si Si3 0.841779 0.602651 0.801961
Si Si4 0.252727 0.276146 0.304762
Si Si5 0.345678 0.398675 0.295306
Si Si6 0.441639 0.289385 0.301344
Si Si7 0.088834 0.098391 0.305239
Si Si8 0.204361 0.098572 0.194466
O O1 0.500000 0.095313 0.761227
O O2 0.419672 0.189839 0.729777
O O3 0.417514 0.000000 0.741291
O O4 0.433646 0.098781 0.000000
O O5 0.060987 0.290180 0.500000
O O6 0.102826 0.353689 0.767098
O O7 0.064978 0.189431 0.763759
O O8 0.000000 0.322648 0.747798
O O9 0.839554 0.500000 0.743687
O O10 0.798054 0.663484 0.719507
O O11 0.832611 0.604043 0.000000
O O12 0.261021 0.261492 0.500000
O O13 0.300993 0.331979 0.237602
O O14 0.242182 0.180058 0.226290
O O15 0.345067 0.398224 0.500000
O O16 0.336287 0.500000 0.242242
O O17 0.401022 0.361730 0.239235
O O18 0.445453 0.300624 0.500000
O O19 0.500000 0.295717 0.231942
O O20 0.074189 0.095082 0.500000
O O21 0.150722 0.109692 0.292497
O O22 0.076353 0.000000 0.232635
O O23 0.225596 0.000000 0.234248
O O24 0.189924 0.099807 0.000000
#
# Coordination Sequence:
#
# PCOD9386152 Si02
#       8
#     8   8   8   8   8   8   8   8
#     4   8  14  26  45  69  99 137 177 213 253 305
#     4  10  21  36  55  82 114 148 186 227 271 321
#     4  11  24  40  58  80 106 140 183 230 283 336
#     4  11  21  36  60  84 107 139 180 225 272 323
#     4   9  19  35  54  79 109 139 175 222 273 322
#     4   9  17  30  51  79 108 139 176 218 265 317
#     4   9  17  31  53  81 112 146 182 217 258 314
#     4  10  20  34  55  83 114 145 176 215 266 323
#
# _framework density 20.530343999999999
#
# number of rings (size 3 to 8) (size 9 to 14) (size 15 to 20)
#    0.000    2.375    1.250    1.875    0.000    3.500 
#    0.000    6.875    0.000    5.625    0.000    4.375 
#    0.000    0.000    0.000    0.000    0.000    0.000 
#
# Total GULP energy -357054.623380 kJ/mol
# GULP energy per Si atom -5578.978490 kJ/mol
# Density = 2.048362 g / cm^3
# Si number density = 20.530344 Si / 1000 Ang^3
#
#
#
# Elastic Constant Matrix: (Units=GPa)
#
#
# Indices 1 2 3 4 5 6 
#
# 1 71.6847 38.5836 -6.3052 0.0000 0.0000 0.0000
# 2 38.5836 111.6018 -2.3141 0.0000 0.0000 0.0000
# 3 -6.3052 -2.3141 15.2398 0.0000 0.0000 0.0000
# 4 0.0000 0.0000 0.0000 5.4195 0.0000 0.0000
# 5 0.0000 0.0000 0.0000 0.0000 -18.1483 0.0000
# 6 0.0000 0.0000 0.0000 0.0000 0.0000 0.4347
#
#
#
# Elastic Compliance Matrix: (Units=1/GPa)
#
#
# Indices 1 2 3 4 5 6 
#
# 1 0.017746 -0.006002 0.006431 0.000000 0.000000 0.000000
# 2 -0.006002 0.011019 -0.000810 0.000000 0.000000 0.000000
# 3 0.006431 -0.000810 0.068155 0.000000 0.000000 0.000000
# 4 0.000000 0.000000 0.000000 0.184520 0.000000 0.000000
# 5 0.000000 0.000000 0.000000 0.000000 -0.055102 0.000000
# 6 0.000000 0.000000 0.000000 0.000000 0.000000 2.300493
#
#
# Mechanical properties :
#
#
# Convention : Reuss Voigt Hill
#
# Bulk Modulus (GPa) = 10.39959 28.71721 19.55840
# Shear Modulus (GPa) = 1.95339 8.77864 5.36602
#
# Velocity S-wave (km/s) = 0.97649 2.07008 1.61845
# Velocity P-wave (km/s) = 2.51949 4.44204 3.61106
#
# Compressibility (1/GPa) = 0.09615765
#
# Stress axis : x y z
#
# Youngs Moduli (GPa) = 56.35047 90.75518 14.67236
#
# Poissons Ratio (x) = 0.54471 -0.09435
# Poissons Ratio (y) = 0.33821 0.01188
# Poissons Ratio (z) = -0.36237 0.07351
#
# Static dielectric constant tensor:
#      x y z
#    x 1.717630 0.000000 0.000000 
#    y 0.000000 1.745480 0.000000 
#    z 0.000000 0.000000 1.749960 
# 
# From -- ./inp_files/12655.got.cif
#   From: 2010.05.17/outbox.cif.g08.bks.cpg/sg47_7_cif.got.tgz:12655.got - 2010.06.03 20:15:42.
