data_PCOD9386455
_publ_section_title
;
Structure prediction by ZEFSAII (Michael W. Deem and Ramdas Pophale) SiO2 
 PCOD9386455
Probable space group: P M M M
;
_chemical_formula_sum "Si O2"
_cell_formula_units_Z 40
_cell_length_a 29.803558
_cell_length_b 8.812351
_cell_length_c 7.971021
_cell_angle_alpha 90.000000
_cell_angle_beta 90.000000
_cell_angle_gamma 90.000000
_cell_volume 2093.504286
_symmetry_space_group_name_H-M "P M M M"
_symmetry_group_IT_number 47
_symmetry_cell_setting 'orthorhombic'
loop_
_space_group_symop_operation_xyz
x,y,z
-x,-y,z
x,-y,-z
-x,y,-z
-x,-y,-z
x,y,-z
-x,y,z
x,-y,z
loop_
_atom_site_type_symbol
_atom_site_label
_atom_site_fract_x
_atom_site_fract_y
_atom_site_fract_z
Si Si1 0.549891 0.319359 0.798668
Si Si2 0.949399 0.179787 0.202087
Si Si3 0.142132 0.319158 0.312207
Si Si4 0.804548 0.182016 0.000000
Si Si5 0.357737 0.817182 0.315318
Si Si6 0.700869 0.185298 0.000000
O O1 0.500000 0.269075 0.744475
O O2 0.552990 0.500000 0.768349
O O3 0.591621 0.237493 0.715227
O O4 0.552763 0.296502 0.000000
O O5 0.909545 0.270734 0.286778
O O6 0.000000 0.224404 0.251646
O O7 0.944187 0.000000 0.236974
O O8 0.945881 0.197992 0.000000
O O9 0.156614 0.273784 0.500000
O O10 0.145909 0.500000 0.296820
O O11 0.170484 0.241971 0.165227
O O12 0.752621 0.231315 0.000000
O O13 0.806563 0.000000 0.000000
O O14 0.342496 0.767690 0.500000
O O15 0.357403 0.000000 0.310839
O O16 0.325978 0.762801 0.164865
O O17 0.700274 0.000000 0.000000
#
# Coordination Sequence:
#
# PCOD9386455 Si02
#       6
#     8   8   8   4   8   4
#     4   9  18  33  53  78 110 149 189 225 266 320
#     4   9  18  34  58  88 120 155 196 239 283 334
#     4  11  24  40  59  87 123 158 192 234 289 350
#     4  11  23  41  66  89 110 145 196 247 294 345
#     4  10  20  35  57  84 112 142 180 225 276 335
#     4   9  20  39  60  83 110 140 178 232 292 335
#
# _framework density 19.106721
#
# number of rings (size 3 to 8) (size 9 to 14) (size 15 to 20)
#    0.000    2.200    2.000    2.100    0.000    4.400 
#    0.000   10.000    0.000    0.000    0.000    0.000 
#    0.000    0.000    0.000    0.000    0.000    0.000 
#
# Total GULP energy -223333.088861 kJ/mol
# GULP energy per Si atom -5583.327222 kJ/mol
# Density = 1.906323 g / cm^3
# Si number density = 19.106721 Si / 1000 Ang^3
#
#
#
# Elastic Constant Matrix: (Units=GPa)
#
#
# Indices 1 2 3 4 5 6 
#
# 1 138.4912 29.1849 90.0130 0.0000 0.0000 0.0000
# 2 29.1849 22.7138 43.1259 0.0000 0.0000 0.0000
# 3 90.0130 43.1259 150.0798 0.0000 0.0000 0.0000
# 4 0.0000 0.0000 0.0000 -89.4723 0.0000 0.0000
# 5 0.0000 0.0000 0.0000 0.0000 -3.5750 0.0000
# 6 0.0000 0.0000 0.0000 0.0000 0.0000 -181.1516
#
#
#
# Elastic Compliance Matrix: (Units=1/GPa)
#
#
# Indices 1 2 3 4 5 6 
#
# 1 0.011985 -0.003854 -0.006081 0.000000 0.000000 0.000000
# 2 -0.003854 0.098125 -0.025885 0.000000 0.000000 0.000000
# 3 -0.006081 -0.025885 0.017748 0.000000 0.000000 0.000000
# 4 0.000000 0.000000 0.000000 -0.011177 0.000000 0.000000
# 5 0.000000 0.000000 0.000000 0.000000 -0.279718 0.000000
# 6 0.000000 0.000000 0.000000 0.000000 0.000000 -0.005520
#
#
# Mechanical properties :
#
#
# Convention : Reuss Voigt Hill
#
# Bulk Modulus (GPa) = 17.78770 70.65916 44.22343
# Shear Modulus (GPa) = -63.95707 -44.90905 -54.43306
#
# Velocity S-wave (km/s) = -5.79191 -4.85339 -5.34330
# Velocity P-wave (km/s) = 5.94966 2.37791 3.85642
#
# Compressibility (1/GPa) = 0.05621861
#
# Stress axis : x y z
#
# Youngs Moduli (GPa) = 83.43685 10.19107 56.34359
#
# Poissons Ratio (x) = 0.03928 0.34261
# Poissons Ratio (y) = 0.32159 1.45845
# Poissons Ratio (z) = 0.50736 0.26379
#
# Static dielectric constant tensor:
#      x y z
#    x 1.644260 0.000000 0.000000 
#    y 0.000000 1.636430 0.000000 
#    z 0.000000 0.000000 1.685340 
# 
# From -- ./inp_files/13035.got.cif
#   From: 2010.05.17/outbox.cif.g08.bks.cpg/sg47_7_cif.got.tgz:13035.got - 2010.06.03 20:15:42.
