data_PCOD9386279
_publ_section_title
;
Structure prediction by ZEFSAII (Michael W. Deem and Ramdas Pophale) SiO2 
 PCOD9386279
Probable space group: P M M M
;
_chemical_formula_sum "Si O2"
_cell_formula_units_Z 52
_cell_length_a 7.803979
_cell_length_b 12.527119
_cell_length_c 27.338039
_cell_angle_alpha 90.000000
_cell_angle_beta 90.000000
_cell_angle_gamma 90.000000
_cell_volume 2672.604244
_symmetry_space_group_name_H-M "P M M M"
_symmetry_group_IT_number 47
_symmetry_cell_setting 'orthorhombic'
loop_
_space_group_symop_operation_xyz
x,y,z
-x,-y,z
x,-y,-z
-x,y,-z
-x,-y,-z
x,y,-z
-x,y,z
x,-y,z
loop_
_atom_site_type_symbol
_atom_site_label
_atom_site_fract_x
_atom_site_fract_y
_atom_site_fract_z
Si Si1 0.301730 0.616444 0.076236
Si Si2 0.204502 0.627256 0.368966
Si Si3 0.795396 0.620538 0.812245
Si Si4 0.208114 0.000000 0.863829
Si Si5 0.500000 0.371221 0.444656
Si Si6 0.199391 0.153675 0.052384
Si Si7 0.699315 0.000000 0.250104
Si Si8 0.797065 0.236606 0.725016
O O1 0.500000 0.620693 0.061435
O O2 0.231101 0.500000 0.062649
O O3 0.290375 0.624559 0.135008
O O4 0.210985 0.719671 0.055923
O O5 0.225819 0.500000 0.358122
O O6 0.328624 0.655530 0.414090
O O7 0.260865 0.700475 0.323217
O O8 0.000000 0.643462 0.378402
O O9 0.774821 0.500000 0.792212
O O10 0.727706 0.706735 0.773981
O O11 0.000000 0.637063 0.820687
O O12 0.265314 0.099520 0.897892
O O13 0.272958 0.000000 0.808635
O O14 0.000000 0.000000 0.858807
O O15 0.500000 0.500000 0.447671
O O16 0.500000 0.328793 0.500000
O O17 0.000000 0.123201 0.051063
O O18 0.277143 0.121212 0.000000
O O19 0.770622 0.889805 0.272163
O O20 0.500000 0.000000 0.260250
O O21 0.000000 0.256944 0.726611
#
# Coordination Sequence:
#
# PCOD9386279 Si02
#       8
#     8   8   8   4   4   8   4   8
#     4  10  21  35  49  71 104 135 163 198 247 309
#     4   9  18  33  55  84 117 154 195 239 285 333
#     4   9  17  31  53  77 100 131 170 212 259 313
#     4  10  21  40  60  76 100 128 161 211 266 319
#     4   9  18  32  52  83 123 163 199 236 281 332
#     4  10  21  37  58  79  95 120 162 210 259 310
#     4  12  26  37  51  77 108 143 179 216 263 322
#     4  10  20  35  54  76 106 142 182 226 273 325
#
# _framework density 19.456676999999999
#
# number of rings (size 3 to 8) (size 9 to 14) (size 15 to 20)
#    0.000    2.231    0.000    2.769    1.077    9.538 
#    0.000    3.077    0.000    1.385    0.000    1.077 
#    0.000    2.462    0.000    0.000    0.000    0.000 
#
# Total GULP energy -290139.128898 kJ/mol
# GULP energy per Si atom -5579.598633 kJ/mol
# Density = 1.941239 g / cm^3
# Si number density = 19.456677 Si / 1000 Ang^3
#
#
#
# Elastic Constant Matrix: (Units=GPa)
#
#
# Indices 1 2 3 4 5 6 
#
# 1 41.4921 10.3737 22.2807 0.0000 0.0000 0.0000
# 2 10.3737 112.4726 48.3580 0.0000 0.0000 0.0000
# 3 22.2807 48.3580 119.4185 0.0000 0.0000 0.0000
# 4 0.0000 0.0000 0.0000 20.7242 0.0000 0.0000
# 5 0.0000 0.0000 0.0000 0.0000 27.2891 0.0000
# 6 0.0000 0.0000 0.0000 0.0000 0.0000 -169.9242
#
#
#
# Elastic Compliance Matrix: (Units=1/GPa)
#
#
# Indices 1 2 3 4 5 6 
#
# 1 0.026799 -0.000390 -0.004842 0.000000 0.000000 0.000000
# 2 -0.000390 0.010771 -0.004289 0.000000 0.000000 0.000000
# 3 -0.004842 -0.004289 0.011014 0.000000 0.000000 0.000000
# 4 0.000000 0.000000 0.000000 0.048253 0.000000 0.000000
# 5 0.000000 0.000000 0.000000 0.000000 0.036645 0.000000
# 6 0.000000 0.000000 0.000000 0.000000 0.000000 -0.005885
#
#
# Mechanical properties :
#
#
# Convention : Reuss Voigt Hill
#
# Bulk Modulus (GPa) = 33.85019 48.37868 41.11444
# Shear Modulus (GPa) = 31.95187 -11.55745 10.19721
#
# Velocity S-wave (km/s) = 4.05681 -2.43987 2.29180
# Velocity P-wave (km/s) = 6.27528 4.12086 5.30851
#
# Compressibility (1/GPa) = 0.02954193
#
# Stress axis : x y z
#
# Youngs Moduli (GPa) = 37.31539 92.84133 90.79239
#
# Poissons Ratio (x) = 0.03619 0.43963
# Poissons Ratio (y) = 0.01455 0.38940
# Poissons Ratio (z) = 0.18069 0.39819
#
# Static dielectric constant tensor:
#      x y z
#    x 1.696090 0.000000 0.000000 
#    y 0.000000 2.673280 0.000000 
#    z 0.000000 0.000000 1.684720 
# 
# From -- ./inp_files/33345.got.cif
#   From: 2010.05.17/outbox.cif.g08.bks.cpg/sg47_17_cif.got.tgz:33345.got - 2010.06.03 20:15:42.
