data_PCOD9386331
_publ_section_title
;
Structure prediction by ZEFSAII (Michael W. Deem and Ramdas Pophale) SiO2 
 PCOD9386331
Probable space group: P M M M
;
_chemical_formula_sum "Si O2"
_cell_formula_units_Z 64
_cell_length_a 16.131921
_cell_length_b 24.555227
_cell_length_c 7.944384
_cell_angle_alpha 90.000000
_cell_angle_beta 90.000000
_cell_angle_gamma 90.000000
_cell_volume 3146.953081
_symmetry_space_group_name_H-M "P M M M"
_symmetry_group_IT_number 47
_symmetry_cell_setting 'orthorhombic'
loop_
_space_group_symop_operation_xyz
x,y,z
-x,-y,z
x,-y,-z
-x,y,-z
-x,-y,-z
x,y,-z
-x,y,z
x,-y,z
loop_
_atom_site_type_symbol
_atom_site_label
_atom_site_fract_x
_atom_site_fract_y
_atom_site_fract_z
Si Si1 0.410148 0.176076 0.799753
Si Si2 0.592909 0.437695 0.702734
Si Si3 0.750000 0.365742 0.199571
Si Si4 0.092909 0.437695 0.702734
Si Si5 0.652642 0.060211 0.703183
Si Si6 0.152643 0.939789 0.703183
Si Si7 0.910147 0.176076 0.200247
Si Si8 0.250000 0.758375 0.207467
O O1 0.500000 0.191716 0.729161
O O2 0.394980 0.112064 0.771599
O O3 0.331858 0.209707 0.733644
O O4 0.412017 0.185506 0.000000
O O5 0.590873 0.439155 0.500000
O O6 0.500000 0.421468 0.760569
O O7 0.608214 0.500000 0.760858
O O8 0.667460 0.398477 0.751334
O O9 0.832540 0.398477 0.248667
O O10 0.750000 0.303980 0.265461
O O11 0.750000 0.361585 0.000000
O O12 0.090873 0.439155 0.500000
O O13 0.108214 0.500000 0.760857
O O14 0.000000 0.421468 0.760570
O O15 0.647975 0.061595 0.500000
O O16 0.750000 0.065370 0.749277
O O17 0.624028 0.000000 0.758017
O O18 0.147975 0.938405 0.500000
O O19 0.105021 0.887936 0.771599
O O20 0.124029 0.000000 0.758017
O O21 0.831858 0.209707 0.266356
O O22 0.000000 0.191716 0.270839
O O23 0.912017 0.185506 0.000000
O O24 0.250000 0.759486 0.000000
#
# Coordination Sequence:
#
# PCOD9386331 Si02
#       8
#     8   8   8   8   8   8   8   8
#     4  10  20  35  56  77  98 132 178 219 256 307
#     4   9  19  37  59  82 112 150 186 220 265 323
#     4  11  22  34  55  85 113 144 184 229 276 323
#     4   9  19  37  59  82 112 150 186 220 265 323
#     4   9  18  33  53  77 105 135 165 204 262 324
#     4   9  18  33  53  77 105 135 165 204 262 324
#     4  10  20  35  56  77  98 132 178 219 256 307
#     4   9  20  38  53  72 106 143 176 215 266 311
#
# _framework density 20.337132
#
# number of rings (size 3 to 8) (size 9 to 14) (size 15 to 20)
#    0.000    2.500    1.250    2.250    0.000    5.000 
#    0.000   10.000    0.000    0.000    0.000    0.000 
#    0.000    0.000    0.000    0.000    0.000    0.000 
#
# Total GULP energy -357171.847601 kJ/mol
# GULP energy per Si atom -5580.810119 kJ/mol
# Density = 2.029084 g / cm^3
# Si number density = 20.337132 Si / 1000 Ang^3
#
#
#
# Elastic Constant Matrix: (Units=GPa)
#
#
# Indices 1 2 3 4 5 6 
#
# 1 198.6235 120.0790 12.6668 0.0000 0.0000 0.0000
# 2 120.0790 147.9784 3.8257 0.0000 0.0000 0.0000
# 3 12.6668 3.8257 14.2254 0.0000 0.0000 0.0000
# 4 0.0000 0.0000 0.0000 31.8953 0.0000 0.0000
# 5 0.0000 0.0000 0.0000 0.0000-7219.0738 0.0000
# 6 0.0000 0.0000 0.0000 0.0000 0.0000 -7.3318
#
#
#
# Elastic Compliance Matrix: (Units=1/GPa)
#
#
# Indices 1 2 3 4 5 6 
#
# 1 0.010558 -0.008383 -0.007147 0.000000 0.000000 0.000000
# 2 -0.008383 0.013461 0.003844 0.000000 0.000000 0.000000
# 3 -0.007147 0.003844 0.075627 0.000000 0.000000 0.000000
# 4 0.000000 0.000000 0.000000 0.031353 0.000000 0.000000
# 5 0.000000 0.000000 0.000000 0.000000 -0.000139 0.000000
# 6 0.000000 0.000000 0.000000 0.000000 0.000000 -0.136392
#
#
# Mechanical properties :
#
#
# Convention : Reuss Voigt Hill
#
# Bulk Modulus (GPa) = 13.11048 70.44113 41.77581
# Shear Modulus (GPa) = 115.56806 -1423.95166 -654.19180
#
# Velocity S-wave (km/s) = 7.54649 -26.48949 -17.95472
# Velocity P-wave (km/s) = 9.07707 30.01465 20.22975
#
# Compressibility (1/GPa) = 0.07627485
#
# Stress axis : x y z
#
# Youngs Moduli (GPa) = 94.71093 74.28942 13.22281
#
# Poissons Ratio (x) = 0.62277 0.09451
# Poissons Ratio (y) = 0.79396 -0.05083
# Poissons Ratio (z) = 0.67691 -0.28560
#
# Static dielectric constant tensor:
#      x y z
#    x 1.752990 0.000000 0.000000 
#    y 0.000000 1.701190 0.000000 
#    z 0.000000 0.000000 1.731330 
# 
# From -- ./inp_files/7943.got.cif
#   From: 2010.05.17/outbox.cif.g08.bks.cpg/sg47_4_cif.got.tgz:7943.got - 2010.06.03 20:15:42.
