data_PCOD9386212
_publ_section_title
;
Structure prediction by ZEFSAII (Michael W. Deem and Ramdas Pophale) SiO2 
 PCOD9386212
Probable space group: P M M M
;
_chemical_formula_sum "Si O2"
_cell_formula_units_Z 44
_cell_length_a 18.404171
_cell_length_b 14.499405
_cell_length_c 8.816886
_cell_angle_alpha 90.000000
_cell_angle_beta 90.000000
_cell_angle_gamma 90.000000
_cell_volume 2352.781877
_symmetry_space_group_name_H-M "P M M M"
_symmetry_group_IT_number 47
_symmetry_cell_setting 'orthorhombic'
loop_
_space_group_symop_operation_xyz
x,y,z
-x,-y,z
x,-y,-z
-x,y,-z
-x,-y,-z
x,y,-z
-x,y,z
x,-y,z
loop_
_atom_site_type_symbol
_atom_site_label
_atom_site_fract_x
_atom_site_fract_y
_atom_site_fract_z
Si Si1 0.581533 0.289551 0.180724
Si Si2 0.860057 0.705458 0.819206
Si Si3 0.635008 0.894751 0.319213
Si Si4 0.000000 0.607028 0.318384
Si Si5 0.205028 0.103960 0.181089
Si Si6 0.280782 0.609763 0.320972
O O1 0.500000 0.321418 0.218210
O O2 0.590960 0.184025 0.234063
O O3 0.644176 0.347548 0.261772
O O4 0.591537 0.294943 0.000000
O O5 0.928578 0.658291 0.741341
O O6 0.849225 0.813466 0.779908
O O7 0.786343 0.655484 0.766488
O O8 0.867767 0.697773 0.000000
O O9 0.628697 0.882680 0.500000
O O10 0.719162 0.884034 0.269204
O O11 0.613431 0.000000 0.281498
O O12 0.000000 0.500000 0.267929
O O13 0.000000 0.607863 0.500000
O O14 0.178105 0.000000 0.210427
O O15 0.220553 0.111214 0.000000
O O16 0.272970 0.628966 0.500000
O O17 0.280008 0.500000 0.298467
#
# Coordination Sequence:
#
# PCOD9386212 Si02
#       6
#     8   8   8   4   8   8
#     4  11  24  40  58  83 116 155 200 250 301 353
#     4  11  22  38  64  94 122 156 197 242 293 351
#     4  10  20  34  56  86 118 154 196 243 295 351
#     4  11  25  43  62  87 122 162 201 247 302 351
#     4   9  18  34  58  88 121 156 194 236 286 348
#     4  11  24  41  62  87 116 153 196 244 302 364
#
# _framework density 18.701264999999999
#
# number of rings (size 3 to 8) (size 9 to 14) (size 15 to 20)
#    0.000    1.545    1.818    3.000    0.000    8.364 
#    0.000    4.091    0.000    2.727    0.000    0.000 
#    0.000    0.000    0.000    0.000    0.000    0.000 
#
# Total GULP energy -245888.017408 kJ/mol
# GULP energy per Si atom -5588.364032 kJ/mol
# Density = 1.865870 g / cm^3
# Si number density = 18.701265 Si / 1000 Ang^3
#
#
#
# Elastic Constant Matrix: (Units=GPa)
#
#
# Indices 1 2 3 4 5 6 
#
# 1 103.2395 51.2158 25.9165 0.0000 0.0000 0.0000
# 2 51.2158 89.1598 34.6028 0.0000 0.0000 0.0000
# 3 25.9165 34.6028 38.7163 0.0000 0.0000 0.0000
# 4 0.0000 0.0000 0.0000 30.8175 0.0000 0.0000
# 5 0.0000 0.0000 0.0000 0.0000 48.1982 0.0000
# 6 0.0000 0.0000 0.0000 0.0000 0.0000 -1.1699
#
#
#
# Elastic Compliance Matrix: (Units=1/GPa)
#
#
# Indices 1 2 3 4 5 6 
#
# 1 0.013817 -0.006656 -0.003300 0.000000 0.000000 0.000000
# 2 -0.006656 0.020379 -0.013758 0.000000 0.000000 0.000000
# 3 -0.003300 -0.013758 0.040334 0.000000 0.000000 0.000000
# 4 0.000000 0.000000 0.000000 0.032449 0.000000 0.000000
# 5 0.000000 0.000000 0.000000 0.000000 0.020748 0.000000
# 6 0.000000 0.000000 0.000000 0.000000 0.000000 -0.854748
#
#
# Mechanical properties :
#
#
# Convention : Reuss Voigt Hill
#
# Bulk Modulus (GPa) = 36.89830 50.50954 43.70392
# Shear Modulus (GPa) = -7.45645 23.52785 8.03570
#
# Velocity S-wave (km/s) = -1.99895 3.55080 2.07514
# Velocity P-wave (km/s) = 3.80072 6.62406 5.40017
#
# Compressibility (1/GPa) = 0.02710152
#
# Stress axis : x y z
#
# Youngs Moduli (GPa) = 72.37720 49.07115 24.79287
#
# Poissons Ratio (x) = 0.32661 0.08182
# Poissons Ratio (y) = 0.48173 0.34110
# Poissons Ratio (z) = 0.23885 0.67512
#
# Static dielectric constant tensor:
#      x y z
#    x 1.611870 0.000000 0.000000 
#    y 0.000000 1.657920 0.000000 
#    z 0.000000 0.000000 1.624290 
# 
# From -- ./inp_files/8997.got.cif
#   From: 2010.05.17/outbox.cif.g08.bks.cpg/sg47_5_cif.got.tgz:8997.got - 2010.06.03 20:15:42.
