data_PCOD9386148
_publ_section_title
;
Structure prediction by ZEFSAII (Michael W. Deem and Ramdas Pophale) SiO2 
 PCOD9386148
Probable space group: P M M M
;
_chemical_formula_sum "Si O2"
_cell_formula_units_Z 48
_cell_length_a 7.574711
_cell_length_b 16.696424
_cell_length_c 16.990913
_cell_angle_alpha 90.000000
_cell_angle_beta 90.000000
_cell_angle_gamma 90.000000
_cell_volume 2148.850733
_symmetry_space_group_name_H-M "P M M M"
_symmetry_group_IT_number 47
_symmetry_cell_setting 'orthorhombic'
loop_
_space_group_symop_operation_xyz
x,y,z
-x,-y,z
x,-y,-z
-x,y,-z
-x,-y,-z
x,y,-z
-x,y,z
x,-y,z
loop_
_atom_site_type_symbol
_atom_site_label
_atom_site_fract_x
_atom_site_fract_y
_atom_site_fract_z
Si Si1 0.211110 0.591445 0.000000
Si Si2 0.715504 0.907648 0.000000
Si Si3 0.791886 0.087633 0.329023
Si Si4 0.713994 0.160847 0.833446
Si Si5 0.795437 0.586973 0.327942
Si Si6 0.292429 0.658933 0.170497
Si Si7 0.215348 0.250863 0.408143
O O1 0.268041 0.634484 0.080086
O O2 0.277387 0.500000 0.000000
O O3 0.000000 0.589748 0.000000
O O4 0.773870 0.865720 0.080218
O O5 0.500000 0.905463 0.000000
O O6 0.768796 0.000000 0.000000
O O7 0.772413 0.102506 0.235839
O O8 0.718912 0.167813 0.369973
O O9 0.000000 0.085327 0.348102
O O10 0.717685 0.000000 0.350049
O O11 0.500000 0.161496 0.833984
O O12 0.776344 0.251039 0.816591
O O13 0.716381 0.500000 0.347506
O O14 0.790959 0.599896 0.233913
O O15 0.719574 0.668088 0.365844
O O16 0.000000 0.584383 0.353074
O O17 0.500000 0.658536 0.187129
O O18 0.258003 0.253215 0.500000
O O19 0.000000 0.250136 0.400419
#
# Coordination Sequence:
#
# PCOD9386148 Si02
#       7
#     4   4   8   8   8   8   8
#     4  11  24  39  55  79 112 151 194 236 281 331
#     4   9  17  30  49  73 100 133 176 221 259 304
#     4  10  20  34  55  83 113 145 183 227 277 332
#     4  10  20  35  55  78 107 145 187 227 272 329
#     4  10  20  35  57  83 111 145 186 231 281 337
#     4  11  22  36  56  81 111 149 192 235 280 330
#     4   9  18  34  56  82 113 145 179 227 283 337
#
# _framework density 22.337520999999999
#
# number of rings (size 3 to 8) (size 9 to 14) (size 15 to 20)
#    0.000    2.000    1.667    2.250    0.000    6.667 
#    0.000    3.750    0.000    3.500    0.000    2.333 
#    0.000    0.000    0.000    0.000    0.000    0.000 
#
# Total GULP energy -268208.521633 kJ/mol
# GULP energy per Si atom -5587.677534 kJ/mol
# Density = 2.228668 g / cm^3
# Si number density = 22.337521 Si / 1000 Ang^3
#
#
#
# Elastic Constant Matrix: (Units=GPa)
#
#
# Indices 1 2 3 4 5 6 
#
# 1 56.8968 10.4328 -8.0306 0.0000 0.0000 0.0000
# 2 10.4328 214.7193 68.9875 0.0000 0.0000 0.0000
# 3 -8.0306 68.9875 110.5936 0.0000 0.0000 0.0000
# 4 0.0000 0.0000 0.0000 -53.9512 0.0000 0.0000
# 5 0.0000 0.0000 0.0000 0.0000 -7.0140 0.0000
# 6 0.0000 0.0000 0.0000 0.0000 0.0000 -3.8196
#
#
#
# Elastic Compliance Matrix: (Units=1/GPa)
#
#
# Indices 1 2 3 4 5 6 
#
# 1 0.018207 -0.001638 0.002344 0.000000 0.000000 0.000000
# 2 -0.001638 0.005972 -0.003844 0.000000 0.000000 0.000000
# 3 0.002344 -0.003844 0.011610 0.000000 0.000000 0.000000
# 4 0.000000 0.000000 0.000000 -0.018535 0.000000 0.000000
# 5 0.000000 0.000000 0.000000 0.000000 -0.142572 0.000000
# 6 0.000000 0.000000 0.000000 0.000000 0.000000 -0.261811
#
#
# Mechanical properties :
#
#
# Convention : Reuss Voigt Hill
#
# Bulk Modulus (GPa) = 33.88392 58.33214 46.10803
# Shear Modulus (GPa) = -13.47654 7.76439 -2.85607
#
# Velocity S-wave (km/s) = -2.45891 1.86641 -1.13198
# Velocity P-wave (km/s) = 2.67214 5.55115 4.35635
#
# Compressibility (1/GPa) = 0.02951252
#
# Stress axis : x y z
#
# Youngs Moduli (GPa) = 54.92475 167.45086 86.13094
#
# Poissons Ratio (x) = 0.27422 -0.20185
# Poissons Ratio (y) = 0.08994 0.33110
# Poissons Ratio (z) = -0.12872 0.64370
#
# Static dielectric constant tensor:
#      x y z
#    x 1.837430 0.000000 0.000000 
#    y 0.000000 1.837390 0.000000 
#    z 0.000000 0.000000 1.781470 
# 
# From -- ./inp_files/26506.got.cif
#   From: 2010.05.17/outbox.cif.g08.bks.cpg/sg47_14_cif.got.tgz:26506.got - 2010.06.03 20:15:42.
