data_PCOD9386335
_publ_section_title
;
Structure prediction by ZEFSAII (Michael W. Deem and Ramdas Pophale) SiO2 
 PCOD9386335
Probable space group: P M M M
;
_chemical_formula_sum "Si O2"
_cell_formula_units_Z 64
_cell_length_a 19.901492
_cell_length_b 19.951104
_cell_length_c 7.613251
_cell_angle_alpha 90.000000
_cell_angle_beta 90.000000
_cell_angle_gamma 90.000000
_cell_volume 3022.892597
_symmetry_space_group_name_H-M "P M M M"
_symmetry_group_IT_number 47
_symmetry_cell_setting 'orthorhombic'
loop_
_space_group_symop_operation_xyz
x,y,z
-x,-y,z
x,-y,-z
-x,y,-z
-x,-y,-z
x,y,-z
-x,y,z
x,-y,z
loop_
_atom_site_type_symbol
_atom_site_label
_atom_site_fract_x
_atom_site_fract_y
_atom_site_fract_z
Si Si1 0.824178 0.306712 0.201440
Si Si2 0.422889 0.805609 0.715447
Si Si3 0.574466 0.577791 0.212042
Si Si4 0.323304 0.311878 0.700700
Si Si5 0.798099 0.160756 0.799866
Si Si6 0.921978 0.423748 0.785635
Si Si7 0.667803 0.924226 0.706930
Si Si8 0.926210 0.921395 0.288089
O O1 0.746133 0.327246 0.203637
O O2 0.819047 0.232141 0.282707
O O3 0.872068 0.364830 0.276666
O O4 0.847693 0.297618 0.000000
O O5 0.423084 0.803856 0.500000
O O6 0.500000 0.794878 0.771506
O O7 0.369946 0.748354 0.772571
O O8 0.391989 0.876693 0.774865
O O9 0.500000 0.601146 0.264791
O O10 0.580929 0.500000 0.258821
O O11 0.630564 0.623257 0.294009
O O12 0.578604 0.582387 0.000000
O O13 0.306170 0.294347 0.500000
O O14 0.736729 0.118174 0.722673
O O15 0.864453 0.116398 0.794329
O O16 0.777209 0.174899 0.000000
O O17 0.904360 0.500000 0.729071
O O18 0.000000 0.411160 0.737477
O O19 0.919110 0.424507 0.000000
O O20 0.655208 0.931043 0.500000
O O21 0.673260 0.000000 0.780070
O O22 0.921228 0.915794 0.500000
O O23 0.000000 0.896099 0.235193
O O24 0.922827 0.000000 0.245647
#
# Coordination Sequence:
#
# PCOD9386335 Si02
#       8
#     8   8   8   8   8   8   8   8
#     4  10  21  35  53  79 110 143 180 218 263 322
#     4   9  18  33  53  78 105 134 173 223 278 327
#     4   9  19  36  56  78 107 144 183 222 267 324
#     4  11  21  34  54  79 111 146 179 226 275 320
#     4  11  22  34  51  77 111 145 177 221 271 322
#     4   8  15  31  56  82 105 133 174 222 266 308
#     4  10  20  35  56  78 102 138 181 224 273 331
#     4   9  19  36  56  77 103 138 180 223 268 325
#
# _framework density 21.171773000000002
#
# number of rings (size 3 to 8) (size 9 to 14) (size 15 to 20)
#    0.000    2.375    1.250    2.625    0.000    5.000 
#    0.000    5.000    0.000    1.500    0.000    1.750 
#    0.000    0.000    0.000    0.000    0.000    0.000 
#
# Total GULP energy -357067.377154 kJ/mol
# GULP energy per Si atom -5579.177768 kJ/mol
# Density = 2.112359 g / cm^3
# Si number density = 21.171773 Si / 1000 Ang^3
#
#
#
# Elastic Constant Matrix: (Units=GPa)
#
#
# Indices 1 2 3 4 5 6 
#
# 1 123.6150 66.2447 2.0177 0.0000 0.0000 0.0000
# 2 66.2447 107.4050 7.0990 0.0000 0.0000 0.0000
# 3 2.0177 7.0990 39.4344 0.0000 0.0000 0.0000
# 4 0.0000 0.0000 0.0000 13.9345 0.0000 0.0000
# 5 0.0000 0.0000 0.0000 0.0000 9.5042 0.0000
# 6 0.0000 0.0000 0.0000 0.0000 0.0000 43.6838
#
#
#
# Elastic Compliance Matrix: (Units=1/GPa)
#
#
# Indices 1 2 3 4 5 6 
#
# 1 0.012104 -0.007514 0.000733 0.000000 0.000000 0.000000
# 2 -0.007514 0.014087 -0.002152 0.000000 0.000000 0.000000
# 3 0.000733 -0.002152 0.025708 0.000000 0.000000 0.000000
# 4 0.000000 0.000000 0.000000 0.071764 0.000000 0.000000
# 5 0.000000 0.000000 0.000000 0.000000 0.105216 0.000000
# 6 0.000000 0.000000 0.000000 0.000000 0.000000 0.022892
#
#
# Mechanical properties :
#
#
# Convention : Reuss Voigt Hill
#
# Bulk Modulus (GPa) = 29.38115 46.79747 38.08931
# Shear Modulus (GPa) = 17.79472 26.43071 22.11272
#
# Velocity S-wave (km/s) = 2.90227 3.53709 3.23529
# Velocity P-wave (km/s) = 5.01383 6.23162 5.65560
#
# Compressibility (1/GPa) = 0.03403542
#
# Stress axis : x y z
#
# Youngs Moduli (GPa) = 82.61393 70.98568 38.89787
#
# Poissons Ratio (x) = 0.53340 -0.02853
# Poissons Ratio (y) = 0.62078 0.08369
# Poissons Ratio (z) = -0.06059 0.15273
#
# Static dielectric constant tensor:
#      x y z
#    x 1.728790 0.000000 0.000000 
#    y 0.000000 1.776190 0.000000 
#    z 0.000000 0.000000 1.852180 
# 
# From -- ./inp_files/10045.got.cif
#   From: 2010.05.17/outbox.cif.g08.bks.cpg/sg47_6_cif.got.tgz:10045.got - 2010.06.03 20:15:42.
