data_PCOD9386910
_publ_section_title
;
Structure prediction by ZEFSAII (Michael W. Deem and Ramdas Pophale) SiO2 
 PCOD9386910
Probable space group: P M M M
;
_chemical_formula_sum "Si O2"
_cell_formula_units_Z 52
_cell_length_a 20.535888
_cell_length_b 14.504749
_cell_length_c 9.968838
_cell_angle_alpha 90.000000
_cell_angle_beta 90.000000
_cell_angle_gamma 90.000000
_cell_volume 2969.396850
_symmetry_space_group_name_H-M "P M M M"
_symmetry_group_IT_number 47
_symmetry_cell_setting 'orthorhombic'
loop_
_space_group_symop_operation_xyz
x,y,z
-x,-y,z
x,-y,-z
-x,y,-z
-x,-y,-z
x,y,-z
-x,y,z
x,-y,z
loop_
_atom_site_type_symbol
_atom_site_label
_atom_site_fract_x
_atom_site_fract_y
_atom_site_fract_z
Si Si1 0.425673 0.611323 0.156594
Si Si2 0.334181 0.105078 0.758509
Si Si3 0.830331 0.724273 0.660482
Si Si4 0.572319 0.111558 0.000000
Si Si5 0.076192 0.610645 0.152520
Si Si6 0.814482 0.894686 0.846485
Si Si7 0.679196 0.702438 0.350384
O O1 0.500000 0.637472 0.195444
O O2 0.421661 0.500000 0.165581
O O3 0.370183 0.656099 0.247257
O O4 0.416576 0.636284 0.000000
O O5 0.387857 0.133769 0.867226
O O6 0.264095 0.104288 0.831748
O O7 0.331375 0.186914 0.652664
O O8 0.346197 0.000000 0.710933
O O9 0.839567 0.731016 0.500000
O O10 0.879819 0.656567 0.734687
O O11 0.838011 0.822337 0.735985
O O12 0.755659 0.690914 0.683824
O O13 0.500000 0.150169 0.000000
O O14 0.568853 0.000000 0.000000
O O15 0.081006 0.500000 0.160107
O O16 0.000000 0.634952 0.169129
O O17 0.095840 0.637772 0.000000
O O18 0.836593 0.000000 0.823018
O O19 0.830940 0.868749 0.000000
O O20 0.667746 0.666577 0.500000
#
# Coordination Sequence:
#
# PCOD9386910 Si02
#       7
#     8   8   8   4   8   8   8
#     4   9  20  39  59  76  94 123 169 222 272 320
#     4   9  17  30  47  69 100 134 170 212 256 305
#     4  10  21  34  50  78 114 146 175 212 259 312
#     4   9  16  26  42  66  93 123 164 213 261 305
#     4   9  19  37  60  84 109 139 176 215 257 310
#     4   9  16  29  51  74  99 136 181 224 262 303
#     4  10  22  35  50  77 108 139 174 212 258 312
#
# _framework density 17.511973000000001
#
# number of rings (size 3 to 8) (size 9 to 14) (size 15 to 20)
#    0.000    2.692    0.769    1.385    1.077    4.308 
#    0.000    7.692    0.000    0.462    0.000    6.462 
#    0.000    0.000    0.000    0.000    0.000    0.000 
#
# Total GULP energy -289800.765515 kJ/mol
# GULP energy per Si atom -5573.091645 kJ/mol
# Density = 1.747212 g / cm^3
# Si number density = 17.511973 Si / 1000 Ang^3
#
#
#
# Elastic Constant Matrix: (Units=GPa)
#
#
# Indices 1 2 3 4 5 6 
#
# 1 78.0358 44.7074 69.0066 0.0000 0.0000 0.0000
# 2 44.7074 57.5490 52.1099 0.0000 0.0000 0.0000
# 3 69.0066 52.1099 122.5942 0.0000 0.0000 0.0000
# 4 0.0000 0.0000 0.0000 10.0537 0.0000 0.0000
# 5 0.0000 0.0000 0.0000 0.0000 19.3217 0.0000
# 6 0.0000 0.0000 0.0000 0.0000 0.0000 16.3819
#
#
#
# Elastic Compliance Matrix: (Units=1/GPa)
#
#
# Indices 1 2 3 4 5 6 
#
# 1 0.030755 -0.013359 -0.011634 0.000000 0.000000 0.000000
# 2 -0.013359 0.034051 -0.006955 0.000000 0.000000 0.000000
# 3 -0.011634 -0.006955 0.017662 0.000000 0.000000 0.000000
# 4 0.000000 0.000000 0.000000 0.099466 0.000000 0.000000
# 5 0.000000 0.000000 0.000000 0.000000 0.051755 0.000000
# 6 0.000000 0.000000 0.000000 0.000000 0.000000 0.061043
#
#
# Mechanical properties :
#
#
# Convention : Reuss Voigt Hill
#
# Bulk Modulus (GPa) = 53.83598 65.53631 59.68615
# Shear Modulus (GPa) = 13.70548 15.30846 14.50697
#
# Velocity S-wave (km/s) = 2.80060 2.95985 2.88132
# Velocity P-wave (km/s) = 6.42393 7.01326 6.72506
#
# Compressibility (1/GPa) = 0.01857494
#
# Stress axis : x y z
#
# Youngs Moduli (GPa) = 32.51463 29.36729 56.62028
#
# Poissons Ratio (x) = 0.39230 0.65870
# Poissons Ratio (y) = 0.43435 0.39377
# Poissons Ratio (z) = 0.37826 0.20424
#
# Static dielectric constant tensor:
#      x y z
#    x 1.580510 0.000000 0.000000 
#    y 0.000000 1.617110 0.000000 
#    z 0.000000 0.000000 1.580860 
# 
# From -- ./inp_files/11011.got.cif
#   From: 2010.05.17/outbox.cif.g08.bks.cpg/sg47_6_cif.got.tgz:11011.got - 2010.06.03 20:15:42.
