data_PCOD9386996
_publ_section_title
;
Structure prediction by ZEFSAII (Michael W. Deem and Ramdas Pophale) SiO2 
 PCOD9386996
Probable space group: P M M M
;
_chemical_formula_sum "Si O2"
_cell_formula_units_Z 48
_cell_length_a 21.343114
_cell_length_b 7.954001
_cell_length_c 14.955684
_cell_angle_alpha 90.000000
_cell_angle_beta 90.000000
_cell_angle_gamma 90.000000
_cell_volume 2538.924028
_symmetry_space_group_name_H-M "P M M M"
_symmetry_group_IT_number 47
_symmetry_cell_setting 'orthorhombic'
loop_
_space_group_symop_operation_xyz
x,y,z
-x,-y,z
x,-y,-z
-x,y,-z
-x,-y,-z
x,y,-z
-x,y,z
x,-y,z
loop_
_atom_site_type_symbol
_atom_site_label
_atom_site_fract_x
_atom_site_fract_y
_atom_site_fract_z
Si Si1 0.811182 0.297277 0.897929
Si Si2 0.931856 0.700382 0.790121
Si Si3 0.114179 0.203011 0.599348
Si Si4 0.738969 0.795060 0.401413
Si Si5 0.570648 0.297497 0.898499
Si Si6 0.310528 0.200071 0.784862
O O1 0.815367 0.500000 0.900725
O O2 0.871788 0.231946 0.843783
O O3 0.747515 0.255780 0.846230
O O4 0.809989 0.235587 0.000000
O O5 0.932825 0.500000 0.805258
O O6 0.921905 0.729490 0.684719
O O7 0.000000 0.768700 0.817260
O O8 0.093235 0.257475 0.500000
O O9 0.187641 0.249779 0.609161
O O10 0.110597 0.000000 0.601489
O O11 0.718110 0.738044 0.500000
O O12 0.700876 0.733419 0.315683
O O13 0.736962 0.000000 0.402130
O O14 0.500000 0.239525 0.876266
O O15 0.569307 0.500000 0.901058
O O16 0.624183 0.247698 0.829921
O O17 0.585463 0.239433 0.000000
O O18 0.307926 0.000000 0.779828
#
# Coordination Sequence:
#
# PCOD9386996 Si02
#       6
#     8   8   8   8   8   8
#     4  10  21  36  52  70  96 132 171 208 250 306
#     4  10  21  35  50  70  97 129 167 214 261 299
#     4   9  17  32  53  73  96 129 166 202 247 307
#     4   8  15  29  49  73 101 131 162 199 245 296
#     4   9  19  36  55  75 105 145 178 201 237 294
#     4  11  20  31  54  83 106 129 163 211 256 291
#
# _framework density 18.905647999999999
#
# number of rings (size 3 to 8) (size 9 to 14) (size 15 to 20)
#    0.000    2.500    1.667    2.500    0.000    4.333 
#    0.000    4.167    0.000    2.500    0.000    5.833 
#    0.000    0.000    0.000    0.000    0.000    0.000 
#
# Total GULP energy -267762.319196 kJ/mol
# GULP energy per Si atom -5578.381650 kJ/mol
# Density = 1.886262 g / cm^3
# Si number density = 18.905648 Si / 1000 Ang^3
#
#
#
# Elastic Constant Matrix: (Units=GPa)
#
#
# Indices 1 2 3 4 5 6 
#
# 1 125.2503 7.2266 88.1651 0.0000 0.0000 0.0000
# 2 7.2266 16.2704 6.8645 0.0000 0.0000 0.0000
# 3 88.1651 6.8645 144.2307 0.0000 0.0000 0.0000
# 4 0.0000 0.0000 0.0000 22.0833 0.0000 0.0000
# 5 0.0000 0.0000 0.0000 0.0000 -5.1716 0.0000
# 6 0.0000 0.0000 0.0000 0.0000 0.0000 -1.4810
#
#
#
# Elastic Compliance Matrix: (Units=1/GPa)
#
#
# Indices 1 2 3 4 5 6 
#
# 1 0.014128 -0.002685 -0.008508 0.000000 0.000000 0.000000
# 2 -0.002685 0.063231 -0.001368 0.000000 0.000000 0.000000
# 3 -0.008508 -0.001368 0.012199 0.000000 0.000000 0.000000
# 4 0.000000 0.000000 0.000000 0.045283 0.000000 0.000000
# 5 0.000000 0.000000 0.000000 0.000000 -0.193363 0.000000
# 6 0.000000 0.000000 0.000000 0.000000 0.000000 -0.675197
#
#
# Mechanical properties :
#
#
# Convention : Reuss Voigt Hill
#
# Bulk Modulus (GPa) = 15.51940 54.47376 34.99658
# Shear Modulus (GPa) = -7.27679 15.31914 4.02117
#
# Velocity S-wave (km/s) = -1.96402 2.84965 1.46000
# Velocity P-wave (km/s) = 1.75600 6.30106 4.62531
#
# Compressibility (1/GPa) = 0.06443546
#
# Stress axis : x y z
#
# Youngs Moduli (GPa) = 70.78089 15.81494 81.97098
#
# Poissons Ratio (x) = 0.04247 0.69744
# Poissons Ratio (y) = 0.19007 0.11213
# Poissons Ratio (z) = 0.60223 0.02163
#
# Static dielectric constant tensor:
#      x y z
#    x 1.653300 0.000000 0.000000 
#    y 0.000000 1.688440 0.000000 
#    z 0.000000 0.000000 1.671720 
# 
# From -- ./inp_files/6338.got.cif
#   From: 2010.05.17/outbox.cif.g08.bks.cpg/sg47_4_cif.got.tgz:6338.got - 2010.06.03 20:15:42.
