data_PCOD9386923
_publ_section_title
;
Structure prediction by ZEFSAII (Michael W. Deem and Ramdas Pophale) SiO2 
 PCOD9386923
Probable space group: P M M M
;
_chemical_formula_sum "Si O2"
_cell_formula_units_Z 33
_cell_length_a 7.400984
_cell_length_b 9.663698
_cell_length_c 20.567908
_cell_angle_alpha 90.000000
_cell_angle_beta 90.000000
_cell_angle_gamma 90.000000
_cell_volume 1471.034762
_symmetry_space_group_name_H-M "P M M M"
_symmetry_group_IT_number 47
_symmetry_cell_setting 'orthorhombic'
loop_
_space_group_symop_operation_xyz
x,y,z
-x,-y,z
x,-y,-z
-x,y,-z
-x,-y,-z
x,y,-z
-x,y,z
x,-y,z
loop_
_atom_site_type_symbol
_atom_site_label
_atom_site_fract_x
_atom_site_fract_y
_atom_site_fract_z
Si Si1 0.000000 0.000000 0.500000
Si Si2 0.211415 0.155076 0.243017
Si Si3 0.717493 0.252612 0.500000
Si Si4 0.220045 0.160232 0.000000
Si Si5 0.283755 0.649048 0.642390
Si Si6 0.220887 0.340629 0.875195
O O1 0.841507 0.880881 0.500000
O O2 0.222312 0.223724 0.313760
O O3 0.284200 0.262878 0.190015
O O4 0.000000 0.142088 0.227166
O O5 0.288538 0.000000 0.240881
O O6 0.500000 0.223946 0.500000
O O7 0.758769 0.332631 0.566695
O O8 0.274920 0.246483 0.936424
O O9 0.000000 0.156717 0.000000
O O10 0.279831 0.000000 0.000000
O O11 0.500000 0.647800 0.647667
O O12 0.214931 0.500000 0.666495
O O13 0.280717 0.500000 0.879342
O O14 0.000000 0.344923 0.875121
#
# Coordination Sequence:
#
# PCOD9386923 Si02
#       6
#     1   8   4   4   8   8
#     4  12  26  40  66  98 128 160 204 242 312 370
#     4  10  21  34  52  79 113 145 184 236 291 347
#     4  10  24  43  65  91 126 161 202 254 302 358
#     4   9  15  23  39  63  98 139 182 227 284 347
#     4  10  22  41  62  83 112 152 193 239 295 352
#     4   9  16  27  43  67 100 141 184 230 283 343
#
# _framework density 22.433187
#
# number of rings (size 3 to 8) (size 9 to 14) (size 15 to 20)
#    0.000    2.303    0.000    2.364    3.394    7.758 
#    0.000    0.606    0.000    0.000    0.000    0.848 
#    0.000    6.788    0.000    0.000    0.000    0.000 
#
# Total GULP energy -184090.949154 kJ/mol
# GULP energy per Si atom -5578.513611 kJ/mol
# Density = 2.238213 g / cm^3
# Si number density = 22.433187 Si / 1000 Ang^3
#
#
#
# Elastic Constant Matrix: (Units=GPa)
#
#
# Indices 1 2 3 4 5 6 
#
# 1 71.1551 18.5827 -2.3522 0.0000 0.0000 0.0000
# 2 18.5827 235.2215 83.8001 0.0000 0.0000 0.0000
# 3 -2.3522 83.8001 140.8032 0.0000 0.0000 0.0000
# 4 0.0000 0.0000 0.0000 102.3165 0.0000 0.0000
# 5 0.0000 0.0000 0.0000 0.0000 22.6678 0.0000
# 6 0.0000 0.0000 0.0000 0.0000 0.0000 5.8807
#
#
#
# Elastic Compliance Matrix: (Units=1/GPa)
#
#
# Indices 1 2 3 4 5 6 
#
# 1 0.014501 -0.001563 0.001173 0.000000 0.000000 0.000000
# 2 -0.001563 0.005564 -0.003337 0.000000 0.000000 0.000000
# 3 0.001173 -0.003337 0.009108 0.000000 0.000000 0.000000
# 4 0.000000 0.000000 0.000000 0.009774 0.000000 0.000000
# 5 0.000000 0.000000 0.000000 0.000000 0.044115 0.000000
# 6 0.000000 0.000000 0.000000 0.000000 0.000000 0.170047
#
#
# Mechanical properties :
#
#
# Convention : Reuss Voigt Hill
#
# Bulk Modulus (GPa) = 46.04807 71.91565 58.98186
# Shear Modulus (GPa) = 18.67035 49.31627 33.99331
#
# Velocity S-wave (km/s) = 2.88803 4.69376 3.89693
# Velocity P-wave (km/s) = 5.62959 7.84235 6.82623
#
# Compressibility (1/GPa) = 0.02171644
#
# Stress axis : x y z
#
# Youngs Moduli (GPa) = 68.96142 179.73231 109.79324
#
# Poissons Ratio (x) = 0.28099 -0.12875
# Poissons Ratio (y) = 0.10781 0.36643
# Poissons Ratio (z) = -0.08087 0.59985
#
# Static dielectric constant tensor:
#      x y z
#    x 1.876210 0.000000 0.000000 
#    y 0.000000 1.800720 0.000000 
#    z 0.000000 0.000000 1.799640 
# 
# From -- ./inp_files/29135.got.cif
#   From: 2010.05.17/outbox.cif.g08.bks.cpg/sg47_15_cif.got.tgz:29135.got - 2010.06.03 20:15:42.
