data_PCOD9386441
_publ_section_title
;
Structure prediction by ZEFSAII (Michael W. Deem and Ramdas Pophale) SiO2 
 PCOD9386441
Probable space group: P M M M
;
_chemical_formula_sum "Si O2"
_cell_formula_units_Z 48
_cell_length_a 7.826139
_cell_length_b 35.526164
_cell_length_c 9.064848
_cell_angle_alpha 90.000000
_cell_angle_beta 90.000000
_cell_angle_gamma 90.000000
_cell_volume 2520.324143
_symmetry_space_group_name_H-M "P M M M"
_symmetry_group_IT_number 47
_symmetry_cell_setting 'orthorhombic'
loop_
_space_group_symop_operation_xyz
x,y,z
-x,-y,z
x,-y,-z
-x,y,-z
-x,-y,-z
x,y,-z
-x,y,z
x,-y,z
loop_
_atom_site_type_symbol
_atom_site_label
_atom_site_fract_x
_atom_site_fract_y
_atom_site_fract_z
Si Si1 0.500000 0.829602 0.820399
Si Si2 0.795787 0.382677 0.834711
Si Si3 0.500000 0.742187 0.821924
Si Si4 0.810923 0.118499 0.822549
Si Si5 0.203329 0.693772 0.676040
Si Si6 0.294262 0.458338 0.669079
Si Si7 0.293766 0.958215 0.326313
O O1 0.500000 0.786121 0.777933
O O2 0.334519 0.852905 0.770127
O O3 0.500000 0.830076 0.000000
O O4 0.744104 0.348008 0.731041
O O5 0.755397 0.423300 0.768253
O O6 0.000000 0.380264 0.843543
O O7 0.724784 0.378413 0.000000
O O8 0.330720 0.722306 0.757213
O O9 0.500000 0.739277 0.000000
O O10 0.781414 0.076889 0.759692
O O11 0.000000 0.131759 0.781858
O O12 0.800070 0.116450 0.000000
O O13 0.222839 0.696465 0.500000
O O14 0.000000 0.699538 0.710211
O O15 0.234771 0.452734 0.500000
O O16 0.500000 0.459318 0.665703
O O17 0.235448 0.500000 0.718507
O O18 0.252507 0.955101 0.500000
O O19 0.500000 0.956605 0.313102
O O20 0.239108 0.000000 0.275826
#
# Coordination Sequence:
#
# PCOD9386441 Si02
#       7
#     4   8   4   8   8   8   8
#     4   9  20  39  58  82 115 147 183 228 282 340
#     4  10  21  36  55  81 112 145 183 230 282 334
#     4  11  23  39  65  94 117 150 192 236 294 354
#     4  10  20  35  57  83 111 147 191 234 278 332
#     4  10  22  41  63  88 120 155 192 236 288 349
#     4   9  19  35  53  75 106 146 190 232 275 328
#     4   9  18  33  53  78 110 149 191 235 284 334
#
# _framework density 19.045169999999999
#
# number of rings (size 3 to 8) (size 9 to 14) (size 15 to 20)
#    0.000    2.333    0.833    2.250    1.167    4.667 
#    0.000    8.333    0.000    0.000    0.000    0.000 
#    0.000    0.000    0.000    0.000    0.000    0.000 
#
# Total GULP energy -267843.215579 kJ/mol
# GULP energy per Si atom -5580.066991 kJ/mol
# Density = 1.900182 g / cm^3
# Si number density = 19.045170 Si / 1000 Ang^3
#
#
#
# Elastic Constant Matrix: (Units=GPa)
#
#
# Indices 1 2 3 4 5 6 
#
# 1 93.7331 74.3503 45.9180 0.0000 0.0000 0.0000
# 2 74.3503 166.9650 54.5789 0.0000 0.0000 0.0000
# 3 45.9180 54.5789 60.9356 0.0000 0.0000 0.0000
# 4 0.0000 0.0000 0.0000 50.3935 0.0000 0.0000
# 5 0.0000 0.0000 0.0000 0.0000 23.0463 0.0000
# 6 0.0000 0.0000 0.0000 0.0000 0.0000 -17.0330
#
#
#
# Elastic Compliance Matrix: (Units=1/GPa)
#
#
# Indices 1 2 3 4 5 6 
#
# 1 0.020087 -0.005651 -0.010074 0.000000 0.000000 0.000000
# 2 -0.005651 0.010059 -0.004751 0.000000 0.000000 0.000000
# 3 -0.010074 -0.004751 0.028258 0.000000 0.000000 0.000000
# 4 0.000000 0.000000 0.000000 0.019844 0.000000 0.000000
# 5 0.000000 0.000000 0.000000 0.000000 0.043391 0.000000
# 6 0.000000 0.000000 0.000000 0.000000 0.000000 -0.058709
#
#
# Mechanical properties :
#
#
# Convention : Reuss Voigt Hill
#
# Bulk Modulus (GPa) = 57.30772 74.59200 65.94986
# Shear Modulus (GPa) = 45.57952 21.06713 33.32333
#
# Velocity S-wave (km/s) = 4.89737 3.32952 4.18748
# Velocity P-wave (km/s) = 7.88256 7.35063 7.62124
#
# Compressibility (1/GPa) = 0.01744965
#
# Stress axis : x y z
#
# Youngs Moduli (GPa) = 49.78436 99.41419 35.38875
#
# Poissons Ratio (x) = 0.56184 0.35652
# Poissons Ratio (y) = 0.28136 0.16813
# Poissons Ratio (z) = 0.50154 0.47231
#
# Static dielectric constant tensor:
#      x y z
#    x 1.686170 0.000000 0.000000 
#    y 0.000000 1.639850 0.000000 
#    z 0.000000 0.000000 1.650900 
# 
# From -- ./inp_files/2709.got.cif
#   From: 2010.05.17/outbox.cif.g08.bks.cpg/sg47_2_cif.got.tgz:2709.got - 2010.06.03 20:15:42.
