data_PCOD9386819
_publ_section_title
;
Structure prediction by ZEFSAII (Michael W. Deem and Ramdas Pophale) SiO2 
 PCOD9386819
Probable space group: P M M M
;
_chemical_formula_sum "Si O2"
_cell_formula_units_Z 52
_cell_length_a 20.353651
_cell_length_b 16.014545
_cell_length_c 9.219811
_cell_angle_alpha 90.000000
_cell_angle_beta 90.000000
_cell_angle_gamma 90.000000
_cell_volume 3005.238514
_symmetry_space_group_name_H-M "P M M M"
_symmetry_group_IT_number 47
_symmetry_cell_setting 'orthorhombic'
loop_
_space_group_symop_operation_xyz
x,y,z
-x,-y,z
x,-y,-z
-x,y,-z
-x,-y,-z
x,y,-z
-x,y,z
x,-y,z
loop_
_atom_site_type_symbol
_atom_site_label
_atom_site_fract_x
_atom_site_fract_y
_atom_site_fract_z
Si Si1 0.267701 0.591877 0.174180
Si Si2 0.072072 0.099548 0.163500
Si Si3 0.865488 0.364398 0.665889
Si Si4 0.424047 0.905500 0.823488
Si Si5 0.186958 0.823830 0.663264
Si Si6 0.315796 0.773040 0.174822
Si Si7 0.000000 0.399693 0.166039
O O1 0.296958 0.500000 0.206487
O O2 0.196419 0.595987 0.249990
O O3 0.309210 0.674669 0.217842
O O4 0.258482 0.597064 0.000000
O O5 0.131192 0.119806 0.267877
O O6 0.000000 0.131157 0.211395
O O7 0.067791 0.000000 0.153936
O O8 0.084358 0.132186 0.000000
O O9 0.870979 0.395434 0.500000
O O10 0.845865 0.267504 0.659837
O O11 0.933743 0.374373 0.750228
O O12 0.500000 0.894174 0.779233
O O13 0.377601 0.829155 0.776102
O O14 0.403001 0.000000 0.779312
O O15 0.423084 0.905281 0.000000
O O16 0.204630 0.848415 0.500000
O O17 0.251013 0.816867 0.762245
O O18 0.314738 0.774828 0.000000
O O19 0.000000 0.500000 0.160680
O O20 0.000000 0.367813 0.000000
#
# Coordination Sequence:
#
# PCOD9386819 Si02
#       7
#     8   8   8   8   8   8   4
#     4   9  17  30  47  66  91 124 162 201 241 289
#     4   9  19  35  52  69  89 118 160 204 243 289
#     4  10  21  34  47  66  91 119 154 197 245 296
#     4   8  14  26  47  76 105 130 159 196 236 280
#     4  10  21  34  48  69  97 124 155 197 245 293
#     4   9  17  30  49  72  97 127 163 200 241 287
#     4  11  23  35  47  65  88 115 150 193 243 296
#
# _framework density 17.303118000000001
#
# number of rings (size 3 to 8) (size 9 to 14) (size 15 to 20)
#    0.000    2.692    0.000    2.538    1.077    5.846 
#    0.000    2.308    0.000    0.923    0.000    4.308 
#    0.000    0.000    0.000    7.692    0.000    8.000 
#
# Total GULP energy -289583.105860 kJ/mol
# GULP energy per Si atom -5568.905882 kJ/mol
# Density = 1.726374 g / cm^3
# Si number density = 17.303118 Si / 1000 Ang^3
#
#
#
# Elastic Constant Matrix: (Units=GPa)
#
#
# Indices 1 2 3 4 5 6 
#
# 1 94.3594 63.6097 22.5249 0.0000 0.0000 0.0000
# 2 63.6097 85.8721 24.2968 0.0000 0.0000 0.0000
# 3 22.5249 24.2968 29.9541 0.0000 0.0000 0.0000
# 4 0.0000 0.0000 0.0000 12.9162 0.0000 0.0000
# 5 0.0000 0.0000 0.0000 0.0000 -2.1841 0.0000
# 6 0.0000 0.0000 0.0000 0.0000 0.0000 -39.8825
#
#
#
# Elastic Compliance Matrix: (Units=1/GPa)
#
#
# Indices 1 2 3 4 5 6 
#
# 1 0.021574 -0.014783 -0.004232 0.000000 0.000000 0.000000
# 2 -0.014783 0.025244 -0.009360 0.000000 0.000000 0.000000
# 3 -0.004232 -0.009360 0.044158 0.000000 0.000000 0.000000
# 4 0.000000 0.000000 0.000000 0.077422 0.000000 0.000000
# 5 0.000000 0.000000 0.000000 0.000000 -0.457862 0.000000
# 6 0.000000 0.000000 0.000000 0.000000 0.000000 -0.025074
#
#
# Mechanical properties :
#
#
# Convention : Reuss Voigt Hill
#
# Bulk Modulus (GPa) = 29.21673 47.89427 38.55550
# Shear Modulus (GPa) = -20.29400 0.82020 -9.73690
#
# Velocity S-wave (km/s) = -3.42841 0.68924 -2.37476
# Velocity P-wave (km/s) = 1.11800 5.32664 3.84857
#
# Compressibility (1/GPa) = 0.03422696
#
# Stress axis : x y z
#
# Youngs Moduli (GPa) = 46.35256 39.61299 22.64574
#
# Poissons Ratio (x) = 0.58562 0.09583
# Poissons Ratio (y) = 0.68525 0.21195
# Poissons Ratio (z) = 0.19615 0.37076
#
# Static dielectric constant tensor:
#      x y z
#    x 1.558550 0.000000 0.000000 
#    y 0.000000 1.636850 0.000000 
#    z 0.000000 0.000000 1.592890 
# 
# From -- ./inp_files/7094.got.cif
#   From: 2010.05.17/outbox.cif.g08.bks.cpg/sg47_4_cif.got.tgz:7094.got - 2010.06.03 20:15:42.
