data_PCOD9386235
_publ_section_title
;
Structure prediction by ZEFSAII (Michael W. Deem and Ramdas Pophale) SiO2 
 PCOD9386235
Probable space group: P M M M
;
_chemical_formula_sum "Si O2"
_cell_formula_units_Z 47
_cell_length_a 10.483090
_cell_length_b 28.148787
_cell_length_c 7.373773
_cell_angle_alpha 90.000000
_cell_angle_beta 90.000000
_cell_angle_gamma 90.000000
_cell_volume 2175.899152
_symmetry_space_group_name_H-M "P M M M"
_symmetry_group_IT_number 47
_symmetry_cell_setting 'orthorhombic'
loop_
_space_group_symop_operation_xyz
x,y,z
-x,-y,z
x,-y,-z
-x,y,-z
-x,-y,-z
x,y,-z
-x,y,z
x,-y,z
loop_
_atom_site_type_symbol
_atom_site_label
_atom_site_fract_x
_atom_site_fract_y
_atom_site_fract_z
Si Si1 0.500000 0.500000 0.500000
Si Si2 0.261364 0.500000 0.220607
Si Si3 0.356909 0.321370 0.285376
Si Si4 0.357796 0.128041 0.219848
Si Si5 0.773642 0.775548 0.709693
Si Si6 0.000000 0.210568 0.000000
Si Si7 0.143573 0.945414 0.220904
Si Si8 0.141555 0.399410 0.216737
O O1 0.388380 0.500000 0.340294
O O2 0.181991 0.452639 0.266609
O O3 0.284787 0.500000 0.000000
O O4 0.370329 0.315228 0.500000
O O5 0.500000 0.330973 0.213355
O O6 0.295239 0.272247 0.220201
O O7 0.255491 0.363463 0.261466
O O8 0.500000 0.114002 0.274751
O O9 0.323462 0.180487 0.284930
O O10 0.250553 0.090999 0.282291
O O11 0.353800 0.128697 0.000000
O O12 0.814280 0.768032 0.500000
O O13 0.888984 0.788260 0.841541
O O14 0.000000 0.931608 0.276280
O O15 0.166316 0.000000 0.275610
O O16 0.144243 0.944903 0.000000
O O17 0.000000 0.386542 0.287076
O O18 0.132993 0.398434 0.000000
#
# Coordination Sequence:
#
# PCOD9386235 Si02
#       8
#     1   4   8   8   8   2   8   8
#     4  12  26  40  74  98 136 176 220 272 328 410
#     4  10  24  45  67  99 134 173 220 276 326 390
#     4  10  24  43  64  93 133 173 218 267 319 387
#     4  10  20  34  58  90 126 172 223 271 324 390
#     4  11  25  44  67  96 132 175 214 269 330 384
#     4  12  26  44  70  98 133 165 224 276 312 406
#     4   8  15  28  49  80 121 168 219 273 326 382
#     4  10  23  42  67  94 131 174 218 271 329 384
#
# _framework density 21.600266000000001
#
# number of rings (size 3 to 8) (size 9 to 14) (size 15 to 20)
#    0.000    2.043    0.851    1.660    5.957    3.064 
#    0.000    2.128    0.000    0.511    0.000    2.383 
#    0.000    0.000    0.000    0.000    0.000    0.000 
#
# Total GULP energy -261789.384900 kJ/mol
# GULP energy per Si atom -5569.986913 kJ/mol
# Density = 2.155110 g / cm^3
# Si number density = 21.600266 Si / 1000 Ang^3
#
#
#
# Elastic Constant Matrix: (Units=GPa)
#
#
# Indices 1 2 3 4 5 6 
#
# 1 149.7329 55.5024 15.6802 0.0000 0.0000 0.0000
# 2 55.5024 111.8804 -9.9823 0.0000 0.0000 0.0000
# 3 15.6802 -9.9823 100.4134 0.0000 0.0000 0.0000
# 4 0.0000 0.0000 0.0000 9.1114 0.0000 0.0000
# 5 0.0000 0.0000 0.0000 0.0000 35.7639 0.0000
# 6 0.0000 0.0000 0.0000 0.0000 0.0000 -11.4149
#
#
#
# Elastic Compliance Matrix: (Units=1/GPa)
#
#
# Indices 1 2 3 4 5 6 
#
# 1 0.008480 -0.004364 -0.001758 0.000000 0.000000 0.000000
# 2 -0.004364 0.011264 0.001801 0.000000 0.000000 0.000000
# 3 -0.001758 0.001801 0.010412 0.000000 0.000000 0.000000
# 4 0.000000 0.000000 0.000000 0.109753 0.000000 0.000000
# 5 0.000000 0.000000 0.000000 0.000000 0.027961 0.000000
# 6 0.000000 0.000000 0.000000 0.000000 0.000000 -0.087605
#
#
# Mechanical properties :
#
#
# Convention : Reuss Voigt Hill
#
# Bulk Modulus (GPa) = 46.47930 53.82524 50.15227
# Shear Modulus (GPa) = 52.04075 26.74716 39.39396
#
# Velocity S-wave (km/s) = 4.91375 3.52274 4.27520
# Velocity P-wave (km/s) = 7.33198 6.44353 6.90207
#
# Compressibility (1/GPa) = 0.02151495
#
# Stress axis : x y z
#
# Youngs Moduli (GPa) = 117.92153 88.78124 96.03918
#
# Poissons Ratio (x) = 0.38742 0.16884
# Poissons Ratio (y) = 0.51458 -0.17298
# Poissons Ratio (z) = 0.20731 -0.15991
#
# Static dielectric constant tensor:
#      x y z
#    x 1.745440 0.000000 0.000000 
#    y 0.000000 1.763640 0.000000 
#    z 0.000000 0.000000 1.821130 
# 
# From -- ./inp_files/2844.got.cif
#   From: 2010.05.17/outbox.cif.g08.bks.cpg/sg47_2_cif.got.tgz:2844.got - 2010.06.03 20:15:42.
