data_PCOD9386651
_publ_section_title
;
Structure prediction by ZEFSAII (Michael W. Deem and Ramdas Pophale) SiO2 
 PCOD9386651
Probable space group: P M M M
;
_chemical_formula_sum "Si O2"
_cell_formula_units_Z 33
_cell_length_a 24.675366
_cell_length_b 7.535028
_cell_length_c 9.518008
_cell_angle_alpha 90.000000
_cell_angle_beta 90.000000
_cell_angle_gamma 90.000000
_cell_volume 1769.679170
_symmetry_space_group_name_H-M "P M M M"
_symmetry_group_IT_number 47
_symmetry_cell_setting 'orthorhombic'
loop_
_space_group_symop_operation_xyz
x,y,z
-x,-y,z
x,-y,-z
-x,y,-z
-x,-y,-z
x,y,-z
-x,y,z
x,-y,z
loop_
_atom_site_type_symbol
_atom_site_label
_atom_site_fract_x
_atom_site_fract_y
_atom_site_fract_z
Si Si1 0.208742 0.785158 0.338280
Si Si2 0.105126 0.783042 0.161650
Si Si3 0.387736 0.000000 0.154434
Si Si4 0.000000 0.216928 0.337907
Si Si5 0.500000 0.000000 0.000000
Si Si6 0.332134 0.296012 0.335565
O O1 0.198161 0.730560 0.500000
O O2 0.160699 0.726498 0.236481
O O3 0.268586 0.721648 0.297797
O O4 0.210090 0.000000 0.336404
O O5 0.053575 0.727244 0.253838
O O6 0.105014 0.000000 0.161452
O O7 0.101294 0.726019 0.000000
O O8 0.367995 0.169604 0.240531
O O9 0.360514 0.000000 0.000000
O O10 0.451364 0.000000 0.120070
O O11 0.000000 0.274437 0.500000
O O12 0.000000 0.000000 0.339344
O O13 0.335931 0.243782 0.500000
O O14 0.348569 0.500000 0.321965
#
# Coordination Sequence:
#
# PCOD9386651 Si02
#       6
#     8   8   4   4   1   8
#     4   9  16  28  46  71 104 141 179 229 288 347
#     4   9  16  24  36  58  91 130 177 230 284 342
#     4  10  21  41  63  87 123 159 199 236 283 339
#     4   9  15  23  35  53  82 127 178 230 287 347
#     4   8  24  44  64  92 120 174 198 234 286 340
#     4  10  20  36  61  91 121 156 198 246 298 347
#
# _framework density 18.647448000000001
#
# number of rings (size 3 to 8) (size 9 to 14) (size 15 to 20)
#    0.364    2.303    1.212    1.455    0.000    5.818 
#    0.000    2.424    0.000    1.455    0.000    0.848 
#    0.000    6.788    0.000    0.000    0.000    0.000 
#
# Total GULP energy -183879.450091 kJ/mol
# GULP energy per Si atom -5572.104548 kJ/mol
# Density = 1.860501 g / cm^3
# Si number density = 18.647448 Si / 1000 Ang^3
#
#
#
# Elastic Constant Matrix: (Units=GPa)
#
#
# Indices 1 2 3 4 5 6 
#
# 1 157.4260 40.5106 109.6149 0.0000 0.0000 0.0000
# 2 40.5106 62.1204 41.5123 0.0000 0.0000 0.0000
# 3 109.6149 41.5123 145.5006 0.0000 0.0000 0.0000
# 4 0.0000 0.0000 0.0000 -0.8268 0.0000 0.0000
# 5 0.0000 0.0000 0.0000 0.0000 44.2892 0.0000
# 6 0.0000 0.0000 0.0000 0.0000 0.0000 -77.0935
#
#
#
# Elastic Compliance Matrix: (Units=1/GPa)
#
#
# Indices 1 2 3 4 5 6 
#
# 1 0.013671 -0.002512 -0.009582 0.000000 0.000000 0.000000
# 2 -0.002512 0.020351 -0.003914 0.000000 0.000000 0.000000
# 3 -0.009582 -0.003914 0.015209 0.000000 0.000000 0.000000
# 4 0.000000 0.000000 0.000000 -1.209471 0.000000 0.000000
# 5 0.000000 0.000000 0.000000 0.000000 0.022579 0.000000
# 6 0.000000 0.000000 0.000000 0.000000 0.000000 -0.012971
#
#
# Mechanical properties :
#
#
# Convention : Reuss Voigt Hill
#
# Bulk Modulus (GPa) = 58.09163 83.14696 70.61929
# Shear Modulus (GPa) = -4.49285 4.83439 0.17077
#
# Velocity S-wave (km/s) = -1.55390 1.61188 0.30294
# Velocity P-wave (km/s) = 5.29157 6.93901 6.17052
#
# Compressibility (1/GPa) = 0.01721418
#
# Stress axis : x y z
#
# Youngs Moduli (GPa) = 73.14915 49.13677 65.75198
#
# Poissons Ratio (x) = 0.12341 0.63007
# Poissons Ratio (y) = 0.18372 0.25737
# Poissons Ratio (z) = 0.70095 0.19234
#
# Static dielectric constant tensor:
#      x y z
#    x 1.600080 0.000000 0.000000 
#    y 0.000000 1.693170 0.000000 
#    z 0.000000 0.000000 1.627020 
# 
# From -- ./inp_files/12035.got.cif
#   From: 2010.05.17/outbox.cif.g08.bks.cpg/sg47_7_cif.got.tgz:12035.got - 2010.06.03 20:15:42.
