data_PCOD9386840
_publ_section_title
;
Structure prediction by ZEFSAII (Michael W. Deem and Ramdas Pophale) SiO2 
 PCOD9386840
Probable space group: P M M M
;
_chemical_formula_sum "Si O2"
_cell_formula_units_Z 44
_cell_length_a 18.946835
_cell_length_b 7.418735
_cell_length_c 13.087422
_cell_angle_alpha 90.000000
_cell_angle_beta 90.000000
_cell_angle_gamma 90.000000
_cell_volume 1839.588295
_symmetry_space_group_name_H-M "P M M M"
_symmetry_group_IT_number 47
_symmetry_cell_setting 'orthorhombic'
loop_
_space_group_symop_operation_xyz
x,y,z
-x,-y,z
x,-y,-z
-x,y,-z
-x,-y,-z
x,y,-z
-x,y,z
x,-y,z
loop_
_atom_site_type_symbol
_atom_site_label
_atom_site_fract_x
_atom_site_fract_y
_atom_site_fract_z
Si Si1 0.083806 0.000000 0.387051
Si Si2 0.080932 0.282730 0.214710
Si Si3 0.266793 0.209007 0.388326
Si Si4 0.379814 0.279608 0.109809
Si Si5 0.226627 0.296216 0.161285
Si Si6 0.423766 0.718435 0.333306
O O1 0.096560 0.822281 0.319914
O O2 0.114408 0.000000 0.500000
O O3 0.000000 0.000000 0.398379
O O4 0.084231 0.500000 0.226255
O O5 0.147522 0.224789 0.145111
O O6 0.000000 0.238541 0.183296
O O7 0.244604 0.279528 0.500000
O O8 0.240562 0.299762 0.284143
O O9 0.352047 0.216728 0.384406
O O10 0.245711 0.000000 0.379606
O O11 0.379076 0.500000 0.112085
O O12 0.298441 0.214351 0.118065
O O13 0.417887 0.226990 0.213912
O O14 0.409444 0.225688 0.000000
O O15 0.225289 0.500000 0.122561
O O16 0.500000 0.776115 0.373814
O O17 0.421490 0.500000 0.338577
#
# Coordination Sequence:
#
# PCOD9386840 Si02
#       6
#     4   8   8   8   8   8
#     4   9  18  30  44  66  95 127 166 209 253 305
#     4   9  18  32  49  70  98 133 171 212 260 309
#     4  10  21  34  48  68  94 127 166 204 243 288
#     4   8  14  27  49  75 100 125 156 197 244 294
#     4   9  18  32  50  72  97 127 164 204 247 298
#     4   9  18  32  50  73  99 127 160 197 240 290
#
# _framework density 23.918392000000001
#
# number of rings (size 3 to 8) (size 9 to 14) (size 15 to 20)
#    0.000    3.000    0.000    1.636    1.273    3.636 
#    0.000    7.273    0.000    9.273    0.000    8.909 
#    0.000    2.182    0.000    0.182    0.000    0.000 
#
# Total GULP energy -245392.818250 kJ/mol
# GULP energy per Si atom -5577.109506 kJ/mol
# Density = 2.386395 g / cm^3
# Si number density = 23.918392 Si / 1000 Ang^3
#
#
#
# Elastic Constant Matrix: (Units=GPa)
#
#
# Indices 1 2 3 4 5 6 
#
# 1 144.6985 2.6006 -3.3973 0.0000 0.0000 0.0000
# 2 2.6006 82.3679 -1.5595 0.0000 0.0000 0.0000
# 3 -3.3973 -1.5595 90.3092 0.0000 0.0000 0.0000
# 4 0.0000 0.0000 0.0000 4.1138 0.0000 0.0000
# 5 0.0000 0.0000 0.0000 0.0000 -2.0697 0.0000
# 6 0.0000 0.0000 0.0000 0.0000 0.0000 16.8298
#
#
#
# Elastic Compliance Matrix: (Units=1/GPa)
#
#
# Indices 1 2 3 4 5 6 
#
# 1 0.006921 -0.000214 0.000257 0.000000 0.000000 0.000000
# 2 -0.000214 0.012151 0.000202 0.000000 0.000000 0.000000
# 3 0.000257 0.000202 0.011086 0.000000 0.000000 0.000000
# 4 0.000000 0.000000 0.000000 0.243083 0.000000 0.000000
# 5 0.000000 0.000000 0.000000 0.000000 -0.483160 0.000000
# 6 0.000000 0.000000 0.000000 0.000000 0.000000 0.059419
#
#
# Mechanical properties :
#
#
# Convention : Reuss Voigt Hill
#
# Bulk Modulus (GPa) = 32.62874 34.74035 33.68454
# Shear Modulus (GPa) = -35.51799 25.09022 -5.21389
#
# Velocity S-wave (km/s) = -3.85771 3.24233 -1.47804
# Velocity P-wave (km/s) = 2.48419 5.34537 3.34677
#
# Compressibility (1/GPa) = 0.03064783
#
# Stress axis : x y z
#
# Youngs Moduli (GPa) = 144.49219 82.29627 90.20212
#
# Poissons Ratio (x) = 0.01758 -0.02315
# Poissons Ratio (y) = 0.03087 -0.01820
# Poissons Ratio (z) = -0.03709 -0.01661
#
# Static dielectric constant tensor:
#      x y z
#    x 1.948730 0.000000 0.000000 
#    y 0.000000 1.921960 0.000000 
#    z 0.000000 0.000000 1.884750 
# 
# From -- ./inp_files/24898.got.cif
#   From: 2010.05.17/outbox.cif.g08.bks.cpg/sg47_13_cif.got.tgz:24898.got - 2010.06.03 20:15:42.
