data_PCOD9386914
_publ_section_title
;
Structure prediction by ZEFSAII (Michael W. Deem and Ramdas Pophale) SiO2 
 PCOD9386914
Probable space group: P M M M
;
_chemical_formula_sum "Si O2"
_cell_formula_units_Z 44
_cell_length_a 17.980042
_cell_length_b 9.083896
_cell_length_c 15.177769
_cell_angle_alpha 90.000000
_cell_angle_beta 90.000000
_cell_angle_gamma 90.000000
_cell_volume 2478.967277
_symmetry_space_group_name_H-M "P M M M"
_symmetry_group_IT_number 47
_symmetry_cell_setting 'orthorhombic'
loop_
_space_group_symop_operation_xyz
x,y,z
-x,-y,z
x,-y,-z
-x,y,-z
-x,-y,-z
x,y,-z
-x,y,z
x,-y,z
loop_
_atom_site_type_symbol
_atom_site_label
_atom_site_fract_x
_atom_site_fract_y
_atom_site_fract_z
Si Si1 0.500000 0.331818 0.107476
Si Si2 0.915568 0.176639 0.318715
Si Si3 0.500000 0.168802 0.607052
Si Si4 0.654851 0.324136 0.395613
Si Si5 0.651096 0.823537 0.101846
Si Si6 0.910196 0.665198 0.500000
Si Si7 0.238930 0.177137 0.254861
O O1 0.500000 0.500000 0.137139
O O2 0.425067 0.249799 0.134411
O O3 0.500000 0.329707 0.000000
O O4 0.892461 0.247048 0.411826
O O5 0.848478 0.214366 0.253476
O O6 0.000000 0.224933 0.296425
O O7 0.917701 0.000000 0.328171
O O8 0.500000 0.165181 0.500000
O O9 0.424321 0.252681 0.631528
O O10 0.500000 0.000000 0.639079
O O11 0.666772 0.292909 0.500000
O O12 0.651834 0.500000 0.385015
O O13 0.718888 0.254861 0.335490
O O14 0.718228 0.782634 0.165738
O O15 0.642009 0.000000 0.103911
O O16 0.663862 0.780551 0.000000
O O17 0.878680 0.500000 0.500000
O O18 0.000000 0.654452 0.500000
O O19 0.245207 0.000000 0.266458
#
# Coordination Sequence:
#
# PCOD9386914 Si02
#       7
#     4   8   4   8   8   4   8
#     4   9  17  30  51  78 104 130 162 202 251 303
#     4   9  18  33  51  71  98 132 169 208 252 303
#     4   9  17  32  53  72  94 132 176 210 241 285
#     4  10  21  35  50  71 101 134 167 207 251 294
#     4   9  18  34  54  75 101 132 167 207 251 299
#     4   9  17  29  47  71  97 126 161 202 249 299
#     4  10  21  34  51  75  99 131 171 209 252 303
#
# _framework density 17.749326
#
# number of rings (size 3 to 8) (size 9 to 14) (size 15 to 20)
#    0.000    2.636    0.000    1.364    1.273    6.545 
#    0.000    0.909    0.000    0.545    0.000    3.818 
#    0.000    0.000    0.000   10.727    0.000   11.273 
#
# Total GULP energy -245412.986482 kJ/mol
# GULP energy per Si atom -5577.567875 kJ/mol
# Density = 1.770893 g / cm^3
# Si number density = 17.749326 Si / 1000 Ang^3
#
#
#
# Elastic Constant Matrix: (Units=GPa)
#
#
# Indices 1 2 3 4 5 6 
#
# 1 159.0400 42.5189 67.7077 0.0000 0.0000 0.0000
# 2 42.5189 29.8342 31.0138 0.0000 0.0000 0.0000
# 3 67.7077 31.0138 71.2081 0.0000 0.0000 0.0000
# 4 0.0000 0.0000 0.0000 12.1060 0.0000 0.0000
# 5 0.0000 0.0000 0.0000 0.0000 29.7423 0.0000
# 6 0.0000 0.0000 0.0000 0.0000 0.0000 8.0414
#
#
#
# Elastic Compliance Matrix: (Units=1/GPa)
#
#
# Indices 1 2 3 4 5 6 
#
# 1 0.011868 -0.009471 -0.007159 0.000000 0.000000 0.000000
# 2 -0.009471 0.068809 -0.020963 0.000000 0.000000 0.000000
# 3 -0.007159 -0.020963 0.029981 0.000000 0.000000 0.000000
# 4 0.000000 0.000000 0.000000 0.082603 0.000000 0.000000
# 5 0.000000 0.000000 0.000000 0.000000 0.033622 0.000000
# 6 0.000000 0.000000 0.000000 0.000000 0.000000 0.124357
#
#
# Mechanical properties :
#
#
# Convention : Reuss Voigt Hill
#
# Bulk Modulus (GPa) = 28.19276 60.28478 44.23877
# Shear Modulus (GPa) = 11.40900 17.90073 14.65487
#
# Velocity S-wave (km/s) = 2.53807 3.17918 2.87654
# Velocity P-wave (km/s) = 4.95050 6.89308 6.00091
#
# Compressibility (1/GPa) = 0.03547010
#
# Stress axis : x y z
#
# Youngs Moduli (GPa) = 84.26212 14.53305 33.35460
#
# Poissons Ratio (x) = 0.13765 0.23879
# Poissons Ratio (y) = 0.79807 0.69922
# Poissons Ratio (z) = 0.60325 0.30466
#
# Static dielectric constant tensor:
#      x y z
#    x 1.619370 0.000000 0.000000 
#    y 0.000000 1.597300 0.000000 
#    z 0.000000 0.000000 1.606630 
# 
# From -- ./inp_files/9060.got.cif
#   From: 2010.05.17/outbox.cif.g08.bks.cpg/sg47_5_cif.got.tgz:9060.got - 2010.06.03 20:15:42.
