data_PCOD9386372
_publ_section_title
;
Structure prediction by ZEFSAII (Michael W. Deem and Ramdas Pophale) SiO2 
 PCOD9386372
Probable space group: P M M M
;
_chemical_formula_sum "Si O2"
_cell_formula_units_Z 48
_cell_length_a 10.170296
_cell_length_b 8.610435
_cell_length_c 29.828525
_cell_angle_alpha 90.000000
_cell_angle_beta 90.000000
_cell_angle_gamma 90.000000
_cell_volume 2612.103998
_symmetry_space_group_name_H-M "P M M M"
_symmetry_group_IT_number 47
_symmetry_cell_setting 'orthorhombic'
loop_
_space_group_symop_operation_xyz
x,y,z
-x,-y,z
x,-y,-z
-x,y,-z
-x,-y,-z
x,y,-z
-x,y,z
x,-y,z
loop_
_atom_site_type_symbol
_atom_site_label
_atom_site_fract_x
_atom_site_fract_y
_atom_site_fract_z
Si Si1 0.652625 0.312347 0.125096
Si Si2 0.753712 0.313848 0.606607
Si Si3 0.848689 0.687501 0.796101
Si Si4 0.851676 0.187169 0.052606
Si Si5 0.000000 0.186278 0.552138
Si Si6 0.846800 0.814526 0.302292
Si Si7 0.500000 0.689335 0.551321
O O1 0.500000 0.259304 0.125774
O O2 0.650226 0.500000 0.125569
O O3 0.740939 0.260390 0.167654
O O4 0.735871 0.257943 0.082130
O O5 0.757479 0.500000 0.608044
O O6 0.762068 0.251468 0.657074
O O7 0.626267 0.262075 0.579333
O O8 0.875510 0.251141 0.578334
O O9 0.848973 0.500000 0.795701
O O10 0.814986 0.747334 0.746532
O O11 0.000000 0.737828 0.806514
O O12 0.000000 0.237290 0.066862
O O13 0.847365 0.000000 0.056300
O O14 0.837459 0.226238 0.000000
O O15 0.000000 0.233859 0.500000
O O16 0.000000 0.000000 0.554235
O O17 0.000000 0.772508 0.311462
O O18 0.837569 0.000000 0.301229
O O19 0.500000 0.500000 0.549742
O O20 0.500000 0.744297 0.500000
#
# Coordination Sequence:
#
# PCOD9386372 Si02
#       7
#     8   8   8   8   4   8   4
#     4  10  21  36  54  81 116 150 185 231 283 333
#     4  11  21  36  60  84 109 144 185 227 273 327
#     4   9  18  34  56  78 103 140 187 230 272 326
#     4   9  19  36  57  81 110 147 192 238 282 333
#     4  11  23  37  55  83 117 147 179 225 276 325
#     4  10  20  35  56  82 113 142 176 226 279 329
#     4   9  20  38  57  81 111 141 181 229 270 317
#
# _framework density 18.375990999999999
#
# number of rings (size 3 to 8) (size 9 to 14) (size 15 to 20)
#    0.000    2.167    0.833    2.750    0.000    4.667 
#    1.500    5.833    0.000    3.000    0.000    0.000 
#    0.000    0.000    0.000    0.000    0.000    0.000 
#
# Total GULP energy -267894.796061 kJ/mol
# GULP energy per Si atom -5581.141585 kJ/mol
# Density = 1.833417 g / cm^3
# Si number density = 18.375991 Si / 1000 Ang^3
#
#
#
# Elastic Constant Matrix: (Units=GPa)
#
#
# Indices 1 2 3 4 5 6 
#
# 1 175.1356 26.3528 105.5430 0.0000 0.0000 0.0000
# 2 26.3528 13.2210 25.0544 0.0000 0.0000 0.0000
# 3 105.5430 25.0544 148.2102 0.0000 0.0000 0.0000
# 4 0.0000 0.0000 0.0000 -14.8460 0.0000 0.0000
# 5 0.0000 0.0000 0.0000 0.0000 32.7181 0.0000
# 6 0.0000 0.0000 0.0000 0.0000 0.0000 23.2094
#
#
#
# Elastic Compliance Matrix: (Units=1/GPa)
#
#
# Indices 1 2 3 4 5 6 
#
# 1 0.010880 -0.010305 -0.006006 0.000000 0.000000 0.000000
# 2 -0.010305 0.121050 -0.013125 0.000000 0.000000 0.000000
# 3 -0.006006 -0.013125 0.013242 0.000000 0.000000 0.000000
# 4 0.000000 0.000000 0.000000 -0.067358 0.000000 0.000000
# 5 0.000000 0.000000 0.000000 0.000000 0.030564 0.000000
# 6 0.000000 0.000000 0.000000 0.000000 0.000000 0.043086
#
#
# Mechanical properties :
#
#
# Convention : Reuss Voigt Hill
#
# Bulk Modulus (GPa) = 11.58729 72.27416 41.93073
# Shear Modulus (GPa) = 20.91160 20.19072 20.55116
#
# Velocity S-wave (km/s) = 3.37706 3.31834 3.34783
# Velocity P-wave (km/s) = 4.63955 7.35514 6.14912
#
# Compressibility (1/GPa) = 0.08630142
#
# Stress axis : x y z
#
# Youngs Moduli (GPa) = 91.91491 8.26106 75.51463
#
# Poissons Ratio (x) = 0.08513 0.45350
# Poissons Ratio (y) = 0.94720 0.99110
# Poissons Ratio (z) = 0.55200 0.10842
#
# Static dielectric constant tensor:
#      x y z
#    x 1.592780 0.000000 0.000000 
#    y 0.000000 1.622750 0.000000 
#    z 0.000000 0.000000 1.616220 
# 
# From -- ./inp_files/2541.got.cif
#   From: 2010.05.17/outbox.cif.g08.bks.cpg/sg47_2_cif.got.tgz:2541.got - 2010.06.03 20:15:42.
