data_PCOD9386723
_publ_section_title
;
Structure prediction by ZEFSAII (Michael W. Deem and Ramdas Pophale) SiO2 
 PCOD9386723
Probable space group: P M M M
;
_chemical_formula_sum "Si O2"
_cell_formula_units_Z 37
_cell_length_a 10.322797
_cell_length_b 7.705199
_cell_length_c 26.525765
_cell_angle_alpha 90.000000
_cell_angle_beta 90.000000
_cell_angle_gamma 90.000000
_cell_volume 2109.838263
_symmetry_space_group_name_H-M "P M M M"
_symmetry_group_IT_number 47
_symmetry_cell_setting 'orthorhombic'
loop_
_space_group_symop_operation_xyz
x,y,z
-x,-y,z
x,-y,-z
-x,y,-z
-x,-y,-z
x,y,-z
-x,y,z
x,-y,z
loop_
_atom_site_type_symbol
_atom_site_label
_atom_site_fract_x
_atom_site_fract_y
_atom_site_fract_z
Si Si1 0.351445 0.197333 0.357011
Si Si2 0.347530 0.500000 0.723216
Si Si3 0.155097 0.197676 0.104106
Si Si4 0.843267 0.500000 0.817698
Si Si5 0.148300 0.289879 0.442313
Si Si6 0.500000 0.000000 0.000000
Si Si7 0.716429 0.697907 0.000000
O O1 0.500000 0.227313 0.374564
O O2 0.326447 0.333474 0.312621
O O3 0.251247 0.222673 0.402378
O O4 0.342392 0.000000 0.338478
O O5 0.500000 0.500000 0.739229
O O6 0.245418 0.500000 0.768356
O O7 0.189362 0.330599 0.148656
O O8 0.201901 0.271911 0.050828
O O9 0.000000 0.190829 0.103012
O O10 0.204258 0.000000 0.111215
O O11 0.000000 0.500000 0.807865
O O12 0.176318 0.236462 0.500000
O O13 0.152025 0.500000 0.440978
O O14 0.000000 0.237489 0.430495
O O15 0.389465 0.847217 0.000000
O O16 0.667363 0.500000 0.000000
#
# Coordination Sequence:
#
# PCOD9386723 Si02
#       7
#     8   4   8   4   8   1   4
#     4  10  21  37  59  82 109 146 192 235 276 338
#     4  10  22  42  58  80 111 148 189 239 294 341
#     4  10  20  37  62  90 118 149 187 233 288 341
#     4  10  22  39  60  88 114 144 194 246 286 339
#     4   9  18  33  54  83 117 149 182 224 279 340
#     4  12  26  40  50  86 128 164 198 238 268 338
#     4  12  22  38  60  85 121 160 194 234 281 335
#
# _framework density 17.536888999999999
#
# number of rings (size 3 to 8) (size 9 to 14) (size 15 to 20)
#    0.000    1.946    3.243    1.135    0.000    4.324 
#    1.946    3.243    0.000    0.000    0.000    0.000 
#    0.000    0.000    0.000    0.000    0.000    0.000 
#
# Total GULP energy -206128.250013 kJ/mol
# GULP energy per Si atom -5571.033784 kJ/mol
# Density = 1.749697 g / cm^3
# Si number density = 17.536889 Si / 1000 Ang^3
#
#
#
# Elastic Constant Matrix: (Units=GPa)
#
#
# Indices 1 2 3 4 5 6 
#
# 1 80.1518 54.8832 90.0230 0.0000 0.0000 0.0000
# 2 54.8832 151.0012 69.6181 0.0000 0.0000 0.0000
# 3 90.0230 69.6181 136.5718 0.0000 0.0000 0.0000
# 4 0.0000 0.0000 0.0000 -45.0527 0.0000 0.0000
# 5 0.0000 0.0000 0.0000 0.0000 -110.2367 0.0000
# 6 0.0000 0.0000 0.0000 0.0000 0.0000 -425.7544
#
#
#
# Elastic Compliance Matrix: (Units=1/GPa)
#
#
# Indices 1 2 3 4 5 6 
#
# 1 0.049722 -0.003871 -0.030801 0.000000 0.000000 0.000000
# 2 -0.003871 0.008958 -0.002015 0.000000 0.000000 0.000000
# 3 -0.030801 -0.002015 0.028652 0.000000 0.000000 0.000000
# 4 0.000000 0.000000 0.000000 -0.022196 0.000000 0.000000
# 5 0.000000 0.000000 0.000000 0.000000 -0.009071 0.000000
# 6 0.000000 0.000000 0.000000 0.000000 0.000000 -0.002349
#
#
# Mechanical properties :
#
#
# Convention : Reuss Voigt Hill
#
# Bulk Modulus (GPa) = 71.64483 88.53035 80.08759
# Shear Modulus (GPa) = 37.95236 -105.99541 -34.02152
#
# Velocity S-wave (km/s) = 4.65708 -7.78284 -4.40932
# Velocity P-wave (km/s) = 8.35825 5.49286 4.45471
#
# Compressibility (1/GPa) = 0.01395774
#
# Stress axis : x y z
#
# Youngs Moduli (GPa) = 20.11182 111.62660 34.90109
#
# Poissons Ratio (x) = 0.43213 1.07501
# Poissons Ratio (y) = 0.07786 0.07032
# Poissons Ratio (z) = 0.61947 0.22491
#
# Static dielectric constant tensor:
#      x y z
#    x 1.579750 0.000000 0.000000 
#    y 0.000000 1.629050 0.000000 
#    z 0.000000 0.000000 1.561010 
# 
# From -- ./inp_files/31713.got.cif
#   From: 2010.05.17/outbox.cif.g08.bks.cpg/sg47_16_cif.got.tgz:31713.got - 2010.06.03 20:15:42.
