data_PCOD9386974
_publ_section_title
;
Structure prediction by ZEFSAII (Michael W. Deem and Ramdas Pophale) SiO2 
 PCOD9386974
Probable space group: P M M M
;
_chemical_formula_sum "Si O2"
_cell_formula_units_Z 48
_cell_length_a 8.117173
_cell_length_b 17.126154
_cell_length_c 18.604652
_cell_angle_alpha 90.000000
_cell_angle_beta 90.000000
_cell_angle_gamma 90.000000
_cell_volume 2586.343462
_symmetry_space_group_name_H-M "P M M M"
_symmetry_group_IT_number 47
_symmetry_cell_setting 'orthorhombic'
loop_
_space_group_symop_operation_xyz
x,y,z
-x,-y,z
x,-y,-z
-x,y,-z
-x,-y,-z
x,y,-z
-x,y,z
x,-y,z
loop_
_atom_site_type_symbol
_atom_site_label
_atom_site_fract_x
_atom_site_fract_y
_atom_site_fract_z
Si Si1 0.808932 0.905172 0.000000
Si Si2 0.187553 0.500000 0.897555
Si Si3 0.803934 0.356077 0.344268
Si Si4 0.299572 0.757529 0.775319
Si Si5 0.799882 0.591344 0.500000
Si Si6 0.304183 0.673256 0.077801
Si Si7 0.303644 0.087878 0.844057
Si Si8 0.683918 0.500000 0.254149
O O1 0.728742 0.881343 0.075057
O O2 0.000000 0.884420 0.000000
O O3 0.794760 0.000000 0.000000
O O4 0.272668 0.419528 0.920004
O O5 0.192247 0.500000 0.811401
O O6 0.000000 0.500000 0.922114
O O7 0.765790 0.279330 0.298103
O O8 0.751180 0.363867 0.427257
O O9 0.711927 0.424640 0.302088
O O10 0.000000 0.370914 0.341586
O O11 0.500000 0.753921 0.773578
O O12 0.242666 0.709612 0.846835
O O13 0.245189 0.846474 0.789143
O O14 0.744571 0.500000 0.500000
O O15 0.000000 0.588356 0.500000
O O16 0.500000 0.687595 0.077525
O O17 0.237744 0.702364 0.000000
O O18 0.500000 0.082481 0.836271
O O19 0.234328 0.000000 0.836606
O O20 0.500000 0.500000 0.223074
#
# Coordination Sequence:
#
# PCOD9386974 Si02
#       8
#     4   4   8   8   4   8   8   4
#     4   9  17  29  47  73 103 132 167 220 275 315
#     4  12  23  35  51  70  93 132 182 227 260 294
#     4  11  21  36  57  80 106 138 173 208 253 311
#     4  10  21  35  53  76 105 137 173 219 264 309
#     4   9  18  34  56  82 111 140 169 203 252 314
#     4  10  21  35  50  68  96 136 175 214 264 311
#     4   9  18  33  53  75 101 139 181 217 264 328
#     4  12  22  34  52  74 104 137 171 210 255 305
#
# _framework density 18.55902
#
# number of rings (size 3 to 8) (size 9 to 14) (size 15 to 20)
#    0.000    1.833    2.500    2.500    1.167    3.000 
#    0.000    2.083    0.000    0.000    0.000    0.583 
#    0.000    4.667    0.000    0.000    0.000    0.000 
#
# Total GULP energy -267885.023797 kJ/mol
# GULP energy per Si atom -5580.937996 kJ/mol
# Density = 1.851678 g / cm^3
# Si number density = 18.559020 Si / 1000 Ang^3
#
#
#
# Elastic Constant Matrix: (Units=GPa)
#
#
# Indices 1 2 3 4 5 6 
#
# 1 25.5269 1.4909 8.9583 0.0000 0.0000 0.0000
# 2 1.4909 95.2386 58.0855 0.0000 0.0000 0.0000
# 3 8.9583 58.0855 153.4424 0.0000 0.0000 0.0000
# 4 0.0000 0.0000 0.0000 33.0913 0.0000 0.0000
# 5 0.0000 0.0000 0.0000 0.0000 20.4259 0.0000
# 6 0.0000 0.0000 0.0000 0.0000 0.0000 5.6125
#
#
#
# Elastic Compliance Matrix: (Units=1/GPa)
#
#
# Indices 1 2 3 4 5 6 
#
# 1 0.040073 0.001040 -0.002733 0.000000 0.000000 0.000000
# 2 0.001040 0.013679 -0.005239 0.000000 0.000000 0.000000
# 3 -0.002733 -0.005239 0.008660 0.000000 0.000000 0.000000
# 4 0.000000 0.000000 0.000000 0.030219 0.000000 0.000000
# 5 0.000000 0.000000 0.000000 0.000000 0.048958 0.000000
# 6 0.000000 0.000000 0.000000 0.000000 0.000000 0.178172
#
#
# Mechanical properties :
#
#
# Convention : Reuss Voigt Hill
#
# Bulk Modulus (GPa) = 20.59867 45.69746 33.14806
# Shear Modulus (GPa) = 14.29357 25.53748 19.91553
#
# Velocity S-wave (km/s) = 2.77820 3.71349 3.27936
# Velocity P-wave (km/s) = 4.62756 6.56223 5.67791
#
# Compressibility (1/GPa) = 0.04854684
#
# Stress axis : x y z
#
# Youngs Moduli (GPa) = 24.95458 73.10595 115.47603
#
# Poissons Ratio (x) = -0.07600 0.31560
# Poissons Ratio (y) = -0.02594 0.60495
# Poissons Ratio (z) = 0.06820 0.38299
#
# Static dielectric constant tensor:
#      x y z
#    x 1.653840 0.000000 0.000000 
#    y 0.000000 1.676210 0.000000 
#    z 0.000000 0.000000 1.646970 
# 
# From -- ./inp_files/26595.got.cif
#   From: 2010.05.17/outbox.cif.g08.bks.cpg/sg47_14_cif.got.tgz:26595.got - 2010.06.03 20:15:42.
