data_PCOD9386375
_publ_section_title
;
Structure prediction by ZEFSAII (Michael W. Deem and Ramdas Pophale) SiO2 
 PCOD9386375
Probable space group: P M M M
;
_chemical_formula_sum "Si O2"
_cell_formula_units_Z 56
_cell_length_a 8.652685
_cell_length_b 23.253863
_cell_length_c 15.030023
_cell_angle_alpha 90.000000
_cell_angle_beta 90.000000
_cell_angle_gamma 90.000000
_cell_volume 3024.166152
_symmetry_space_group_name_H-M "P M M M"
_symmetry_group_IT_number 47
_symmetry_cell_setting 'orthorhombic'
loop_
_space_group_symop_operation_xyz
x,y,z
-x,-y,z
x,-y,-z
-x,y,-z
-x,-y,-z
x,y,-z
-x,y,z
x,-y,z
loop_
_atom_site_type_symbol
_atom_site_label
_atom_site_fract_x
_atom_site_fract_y
_atom_site_fract_z
Si Si1 0.814942 0.112072 0.290489
Si Si2 0.686368 0.222525 0.603514
Si Si3 0.188398 0.000000 0.601246
Si Si4 0.179030 0.244470 0.901310
Si Si5 0.684019 0.682276 0.256089
Si Si6 0.183935 0.566379 0.310846
Si Si7 0.326262 0.431043 0.500000
Si Si8 0.317523 0.880388 0.901347
O O1 0.748073 0.170180 0.335166
O O2 0.763737 0.099903 0.189074
O O3 0.000000 0.116688 0.292887
O O4 0.763059 0.057801 0.349093
O O5 0.739649 0.219826 0.500000
O O6 0.500000 0.218652 0.602290
O O7 0.726932 0.282153 0.654029
O O8 0.241802 0.000000 0.500000
O O9 0.000000 0.000000 0.601211
O O10 0.231618 0.286245 0.824455
O O11 0.284172 0.187882 0.899846
O O12 0.000000 0.226615 0.888340
O O13 0.191223 0.270520 0.000000
O O14 0.500000 0.687037 0.246474
O O15 0.733292 0.616015 0.256167
O O16 0.231595 0.500000 0.293393
O O17 0.232695 0.581658 0.411552
O O18 0.000000 0.569552 0.300710
O O19 0.343035 0.500000 0.500000
O O20 0.500000 0.405487 0.500000
O O21 0.500000 0.891514 0.895372
O O22 0.263656 0.900923 0.000000
#
# Coordination Sequence:
#
# PCOD9386375 Si02
#       8
#     8   8   4   8   8   8   4   8
#     4  11  21  36  60  85 112 148 191 237 284 333
#     4  10  22  38  54  78 115 151 185 230 281 332
#     4   9  20  38  58  83 114 150 193 237 280 331
#     4  10  20  35  57  85 114 144 182 228 279 338
#     4  11  22  35  56  83 113 148 185 229 282 338
#     4  10  21  36  53  75 107 146 189 236 281 330
#     4   9  17  31  51  73  99 137 185 230 275 328
#     4  10  20  35  56  82 114 149 183 226 283 340
#
# _framework density 18.517502
#
# number of rings (size 3 to 8) (size 9 to 14) (size 15 to 20)
#    0.000    1.857    1.429    2.786    1.000    4.857 
#    0.000    1.786    0.000    5.143    0.000    3.000 
#    0.000    0.000    0.000    0.000    0.000    0.000 
#
# Total GULP energy -312372.963996 kJ/mol
# GULP energy per Si atom -5578.088643 kJ/mol
# Density = 1.847536 g / cm^3
# Si number density = 18.517502 Si / 1000 Ang^3
#
#
#
# Elastic Constant Matrix: (Units=GPa)
#
#
# Indices 1 2 3 4 5 6 
#
# 1 32.5522 9.5345 18.5574 0.0000 0.0000 0.0000
# 2 9.5345 76.2625 34.6028 0.0000 0.0000 0.0000
# 3 18.5574 34.6028 125.1660 0.0000 0.0000 0.0000
# 4 0.0000 0.0000 0.0000 84.2993 0.0000 0.0000
# 5 0.0000 0.0000 0.0000 0.0000 27.1664 0.0000
# 6 0.0000 0.0000 0.0000 0.0000 0.0000 30.6405
#
#
#
# Elastic Compliance Matrix: (Units=1/GPa)
#
#
# Indices 1 2 3 4 5 6 
#
# 1 0.033887 -0.002238 -0.004406 0.000000 0.000000 0.000000
# 2 -0.002238 0.015141 -0.003854 0.000000 0.000000 0.000000
# 3 -0.004406 -0.003854 0.009708 0.000000 0.000000 0.000000
# 4 0.000000 0.000000 0.000000 0.011862 0.000000 0.000000
# 5 0.000000 0.000000 0.000000 0.000000 0.036810 0.000000
# 6 0.000000 0.000000 0.000000 0.000000 0.000000 0.032637
#
#
# Mechanical properties :
#
#
# Convention : Reuss Voigt Hill
#
# Bulk Modulus (GPa) = 26.49610 39.93000 33.21305
# Shear Modulus (GPa) = 28.79850 39.84031 34.31940
#
# Velocity S-wave (km/s) = 3.94789 4.64345 4.30972
# Velocity P-wave (km/s) = 5.92628 7.09641 6.53758
#
# Compressibility (1/GPa) = 0.03774141
#
# Stress axis : x y z
#
# Youngs Moduli (GPa) = 29.51000 66.04551 103.00745
#
# Poissons Ratio (x) = 0.14779 0.45380
# Poissons Ratio (y) = 0.06603 0.39700
# Poissons Ratio (z) = 0.13001 0.25454
#
# Static dielectric constant tensor:
#      x y z
#    x 1.630200 0.000000 0.000000 
#    y 0.000000 1.636820 0.000000 
#    z 0.000000 0.000000 1.635140 
# 
# From -- ./inp_files/21594.got.cif
#   From: 2010.05.17/outbox.cif.g08.bks.cpg/sg47_11_cif.got.tgz:21594.got - 2010.06.03 20:15:42.
