data_PCOD9386772
_publ_section_title
;
Structure prediction by ZEFSAII (Michael W. Deem and Ramdas Pophale) SiO2 
 PCOD9386772
Probable space group: P M M M
;
_chemical_formula_sum "Si O2"
_cell_formula_units_Z 37
_cell_length_a 10.422050
_cell_length_b 11.176846
_cell_length_c 17.803506
_cell_angle_alpha 90.000000
_cell_angle_beta 90.000000
_cell_angle_gamma 90.000000
_cell_volume 2073.852930
_symmetry_space_group_name_H-M "P M M M"
_symmetry_group_IT_number 47
_symmetry_cell_setting 'orthorhombic'
loop_
_space_group_symop_operation_xyz
x,y,z
-x,-y,z
x,-y,-z
-x,y,-z
-x,-y,-z
x,y,-z
-x,y,z
x,-y,z
loop_
_atom_site_type_symbol
_atom_site_label
_atom_site_fract_x
_atom_site_fract_y
_atom_site_fract_z
Si Si1 0.844810 0.247447 0.833163
Si Si2 0.249173 0.754090 0.336401
Si Si3 0.284186 0.500000 0.134218
Si Si4 0.000000 0.137053 0.589460
Si Si5 0.500000 0.500000 0.000000
Si Si6 0.649429 0.500000 0.310744
Si Si7 0.500000 0.857943 0.586210
Si Si8 0.155469 0.000000 0.084739
O O1 0.782466 0.228896 0.751362
O O2 0.795869 0.374306 0.867338
O O3 0.000000 0.252936 0.826730
O O4 0.808428 0.126681 0.878026
O O5 0.126098 0.797827 0.381304
O O6 0.279796 0.614811 0.342711
O O7 0.374323 0.819237 0.368191
O O8 0.387476 0.500000 0.067299
O O9 0.341710 0.500000 0.219434
O O10 0.000000 0.134513 0.500000
O O11 0.000000 0.000000 0.617850
O O12 0.500000 0.500000 0.331159
O O13 0.500000 0.810124 0.500000
O O14 0.500000 0.000000 0.580979
O O15 0.000000 0.000000 0.084755
O O16 0.203249 0.000000 0.000000
#
# Coordination Sequence:
#
# PCOD9386772 Si02
#       8
#     8   8   4   4   1   4   4   4
#     4  10  21  38  64  95 123 162 207 260 320 389
#     4  11  22  39  67  90 123 167 216 259 319 388
#     4  10  23  38  64  86 123 160 211 256 314 372
#     4  11  24  41  63  95 131 161 203 271 332 376
#     4  12  24  40  62  94 116 176 218 260 304 392
#     4  10  20  42  61  89 120 163 205 264 304 372
#     4  11  24  40  59  88 127 170 217 266 316 381
#     4   9  20  36  56  88 129 156 190 251 317 375
#
# _framework density 17.841187999999999
#
# number of rings (size 3 to 8) (size 9 to 14) (size 15 to 20)
#    0.000    1.622    2.703    1.622    4.541    2.162 
#    0.000    3.784    0.000    0.649    0.000    0.000 
#    0.000    0.000    0.000    0.000    0.000    0.000 
#
# Total GULP energy -206071.531876 kJ/mol
# GULP energy per Si atom -5569.500862 kJ/mol
# Density = 1.780058 g / cm^3
# Si number density = 17.841188 Si / 1000 Ang^3
#
#
#
# Elastic Constant Matrix: (Units=GPa)
#
#
# Indices 1 2 3 4 5 6 
#
# 1 152.3236 79.8011 69.6732 0.0000 0.0000 0.0000
# 2 79.8011 173.2316 79.1848 0.0000 0.0000 0.0000
# 3 69.6732 79.1848 98.7495 0.0000 0.0000 0.0000
# 4 0.0000 0.0000 0.0000 0.9956 0.0000 0.0000
# 5 0.0000 0.0000 0.0000 0.0000 72.7879 0.0000
# 6 0.0000 0.0000 0.0000 0.0000 0.0000 31.7133
#
#
#
# Elastic Compliance Matrix: (Units=1/GPa)
#
#
# Indices 1 2 3 4 5 6 
#
# 1 0.010210 -0.002227 -0.005418 0.000000 0.000000 0.000000
# 2 -0.002227 0.009598 -0.006126 0.000000 0.000000 0.000000
# 3 -0.005418 -0.006126 0.018861 0.000000 0.000000 0.000000
# 4 0.000000 0.000000 0.000000 1.004422 0.000000 0.000000
# 5 0.000000 0.000000 0.000000 0.000000 0.013739 0.000000
# 6 0.000000 0.000000 0.000000 0.000000 0.000000 0.031533
#
#
# Mechanical properties :
#
#
# Convention : Reuss Voigt Hill
#
# Bulk Modulus (GPa) = 89.85713 97.95811 93.90762
# Shear Modulus (GPa) = 4.46583 34.14239 19.30411
#
# Velocity S-wave (km/s) = 1.58384 4.37931 3.29294
# Velocity P-wave (km/s) = 7.33615 8.97753 8.19802
#
# Compressibility (1/GPa) = 0.01112878
#
# Stress axis : x y z
#
# Youngs Moduli (GPa) = 97.94608 104.18368 53.01817
#
# Poissons Ratio (x) = 0.23198 0.28726
# Poissons Ratio (y) = 0.21809 0.32478
# Poissons Ratio (z) = 0.53068 0.63820
#
# Static dielectric constant tensor:
#      x y z
#    x 1.580220 0.000000 0.000000 
#    y 0.000000 1.610460 0.000000 
#    z 0.000000 0.000000 1.607340 
# 
# From -- ./inp_files/26216.got.cif
#   From: 2010.05.17/outbox.cif.g08.bks.cpg/sg47_14_cif.got.tgz:26216.got - 2010.06.03 20:15:42.
