data_PCOD9386876
_publ_section_title
;
Structure prediction by ZEFSAII (Michael W. Deem and Ramdas Pophale) SiO2 
 PCOD9386876
Probable space group: P M M M
;
_chemical_formula_sum "Si O2"
_cell_formula_units_Z 36
_cell_length_a 7.959483
_cell_length_b 25.870343
_cell_length_c 9.719426
_cell_angle_alpha 90.000000
_cell_angle_beta 90.000000
_cell_angle_gamma 90.000000
_cell_volume 2001.371283
_symmetry_space_group_name_H-M "P M M M"
_symmetry_group_IT_number 47
_symmetry_cell_setting 'orthorhombic'
loop_
_space_group_symop_operation_xyz
x,y,z
-x,-y,z
x,-y,-z
-x,y,-z
-x,-y,-z
x,y,-z
-x,y,z
x,-y,z
loop_
_atom_site_type_symbol
_atom_site_label
_atom_site_fract_x
_atom_site_fract_y
_atom_site_fract_z
Si Si1 0.698393 0.365399 0.334947
Si Si2 0.702235 0.057250 0.342659
Si Si3 0.800391 0.846982 0.844559
Si Si4 0.298855 0.266340 0.157005
Si Si5 0.000000 0.558913 0.666926
O O1 0.710154 0.357815 0.500000
O O2 0.500000 0.376659 0.304894
O O3 0.751155 0.313361 0.255030
O O4 0.830474 0.410034 0.294834
O O5 0.761007 0.064723 0.500000
O O6 0.500000 0.055883 0.345911
O O7 0.751383 0.104593 0.247450
O O8 0.760124 0.000000 0.295993
O O9 0.746343 0.790755 0.790446
O O10 0.000000 0.846290 0.853222
O O11 0.729869 0.852038 0.000000
O O12 0.500000 0.268610 0.149518
O O13 0.232115 0.271439 0.000000
O O14 0.000000 0.500000 0.717661
O O15 0.000000 0.557163 0.500000
#
# Coordination Sequence:
#
# PCOD9386876 Si02
#       5
#     8   8   8   8   4
#     4   9  18  32  51  76 103 133 172 214 254 301
#     4   9  19  36  55  73  95 127 168 211 254 302
#     4  10  21  34  49  74 104 132 165 205 251 306
#     4   9  18  33  52  73  99 132 167 205 251 299
#     4   9  18  32  51  77 107 137 170 211 256 299
#
# _framework density 17.987666000000001
#
# number of rings (size 3 to 8) (size 9 to 14) (size 15 to 20)
#    0.000    2.778    0.000    1.333    1.556    4.000 
#    0.000    7.778    0.000    1.333    0.000    3.111 
#    0.000    0.000    0.000    0.000    0.000    0.000 
#
# Total GULP energy -200584.877676 kJ/mol
# GULP energy per Si atom -5571.802158 kJ/mol
# Density = 1.794673 g / cm^3
# Si number density = 17.987666 Si / 1000 Ang^3
#
#
#
# Elastic Constant Matrix: (Units=GPa)
#
#
# Indices 1 2 3 4 5 6 
#
# 1 52.3523 59.5474 26.3327 0.0000 0.0000 0.0000
# 2 59.5474 209.6281 73.4613 0.0000 0.0000 0.0000
# 3 26.3327 73.4613 41.5728 0.0000 0.0000 0.0000
# 4 0.0000 0.0000 0.0000 422.5448 0.0000 0.0000
# 5 0.0000 0.0000 0.0000 0.0000 14.8456 0.0000
# 6 0.0000 0.0000 0.0000 0.0000 0.0000 41.8511
#
#
#
# Elastic Compliance Matrix: (Units=1/GPa)
#
#
# Indices 1 2 3 4 5 6 
#
# 1 0.029806 -0.004861 -0.010291 0.000000 0.000000 0.000000
# 2 -0.004861 0.013321 -0.020460 0.000000 0.000000 0.000000
# 3 -0.010291 -0.020460 0.066727 0.000000 0.000000 0.000000
# 4 0.000000 0.000000 0.000000 0.002367 0.000000 0.000000
# 5 0.000000 0.000000 0.000000 0.000000 0.067360 0.000000
# 6 0.000000 0.000000 0.000000 0.000000 0.000000 0.023894
#
#
# Mechanical properties :
#
#
# Convention : Reuss Voigt Hill
#
# Bulk Modulus (GPa) = 25.88595 69.13735 47.51165
# Shear Modulus (GPa) = 17.38677 105.46241 61.42459
#
# Velocity S-wave (km/s) = 3.11238 7.66536 5.84998
# Velocity P-wave (km/s) = 5.22858 10.81032 8.49120
#
# Compressibility (1/GPa) = 0.03863100
#
# Stress axis : x y z
#
# Youngs Moduli (GPa) = 33.55035 75.06876 14.98646
#
# Poissons Ratio (x) = 0.36488 0.15422
# Poissons Ratio (y) = 0.16307 0.30663
# Poissons Ratio (z) = 0.34525 1.53594
#
# Static dielectric constant tensor:
#      x y z
#    x 1.631850 0.000000 0.000000 
#    y 0.000000 1.608820 0.000000 
#    z 0.000000 0.000000 1.625070 
# 
# From -- ./inp_files/1394.got.cif
#   From: 2010.05.17/outbox.cif.g08.bks.cpg/sg47_1_cif.got.tgz:1394.got - 2010.06.03 20:15:42.
