data_PCOD9386190
_publ_section_title
;
Structure prediction by ZEFSAII (Michael W. Deem and Ramdas Pophale) SiO2 
 PCOD9386190
Probable space group: P M M M
;
_chemical_formula_sum "Si O2"
_cell_formula_units_Z 40
_cell_length_a 16.208625
_cell_length_b 14.974903
_cell_length_c 7.584094
_cell_angle_alpha 90.000000
_cell_angle_beta 90.000000
_cell_angle_gamma 90.000000
_cell_volume 1840.830917
_symmetry_space_group_name_H-M "P M M M"
_symmetry_group_IT_number 47
_symmetry_cell_setting 'orthorhombic'
loop_
_space_group_symop_operation_xyz
x,y,z
-x,-y,z
x,-y,-z
-x,y,-z
-x,-y,-z
x,y,-z
-x,y,z
x,-y,z
loop_
_atom_site_type_symbol
_atom_site_label
_atom_site_fract_x
_atom_site_fract_y
_atom_site_fract_z
Si Si1 0.409807 0.285982 0.212263
Si Si2 0.247448 0.398813 0.711364
Si Si3 0.089457 0.291365 0.707823
Si Si4 0.149756 0.901712 0.787177
Si Si5 0.657120 0.098132 0.785167
O O1 0.500000 0.316118 0.275073
O O2 0.333348 0.349005 0.255495
O O3 0.390827 0.185348 0.276421
O O4 0.412593 0.281776 0.000000
O O5 0.238972 0.402913 0.500000
O O6 0.247669 0.500000 0.779426
O O7 0.169705 0.341812 0.781535
O O8 0.086913 0.312069 0.500000
O O9 0.102538 0.185219 0.724337
O O10 0.000000 0.316072 0.783766
O O11 0.246310 0.893117 0.736404
O O12 0.120562 0.000000 0.728506
O O13 0.146611 0.900986 0.000000
O O14 0.627723 0.000000 0.727474
O O15 0.654252 0.098086 0.000000
#
# Coordination Sequence:
#
# PCOD9386190 Si02
#       5
#     8   8   8   8   8
#     4  10  20  34  56  85 112 139 174 217 263 310
#     4  10  22  40  59  77 101 137 178 221 272 324
#     4  10  21  36  55  80 107 136 175 223 271 316
#     4   9  17  31  53  79 108 144 181 214 253 307
#     4   8  14  27  49  77 108 140 173 209 250 299
#
# _framework density 21.729315
#
# number of rings (size 3 to 8) (size 9 to 14) (size 15 to 20)
#    0.000    2.600    2.000    1.200    0.000    3.200 
#    0.000    8.000    0.000    0.600    0.000    4.200 
#    0.000    0.000    0.000    0.000    0.000    0.000 
#
# Total GULP energy -223272.689941 kJ/mol
# GULP energy per Si atom -5581.817249 kJ/mol
# Density = 2.167986 g / cm^3
# Si number density = 21.729315 Si / 1000 Ang^3
#
#
#
# Elastic Constant Matrix: (Units=GPa)
#
#
# Indices 1 2 3 4 5 6 
#
# 1 183.5649 106.8827 8.1733 0.0000 0.0000 0.0000
# 2 106.8827 158.6522 1.8667 0.0000 0.0000 0.0000
# 3 8.1733 1.8667 47.2811 0.0000 0.0000 0.0000
# 4 0.0000 0.0000 0.0000 18.2102 0.0000 0.0000
# 5 0.0000 0.0000 0.0000 0.0000 22.2578 0.0000
# 6 0.0000 0.0000 0.0000 0.0000 0.0000 -8.2260
#
#
#
# Elastic Compliance Matrix: (Units=1/GPa)
#
#
# Indices 1 2 3 4 5 6 
#
# 1 0.009046 -0.006079 -0.001324 0.000000 0.000000 0.000000
# 2 -0.006079 0.010391 0.000641 0.000000 0.000000 0.000000
# 3 -0.001324 0.000641 0.021354 0.000000 0.000000 0.000000
# 4 0.000000 0.000000 0.000000 0.054914 0.000000 0.000000
# 5 0.000000 0.000000 0.000000 0.000000 0.044928 0.000000
# 6 0.000000 0.000000 0.000000 0.000000 0.000000 -0.121566
#
#
# Mechanical properties :
#
#
# Convention : Reuss Voigt Hill
#
# Bulk Modulus (GPa) = 36.67482 69.26040 52.96761
# Shear Modulus (GPa) = 119.96543 24.62011 72.29277
#
# Velocity S-wave (km/s) = 7.43834 3.36971 5.77425
# Velocity P-wave (km/s) = 9.52295 6.86173 8.29969
#
# Compressibility (1/GPa) = 0.02726666
#
# Stress axis : x y z
#
# Youngs Moduli (GPa) = 110.54694 96.24028 46.83039
#
# Poissons Ratio (x) = 0.58501 0.06199
# Poissons Ratio (y) = 0.67197 -0.03000
# Poissons Ratio (z) = 0.14634 -0.06165
#
# Static dielectric constant tensor:
#      x y z
#    x 1.799760 0.000000 0.000000 
#    y 0.000000 1.770980 0.000000 
#    z 0.000000 0.000000 1.836290 
# 
# From -- ./inp_files/5662.got.cif
#   From: 2010.05.17/outbox.cif.g08.bks.cpg/sg47_3_cif.got.tgz:5662.got - 2010.06.03 20:15:42.
