data_PCOD9386014
_publ_section_title
;
Structure prediction by ZEFSAII (Michael W. Deem and Ramdas Pophale) SiO2 
 PCOD9386014
Probable space group: P M M M
;
_chemical_formula_sum "Si O2"
_cell_formula_units_Z 40
_cell_length_a 8.189055
_cell_length_b 26.536204
_cell_length_c 9.232936
_cell_angle_alpha 90.000000
_cell_angle_beta 90.000000
_cell_angle_gamma 90.000000
_cell_volume 2006.376398
_symmetry_space_group_name_H-M "P M M M"
_symmetry_group_IT_number 47
_symmetry_cell_setting 'orthorhombic'
loop_
_space_group_symop_operation_xyz
x,y,z
-x,-y,z
x,-y,-z
-x,y,-z
-x,-y,-z
x,y,-z
-x,y,z
x,-y,z
loop_
_atom_site_type_symbol
_atom_site_label
_atom_site_fract_x
_atom_site_fract_y
_atom_site_fract_z
Si Si1 0.302604 0.100623 0.666334
Si Si2 0.195456 0.500000 0.665878
Si Si3 0.304604 0.400242 0.165802
Si Si4 0.802629 0.200637 0.166222
Si Si5 0.802785 0.699501 0.665985
Si Si6 0.699679 0.000000 0.832864
O O1 0.245257 0.101228 0.500000
O O2 0.500000 0.099414 0.664213
O O3 0.249423 0.150501 0.750381
O O4 0.246937 0.050355 0.749691
O O5 0.256994 0.500000 0.500000
O O6 0.250969 0.549793 0.749902
O O7 0.000000 0.500000 0.661235
O O8 0.500000 0.399538 0.161671
O O9 0.245992 0.350663 0.249276
O O10 0.242976 0.400678 0.000000
O O11 0.744839 0.250563 0.250268
O O12 0.000000 0.202135 0.163940
O O13 0.744799 0.200211 0.000000
O O14 0.743930 0.698578 0.500000
O O15 0.000000 0.701404 0.662257
O O16 0.500000 0.000000 0.832495
O O17 0.752214 0.000000 0.000000
#
# Coordination Sequence:
#
# PCOD9386014 Si02
#       6
#     8   4   8   8   8   4
#     4  10  20  34  54  80 109 142 181 225 274 329
#     4  11  24  41  62  88 116 149 190 231 274 328
#     4  11  24  40  59  86 118 150 186 229 276 325
#     4  10  21  37  57  81 110 145 184 227 276 328
#     4  10  21  38  60  84 110 144 186 228 273 329
#     4   9  17  31  52  77 106 141 180 224 274 327
#
# _framework density 19.936440000000001
#
# number of rings (size 3 to 8) (size 9 to 14) (size 15 to 20)
#    0.000    1.800    0.000    3.900    0.000   11.600 
#    0.000    0.500    0.000    3.000    0.000    0.000 
#    0.000    0.000    0.000    0.000    0.000    0.000 
#
# Total GULP energy -223612.426883 kJ/mol
# GULP energy per Si atom -5590.310672 kJ/mol
# Density = 1.989106 g / cm^3
# Si number density = 19.936440 Si / 1000 Ang^3
#
#
#
# Elastic Constant Matrix: (Units=GPa)
#
#
# Indices 1 2 3 4 5 6 
#
# 1 11.4526 12.4709 20.6837 0.0000 0.0000 0.0000
# 2 12.4709 244.9362 153.3278 0.0000 0.0000 0.0000
# 3 20.6837 153.3278 256.1761 0.0000 0.0000 0.0000
# 4 0.0000 0.0000 0.0000 46.7322 0.0000 0.0000
# 5 0.0000 0.0000 0.0000 0.0000 24.9241 0.0000
# 6 0.0000 0.0000 0.0000 0.0000 0.0000 35.5618
#
#
#
# Elastic Compliance Matrix: (Units=1/GPa)
#
#
# Indices 1 2 3 4 5 6 
#
# 1 0.102223 -0.000061 -0.008217 0.000000 0.000000 0.000000
# 2 -0.000061 0.006529 -0.003903 0.000000 0.000000 0.000000
# 3 -0.008217 -0.003903 0.006903 0.000000 0.000000 0.000000
# 4 0.000000 0.000000 0.000000 0.021399 0.000000 0.000000
# 5 0.000000 0.000000 0.000000 0.000000 0.040122 0.000000
# 6 0.000000 0.000000 0.000000 0.000000 0.000000 0.028120
#
#
# Mechanical properties :
#
#
# Convention : Reuss Voigt Hill
#
# Bulk Modulus (GPa) = 10.95372 98.39218 54.67295
# Shear Modulus (GPa) = 19.22430 43.18245 31.20337
#
# Velocity S-wave (km/s) = 3.10865 4.65909 3.96048
# Velocity P-wave (km/s) = 4.28850 8.85454 6.95680
#
# Compressibility (1/GPa) = 0.09129317
#
# Stress axis : x y z
#
# Youngs Moduli (GPa) = 9.78256 153.16481 144.86573
#
# Poissons Ratio (x) = 0.00932 1.19037
# Poissons Ratio (y) = 0.00059 0.56538
# Poissons Ratio (z) = 0.08038 0.59777
#
# Static dielectric constant tensor:
#      x y z
#    x 1.710830 0.000000 0.000000 
#    y 0.000000 1.653420 0.000000 
#    z 0.000000 0.000000 1.693440 
# 
# From -- ./inp_files/1747.got.cif
#   From: 2010.05.17/outbox.cif.g08.bks.cpg/sg47_1_cif.got.tgz:1747.got - 2010.06.03 20:15:42.
