data_PCOD9386647
_publ_section_title
;
Structure prediction by ZEFSAII (Michael W. Deem and Ramdas Pophale) SiO2 
 PCOD9386647
Probable space group: P M M M
;
_chemical_formula_sum "Si O2"
_cell_formula_units_Z 46
_cell_length_a 20.416775
_cell_length_b 14.777420
_cell_length_c 7.521471
_cell_angle_alpha 90.000000
_cell_angle_beta 90.000000
_cell_angle_gamma 90.000000
_cell_volume 2269.282401
_symmetry_space_group_name_H-M "P M M M"
_symmetry_group_IT_number 47
_symmetry_cell_setting 'orthorhombic'
loop_
_space_group_symop_operation_xyz
x,y,z
-x,-y,z
x,-y,-z
-x,y,-z
-x,-y,-z
x,y,-z
-x,y,z
x,-y,z
loop_
_atom_site_type_symbol
_atom_site_label
_atom_site_fract_x
_atom_site_fract_y
_atom_site_fract_z
Si Si1 0.170603 0.899928 0.708749
Si Si2 0.676898 0.101344 0.785580
Si Si3 0.132249 0.290667 0.288114
Si Si4 0.391120 0.284123 0.206403
Si Si5 0.000000 0.602276 0.788867
Si Si6 0.738513 0.395199 0.716120
Si Si7 0.500000 0.673307 0.500000
O O1 0.154204 0.905680 0.500000
O O2 0.248776 0.882580 0.722345
O O3 0.134703 0.811839 0.784208
O O4 0.158285 0.000000 0.786664
O O5 0.628910 0.182161 0.733826
O O6 0.657431 0.000000 0.727771
O O7 0.679293 0.102167 0.000000
O O8 0.141656 0.282876 0.500000
O O9 0.065050 0.343177 0.260645
O O10 0.194636 0.347348 0.221936
O O11 0.324385 0.341739 0.215441
O O12 0.443108 0.323370 0.343252
O O13 0.413256 0.281474 0.000000
O O14 0.000000 0.500000 0.714348
O O15 0.000000 0.595139 0.000000
O O16 0.736751 0.392062 0.500000
O O17 0.737371 0.500000 0.769014
#
# Coordination Sequence:
#
# PCOD9386647 Si02
#       7
#     8   8   8   8   4   8   2
#     4   9  17  30  55  90 121 151 193 242 293 351
#     4   9  18  33  56  87 121 155 196 249 300 352
#     4  10  20  36  61  89 122 159 201 246 300 361
#     4  11  23  41  64  90 121 163 207 252 309 370
#     4  11  25  41  56  81 120 162 205 255 310 365
#     4  10  20  37  63  93 122 153 199 260 310 360
#     4  12  26  44  66  86 132 162 202 254 308 380
#
# _framework density 20.270727000000001
#
# number of rings (size 3 to 8) (size 9 to 14) (size 15 to 20)
#    0.000    2.000    2.609    1.043    1.217    3.130 
#    0.000    2.174    0.000    5.739    0.000    0.000 
#    0.000    0.000    0.000    0.000    0.000    0.000 
#
# Total GULP energy -256299.264366 kJ/mol
# GULP energy per Si atom -5571.723138 kJ/mol
# Density = 2.022459 g / cm^3
# Si number density = 20.270727 Si / 1000 Ang^3
#
#
#
# Elastic Constant Matrix: (Units=GPa)
#
#
# Indices 1 2 3 4 5 6 
#
# 1 127.9447 43.6912 20.0913 0.0000 0.0000 0.0000
# 2 43.6912 60.7872 26.6853 0.0000 0.0000 0.0000
# 3 20.0913 26.6853 76.0533 0.0000 0.0000 0.0000
# 4 0.0000 0.0000 0.0000 12.1326 0.0000 0.0000
# 5 0.0000 0.0000 0.0000 0.0000 90.5917 0.0000
# 6 0.0000 0.0000 0.0000 0.0000 0.0000 -48.3626
#
#
#
# Elastic Compliance Matrix: (Units=1/GPa)
#
#
# Indices 1 2 3 4 5 6 
#
# 1 0.010360 -0.007382 -0.000147 0.000000 0.000000 0.000000
# 2 -0.007382 0.024706 -0.006719 0.000000 0.000000 0.000000
# 3 -0.000147 -0.006719 0.015545 0.000000 0.000000 0.000000
# 4 0.000000 0.000000 0.000000 0.082422 0.000000 0.000000
# 5 0.000000 0.000000 0.000000 0.000000 0.011039 0.000000
# 6 0.000000 0.000000 0.000000 0.000000 0.000000 -0.020677
#
#
# Mechanical properties :
#
#
# Convention : Reuss Voigt Hill
#
# Bulk Modulus (GPa) = 45.21542 49.52452 47.36997
# Shear Modulus (GPa) = 31.39514 22.49351 26.94432
#
# Velocity S-wave (km/s) = 3.93974 3.33476 3.64981
# Velocity P-wave (km/s) = 6.56122 6.26994 6.41723
#
# Compressibility (1/GPa) = 0.02211635
#
# Stress axis : x y z
#
# Youngs Moduli (GPa) = 96.52845 40.47615 64.33000
#
# Poissons Ratio (x) = 0.29878 0.00944
# Poissons Ratio (y) = 0.71254 0.43221
# Poissons Ratio (z) = 0.01416 0.27195
#
# Static dielectric constant tensor:
#      x y z
#    x 1.679590 0.000000 0.000000 
#    y 0.000000 1.766660 0.000000 
#    z 0.000000 0.000000 1.755000 
# 
# From -- ./inp_files/10898.got.cif
#   From: 2010.05.17/outbox.cif.g08.bks.cpg/sg47_6_cif.got.tgz:10898.got - 2010.06.03 20:15:42.
