data_PCOD9386257
_publ_section_title
;
Structure prediction by ZEFSAII (Michael W. Deem and Ramdas Pophale) SiO2 
 PCOD9386257
Probable space group: P M M M
;
_chemical_formula_sum "Si O2"
_cell_formula_units_Z 56
_cell_length_a 15.215276
_cell_length_b 8.541357
_cell_length_c 22.601635
_cell_angle_alpha 90.000000
_cell_angle_beta 90.000000
_cell_angle_gamma 90.000000
_cell_volume 2937.288237
_symmetry_space_group_name_H-M "P M M M"
_symmetry_group_IT_number 47
_symmetry_cell_setting 'orthorhombic'
loop_
_space_group_symop_operation_xyz
x,y,z
-x,-y,z
x,-y,-z
-x,y,-z
-x,-y,-z
x,y,-z
-x,y,z
x,-y,z
loop_
_atom_site_type_symbol
_atom_site_label
_atom_site_fract_x
_atom_site_fract_y
_atom_site_fract_z
Si Si1 0.100057 0.177607 0.237100
Si Si2 0.655238 0.317655 0.370141
Si Si3 0.159597 0.176505 0.629949
Si Si4 0.100007 0.690312 0.069260
Si Si5 0.242476 0.679880 0.162639
Si Si6 0.604425 0.321071 0.500000
Si Si7 0.000000 0.326969 0.431083
Si Si8 0.599999 0.812744 0.241545
O O1 0.111828 0.174110 0.307007
O O2 0.167555 0.302008 0.212281
O O3 0.000000 0.212763 0.221960
O O4 0.121857 0.000000 0.215763
O O5 0.629067 0.500000 0.369410
O O6 0.759380 0.293388 0.367723
O O7 0.629032 0.251871 0.435399
O O8 0.619823 0.243411 0.308962
O O9 0.086512 0.232450 0.585275
O O10 0.191988 0.000000 0.617942
O O11 0.099392 0.500000 0.074858
O O12 0.184841 0.745882 0.106998
O O13 0.000000 0.742489 0.086727
O O14 0.110362 0.728037 0.000000
O O15 0.264081 0.500000 0.149797
O O16 0.328378 0.755510 0.193175
O O17 0.641740 0.500000 0.500000
O O18 0.500000 0.329730 0.500000
O O19 0.000000 0.500000 0.401772
O O20 0.000000 0.347217 0.500000
O O21 0.500000 0.764177 0.226476
O O22 0.604763 0.000000 0.242394
#
# Coordination Sequence:
#
# PCOD9386257 Si02
#       8
#     8   8   8   8   8   4   4   8
#     4  10  20  35  53  75 110 149 181 220 272 329
#     4  11  22  38  61  86 110 139 181 232 290 352
#     4  11  22  38  56  77 107 143 181 222 279 342
#     4   8  15  30  53  85 126 163 191 226 276 333
#     4  11  21  33  56  89 117 147 192 239 284 336
#     4   9  20  38  59  82 107 132 163 217 288 351
#     4  11  25  41  57  77 105 143 192 241 284 331
#     4  11  24  41  59  80 112 153 194 240 296 353
#
# _framework density 19.065204000000001
#
# number of rings (size 3 to 8) (size 9 to 14) (size 15 to 20)
#    0.000    1.714    2.143    3.214    1.000    3.714 
#    0.000    1.071    0.000    4.714    0.000    8.000 
#    0.000    0.000    0.000    0.000    0.000    0.000 
#
# Total GULP energy -311996.229815 kJ/mol
# GULP energy per Si atom -5571.361247 kJ/mol
# Density = 1.902181 g / cm^3
# Si number density = 19.065204 Si / 1000 Ang^3
#
#
#
# Elastic Constant Matrix: (Units=GPa)
#
#
# Indices 1 2 3 4 5 6 
#
# 1 126.5413 15.6487 62.9041 0.0000 0.0000 0.0000
# 2 15.6487 21.5806 19.3010 0.0000 0.0000 0.0000
# 3 62.9041 19.3010 122.0496 0.0000 0.0000 0.0000
# 4 0.0000 0.0000 0.0000 23.3875 0.0000 0.0000
# 5 0.0000 0.0000 0.0000 0.0000 11.8670 0.0000
# 6 0.0000 0.0000 0.0000 0.0000 0.0000 -39.6130
#
#
#
# Elastic Compliance Matrix: (Units=1/GPa)
#
#
# Indices 1 2 3 4 5 6 
#
# 1 0.010826 -0.003331 -0.005053 0.000000 0.000000 0.000000
# 2 -0.003331 0.054996 -0.006980 0.000000 0.000000 0.000000
# 3 -0.005053 -0.006980 0.011902 0.000000 0.000000 0.000000
# 4 0.000000 0.000000 0.000000 0.042758 0.000000 0.000000
# 5 0.000000 0.000000 0.000000 0.000000 0.084267 0.000000
# 6 0.000000 0.000000 0.000000 0.000000 0.000000 -0.025244
#
#
# Mechanical properties :
#
#
# Convention : Reuss Voigt Hill
#
# Bulk Modulus (GPa) = 21.27875 51.76436 36.52155
# Shear Modulus (GPa) = 22.13376 10.61617 16.37496
#
# Velocity S-wave (km/s) = 3.41097 2.36229 2.93387
# Velocity P-wave (km/s) = 5.16703 5.88649 5.53845
#
# Compressibility (1/GPa) = 0.04699523
#
# Stress axis : x y z
#
# Youngs Moduli (GPa) = 92.36650 18.18302 84.02214
#
# Poissons Ratio (x) = 0.06057 0.42457
# Poissons Ratio (y) = 0.30769 0.58650
# Poissons Ratio (z) = 0.46674 0.12692
#
# Static dielectric constant tensor:
#      x y z
#    x 1.668700 0.000000 0.000000 
#    y 0.000000 1.718820 0.000000 
#    z 0.000000 0.000000 1.696650 
# 
# From -- ./inp_files/31011.got.cif
#   From: 2010.05.17/outbox.cif.g08.bks.cpg/sg47_16_cif.got.tgz:31011.got - 2010.06.03 20:15:42.
