data_PCOD9386094
_publ_section_title
;
Structure prediction by ZEFSAII (Michael W. Deem and Ramdas Pophale) SiO2 
 PCOD9386094
Probable space group: P M M M
;
_chemical_formula_sum "Si O2"
_cell_formula_units_Z 41
_cell_length_a 7.563727
_cell_length_b 9.913926
_cell_length_c 26.098557
_cell_angle_alpha 90.000000
_cell_angle_beta 90.000000
_cell_angle_gamma 90.000000
_cell_volume 1957.032392
_symmetry_space_group_name_H-M "P M M M"
_symmetry_group_IT_number 47
_symmetry_cell_setting 'orthorhombic'
loop_
_space_group_symop_operation_xyz
x,y,z
-x,-y,z
x,-y,-z
-x,y,-z
-x,-y,-z
x,y,-z
-x,y,z
x,-y,z
loop_
_atom_site_type_symbol
_atom_site_label
_atom_site_fract_x
_atom_site_fract_y
_atom_site_fract_z
Si Si1 0.210096 0.651727 0.703183
Si Si2 0.211964 0.152504 0.791175
Si Si3 0.713831 0.150020 0.611362
Si Si4 0.283246 0.655155 0.000000
Si Si5 0.500000 0.500000 0.500000
Si Si6 0.712105 0.846861 0.908638
Si Si7 0.303024 0.779280 0.500000
O O1 0.282599 0.500000 0.700195
O O2 0.282487 0.741205 0.750069
O O3 0.234201 0.735401 0.651218
O O4 0.000000 0.640304 0.711526
O O5 0.247690 0.190136 0.850016
O O6 0.000000 0.146465 0.785081
O O7 0.280773 0.000000 0.782864
O O8 0.500000 0.152914 0.609683
O O9 0.780198 0.178904 0.553819
O O10 0.769692 0.000000 0.628123
O O11 0.224831 0.739065 0.049914
O O12 0.225513 0.500000 0.000000
O O13 0.500000 0.653523 0.000000
O O14 0.348479 0.620458 0.500000
O O15 0.500000 0.852545 0.913727
O O16 0.779002 0.000000 0.917670
O O17 0.500000 0.845312 0.500000
#
# Coordination Sequence:
#
# PCOD9386094 Si02
#       7
#     8   8   8   4   1   8   4
#     4  10  22  37  53  74 103 138 174 210 257 311
#     4   9  18  34  53  71  95 130 167 205 251 299
#     4  10  20  34  55  80 105 133 171 214 254 301
#     4   9  17  29  46  71 100 130 158 193 240 292
#     4   8  16  28  50  80 106 144 162 200 258 314
#     4   9  17  30  50  73  97 125 161 202 242 289
#     4   8  17  30  51  76 106 135 168 201 254 307
#
# _framework density 20.950089999999999
#
# number of rings (size 3 to 8) (size 9 to 14) (size 15 to 20)
#    0.293    2.439    0.000    1.171    1.366    5.463 
#    0.000    2.927    0.000    5.268    0.000    0.000 
#    0.000    0.000    0.000    0.000    0.000    0.000 
#
# Total GULP energy -228475.284364 kJ/mol
# GULP energy per Si atom -5572.567911 kJ/mol
# Density = 2.090241 g / cm^3
# Si number density = 20.950090 Si / 1000 Ang^3
#
#
#
# Elastic Constant Matrix: (Units=GPa)
#
#
# Indices 1 2 3 4 5 6 
#
# 1 47.1296 7.5040 -2.0987 0.0000 0.0000 0.0000
# 2 7.5040 190.9831 132.7330 0.0000 0.0000 0.0000
# 3 -2.0987 132.7330 180.5204 0.0000 0.0000 0.0000
# 4 0.0000 0.0000 0.0000 40.8546 0.0000 0.0000
# 5 0.0000 0.0000 0.0000 0.0000 25.6839 0.0000
# 6 0.0000 0.0000 0.0000 0.0000 0.0000 10.3867
#
#
#
# Elastic Compliance Matrix: (Units=1/GPa)
#
#
# Indices 1 2 3 4 5 6 
#
# 1 0.021632 -0.002096 0.001792 0.000000 0.000000 0.000000
# 2 -0.002096 0.010911 -0.008047 0.000000 0.000000 0.000000
# 3 0.001792 -0.008047 0.011477 0.000000 0.000000 0.000000
# 4 0.000000 0.000000 0.000000 0.024477 0.000000 0.000000
# 5 0.000000 0.000000 0.000000 0.000000 0.038935 0.000000
# 6 0.000000 0.000000 0.000000 0.000000 0.000000 0.096277
#
#
# Mechanical properties :
#
#
# Convention : Reuss Voigt Hill
#
# Bulk Modulus (GPa) = 36.60424 77.21215 56.90820
# Shear Modulus (GPa) = 21.78496 34.08469 27.93483
#
# Velocity S-wave (km/s) = 3.22817 4.03792 3.65553
# Velocity P-wave (km/s) = 5.60400 7.65996 6.71118
#
# Compressibility (1/GPa) = 0.02731924
#
# Stress axis : x y z
#
# Youngs Moduli (GPa) = 46.22870 91.64966 87.12898
#
# Poissons Ratio (x) = 0.19206 -0.15617
# Poissons Ratio (y) = 0.09688 0.70113
# Poissons Ratio (z) = -0.08286 0.73751
#
# Static dielectric constant tensor:
#      x y z
#    x 1.795070 0.000000 0.000000 
#    y 0.000000 1.740980 0.000000 
#    z 0.000000 0.000000 1.733080 
# 
# From -- ./inp_files/33113.got.cif
#   From: 2010.05.17/outbox.cif.g08.bks.cpg/sg47_17_cif.got.tgz:33113.got - 2010.06.03 20:15:42.
