data_PCOD9386510
_publ_section_title
;
Structure prediction by ZEFSAII (Michael W. Deem and Ramdas Pophale) SiO2 
 PCOD9386510
Probable space group: P M M M
;
_chemical_formula_sum "Si O2"
_cell_formula_units_Z 48
_cell_length_a 34.225603
_cell_length_b 8.359806
_cell_length_c 7.672778
_cell_angle_alpha 90.000000
_cell_angle_beta 90.000000
_cell_angle_gamma 90.000000
_cell_volume 2195.330648
_symmetry_space_group_name_H-M "P M M M"
_symmetry_group_IT_number 47
_symmetry_cell_setting 'orthorhombic'
loop_
_space_group_symop_operation_xyz
x,y,z
-x,-y,z
x,-y,-z
-x,y,-z
-x,-y,-z
x,y,-z
-x,y,z
x,-y,z
loop_
_atom_site_type_symbol
_atom_site_label
_atom_site_fract_x
_atom_site_fract_y
_atom_site_fract_z
Si Si1 0.741235 0.319646 0.789385
Si Si2 0.823185 0.189751 0.204381
Si Si3 0.045635 0.500000 0.286803
Si Si4 0.545739 0.000000 0.787678
Si Si5 0.583683 0.673079 0.797152
Si Si6 0.340129 0.823618 0.294584
Si Si7 0.911271 0.818143 0.297091
O O1 0.732197 0.500000 0.736003
O O2 0.784318 0.272663 0.724989
O O3 0.705380 0.211141 0.732488
O O4 0.742869 0.311394 0.000000
O O5 0.865135 0.221398 0.287736
O O6 0.816285 0.000000 0.216689
O O7 0.827197 0.232012 0.000000
O O8 0.049354 0.500000 0.500000
O O9 0.065615 0.334669 0.223446
O O10 0.000000 0.500000 0.244112
O O11 0.565151 0.164652 0.721846
O O12 0.500000 0.000000 0.748269
O O13 0.550208 0.000000 0.000000
O O14 0.573367 0.500000 0.719525
O O15 0.630391 0.698027 0.788708
O O16 0.571924 0.668461 0.000000
O O17 0.347733 0.821199 0.500000
O O18 0.349270 0.000000 0.223578
O O19 0.922528 0.829621 0.500000
O O20 0.916477 0.000000 0.222554
#
# Coordination Sequence:
#
# PCOD9386510 Si02
#       7
#     8   8   4   4   8   8   8
#     4  10  21  35  52  77 106 138 179 224 269 322
#     4   9  18  33  52  74 101 135 172 211 260 314
#     4   9  18  32  51  77 105 133 171 217 265 315
#     4   9  18  34  57  87 119 147 181 229 279 325
#     4  10  20  35  58  85 112 147 186 224 273 330
#     4  11  23  37  54  77 107 145 187 229 275 324
#     4   9  18  32  51  75 102 134 172 214 259 310
#
# _framework density 21.864588999999999
#
# number of rings (size 3 to 8) (size 9 to 14) (size 15 to 20)
#    0.000    2.333    0.833    1.500    1.167    5.667 
#    0.000    5.000    0.000    2.000    0.000    3.500 
#    0.000    0.000    0.000    0.000    0.000    0.000 
#
# Total GULP energy -267880.680098 kJ/mol
# GULP energy per Si atom -5580.847502 kJ/mol
# Density = 2.181482 g / cm^3
# Si number density = 21.864589 Si / 1000 Ang^3
#
#
#
# Elastic Constant Matrix: (Units=GPa)
#
#
# Indices 1 2 3 4 5 6 
#
# 1 102.5202 77.8954 -4.7486 0.0000 0.0000 0.0000
# 2 77.8954 168.9822 13.0272 0.0000 0.0000 0.0000
# 3 -4.7486 13.0272 38.5624 0.0000 0.0000 0.0000
# 4 0.0000 0.0000 0.0000 1.9581 0.0000 0.0000
# 5 0.0000 0.0000 0.0000 0.0000 9.0933 0.0000
# 6 0.0000 0.0000 0.0000 0.0000 0.0000 9.2060
#
#
#
# Elastic Compliance Matrix: (Units=1/GPa)
#
#
# Indices 1 2 3 4 5 6 
#
# 1 0.015740 -0.007603 0.004507 0.000000 0.000000 0.000000
# 2 -0.007603 0.009749 -0.004229 0.000000 0.000000 0.000000
# 3 0.004507 -0.004229 0.027916 0.000000 0.000000 0.000000
# 4 0.000000 0.000000 0.000000 0.510704 0.000000 0.000000
# 5 0.000000 0.000000 0.000000 0.000000 0.109971 0.000000
# 6 0.000000 0.000000 0.000000 0.000000 0.000000 0.108625
#
#
# Mechanical properties :
#
#
# Convention : Reuss Voigt Hill
#
# Bulk Modulus (GPa) = 25.80486 53.60143 39.70315
# Shear Modulus (GPa) = 6.17076 18.97752 12.57414
#
# Velocity S-wave (km/s) = 1.68178 2.94931 2.40071
# Velocity P-wave (km/s) = 3.94955 6.01384 5.08750
#
# Compressibility (1/GPa) = 0.03875238
#
# Stress axis : x y z
#
# Youngs Moduli (GPa) = 63.53383 102.57949 35.82205
#
# Poissons Ratio (x) = 0.77990 -0.16144
# Poissons Ratio (y) = 0.48304 0.15151
# Poissons Ratio (z) = -0.28632 0.43386
#
# Static dielectric constant tensor:
#      x y z
#    x 1.758460 0.000000 0.000000 
#    y 0.000000 1.822290 0.000000 
#    z 0.000000 0.000000 1.823800 
# 
# From -- ./inp_files/13839.got.cif
#   From: 2010.05.17/outbox.cif.g08.bks.cpg/sg47_7_cif.got.tgz:13839.got - 2010.06.03 20:15:42.
