data_PCOD9386784
_publ_section_title
;
Structure prediction by ZEFSAII (Michael W. Deem and Ramdas Pophale) SiO2 
 PCOD9386784
Probable space group: P M M M
;
_chemical_formula_sum "Si O2"
_cell_formula_units_Z 36
_cell_length_a 7.501094
_cell_length_b 17.444619
_cell_length_c 13.131630
_cell_angle_alpha 90.000000
_cell_angle_beta 90.000000
_cell_angle_gamma 90.000000
_cell_volume 1718.322726
_symmetry_space_group_name_H-M "P M M M"
_symmetry_group_IT_number 47
_symmetry_cell_setting 'orthorhombic'
loop_
_space_group_symop_operation_xyz
x,y,z
-x,-y,z
x,-y,-z
-x,y,-z
-x,-y,-z
x,y,-z
-x,y,z
x,-y,z
loop_
_atom_site_type_symbol
_atom_site_label
_atom_site_fract_x
_atom_site_fract_y
_atom_site_fract_z
Si Si1 0.794120 0.082358 0.663336
Si Si2 0.715618 0.122941 0.110946
Si Si3 0.718175 0.412204 0.000000
Si Si4 0.282785 0.705106 0.170630
Si Si5 0.707103 0.253741 0.610190
O O1 0.785572 0.085271 0.786394
O O2 0.710461 0.161517 0.625772
O O3 0.000000 0.085122 0.631837
O O4 0.718469 0.000000 0.630372
O O5 0.500000 0.116447 0.114921
O O6 0.762022 0.213034 0.120599
O O7 0.773735 0.094464 0.000000
O O8 0.775301 0.364400 0.099511
O O9 0.776345 0.500000 0.000000
O O10 0.500000 0.411958 0.000000
O O11 0.500000 0.703227 0.173718
O O12 0.216626 0.709104 0.287002
O O13 0.787591 0.271722 0.500000
O O14 0.500000 0.276513 0.607036
#
# Coordination Sequence:
#
# PCOD9386784 Si02
#       5
#     8   8   4   8   8
#     4  10  21  33  43  61  91 121 148 188 243 290
#     4   9  16  28  47  65  85 120 162 197 227 265
#     4   9  14  20  38  70 102 127 146 170 215 273
#     4   8  13  24  41  63  92 119 148 183 218 262
#     4   9  18  32  50  67  83 114 159 200 233 267
#
# _framework density 20.950661
#
# number of rings (size 3 to 8) (size 9 to 14) (size 15 to 20)
#    0.000    3.000    1.111    2.000    0.000    3.556 
#    0.000    4.444    0.000    0.667    0.000    4.667 
#    0.000   28.444    0.000    8.000    0.000    8.889 
#
# Total GULP energy -200807.649890 kJ/mol
# GULP energy per Si atom -5577.990275 kJ/mol
# Density = 2.090298 g / cm^3
# Si number density = 20.950661 Si / 1000 Ang^3
#
#
#
# Elastic Constant Matrix: (Units=GPa)
#
#
# Indices 1 2 3 4 5 6 
#
# 1 56.2041 -1.5417 1.6659 0.0000 0.0000 0.0000
# 2 -1.5417 119.1349 51.4786 0.0000 0.0000 0.0000
# 3 1.6659 51.4786 179.7234 0.0000 0.0000 0.0000
# 4 0.0000 0.0000 0.0000 57.5022 0.0000 0.0000
# 5 0.0000 0.0000 0.0000 0.0000 -35.6833 0.0000
# 6 0.0000 0.0000 0.0000 0.0000 0.0000 11.6086
#
#
#
# Elastic Compliance Matrix: (Units=1/GPa)
#
#
# Indices 1 2 3 4 5 6 
#
# 1 0.017810 0.000344 -0.000264 0.000000 0.000000 0.000000
# 2 0.000344 0.009586 -0.002749 0.000000 0.000000 0.000000
# 3 -0.000264 -0.002749 0.006354 0.000000 0.000000 0.000000
# 4 0.000000 0.000000 0.000000 0.017391 0.000000 0.000000
# 5 0.000000 0.000000 0.000000 0.000000 -0.028024 0.000000
# 6 0.000000 0.000000 0.000000 0.000000 0.000000 0.086143
#
#
# Mechanical properties :
#
#
# Convention : Reuss Voigt Hill
#
# Bulk Modulus (GPa) = 35.19504 50.91867 43.05685
# Shear Modulus (GPa) = 40.30098 26.91615 33.60856
#
# Velocity S-wave (km/s) = 4.39066 3.58822 4.00956
# Velocity P-wave (km/s) = 6.52222 6.44390 6.48318
#
# Compressibility (1/GPa) = 0.02841310
#
# Stress axis : x y z
#
# Youngs Moduli (GPa) = 56.14959 104.31723 157.38246
#
# Poissons Ratio (x) = -0.03593 0.04151
# Poissons Ratio (y) = -0.01934 0.43264
# Poissons Ratio (z) = 0.01481 0.28677
#
# Static dielectric constant tensor:
#      x y z
#    x 1.795570 0.000000 0.000000 
#    y 0.000000 1.709740 0.000000 
#    z 0.000000 0.000000 1.799360 
# 
# From -- ./inp_files/20569.got.cif
#   From: 2010.05.17/outbox.cif.g08.bks.cpg/sg47_11_cif.got.tgz:20569.got - 2010.06.03 20:15:42.
