data_PCOD9386606
_publ_section_title
;
Structure prediction by ZEFSAII (Michael W. Deem and Ramdas Pophale) SiO2 
 PCOD9386606
Probable space group: P M M M
;
_chemical_formula_sum "Si O2"
_cell_formula_units_Z 44
_cell_length_a 27.704471
_cell_length_b 10.373184
_cell_length_c 8.570011
_cell_angle_alpha 90.000000
_cell_angle_beta 90.000000
_cell_angle_gamma 90.000000
_cell_volume 2462.880402
_symmetry_space_group_name_H-M "P M M M"
_symmetry_group_IT_number 47
_symmetry_cell_setting 'orthorhombic'
loop_
_space_group_symop_operation_xyz
x,y,z
-x,-y,z
x,-y,-z
-x,y,-z
-x,-y,-z
x,y,-z
-x,y,z
x,-y,z
loop_
_atom_site_type_symbol
_atom_site_label
_atom_site_fract_x
_atom_site_fract_y
_atom_site_fract_z
Si Si1 0.000000 0.843738 0.179055
Si Si2 0.709425 0.350604 0.813158
Si Si3 0.444056 0.000000 0.812955
Si Si4 0.444754 0.500000 0.309967
Si Si5 0.815928 0.648986 0.312908
Si Si6 0.894042 0.850083 0.189516
Si Si7 0.387264 0.245835 0.687244
O O1 0.052192 0.809970 0.247841
O O2 0.000000 0.000000 0.172782
O O3 0.000000 0.796229 0.000000
O O4 0.699163 0.500000 0.766537
O O5 0.762343 0.319178 0.748474
O O6 0.667179 0.261393 0.747482
O O7 0.710068 0.344170 0.000000
O O8 0.415628 0.123847 0.751509
O O9 0.500000 0.000000 0.759661
O O10 0.443905 0.000000 0.000000
O O11 0.500000 0.500000 0.256284
O O12 0.445372 0.500000 0.500000
O O13 0.416359 0.626966 0.260160
O O14 0.815934 0.653186 0.500000
O O15 0.826399 0.500000 0.264627
O O16 0.854248 0.750853 0.248274
O O17 0.885028 0.000000 0.235145
O O18 0.895191 0.848404 0.000000
O O19 0.386852 0.241788 0.500000
#
# Coordination Sequence:
#
# PCOD9386606 Si02
#       7
#     4   8   4   4   8   8   8
#     4   7  12  26  50  77 106 140 178 223 272 325
#     4  10  20  36  59  84 111 143 182 228 279 331
#     4  11  25  43  59  81 117 155 187 224 273 326
#     4   9  18  32  55  87 115 139 175 222 267 318
#     4  10  21  36  54  77 109 147 186 226 273 327
#     4   9  17  32  55  82 109 140 182 229 277 326
#     4  11  21  37  61  86 114 146 184 227 274 328
#
# _framework density 17.865258999999998
#
# number of rings (size 3 to 8) (size 9 to 14) (size 15 to 20)
#    0.000    2.273    0.909    3.545    0.000    3.636 
#    1.636    0.909    0.000    6.545    0.000    0.000 
#    0.000    0.000    0.000    0.000    0.000    0.000 
#
# Total GULP energy -245461.168433 kJ/mol
# GULP energy per Si atom -5578.662919 kJ/mol
# Density = 1.782460 g / cm^3
# Si number density = 17.865259 Si / 1000 Ang^3
#
#
#
# Elastic Constant Matrix: (Units=GPa)
#
#
# Indices 1 2 3 4 5 6 
#
# 1 195.7543 106.5660 41.6471 0.0000 0.0000 0.0000
# 2 106.5660 129.5859 34.1634 0.0000 0.0000 0.0000
# 3 41.6471 34.1634 39.1430 0.0000 0.0000 0.0000
# 4 0.0000 0.0000 0.0000 21.3927 0.0000 0.0000
# 5 0.0000 0.0000 0.0000 0.0000 6.3012 0.0000
# 6 0.0000 0.0000 0.0000 0.0000 0.0000 38.4825
#
#
#
# Elastic Compliance Matrix: (Units=1/GPa)
#
#
# Indices 1 2 3 4 5 6 
#
# 1 0.009802 -0.006898 -0.004408 0.000000 0.000000 0.000000
# 2 -0.006898 0.014878 -0.005646 0.000000 0.000000 0.000000
# 3 -0.004408 -0.005646 0.035165 0.000000 0.000000 0.000000
# 4 0.000000 0.000000 0.000000 0.046745 0.000000 0.000000
# 5 0.000000 0.000000 0.000000 0.000000 0.158699 0.000000
# 6 0.000000 0.000000 0.000000 0.000000 0.000000 0.025986
#
#
# Mechanical properties :
#
#
# Convention : Reuss Voigt Hill
#
# Bulk Modulus (GPa) = 38.54968 81.02623 59.78796
# Shear Modulus (GPa) = 14.97790 25.37575 20.17683
#
# Velocity S-wave (km/s) = 2.89862 3.77290 3.36428
# Velocity P-wave (km/s) = 5.72953 8.02697 6.97351
#
# Compressibility (1/GPa) = 0.02594055
#
# Stress axis : x y z
#
# Youngs Moduli (GPa) = 102.02430 67.21228 28.43751
#
# Poissons Ratio (x) = 0.46365 0.12535
# Poissons Ratio (y) = 0.70380 0.16055
# Poissons Ratio (z) = 0.44971 0.37947
#
# Static dielectric constant tensor:
#      x y z
#    x 1.609150 0.000000 0.000000 
#    y 0.000000 1.594920 0.000000 
#    z 0.000000 0.000000 1.605040 
# 
# From -- ./inp_files/13705.got.cif
#   From: 2010.05.17/outbox.cif.g08.bks.cpg/sg47_7_cif.got.tgz:13705.got - 2010.06.03 20:15:42.
