data_PCOD9386397
_publ_section_title
;
Structure prediction by ZEFSAII (Michael W. Deem and Ramdas Pophale) SiO2 
 PCOD9386397
Probable space group: P M M M
;
_chemical_formula_sum "Si O2"
_cell_formula_units_Z 48
_cell_length_a 16.100058
_cell_length_b 9.046651
_cell_length_c 18.166531
_cell_angle_alpha 90.000000
_cell_angle_beta 90.000000
_cell_angle_gamma 90.000000
_cell_volume 2645.984412
_symmetry_space_group_name_H-M "P M M M"
_symmetry_group_IT_number 47
_symmetry_cell_setting 'orthorhombic'
loop_
_space_group_symop_operation_xyz
x,y,z
-x,-y,z
x,-y,-z
-x,y,-z
-x,-y,-z
x,y,-z
-x,y,z
x,-y,z
loop_
_atom_site_type_symbol
_atom_site_label
_atom_site_fract_x
_atom_site_fract_y
_atom_site_fract_z
Si Si1 0.166668 0.673855 0.662229
Si Si2 0.401458 0.670050 0.000000
Si Si3 0.141521 0.333976 0.834796
Si Si4 0.656857 0.821899 0.686228
Si Si5 0.000000 0.674283 0.587197
Si Si6 0.000000 0.825762 0.081866
Si Si7 0.337117 0.324989 0.155475
Si Si8 0.500000 0.179568 0.585148
O O1 0.181328 0.500000 0.643624
O O2 0.137706 0.679843 0.746944
O O3 0.254276 0.758735 0.658634
O O4 0.087986 0.733827 0.616704
O O5 0.374549 0.734217 0.078910
O O6 0.368202 0.500000 0.000000
O O7 0.500000 0.664593 0.000000
O O8 0.115848 0.500000 0.855064
O O9 0.237932 0.315015 0.853515
O O10 0.081194 0.224034 0.874903
O O11 0.641043 0.757383 0.768464
O O12 0.582377 0.777757 0.631043
O O13 0.660526 0.000000 0.689960
O O14 0.000000 0.500000 0.609814
O O15 0.000000 0.682672 0.500000
O O16 0.000000 0.000000 0.076761
O O17 0.000000 0.760359 0.000000
O O18 0.359034 0.500000 0.163829
O O19 0.500000 0.230922 0.500000
O O20 0.500000 0.000000 0.583109
#
# Coordination Sequence:
#
# PCOD9386397 Si02
#       8
#     8   4   8   8   4   4   8   4
#     4   9  18  35  56  79 107 138 175 216 260 316
#     4   9  18  32  53  82 109 136 172 213 261 315
#     4   9  18  33  53  72  95 135 179 212 245 300
#     4  10  20  35  57  81 106 141 185 227 271 319
#     4   9  17  30  53  83 112 141 170 210 269 328
#     4  11  24  35  45  69 102 131 166 216 270 305
#     4   9  19  35  56  81 108 139 175 217 263 315
#     4   9  20  38  57  78 109 150 188 221 263 321
#
# _framework density 18.140695999999998
#
# number of rings (size 3 to 8) (size 9 to 14) (size 15 to 20)
#    0.000    2.667    0.000    2.250    2.333    5.333 
#    0.000    2.083    0.000    4.500    0.000    0.000 
#    0.000    0.000    0.000    0.000    0.000    0.000 
#
# Total GULP energy -267462.738294 kJ/mol
# GULP energy per Si atom -5572.140381 kJ/mol
# Density = 1.809941 g / cm^3
# Si number density = 18.140696 Si / 1000 Ang^3
#
#
#
# Elastic Constant Matrix: (Units=GPa)
#
#
# Indices 1 2 3 4 5 6 
#
# 1 99.3995 38.1148 88.5793 0.0000 0.0000 0.0000
# 2 38.1148 48.1324 35.6839 0.0000 0.0000 0.0000
# 3 88.5793 35.6839 104.1559 0.0000 0.0000 0.0000
# 4 0.0000 0.0000 0.0000 20.6727 0.0000 0.0000
# 5 0.0000 0.0000 0.0000 0.0000 46.4851 0.0000
# 6 0.0000 0.0000 0.0000 0.0000 0.0000 25.1038
#
#
#
# Elastic Compliance Matrix: (Units=1/GPa)
#
#
# Indices 1 2 3 4 5 6 
#
# 1 0.044669 -0.009663 -0.034678 0.000000 0.000000 0.000000
# 2 -0.009663 0.029940 -0.002040 0.000000 0.000000 0.000000
# 3 -0.034678 -0.002040 0.039792 0.000000 0.000000 0.000000
# 4 0.000000 0.000000 0.000000 0.048373 0.000000 0.000000
# 5 0.000000 0.000000 0.000000 0.000000 0.021512 0.000000
# 6 0.000000 0.000000 0.000000 0.000000 0.000000 0.039835
#
#
# Mechanical properties :
#
#
# Convention : Reuss Voigt Hill
#
# Bulk Modulus (GPa) = 46.21224 64.04929 55.13077
# Shear Modulus (GPa) = 15.42762 24.40630 19.91696
#
# Velocity S-wave (km/s) = 2.91940 3.67193 3.31708
# Velocity P-wave (km/s) = 6.07400 7.30487 6.71769
#
# Compressibility (1/GPa) = 0.02163929
#
# Stress axis : x y z
#
# Youngs Moduli (GPa) = 22.38708 33.40025 25.13093
#
# Poissons Ratio (x) = 0.32274 0.87149
# Poissons Ratio (y) = 0.21632 0.05126
# Poissons Ratio (z) = 0.77634 0.06813
#
# Static dielectric constant tensor:
#      x y z
#    x 1.627680 0.000000 0.000000 
#    y 0.000000 1.626890 0.000000 
#    z 0.000000 0.000000 1.621600 
# 
# From -- ./inp_files/28098.got.cif
#   From: 2010.05.17/outbox.cif.g08.bks.cpg/sg47_15_cif.got.tgz:28098.got - 2010.06.03 20:15:42.
