data_PCOD9386348
_publ_section_title
;
Structure prediction by ZEFSAII (Michael W. Deem and Ramdas Pophale) SiO2 
 PCOD9386348
Probable space group: P M M M
;
_chemical_formula_sum "Si O2"
_cell_formula_units_Z 40
_cell_length_a 28.480263
_cell_length_b 9.333554
_cell_length_c 7.887700
_cell_angle_alpha 90.000000
_cell_angle_beta 90.000000
_cell_angle_gamma 90.000000
_cell_volume 2096.724762
_symmetry_space_group_name_H-M "P M M M"
_symmetry_group_IT_number 47
_symmetry_cell_setting 'orthorhombic'
loop_
_space_group_symop_operation_xyz
x,y,z
-x,-y,z
x,-y,-z
-x,y,-z
-x,-y,-z
x,y,-z
-x,y,z
x,-y,z
loop_
_atom_site_type_symbol
_atom_site_label
_atom_site_fract_x
_atom_site_fract_y
_atom_site_fract_z
Si Si1 0.591050 0.338198 0.202565
Si Si2 0.879338 0.674554 0.805127
Si Si3 0.500000 0.835129 0.208045
Si Si4 0.682503 0.838148 0.298560
Si Si5 0.225793 0.663644 0.795577
Si Si6 0.945970 0.325002 0.500000
O O1 0.591917 0.500000 0.271234
O O2 0.546705 0.247205 0.266149
O O3 0.639726 0.257498 0.233050
O O4 0.585028 0.348247 0.000000
O O5 0.879349 0.500000 0.808763
O O6 0.826545 0.714096 0.747556
O O7 0.917783 0.720546 0.668415
O O8 0.887480 0.721727 0.000000
O O9 0.500000 0.000000 0.262362
O O10 0.500000 0.835524 0.000000
O O11 0.677547 0.845128 0.500000
O O12 0.732077 0.764439 0.259125
O O13 0.680333 0.000000 0.229166
O O14 0.232994 0.500000 0.733544
O O15 0.225542 0.657959 0.000000
O O16 0.945802 0.500000 0.500000
O O17 0.000000 0.278614 0.500000
#
# Coordination Sequence:
#
# PCOD9386348 Si02
#       6
#     8   8   4   8   8   4
#     4  10  20  35  56  80 104 132 171 215 256 306
#     4   8  15  27  42  64  95 129 170 218 262 312
#     4   9  17  31  54  81 106 135 170 210 260 309
#     4  11  24  37  49  72 105 136 168 209 259 314
#     4   9  18  33  53  75  97 128 172 215 258 311
#     4   9  16  24  38  64  97 137 179 212 257 316
#
# _framework density 19.077373000000001
#
# number of rings (size 3 to 8) (size 9 to 14) (size 15 to 20)
#    0.000    2.600    0.000    3.300    1.400    7.200 
#    0.000    2.500    0.000    3.000    0.000    0.000 
#    0.000    1.600    0.000    4.400    0.000    4.400 
#
# Total GULP energy -223157.524893 kJ/mol
# GULP energy per Si atom -5578.938122 kJ/mol
# Density = 1.903395 g / cm^3
# Si number density = 19.077373 Si / 1000 Ang^3
#
#
#
# Elastic Constant Matrix: (Units=GPa)
#
#
# Indices 1 2 3 4 5 6 
#
# 1 181.6320 80.8733 45.1233 0.0000 0.0000 0.0000
# 2 80.8733 112.4487 23.2102 0.0000 0.0000 0.0000
# 3 45.1233 23.2102 45.5094 0.0000 0.0000 0.0000
# 4 0.0000 0.0000 0.0000 12.7721 0.0000 0.0000
# 5 0.0000 0.0000 0.0000 0.0000 53.0798 0.0000
# 6 0.0000 0.0000 0.0000 0.0000 0.0000 8.3934
#
#
#
# Elastic Compliance Matrix: (Units=1/GPa)
#
#
# Indices 1 2 3 4 5 6 
#
# 1 0.009651 -0.005550 -0.006738 0.000000 0.000000 0.000000
# 2 -0.005550 0.013131 -0.001194 0.000000 0.000000 0.000000
# 3 -0.006738 -0.001194 0.029264 0.000000 0.000000 0.000000
# 4 0.000000 0.000000 0.000000 0.078296 0.000000 0.000000
# 5 0.000000 0.000000 0.000000 0.000000 0.018840 0.000000
# 6 0.000000 0.000000 0.000000 0.000000 0.000000 0.119141
#
#
# Mechanical properties :
#
#
# Convention : Reuss Voigt Hill
#
# Bulk Modulus (GPa) = 39.87130 70.88928 55.38029
# Shear Modulus (GPa) = 16.46648 27.54128 22.00388
#
# Velocity S-wave (km/s) = 2.94112 3.80368 3.39986
# Velocity P-wave (km/s) = 5.69901 7.51865 6.67116
#
# Compressibility (1/GPa) = 0.02508070
#
# Stress axis : x y z
#
# Youngs Moduli (GPa) = 103.61707 76.15561 34.17203
#
# Poissons Ratio (x) = 0.42267 0.23027
# Poissons Ratio (y) = 0.57508 0.04080
# Poissons Ratio (z) = 0.69822 0.09092
#
# Static dielectric constant tensor:
#      x y z
#    x 1.645110 0.000000 0.000000 
#    y 0.000000 1.555000 0.000000 
#    z 0.000000 0.000000 1.684220 
# 
# From -- ./inp_files/12995.got.cif
#   From: 2010.05.17/outbox.cif.g08.bks.cpg/sg47_7_cif.got.tgz:12995.got - 2010.06.03 20:15:42.
