data_PCOD9386334
_publ_section_title
;
Structure prediction by ZEFSAII (Michael W. Deem and Ramdas Pophale) SiO2 
 PCOD9386334
Probable space group: P M M M
;
_chemical_formula_sum "Si O2"
_cell_formula_units_Z 52
_cell_length_a 19.981877
_cell_length_b 7.465596
_cell_length_c 15.402216
_cell_angle_alpha 90.000000
_cell_angle_beta 90.000000
_cell_angle_gamma 90.000000
_cell_volume 2297.650539
_symmetry_space_group_name_H-M "P M M M"
_symmetry_group_IT_number 47
_symmetry_cell_setting 'orthorhombic'
loop_
_space_group_symop_operation_xyz
x,y,z
-x,-y,z
x,-y,-z
-x,y,-z
-x,-y,-z
x,y,-z
-x,y,z
x,-y,z
loop_
_atom_site_type_symbol
_atom_site_label
_atom_site_fract_x
_atom_site_fract_y
_atom_site_fract_z
Si Si1 0.572634 0.280786 0.716148
Si Si2 0.304298 0.716144 0.599108
Si Si3 0.758586 0.216725 0.096372
Si Si4 0.000000 0.713180 0.098616
Si Si5 0.873713 0.212798 0.219111
Si Si6 0.149307 0.207838 0.403518
Si Si7 0.397373 0.291931 0.905449
O O1 0.500000 0.232088 0.678432
O O2 0.575604 0.500000 0.717253
O O3 0.637908 0.220627 0.663791
O O4 0.575684 0.216738 0.815656
O O5 0.322497 0.762328 0.500000
O O6 0.300413 0.500000 0.605088
O O7 0.229304 0.785296 0.614119
O O8 0.807580 0.283922 0.171007
O O9 0.683116 0.284303 0.102962
O O10 0.755753 0.000000 0.100145
O O11 0.784570 0.264974 0.000000
O O12 0.935239 0.765127 0.154190
O O13 0.000000 0.500000 0.092514
O O14 0.000000 0.785634 0.000000
O O15 0.883544 0.286018 0.316408
O O16 0.863245 0.000000 0.229623
O O17 0.138281 0.287265 0.500000
O O18 0.128910 0.000000 0.409661
O O19 0.417753 0.500000 0.908002
O O20 0.414608 0.213097 0.000000
#
# Coordination Sequence:
#
# PCOD9386334 Si02
#       7
#     8   8   8   4   8   8   8
#     4   9  17  28  42  62  89 121 158 200 243 289
#     4   9  17  29  47  71  96 124 160 202 249 298
#     4   9  17  29  47  71  95 120 155 199 244 290
#     4  11  25  41  56  79 110 140 169 203 244 287
#     4  10  20  35  56  78 102 137 174 204 240 290
#     4   9  18  33  54  80 106 131 164 207 252 295
#     4   9  17  28  43  64  88 116 153 197 245 294
#
# _framework density 22.631813999999999
#
# number of rings (size 3 to 8) (size 9 to 14) (size 15 to 20)
#    0.000    2.692    0.000    1.615    0.000    3.077 
#    0.000    5.000    0.000    4.154    0.000    4.308 
#    0.000    0.000    0.000    0.000    0.000    0.000 
#
# Total GULP energy -290273.552918 kJ/mol
# GULP energy per Si atom -5582.183710 kJ/mol
# Density = 2.258030 g / cm^3
# Si number density = 22.631814 Si / 1000 Ang^3
#
#
#
# Elastic Constant Matrix: (Units=GPa)
#
#
# Indices 1 2 3 4 5 6 
#
# 1 54.3360 -9.8390 53.1367 0.0000 0.0000 0.0000
# 2 -9.8390 68.2826 9.5613 0.0000 0.0000 0.0000
# 3 53.1367 9.5613 174.6907 0.0000 0.0000 0.0000
# 4 0.0000 0.0000 0.0000 2.7018 0.0000 0.0000
# 5 0.0000 0.0000 0.0000 0.0000 -315.4055 0.0000
# 6 0.0000 0.0000 0.0000 0.0000 0.0000 5.3031
#
#
#
# Elastic Compliance Matrix: (Units=1/GPa)
#
#
# Indices 1 2 3 4 5 6 
#
# 1 0.027952 0.005259 -0.008790 0.000000 0.000000 0.000000
# 2 0.005259 0.015747 -0.002461 0.000000 0.000000 0.000000
# 3 -0.008790 -0.002461 0.008533 0.000000 0.000000 0.000000
# 4 0.000000 0.000000 0.000000 0.370120 0.000000 0.000000
# 5 0.000000 0.000000 0.000000 0.000000 -0.003171 0.000000
# 6 0.000000 0.000000 0.000000 0.000000 0.000000 0.188568
#
#
# Mechanical properties :
#
#
# Convention : Reuss Voigt Hill
#
# Bulk Modulus (GPa) = 24.84684 44.78082 34.81383
# Shear Modulus (GPa) = 7.89700 -45.18342 -18.64321
#
# Velocity S-wave (km/s) = 1.87000 -4.47302 -2.87324
# Velocity P-wave (km/s) = 3.95792 2.61679 2.09970
#
# Compressibility (1/GPa) = 0.04024656
#
# Stress axis : x y z
#
# Youngs Moduli (GPa) = 35.77498 63.50251 117.19326
#
# Poissons Ratio (x) = -0.33393 1.03016
# Poissons Ratio (y) = -0.18813 0.28846
# Poissons Ratio (z) = 0.31447 0.15631
#
# Static dielectric constant tensor:
#      x y z
#    x 1.797700 0.000000 0.000000 
#    y 0.000000 1.843820 0.000000 
#    z 0.000000 0.000000 1.880470 
# 
# From -- ./inp_files/25009.got.cif
#   From: 2010.05.17/outbox.cif.g08.bks.cpg/sg47_13_cif.got.tgz:25009.got - 2010.06.03 20:15:42.
