data_PCOD9386125
_publ_section_title
;
Structure prediction by ZEFSAII (Michael W. Deem and Ramdas Pophale) SiO2 
 PCOD9386125
Probable space group: P M M M
;
_chemical_formula_sum "Si O2"
_cell_formula_units_Z 48
_cell_length_a 15.113316
_cell_length_b 8.684207
_cell_length_c 20.634064
_cell_angle_alpha 90.000000
_cell_angle_beta 90.000000
_cell_angle_gamma 90.000000
_cell_volume 2708.162394
_symmetry_space_group_name_H-M "P M M M"
_symmetry_group_IT_number 47
_symmetry_cell_setting 'orthorhombic'
loop_
_space_group_symop_operation_xyz
x,y,z
-x,-y,z
x,-y,-z
-x,y,-z
-x,-y,-z
x,y,-z
-x,y,z
x,-y,z
loop_
_atom_site_type_symbol
_atom_site_label
_atom_site_fract_x
_atom_site_fract_y
_atom_site_fract_z
Si Si1 0.096478 0.315418 0.728748
Si Si2 0.895069 0.824181 0.000000
Si Si3 0.643935 0.822808 0.172585
Si Si4 0.500000 0.684599 0.076085
Si Si5 0.603422 0.185440 0.426248
Si Si6 0.293328 0.684355 0.694833
Si Si7 0.150073 0.179253 0.137942
O O1 0.096523 0.500000 0.722501
O O2 0.190461 0.259683 0.699358
O O3 0.104383 0.268982 0.803949
O O4 0.000000 0.259295 0.704085
O O5 0.867513 0.751550 0.932492
O O6 0.000000 0.834866 0.000000
O O7 0.857349 0.000000 0.000000
O O8 0.583265 0.742626 0.118673
O O9 0.650358 0.746259 0.243693
O O10 0.745270 0.820038 0.149204
O O11 0.615261 0.000000 0.179516
O O12 0.500000 0.500000 0.075096
O O13 0.500000 0.737025 0.000000
O O14 0.627683 0.229554 0.500000
O O15 0.500000 0.225443 0.416590
O O16 0.662664 0.261037 0.371398
O O17 0.610208 0.000000 0.421635
O O18 0.292528 0.500000 0.698805
O O19 0.119420 0.000000 0.139084
#
# Coordination Sequence:
#
# PCOD9386125 Si02
#       7
#     8   4   8   4   8   8   8
#     4   9  18  33  51  72 102 138 174 213 259 309
#     4   9  16  26  43  68  95 120 150 199 259 309
#     4  10  21  36  55  76 100 135 178 220 264 316
#     4  11  25  41  55  73 100 135 178 225 275 321
#     4   9  19  36  57  81 111 145 178 214 261 317
#     4  10  20  34  55  82 112 142 177 222 264 310
#     4   9  18  31  49  71  95 125 165 212 260 313
#
# _framework density 17.724195999999999
#
# number of rings (size 3 to 8) (size 9 to 14) (size 15 to 20)
#    0.000    2.500    0.000    2.250    2.333    3.667 
#    0.000    1.250    0.000    2.000    0.000    3.500 
#    0.000    0.000    0.000    0.000    0.000    0.000 
#
# Total GULP energy -267482.405516 kJ/mol
# GULP energy per Si atom -5572.550115 kJ/mol
# Density = 1.768386 g / cm^3
# Si number density = 17.724196 Si / 1000 Ang^3
#
#
#
# Elastic Constant Matrix: (Units=GPa)
#
#
# Indices 1 2 3 4 5 6 
#
# 1 94.2001 28.2376 70.1213 0.0000 0.0000 0.0000
# 2 28.2376 34.2044 33.5747 0.0000 0.0000 0.0000
# 3 70.1213 33.5747 145.1069 0.0000 0.0000 0.0000
# 4 0.0000 0.0000 0.0000 17.6699 0.0000 0.0000
# 5 0.0000 0.0000 0.0000 0.0000 15.6598 0.0000
# 6 0.0000 0.0000 0.0000 0.0000 0.0000 16.4407
#
#
#
# Elastic Compliance Matrix: (Units=1/GPa)
#
#
# Indices 1 2 3 4 5 6 
#
# 1 0.018230 -0.008284 -0.006893 0.000000 0.000000 0.000000
# 2 -0.008284 0.041592 -0.005620 0.000000 0.000000 0.000000
# 3 -0.006893 -0.005620 0.011523 0.000000 0.000000 0.000000
# 4 0.000000 0.000000 0.000000 0.056594 0.000000 0.000000
# 5 0.000000 0.000000 0.000000 0.000000 0.063858 0.000000
# 6 0.000000 0.000000 0.000000 0.000000 0.000000 0.060825
#
#
# Mechanical properties :
#
#
# Convention : Reuss Voigt Hill
#
# Bulk Modulus (GPa) = 33.61305 59.70874 46.66089
# Shear Modulus (GPa) = 16.44033 19.39260 17.91646
#
# Velocity S-wave (km/s) = 3.04890 3.31135 3.18283
# Velocity P-wave (km/s) = 5.60357 6.95564 6.31589
#
# Compressibility (1/GPa) = 0.02975035
#
# Stress axis : x y z
#
# Youngs Moduli (GPa) = 54.85573 24.04329 86.78566
#
# Poissons Ratio (x) = 0.19917 0.59817
# Poissons Ratio (y) = 0.45442 0.48776
# Poissons Ratio (z) = 0.37810 0.13513
#
# Static dielectric constant tensor:
#      x y z
#    x 1.628800 0.000000 0.000000 
#    y 0.000000 1.616530 0.000000 
#    z 0.000000 0.000000 1.591400 
# 
# From -- ./inp_files/27999.got.cif
#   From: 2010.05.17/outbox.cif.g08.bks.cpg/sg47_14_cif.got.tgz:27999.got - 2010.06.03 20:15:42.
