data_PCOD9386818
_publ_section_title
;
Structure prediction by ZEFSAII (Michael W. Deem and Ramdas Pophale) SiO2 
 PCOD9386818
Probable space group: P M M M
;
_chemical_formula_sum "Si O2"
_cell_formula_units_Z 52
_cell_length_a 7.847733
_cell_length_b 29.302986
_cell_length_c 14.197843
_cell_angle_alpha 90.000000
_cell_angle_beta 90.000000
_cell_angle_gamma 90.000000
_cell_volume 3264.964517
_symmetry_space_group_name_H-M "P M M M"
_symmetry_group_IT_number 47
_symmetry_cell_setting 'orthorhombic'
loop_
_space_group_symop_operation_xyz
x,y,z
-x,-y,z
x,-y,-z
-x,y,-z
-x,-y,-z
x,y,-z
-x,y,z
x,-y,z
loop_
_atom_site_type_symbol
_atom_site_label
_atom_site_fract_x
_atom_site_fract_y
_atom_site_fract_z
Si Si1 0.000000 0.052500 0.614840
Si Si2 0.794997 0.688005 0.707299
Si Si3 0.295493 0.780440 0.393242
Si Si4 0.201665 0.643259 0.895659
Si Si5 0.696315 0.118292 0.385328
Si Si6 0.793443 0.403617 0.394315
Si Si7 0.701902 0.550697 0.798177
O O1 0.168912 0.080140 0.644483
O O2 0.000000 0.052452 0.500000
O O3 0.000000 0.000000 0.645653
O O4 0.749067 0.737703 0.670839
O O5 0.728295 0.674503 0.810932
O O6 0.738862 0.647552 0.636514
O O7 0.000000 0.685217 0.710102
O O8 0.229354 0.773068 0.500000
O O9 0.500000 0.783113 0.399040
O O10 0.242328 0.830701 0.358634
O O11 0.220982 0.591279 0.860072
O O12 0.000000 0.652665 0.901190
O O13 0.275261 0.649339 0.000000
O O14 0.693331 0.118686 0.500000
O O15 0.500000 0.110700 0.354799
O O16 0.735385 0.414424 0.500000
O O17 0.733424 0.436672 0.311187
O O18 0.000000 0.404685 0.393918
O O19 0.500000 0.551111 0.814832
O O20 0.768352 0.500000 0.818529
#
# Coordination Sequence:
#
# PCOD9386818 Si02
#       7
#     4   8   8   8   8   8   8
#     4   9  16  24  36  54  74 106 153 195 232 265
#     4   9  17  28  44  65  83 103 134 169 207 249
#     4   9  17  27  39  58  85 115 143 172 210 253
#     4   9  19  36  53  66  83 107 136 171 209 254
#     4   8  15  26  36  51  78 109 145 188 226 261
#     4   9  18  32  47  64  87 113 142 172 202 244
#     4  10  21  34  47  66  89 109 133 168 209 253
#
# _framework density 15.926666000000001
#
# number of rings (size 3 to 8) (size 9 to 14) (size 15 to 20)
#    0.000    3.000    0.000    2.769    1.077    6.154 
#    0.000    4.615    0.000    0.000    0.000    0.000 
#    0.000    0.000    0.000    0.000    0.000    1.538 
#
# Total GULP energy -289674.545645 kJ/mol
# GULP energy per Si atom -5570.664339 kJ/mol
# Density = 1.589042 g / cm^3
# Si number density = 15.926666 Si / 1000 Ang^3
#
#
#
# Elastic Constant Matrix: (Units=GPa)
#
#
# Indices 1 2 3 4 5 6 
#
# 1 29.2373 19.2736 3.4216 0.0000 0.0000 0.0000
# 2 19.2736 116.6279 23.4376 0.0000 0.0000 0.0000
# 3 3.4216 23.4376 60.2717 0.0000 0.0000 0.0000
# 4 0.0000 0.0000 0.0000 7.3424 0.0000 0.0000
# 5 0.0000 0.0000 0.0000 0.0000 3.2551 0.0000
# 6 0.0000 0.0000 0.0000 0.0000 0.0000 25.7594
#
#
#
# Elastic Compliance Matrix: (Units=1/GPa)
#
#
# Indices 1 2 3 4 5 6 
#
# 1 0.038390 -0.006407 0.000312 0.000000 0.000000 0.000000
# 2 -0.006407 0.010370 -0.003669 0.000000 0.000000 0.000000
# 3 0.000312 -0.003669 0.018001 0.000000 0.000000 0.000000
# 4 0.000000 0.000000 0.000000 0.136195 0.000000 0.000000
# 5 0.000000 0.000000 0.000000 0.000000 0.307207 0.000000
# 6 0.000000 0.000000 0.000000 0.000000 0.000000 0.038821
#
#
# Mechanical properties :
#
#
# Convention : Reuss Voigt Hill
#
# Bulk Modulus (GPa) = 21.17159 33.15585 27.16372
# Shear Modulus (GPa) = 8.55790 17.93834 13.24812
#
# Velocity S-wave (km/s) = 2.32056 3.35969 2.88726
# Velocity P-wave (km/s) = 4.52791 5.99275 5.31108
#
# Compressibility (1/GPa) = 0.04723311
#
# Stress axis : x y z
#
# Youngs Moduli (GPa) = 26.04855 96.42843 55.55380
#
# Poissons Ratio (x) = 0.61781 -0.01733
# Poissons Ratio (y) = 0.16689 0.20383
# Poissons Ratio (z) = -0.00813 0.35379
#
# Static dielectric constant tensor:
#      x y z
#    x 1.574890 0.000000 0.000000 
#    y 0.000000 1.536130 0.000000 
#    z 0.000000 0.000000 1.531710 
# 
# From -- ./inp_files/21998.got.cif
#   From: 2010.05.17/outbox.cif.g08.bks.cpg/sg47_11_cif.got.tgz:21998.got - 2010.06.03 20:15:42.
