data_PCOD9386156
_publ_section_title
;
Structure prediction by ZEFSAII (Michael W. Deem and Ramdas Pophale) SiO2 
 PCOD9386156
Probable space group: P M M M
;
_chemical_formula_sum "Si O2"
_cell_formula_units_Z 40
_cell_length_a 8.522165
_cell_length_b 9.372119
_cell_length_c 26.547506
_cell_angle_alpha 90.000000
_cell_angle_beta 90.000000
_cell_angle_gamma 90.000000
_cell_volume 2120.369069
_symmetry_space_group_name_H-M "P M M M"
_symmetry_group_IT_number 47
_symmetry_cell_setting 'orthorhombic'
loop_
_space_group_symop_operation_xyz
x,y,z
-x,-y,z
x,-y,-z
-x,y,-z
-x,-y,-z
x,y,-z
-x,y,z
x,-y,z
loop_
_atom_site_type_symbol
_atom_site_label
_atom_site_fract_x
_atom_site_fract_y
_atom_site_fract_z
Si Si1 0.310931 0.666639 0.904869
Si Si2 0.188314 0.665570 0.597053
Si Si3 0.309756 0.164984 0.693688
Si Si4 0.311609 0.165705 0.500000
Si Si5 0.308861 0.664957 0.207991
Si Si6 0.187283 0.161811 0.000000
O O1 0.500000 0.675872 0.906508
O O2 0.269263 0.500000 0.911514
O O3 0.259467 0.709297 0.848336
O O4 0.243512 0.758119 0.949986
O O5 0.239953 0.500000 0.595318
O O6 0.247249 0.741739 0.647614
O O7 0.251536 0.752387 0.549252
O O8 0.000000 0.667852 0.595909
O O9 0.500000 0.168579 0.692402
O O10 0.257657 0.234341 0.746594
O O11 0.260954 0.000000 0.689319
O O12 0.500000 0.166991 0.500000
O O13 0.259782 0.000000 0.500000
O O14 0.500000 0.665620 0.207792
O O15 0.261192 0.500000 0.216411
O O16 0.000000 0.159812 0.000000
O O17 0.247544 0.000000 0.000000
#
# Coordination Sequence:
#
# PCOD9386156 Si02
#       6
#     8   8   8   4   8   4
#     4   9  18  34  57  82 104 131 174 223 268 319
#     4  11  24  40  58  82 112 147 187 226 265 314
#     4  10  20  34  55  84 114 144 180 220 264 317
#     4  11  24  41  62  88 114 141 178 223 272 326
#     4   8  15  30  53  80 108 137 172 218 268 315
#     4  11  24  37  48  70 106 143 178 217 264 320
#
# _framework density 18.864640999999999
#
# number of rings (size 3 to 8) (size 9 to 14) (size 15 to 20)
#    0.000    2.200    0.000    4.200    0.000   10.400 
#    0.000    3.000    0.000    1.200    0.000    0.000 
#    0.000    0.000    0.000    0.000    0.000    0.000 
#
# Total GULP energy -223360.920994 kJ/mol
# GULP energy per Si atom -5584.023025 kJ/mol
# Density = 1.882170 g / cm^3
# Si number density = 18.864641 Si / 1000 Ang^3
#
#
#
# Elastic Constant Matrix: (Units=GPa)
#
#
# Indices 1 2 3 4 5 6 
#
# 1 16.8922 37.6575 33.4730 0.0000 0.0000 0.0000
# 2 37.6575 173.1721 134.5063 0.0000 0.0000 0.0000
# 3 33.4730 134.5063 210.1295 0.0000 0.0000 0.0000
# 4 0.0000 0.0000 0.0000 -130.3042 0.0000 0.0000
# 5 0.0000 0.0000 0.0000 0.0000 -65.4626 0.0000
# 6 0.0000 0.0000 0.0000 0.0000 0.0000 22.1084
#
#
#
# Elastic Compliance Matrix: (Units=1/GPa)
#
#
# Indices 1 2 3 4 5 6 
#
# 1 0.117172 -0.021842 -0.004684 0.000000 0.000000 0.000000
# 2 -0.021842 0.015556 -0.006478 0.000000 0.000000 0.000000
# 3 -0.004684 -0.006478 0.009652 0.000000 0.000000 0.000000
# 4 0.000000 0.000000 0.000000 -0.007674 0.000000 0.000000
# 5 0.000000 0.000000 0.000000 0.000000 -0.015276 0.000000
# 6 0.000000 0.000000 0.000000 0.000000 0.000000 0.045232
#
#
# Mechanical properties :
#
#
# Convention : Reuss Voigt Hill
#
# Bulk Modulus (GPa) = 13.09382 90.16305 51.62844
# Shear Modulus (GPa) = 19.52158 -21.76122 -1.11982
#
# Velocity S-wave (km/s) = 3.22036 -3.40007 -0.77129
# Velocity P-wave (km/s) = 4.55890 5.69952 5.16082
#
# Compressibility (1/GPa) = 0.07637190
#
# Stress axis : x y z
#
# Youngs Moduli (GPa) = 8.53447 64.28368 103.60603
#
# Poissons Ratio (x) = 1.40406 0.48530
# Poissons Ratio (y) = 0.18641 0.67119
# Poissons Ratio (z) = 0.03998 0.41645
#
# Static dielectric constant tensor:
#      x y z
#    x 1.646200 0.000000 0.000000 
#    y 0.000000 1.637970 0.000000 
#    z 0.000000 0.000000 1.630150 
# 
# From -- ./inp_files/33021.got.cif
#   From: 2010.05.17/outbox.cif.g08.bks.cpg/sg47_17_cif.got.tgz:33021.got - 2010.06.03 20:15:42.
