data_PCOD9386191
_publ_section_title
;
Structure prediction by ZEFSAII (Michael W. Deem and Ramdas Pophale) SiO2 
 PCOD9386191
Probable space group: P M M M
;
_chemical_formula_sum "Si O2"
_cell_formula_units_Z 64
_cell_length_a 14.915362
_cell_length_b 25.779468
_cell_length_c 8.787338
_cell_angle_alpha 90.000000
_cell_angle_beta 90.000000
_cell_angle_gamma 90.000000
_cell_volume 3378.820190
_symmetry_space_group_name_H-M "P M M M"
_symmetry_group_IT_number 47
_symmetry_cell_setting 'orthorhombic'
loop_
_space_group_symop_operation_xyz
x,y,z
-x,-y,z
x,-y,-z
-x,y,-z
-x,-y,-z
x,y,-z
-x,y,z
x,-y,z
loop_
_atom_site_type_symbol
_atom_site_label
_atom_site_fract_x
_atom_site_fract_y
_atom_site_fract_z
Si Si1 0.399862 0.192990 0.321713
Si Si2 0.603987 0.441016 0.683280
Si Si3 0.753425 0.367920 0.178649
Si Si4 0.106468 0.439619 0.675897
Si Si5 0.600043 0.079762 0.818872
Si Si6 0.209701 0.943012 0.681805
Si Si7 0.895966 0.155399 0.183840
Si Si8 0.232507 0.750320 0.184142
O O1 0.384675 0.180260 0.500000
O O2 0.500000 0.215415 0.308788
O O3 0.397465 0.140497 0.223897
O O4 0.323816 0.229690 0.258473
O O5 0.607521 0.440520 0.500000
O O6 0.500000 0.432925 0.728127
O O7 0.630073 0.500000 0.731868
O O8 0.669631 0.396862 0.744015
O O9 0.838579 0.403416 0.214207
O O10 0.776639 0.309557 0.230556
O O11 0.735110 0.365549 0.000000
O O12 0.131645 0.428440 0.500000
O O13 0.126727 0.500000 0.703663
O O14 0.000000 0.432811 0.689954
O O15 0.500000 0.061206 0.772931
O O16 0.687099 0.057624 0.736808
O O17 0.608446 0.072302 0.000000
O O18 0.207484 0.937874 0.500000
O O19 0.157238 0.894517 0.753419
O O20 0.171649 0.000000 0.723272
O O21 0.844997 0.208632 0.228920
O O22 0.000000 0.155175 0.232247
O O23 0.893722 0.152775 0.000000
O O24 0.238423 0.752591 0.000000
#
# Coordination Sequence:
#
# PCOD9386191 Si02
#       8
#     8   8   8   8   8   8   8   8
#     4  10  20  34  56  85 114 146 186 231 277 327
#     4   9  19  37  59  81 110 154 204 247 289 341
#     4  11  23  35  53  85 120 150 186 236 290 344
#     4   9  19  37  59  81 108 145 188 233 282 339
#     4  10  20  35  58  87 119 155 192 229 273 331
#     4  11  24  40  60  89 123 154 188 237 291 343
#     4  10  22  42  66  86 107 145 197 244 288 346
#     4  10  22  39  57  81 115 154 191 231 283 341
#
# _framework density 18.941524000000001
#
# number of rings (size 3 to 8) (size 9 to 14) (size 15 to 20)
#    0.000    2.000    1.250    2.625    0.000    7.750 
#    0.000    7.500    0.000    0.000    0.000    0.000 
#    0.000    0.000    0.000    0.000    0.000    0.000 
#
# Total GULP energy -357192.372396 kJ/mol
# GULP energy per Si atom -5581.130819 kJ/mol
# Density = 1.889841 g / cm^3
# Si number density = 18.941524 Si / 1000 Ang^3
#
#
#
# Elastic Constant Matrix: (Units=GPa)
#
#
# Indices 1 2 3 4 5 6 
#
# 1 103.2060 69.3187 26.8325 0.0000 0.0000 0.0000
# 2 69.3187 120.4681 34.1701 0.0000 0.0000 0.0000
# 3 26.8325 34.1701 18.4348 0.0000 0.0000 0.0000
# 4 0.0000 0.0000 0.0000 26.5381 0.0000 0.0000
# 5 0.0000 0.0000 0.0000 0.0000 67.5091 0.0000
# 6 0.0000 0.0000 0.0000 0.0000 0.0000 24.1042
#
#
#
# Elastic Compliance Matrix: (Units=1/GPa)
#
#
# Indices 1 2 3 4 5 6 
#
# 1 0.017410 -0.005968 -0.014280 0.000000 0.000000 0.000000
# 2 -0.005968 0.019549 -0.027549 0.000000 0.000000 0.000000
# 3 -0.014280 -0.027549 0.126095 0.000000 0.000000 0.000000
# 4 0.000000 0.000000 0.000000 0.037682 0.000000 0.000000
# 5 0.000000 0.000000 0.000000 0.000000 0.014813 0.000000
# 6 0.000000 0.000000 0.000000 0.000000 0.000000 0.041486
#
#
# Mechanical properties :
#
#
# Convention : Reuss Voigt Hill
#
# Bulk Modulus (GPa) = 14.82350 55.86130 35.34240
# Shear Modulus (GPa) = 13.32924 31.08279 22.20602
#
# Velocity S-wave (km/s) = 2.65562 4.05530 3.42767
# Velocity P-wave (km/s) = 4.15283 7.17515 5.86212
#
# Compressibility (1/GPa) = 0.06746043
#
# Stress axis : x y z
#
# Youngs Moduli (GPa) = 57.43791 51.15353 7.93054
#
# Poissons Ratio (x) = 0.30526 0.11325
# Poissons Ratio (y) = 0.34277 0.21848
# Poissons Ratio (z) = 0.82020 1.40925
#
# Static dielectric constant tensor:
#      x y z
#    x 1.654630 0.000000 0.000000 
#    y 0.000000 1.663050 0.000000 
#    z 0.000000 0.000000 1.642270 
# 
# From -- ./inp_files/7942.got.cif
#   From: 2010.05.17/outbox.cif.g08.bks.cpg/sg47_4_cif.got.tgz:7942.got - 2010.06.03 20:15:42.
