data_PCOD9386248
_publ_section_title
;
Structure prediction by ZEFSAII (Michael W. Deem and Ramdas Pophale) SiO2 
 PCOD9386248
Probable space group: P M M M
;
_chemical_formula_sum "Si O2"
_cell_formula_units_Z 52
_cell_length_a 7.800817
_cell_length_b 12.197682
_cell_length_c 29.845784
_cell_angle_alpha 90.000000
_cell_angle_beta 90.000000
_cell_angle_gamma 90.000000
_cell_volume 2839.882610
_symmetry_space_group_name_H-M "P M M M"
_symmetry_group_IT_number 47
_symmetry_cell_setting 'orthorhombic'
loop_
_space_group_symop_operation_xyz
x,y,z
-x,-y,z
x,-y,-z
-x,y,-z
-x,-y,-z
x,y,-z
-x,y,z
x,-y,z
loop_
_atom_site_type_symbol
_atom_site_label
_atom_site_fract_x
_atom_site_fract_y
_atom_site_fract_z
Si Si1 0.706747 0.730967 0.949762
Si Si2 0.293254 0.872907 0.403669
Si Si3 0.205569 0.125864 0.693778
Si Si4 0.703737 0.500000 0.194111
Si Si5 0.295094 0.132898 0.500000
Si Si6 0.290106 0.500000 0.908718
Si Si7 0.205973 0.124452 0.865201
Si Si8 0.794227 0.259754 0.220695
O O1 0.500000 0.727176 0.951161
O O2 0.765758 0.610925 0.933286
O O3 0.754919 0.819183 0.912421
O O4 0.768848 0.754847 0.000000
O O5 0.500000 0.873608 0.405504
O O6 0.243331 0.826137 0.355523
O O7 0.229553 0.826928 0.451566
O O8 0.234269 0.000000 0.402144
O O9 0.271029 0.198973 0.734789
O O10 0.000000 0.119622 0.697694
O O11 0.271895 0.000000 0.696453
O O12 0.500000 0.500000 0.190979
O O13 0.770203 0.500000 0.142781
O O14 0.756510 0.388144 0.218040
O O15 0.500000 0.152739 0.500000
O O16 0.274200 0.000000 0.500000
O O17 0.500000 0.500000 0.908740
O O18 0.271590 0.199513 0.824269
O O19 0.000000 0.120029 0.860958
O O20 0.271192 0.000000 0.862434
O O21 0.000000 0.248156 0.220654
#
# Coordination Sequence:
#
# PCOD9386248 Si02
#       8
#     8   8   8   4   4   4   8   8
#     4  10  20  35  55  76  98 125 155 188 231 282
#     4   8  13  22  37  58  86 122 162 199 234 273
#     4   9  17  29  45  66  94 127 161 196 233 275
#     4  11  21  34  55  77  96 117 149 195 240 277
#     4   7  10  18  33  53  81 120 161 196 231 273
#     4   9  17  33  54  75  97 119 146 186 234 277
#     4  10  21  36  53  72  96 127 160 192 227 271
#     4  10  20  35  53  71  94 125 159 191 232 284
#
# _framework density 18.310614999999999
#
# number of rings (size 3 to 8) (size 9 to 14) (size 15 to 20)
#    0.000    2.692    1.538    1.846    0.000    4.308 
#    0.000    2.308    0.000    6.000    0.000    0.000 
#    0.000    0.615    0.000    6.923    0.000    4.923 
#
# Total GULP energy -289805.719792 kJ/mol
# GULP energy per Si atom -5573.186919 kJ/mol
# Density = 1.826894 g / cm^3
# Si number density = 18.310615 Si / 1000 Ang^3
#
#
#
# Elastic Constant Matrix: (Units=GPa)
#
#
# Indices 1 2 3 4 5 6 
#
# 1 22.1932 3.2689 8.4997 0.0000 0.0000 0.0000
# 2 3.2689 109.0659 77.3541 0.0000 0.0000 0.0000
# 3 8.4997 77.3541 200.4966 0.0000 0.0000 0.0000
# 4 0.0000 0.0000 0.0000 2.0230 0.0000 0.0000
# 5 0.0000 0.0000 0.0000 0.0000 23.4650 0.0000
# 6 0.0000 0.0000 0.0000 0.0000 0.0000 12.0671
#
#
#
# Elastic Compliance Matrix: (Units=1/GPa)
#
#
# Indices 1 2 3 4 5 6 
#
# 1 0.045803 0.000006 -0.001944 0.000000 0.000000 0.000000
# 2 0.000006 0.012623 -0.004870 0.000000 0.000000 0.000000
# 3 -0.001944 -0.004870 0.006949 0.000000 0.000000 0.000000
# 4 0.000000 0.000000 0.000000 0.494311 0.000000 0.000000
# 5 0.000000 0.000000 0.000000 0.000000 0.042617 0.000000
# 6 0.000000 0.000000 0.000000 0.000000 0.000000 0.082870
#
#
# Mechanical properties :
#
#
# Convention : Reuss Voigt Hill
#
# Bulk Modulus (GPa) = 19.32077 56.66681 37.99379
# Shear Modulus (GPa) = 6.98284 23.68656 15.33470
#
# Velocity S-wave (km/s) = 1.95495 3.60056 2.89706
# Velocity P-wave (km/s) = 3.95858 6.94983 5.65555
#
# Compressibility (1/GPa) = 0.05175778
#
# Stress axis : x y z
#
# Youngs Moduli (GPa) = 21.83283 79.22170 143.90452
#
# Poissons Ratio (x) = -0.00048 0.27976
# Poissons Ratio (y) = -0.00013 0.70086
# Poissons Ratio (z) = 0.04244 0.38583
#
# Static dielectric constant tensor:
#      x y z
#    x 1.676160 0.000000 0.000000 
#    y 0.000000 1.604160 0.000000 
#    z 0.000000 0.000000 1.674300 
# 
# From -- ./inp_files/34352.got.cif
#   From: 2010.05.17/outbox.cif.g08.bks.cpg/sg47_18_cif.got.tgz:34352.got - 2010.06.03 20:15:42.
