data_PCOD9386416
_publ_section_title
;
Structure prediction by ZEFSAII (Michael W. Deem and Ramdas Pophale) SiO2 
 PCOD9386416
Probable space group: P M M M
;
_chemical_formula_sum "Si O2"
_cell_formula_units_Z 44
_cell_length_a 30.161014
_cell_length_b 9.317472
_cell_length_c 7.633593
_cell_angle_alpha 90.000000
_cell_angle_beta 90.000000
_cell_angle_gamma 90.000000
_cell_volume 2145.225919
_symmetry_space_group_name_H-M "P M M M"
_symmetry_group_IT_number 47
_symmetry_cell_setting 'orthorhombic'
loop_
_space_group_symop_operation_xyz
x,y,z
-x,-y,z
x,-y,-z
-x,y,-z
-x,-y,-z
x,y,-z
-x,y,z
x,-y,z
loop_
_atom_site_type_symbol
_atom_site_label
_atom_site_fract_x
_atom_site_fract_y
_atom_site_fract_z
Si Si1 0.452260 0.829118 0.286915
Si Si2 0.000000 0.335182 0.715129
Si Si3 0.827567 0.661549 0.207603
Si Si4 0.356902 0.174423 0.707301
Si Si5 0.260572 0.835233 0.288541
Si Si6 0.085438 0.161152 0.292397
O O1 0.451759 0.817421 0.500000
O O2 0.500000 0.769868 0.226480
O O3 0.404513 0.773755 0.221441
O O4 0.452751 0.000000 0.248665
O O5 0.044122 0.253196 0.775922
O O6 0.000000 0.500000 0.771371
O O7 0.000000 0.336349 0.500000
O O8 0.829226 0.500000 0.280973
O O9 0.780703 0.736521 0.243981
O O10 0.868220 0.757701 0.271595
O O11 0.832531 0.652606 0.000000
O O12 0.357244 0.209064 0.500000
O O13 0.308749 0.218539 0.777688
O O14 0.356913 0.000000 0.720197
O O15 0.263555 0.840926 0.500000
O O16 0.253439 0.000000 0.228127
O O17 0.077717 0.148690 0.500000
O O18 0.087223 0.000000 0.219091
#
# Coordination Sequence:
#
# PCOD9386416 Si02
#       6
#     8   4   8   8   8   8
#     4   7   8  10  19  39  71 110 143 168 204 260
#     4   9  17  31  54  83 112 139 164 192 228 269
#     4  11  24  38  50  68  96 128 162 201 244 287
#     4   7  10  17  30  51  80 111 143 180 220 266
#     4   9  17  30  49  71  93 120 156 196 238 285
#     4  10  20  35  57  83 107 131 162 198 234 275
#
# _framework density 20.510660999999999
#
# number of rings (size 3 to 8) (size 9 to 14) (size 15 to 20)
#    0.000    3.182    0.000    4.636    0.000    6.182 
#    0.000    0.455    0.000    2.727    0.000    0.000 
#    0.000    1.455    0.000   16.182    0.000   14.545 
#
# Total GULP energy -245099.173099 kJ/mol
# GULP energy per Si atom -5570.435752 kJ/mol
# Density = 2.046398 g / cm^3
# Si number density = 20.510661 Si / 1000 Ang^3
#
#
#
# Elastic Constant Matrix: (Units=GPa)
#
#
# Indices 1 2 3 4 5 6 
#
# 1 231.4254 94.5636 -3.3275 0.0000 0.0000 0.0000
# 2 94.5636 111.9857 5.0724 0.0000 0.0000 0.0000
# 3 -3.3275 5.0724 38.4368 0.0000 0.0000 0.0000
# 4 0.0000 0.0000 0.0000 13.5091 0.0000 0.0000
# 5 0.0000 0.0000 0.0000 0.0000 -67.2952 0.0000
# 6 0.0000 0.0000 0.0000 0.0000 0.0000 -0.4899
#
#
#
# Elastic Compliance Matrix: (Units=1/GPa)
#
#
# Indices 1 2 3 4 5 6 
#
# 1 0.006664 -0.005687 0.001327 0.000000 0.000000 0.000000
# 2 -0.005687 0.013837 -0.002318 0.000000 0.000000 0.000000
# 3 0.001327 -0.002318 0.026438 0.000000 0.000000 0.000000
# 4 0.000000 0.000000 0.000000 0.074024 0.000000 0.000000
# 5 0.000000 0.000000 0.000000 0.000000 -0.014860 0.000000
# 6 0.000000 0.000000 0.000000 0.000000 0.000000 -2.041378
#
#
# Mechanical properties :
#
#
# Convention : Reuss Voigt Hill
#
# Bulk Modulus (GPa) = 29.77769 63.82944 46.80357
# Shear Modulus (GPa) = -2.61681 8.18076 2.78197
#
# Velocity S-wave (km/s) = -1.13075 1.99930 1.16589
# Velocity P-wave (km/s) = 3.58397 6.04295 4.96801
#
# Compressibility (1/GPa) = 0.03358219
#
# Stress axis : x y z
#
# Youngs Moduli (GPa) = 150.05755 72.26808 37.82494
#
# Poissons Ratio (x) = 0.41102 -0.05021
# Poissons Ratio (y) = 0.85345 0.08769
# Poissons Ratio (z) = -0.19920 0.16755
#
# Static dielectric constant tensor:
#      x y z
#    x 1.778480 0.000000 0.000000 
#    y 0.000000 1.678690 0.000000 
#    z 0.000000 0.000000 1.760860 
# 
# From -- ./inp_files/2282.got.cif
#   From: 2010.05.17/outbox.cif.g08.bks.cpg/sg47_2_cif.got.tgz:2282.got - 2010.06.03 20:15:42.
