data_PCOD9386969
_publ_section_title
;
Structure prediction by ZEFSAII (Michael W. Deem and Ramdas Pophale) SiO2 
 PCOD9386969
Probable space group: P M M M
;
_chemical_formula_sum "Si O2"
_cell_formula_units_Z 52
_cell_length_a 30.116951
_cell_length_b 14.380160
_cell_length_c 8.136111
_cell_angle_alpha 90.000000
_cell_angle_beta 90.000000
_cell_angle_gamma 90.000000
_cell_volume 3523.640439
_symmetry_space_group_name_H-M "P M M M"
_symmetry_group_IT_number 47
_symmetry_cell_setting 'orthorhombic'
loop_
_space_group_symop_operation_xyz
x,y,z
-x,-y,z
x,-y,-z
-x,y,-z
-x,-y,-z
x,y,-z
-x,y,z
x,-y,z
loop_
_atom_site_type_symbol
_atom_site_label
_atom_site_fract_x
_atom_site_fract_y
_atom_site_fract_z
Si Si1 0.272894 0.112028 0.694812
Si Si2 0.403030 0.394667 0.805400
Si Si3 0.636502 0.212090 0.306259
Si Si4 0.108473 0.113673 0.000000
Si Si5 0.500000 0.612968 0.688937
Si Si6 0.948471 0.887016 0.685373
Si Si7 0.789458 0.112582 0.000000
Si Si8 0.451693 0.107466 0.197500
O O1 0.263360 0.133788 0.500000
O O2 0.318467 0.162173 0.749300
O O3 0.235977 0.138536 0.830832
O O4 0.278786 0.000000 0.702188
O O5 0.398466 0.500000 0.738429
O O6 0.368588 0.320190 0.737803
O O7 0.453352 0.360284 0.769257
O O8 0.398157 0.398571 0.000000
O O9 0.636461 0.202477 0.500000
O O10 0.592006 0.162412 0.244573
O O11 0.082573 0.143728 0.835072
O O12 0.159553 0.144363 0.000000
O O13 0.108111 0.000000 0.000000
O O14 0.500000 0.500000 0.696304
O O15 0.500000 0.642048 0.500000
O O16 0.935309 0.857709 0.500000
O O17 0.000000 0.860530 0.712433
O O18 0.947481 0.000000 0.685599
O O19 0.790201 0.000000 0.000000
O O20 0.500000 0.143588 0.256941
O O21 0.447854 0.000000 0.252392
O O22 0.453351 0.107267 0.000000
#
# Coordination Sequence:
#
# PCOD9386969 Si02
#       8
#     8   8   8   4   4   8   4   8
#     4   9  19  34  48  65  86 106 137 177 215 261
#     4  10  21  35  50  68  88 110 134 159 190 235
#     4  11  22  33  49  68  85 108 134 163 204 248
#     4   9  15  22  33  52  72  96 135 173 210 259
#     4   9  17  31  49  65  84 107 126 149 181 219
#     4   8  13  20  30  46  71 103 135 169 210 252
#     4   9  18  29  44  61  78 107 137 172 227 265
#     4   9  19  34  49  66  87 109 133 161 193 234
#
# _framework density 14.757464000000001
#
# number of rings (size 3 to 8) (size 9 to 14) (size 15 to 20)
#    0.000    2.692    0.000    2.769    3.231    4.615 
#    0.000    3.846    0.000    0.000    0.000    0.000 
#    0.000    0.000    0.000    0.000    0.000    0.000 
#
# Total GULP energy -289626.034901 kJ/mol
# GULP energy per Si atom -5569.731440 kJ/mol
# Density = 1.472388 g / cm^3
# Si number density = 14.757464 Si / 1000 Ang^3
#
#
#
# Elastic Constant Matrix: (Units=GPa)
#
#
# Indices 1 2 3 4 5 6 
#
# 1 113.5938 29.2907 67.5602 0.0000 0.0000 0.0000
# 2 29.2907 29.3130 14.4551 0.0000 0.0000 0.0000
# 3 67.5602 14.4551 70.8633 0.0000 0.0000 0.0000
# 4 0.0000 0.0000 0.0000 11.6905 0.0000 0.0000
# 5 0.0000 0.0000 0.0000 0.0000 22.6677 0.0000
# 6 0.0000 0.0000 0.0000 0.0000 0.0000 4.6378
#
#
#
# Elastic Compliance Matrix: (Units=1/GPa)
#
#
# Indices 1 2 3 4 5 6 
#
# 1 0.024963 -0.014685 -0.020804 0.000000 0.000000 0.000000
# 2 -0.014685 0.046569 0.004501 0.000000 0.000000 0.000000
# 3 -0.020804 0.004501 0.033028 0.000000 0.000000 0.000000
# 4 0.000000 0.000000 0.000000 0.085540 0.000000 0.000000
# 5 0.000000 0.000000 0.000000 0.000000 0.044116 0.000000
# 6 0.000000 0.000000 0.000000 0.000000 0.000000 0.215621
#
#
# Mechanical properties :
#
#
# Convention : Reuss Voigt Hill
#
# Bulk Modulus (GPa) = 23.48307 48.48691 35.98499
# Shear Modulus (GPa) = 9.50559 14.63013 12.06786
#
# Velocity S-wave (km/s) = 2.54071 3.15202 2.86273
# Velocity P-wave (km/s) = 4.95521 6.79516 5.94678
#
# Compressibility (1/GPa) = 0.04258388
#
# Stress axis : x y z
#
# Youngs Moduli (GPa) = 40.05907 21.47364 30.27752
#
# Poissons Ratio (x) = 0.31534 0.62989
# Poissons Ratio (y) = 0.58827 -0.13628
# Poissons Ratio (z) = 0.83339 -0.09666
#
# Static dielectric constant tensor:
#      x y z
#    x 1.501600 0.000000 0.000000 
#    y 0.000000 1.504280 0.000000 
#    z 0.000000 0.000000 1.515490 
# 
# From -- ./inp_files/12591.got.cif
#   From: 2010.05.17/outbox.cif.g08.bks.cpg/sg47_7_cif.got.tgz:12591.got - 2010.06.03 20:15:42.
