data_PCOD9386924
_publ_section_title
;
Structure prediction by ZEFSAII (Michael W. Deem and Ramdas Pophale) SiO2 
 PCOD9386924
Probable space group: P M M M
;
_chemical_formula_sum "Si O2"
_cell_formula_units_Z 44
_cell_length_a 9.565660
_cell_length_b 17.546550
_cell_length_c 14.418132
_cell_angle_alpha 90.000000
_cell_angle_beta 90.000000
_cell_angle_gamma 90.000000
_cell_volume 2420.001727
_symmetry_space_group_name_H-M "P M M M"
_symmetry_group_IT_number 47
_symmetry_cell_setting 'orthorhombic'
loop_
_space_group_symop_operation_xyz
x,y,z
-x,-y,z
x,-y,-z
-x,y,-z
-x,-y,-z
x,y,-z
-x,y,z
x,-y,z
loop_
_atom_site_type_symbol
_atom_site_label
_atom_site_fract_x
_atom_site_fract_y
_atom_site_fract_z
Si Si1 0.657869 0.407645 0.000000
Si Si2 0.840337 0.000000 0.386970
Si Si3 0.339435 0.146760 0.611722
Si Si4 0.162705 0.738749 0.277004
Si Si5 0.164582 0.411578 0.179876
Si Si6 0.341271 0.000000 0.112704
Si Si7 0.163459 0.851904 0.892246
O O1 0.742982 0.388028 0.908011
O O2 0.651229 0.500000 0.000000
O O3 0.500000 0.377643 0.000000
O O4 0.755072 0.925154 0.359171
O O5 0.845283 0.000000 0.500000
O O6 0.000000 0.000000 0.352923
O O7 0.338900 0.148704 0.500000
O O8 0.500000 0.138471 0.642316
O O9 0.266799 0.221412 0.652338
O O10 0.188417 0.649557 0.260351
O O11 0.181392 0.782364 0.178571
O O12 0.000000 0.749924 0.304643
O O13 0.193840 0.500000 0.203308
O O14 0.000000 0.406604 0.154567
O O15 0.258068 0.923360 0.136988
O O16 0.500000 0.000000 0.147765
O O17 0.345695 0.000000 0.000000
O O18 0.000000 0.874679 0.888729
O O19 0.194740 0.831916 0.000000
#
# Coordination Sequence:
#
# PCOD9386924 Si02
#       7
#     4   4   8   8   8   4   8
#     4   9  17  29  47  73 103 136 173 212 259 315
#     4   9  17  32  57  84 108 136 172 214 261 315
#     4  10  21  37  56  79 109 141 174 216 267 319
#     4  10  21  34  53  79 104 135 175 218 265 317
#     4   9  18  33  53  76 104 138 176 219 268 320
#     4   9  17  30  47  66  92 130 174 212 245 285
#     4   9  18  32  49  69  97 132 168 206 247 297
#
# _framework density 18.181805000000001
#
# number of rings (size 3 to 8) (size 9 to 14) (size 15 to 20)
#    0.000    2.636    0.000    1.364    1.273    6.545 
#    0.000    0.909    0.000    0.545    0.000    3.818 
#    0.000    0.000    0.000    0.000    0.000    0.000 
#
# Total GULP energy -245544.405705 kJ/mol
# GULP energy per Si atom -5580.554675 kJ/mol
# Density = 1.814042 g / cm^3
# Si number density = 18.181805 Si / 1000 Ang^3
#
#
#
# Elastic Constant Matrix: (Units=GPa)
#
#
# Indices 1 2 3 4 5 6 
#
# 1 112.0429 67.9264 34.1682 0.0000 0.0000 0.0000
# 2 67.9264 95.9505 17.7225 0.0000 0.0000 0.0000
# 3 34.1682 17.7225 35.4773 0.0000 0.0000 0.0000
# 4 0.0000 0.0000 0.0000 84.7446 0.0000 0.0000
# 5 0.0000 0.0000 0.0000 0.0000 21.8667 0.0000
# 6 0.0000 0.0000 0.0000 0.0000 0.0000 12.1506
#
#
#
# Elastic Compliance Matrix: (Units=1/GPa)
#
#
# Indices 1 2 3 4 5 6 
#
# 1 0.020227 -0.011811 -0.013581 0.000000 0.000000 0.000000
# 2 -0.011811 0.018378 0.002194 0.000000 0.000000 0.000000
# 3 -0.013581 0.002194 0.040170 0.000000 0.000000 0.000000
# 4 0.000000 0.000000 0.000000 0.011800 0.000000 0.000000
# 5 0.000000 0.000000 0.000000 0.000000 0.045732 0.000000
# 6 0.000000 0.000000 0.000000 0.000000 0.000000 0.082300
#
#
# Mechanical properties :
#
#
# Convention : Reuss Voigt Hill
#
# Bulk Modulus (GPa) = 30.88209 53.67833 42.28021
# Shear Modulus (GPa) = 18.12939 31.99596 25.06267
#
# Velocity S-wave (km/s) = 3.16114 4.19952 3.71677
# Velocity P-wave (km/s) = 5.50870 7.28710 6.45940
#
# Compressibility (1/GPa) = 0.03238123
#
# Stress axis : x y z
#
# Youngs Moduli (GPa) = 49.43863 54.41255 24.89407
#
# Poissons Ratio (x) = 0.64267 0.33808
# Poissons Ratio (y) = 0.58392 -0.05463
# Poissons Ratio (z) = 0.67140 -0.11941
#
# Static dielectric constant tensor:
#      x y z
#    x 1.620910 0.000000 0.000000 
#    y 0.000000 1.622120 0.000000 
#    z 0.000000 0.000000 1.631930 
# 
# From -- ./inp_files/20964.got.cif
#   From: 2010.05.17/outbox.cif.g08.bks.cpg/sg47_11_cif.got.tgz:20964.got - 2010.06.03 20:15:42.
