data_PCOD9386913
_publ_section_title
;
Structure prediction by ZEFSAII (Michael W. Deem and Ramdas Pophale) SiO2 
 PCOD9386913
Probable space group: P M M M
;
_chemical_formula_sum "Si O2"
_cell_formula_units_Z 52
_cell_length_a 20.278908
_cell_length_b 15.720239
_cell_length_c 7.649606
_cell_angle_alpha 90.000000
_cell_angle_beta 90.000000
_cell_angle_gamma 90.000000
_cell_volume 2438.612392
_symmetry_space_group_name_H-M "P M M M"
_symmetry_group_IT_number 47
_symmetry_cell_setting 'orthorhombic'
loop_
_space_group_symop_operation_xyz
x,y,z
-x,-y,z
x,-y,-z
-x,y,-z
-x,-y,-z
x,y,-z
-x,y,z
x,-y,z
loop_
_atom_site_type_symbol
_atom_site_label
_atom_site_fract_x
_atom_site_fract_y
_atom_site_fract_z
Si Si1 0.925107 0.097525 0.710238
Si Si2 0.686289 0.730766 0.293366
Si Si3 0.644154 0.094786 0.298399
Si Si4 0.924248 0.407903 0.213268
Si Si5 0.500000 0.102309 0.803258
Si Si6 0.575063 0.401296 0.286713
Si Si7 0.164824 0.743685 0.792151
O O1 0.927369 0.095384 0.500000
O O2 0.867772 0.164228 0.756305
O O3 0.000000 0.122201 0.770386
O O4 0.912712 0.000000 0.769917
O O5 0.670661 0.737508 0.500000
O O6 0.678549 0.825101 0.212438
O O7 0.633629 0.661479 0.225526
O O8 0.763809 0.716629 0.277752
O O9 0.665639 0.087851 0.500000
O O10 0.567356 0.121456 0.293515
O O11 0.651189 0.000000 0.220662
O O12 0.896516 0.500000 0.265646
O O13 0.885669 0.326685 0.277333
O O14 0.000000 0.403872 0.267761
O O15 0.923801 0.405899 0.000000
O O16 0.500000 0.000000 0.815879
O O17 0.500000 0.137319 0.000000
O O18 0.575842 0.401251 0.500000
O O19 0.500000 0.375701 0.234844
O O20 0.585302 0.500000 0.233148
O O21 0.169578 0.736700 0.000000
#
# Coordination Sequence:
#
# PCOD9386913 Si02
#       7
#     8   8   8   8   4   8   8
#     4   9  19  37  60  83 108 143 186 228 270 317
#     4  10  21  34  51  74 102 139 180 218 263 320
#     4   9  18  32  49  69  94 126 166 207 244 294
#     4   8  15  30  52  76 102 136 177 215 254 307
#     4   9  17  29  47  71  96 121 150 192 249 301
#     4   8  15  30  53  78 100 126 170 230 284 323
#     4  11  22  34  51  79 114 146 179 221 270 320
#
# _framework density 21.323602000000001
#
# number of rings (size 3 to 8) (size 9 to 14) (size 15 to 20)
#    0.000    2.846    0.000    2.538    1.077    4.000 
#    0.000    2.308    0.000    1.385    0.000    6.462 
#    0.000    0.000    0.000    0.000    0.000    0.000 
#
# Total GULP energy -289697.877549 kJ/mol
# GULP energy per Si atom -5571.113030 kJ/mol
# Density = 2.127507 g / cm^3
# Si number density = 21.323602 Si / 1000 Ang^3
#
#
#
# Elastic Constant Matrix: (Units=GPa)
#
#
# Indices 1 2 3 4 5 6 
#
# 1 113.0957 85.2104 -4.4084 0.0000 0.0000 0.0000
# 2 85.2104 137.2266 6.6398 0.0000 0.0000 0.0000
# 3 -4.4084 6.6398 44.8486 0.0000 0.0000 0.0000
# 4 0.0000 0.0000 0.0000 -53.2446 0.0000 0.0000
# 5 0.0000 0.0000 0.0000 0.0000 -0.1616 0.0000
# 6 0.0000 0.0000 0.0000 0.0000 0.0000 -35.7176
#
#
#
# Elastic Compliance Matrix: (Units=1/GPa)
#
#
# Indices 1 2 3 4 5 6 
#
# 1 0.017079 -0.010764 0.003272 0.000000 0.000000 0.000000
# 2 -0.010764 0.014123 -0.003149 0.000000 0.000000 0.000000
# 3 0.003272 -0.003149 0.023085 0.000000 0.000000 0.000000
# 4 0.000000 0.000000 0.000000 -0.018781 0.000000 0.000000
# 5 0.000000 0.000000 0.000000 0.000000 -6.189538 0.000000
# 6 0.000000 0.000000 0.000000 0.000000 0.000000 -0.027997
#
#
# Mechanical properties :
#
#
# Convention : Reuss Voigt Hill
#
# Bulk Modulus (GPa) = 30.29646 52.22829 41.26237
# Shear Modulus (GPa) = -0.81304 -3.97615 -2.39460
#
# Velocity S-wave (km/s) = -0.61815 -1.36701 -1.06086
# Velocity P-wave (km/s) = 3.70531 4.69625 4.22990
#
# Compressibility (1/GPa) = 0.03300716
#
# Stress axis : x y z
#
# Youngs Moduli (GPa) = 58.55006 70.80506 43.31796
#
# Poissons Ratio (x) = 0.76213 -0.14175
# Poissons Ratio (y) = 0.63022 0.13641
# Poissons Ratio (z) = -0.19160 0.22296
#
# Static dielectric constant tensor:
#      x y z
#    x 1.729350 0.000000 0.000000 
#    y 0.000000 1.804990 0.000000 
#    z 0.000000 0.000000 1.807830 
# 
# From -- ./inp_files/10972.got.cif
#   From: 2010.05.17/outbox.cif.g08.bks.cpg/sg47_6_cif.got.tgz:10972.got - 2010.06.03 20:15:42.
