data_PCOD9386462
_publ_section_title
;
Structure prediction by ZEFSAII (Michael W. Deem and Ramdas Pophale) SiO2 
 PCOD9386462
Probable space group: P M M M
;
_chemical_formula_sum "Si O2"
_cell_formula_units_Z 48
_cell_length_a 31.773348
_cell_length_b 9.186373
_cell_length_c 8.557486
_cell_angle_alpha 90.000000
_cell_angle_beta 90.000000
_cell_angle_gamma 90.000000
_cell_volume 2497.774641
_symmetry_space_group_name_H-M "P M M M"
_symmetry_group_IT_number 47
_symmetry_cell_setting 'orthorhombic'
loop_
_space_group_symop_operation_xyz
x,y,z
-x,-y,z
x,-y,-z
-x,y,-z
-x,-y,-z
x,y,-z
-x,y,z
x,-y,z
loop_
_atom_site_type_symbol
_atom_site_label
_atom_site_fract_x
_atom_site_fract_y
_atom_site_fract_z
Si Si1 0.750384 0.668837 0.811006
Si Si2 0.084983 0.668748 0.810812
Si Si3 0.335172 0.169138 0.189051
Si Si4 0.500000 0.831176 0.812501
Si Si5 0.167299 0.168351 0.687280
Si Si6 0.582397 0.668780 0.687391
Si Si7 0.000000 0.832134 0.809322
O O1 0.749659 0.500000 0.762200
O O2 0.707754 0.750747 0.761735
O O3 0.791317 0.749668 0.747332
O O4 0.751983 0.672442 0.000000
O O5 0.085059 0.500000 0.762016
O O6 0.125818 0.751484 0.749186
O O7 0.042213 0.748945 0.759554
O O8 0.085954 0.671846 0.000000
O O9 0.375727 0.251104 0.254440
O O10 0.334828 0.000000 0.236696
O O11 0.337040 0.173817 0.000000
O O12 0.541455 0.750354 0.751787
O O13 0.500000 0.000000 0.761603
O O14 0.500000 0.828315 0.000000
O O15 0.166997 0.171003 0.500000
O O16 0.167682 0.000000 0.739790
O O17 0.581145 0.672099 0.500000
O O18 0.582523 0.500000 0.738420
O O19 0.000000 0.000000 0.758438
O O20 0.000000 0.831754 0.000000
#
# Coordination Sequence:
#
# PCOD9386462 Si02
#       7
#     8   8   8   4   8   8   4
#     4  10  21  38  61  87 113 145 187 233 281 333
#     4  10  20  35  57  84 112 143 182 228 277 330
#     4  10  21  38  61  88 116 148 188 232 279 333
#     4  11  24  41  62  88 116 149 192 239 286 336
#     4  11  24  39  55  79 112 149 188 230 278 332
#     4  11  24  40  59  86 119 154 192 233 280 335
#     4   9  17  31  54  83 112 143 180 224 274 327
#
# _framework density 19.217105
#
# number of rings (size 3 to 8) (size 9 to 14) (size 15 to 20)
#    0.000    1.667    0.000    4.250    0.000   13.000 
#    0.000    0.417    0.000    2.500    0.000    0.000 
#    0.000    0.000    0.000    0.000    0.000    0.000 
#
# Total GULP energy -268386.191720 kJ/mol
# GULP energy per Si atom -5591.378994 kJ/mol
# Density = 1.917337 g / cm^3
# Si number density = 19.217105 Si / 1000 Ang^3
#
#
#
# Elastic Constant Matrix: (Units=GPa)
#
#
# Indices 1 2 3 4 5 6 
#
# 1 242.9764 150.9700 37.2190 0.0000 0.0000 0.0000
# 2 150.9700 245.3906 43.5871 0.0000 0.0000 0.0000
# 3 37.2190 43.5871 16.2162 0.0000 0.0000 0.0000
# 4 0.0000 0.0000 0.0000 26.3066 0.0000 0.0000
# 5 0.0000 0.0000 0.0000 0.0000 -160.1430 0.0000
# 6 0.0000 0.0000 0.0000 0.0000 0.0000 46.6217
#
#
#
# Elastic Compliance Matrix: (Units=1/GPa)
#
#
# Indices 1 2 3 4 5 6 
#
# 1 0.007282 -0.002892 -0.008940 0.000000 0.000000 0.000000
# 2 -0.002892 0.008947 -0.017410 0.000000 0.000000 0.000000
# 3 -0.008940 -0.017410 0.128981 0.000000 0.000000 0.000000
# 4 0.000000 0.000000 0.000000 0.038013 0.000000 0.000000
# 5 0.000000 0.000000 0.000000 0.000000 -0.006244 0.000000
# 6 0.000000 0.000000 0.000000 0.000000 0.000000 0.021449
#
#
# Mechanical properties :
#
#
# Convention : Reuss Voigt Hill
#
# Bulk Modulus (GPa) = 11.53054 107.57059 59.55057
# Shear Modulus (GPa) = 17.49345 0.74420 9.11883
#
# Velocity S-wave (km/s) = 3.02040 0.62298 2.18070
# Velocity P-wave (km/s) = 4.26344 7.52432 6.11524
#
# Compressibility (1/GPa) = 0.08672619
#
# Stress axis : x y z
#
# Youngs Moduli (GPa) = 137.32471 111.77046 7.75306
#
# Poissons Ratio (x) = 0.32326 0.06931
# Poissons Ratio (y) = 0.39716 0.13498
# Poissons Ratio (z) = 1.22765 1.94594
#
# Static dielectric constant tensor:
#      x y z
#    x 1.614570 0.000000 0.000000 
#    y 0.000000 1.654210 0.000000 
#    z 0.000000 0.000000 1.655620 
# 
# From -- ./inp_files/13807.got.cif
#   From: 2010.05.17/outbox.cif.g08.bks.cpg/sg47_7_cif.got.tgz:13807.got - 2010.06.03 20:15:42.
