data_PCOD9386229
_publ_section_title
;
Structure prediction by ZEFSAII (Michael W. Deem and Ramdas Pophale) SiO2 
 PCOD9386229
Probable space group: P M M M
;
_chemical_formula_sum "Si O2"
_cell_formula_units_Z 33
_cell_length_a 24.526269
_cell_length_b 8.472885
_cell_length_c 7.513590
_cell_angle_alpha 90.000000
_cell_angle_beta 90.000000
_cell_angle_gamma 90.000000
_cell_volume 1561.386040
_symmetry_space_group_name_H-M "P M M M"
_symmetry_group_IT_number 47
_symmetry_cell_setting 'orthorhombic'
loop_
_space_group_symop_operation_xyz
x,y,z
-x,-y,z
x,-y,-z
-x,y,-z
-x,-y,-z
x,y,-z
-x,y,z
x,-y,z
loop_
_atom_site_type_symbol
_atom_site_label
_atom_site_fract_x
_atom_site_fract_y
_atom_site_fract_z
Si Si1 0.772493 0.175275 0.784723
Si Si2 0.883407 0.675793 0.787903
Si Si3 0.601038 0.000000 0.279981
Si Si4 0.000000 0.824056 0.711453
Si Si5 0.500000 0.000000 0.000000
Si Si6 0.338394 0.325994 0.708617
O O1 0.833147 0.219448 0.721795
O O2 0.726184 0.297542 0.730006
O O3 0.757773 0.000000 0.720907
O O4 0.772644 0.172321 0.000000
O O5 0.879117 0.500000 0.713901
O O6 0.943969 0.739649 0.760616
O O7 0.875954 0.667514 0.000000
O O8 0.633060 0.837012 0.230243
O O9 0.593542 0.000000 0.500000
O O10 0.547413 0.000000 0.158870
O O11 0.000000 0.833816 0.500000
O O12 0.000000 0.000000 0.788077
O O13 0.351095 0.333466 0.500000
O O14 0.353106 0.500000 0.784853
#
# Coordination Sequence:
#
# PCOD9386229 Si02
#       6
#     8   8   4   4   1   8
#     4  10  20  34  57  88 121 154 198 251 307 371
#     4  10  21  37  56  80 109 146 192 246 308 372
#     4  10  23  45  67  98 139 174 217 272 315 369
#     4  11  24  39  54  74 102 143 194 247 304 370
#     4  12  26  44  78 102 132 182 230 258 318 378
#     4  10  21  38  62  91 127 171 210 255 319 375
#
# _framework density 21.135066999999999
#
# number of rings (size 3 to 8) (size 9 to 14) (size 15 to 20)
#    0.000    1.818    1.212    2.364    1.697    6.303 
#    0.000    1.212    0.000    2.909    0.000    0.000 
#    0.000    0.000    0.000    0.000    0.000    0.000 
#
# Total GULP energy -183855.835115 kJ/mol
# GULP energy per Si atom -5571.388943 kJ/mol
# Density = 2.108696 g / cm^3
# Si number density = 21.135067 Si / 1000 Ang^3
#
#
#
# Elastic Constant Matrix: (Units=GPa)
#
#
# Indices 1 2 3 4 5 6 
#
# 1 133.5399 60.7391 8.1390 0.0000 0.0000 0.0000
# 2 60.7391 169.2733 14.7147 0.0000 0.0000 0.0000
# 3 8.1390 14.7147 66.2560 0.0000 0.0000 0.0000
# 4 0.0000 0.0000 0.0000 6.5073 0.0000 0.0000
# 5 0.0000 0.0000 0.0000 0.0000 42.5100 0.0000
# 6 0.0000 0.0000 0.0000 0.0000 0.0000 -8.7085
#
#
#
# Elastic Compliance Matrix: (Units=1/GPa)
#
#
# Indices 1 2 3 4 5 6 
#
# 1 0.008959 -0.003180 -0.000394 0.000000 0.000000 0.000000
# 2 -0.003180 0.007153 -0.001198 0.000000 0.000000 0.000000
# 3 -0.000394 -0.001198 0.015407 0.000000 0.000000 0.000000
# 4 0.000000 0.000000 0.000000 0.153673 0.000000 0.000000
# 5 0.000000 0.000000 0.000000 0.000000 0.023524 0.000000
# 6 0.000000 0.000000 0.000000 0.000000 0.000000 -0.114830
#
#
# Mechanical properties :
#
#
# Convention : Reuss Voigt Hill
#
# Bulk Modulus (GPa) = 45.50762 59.58386 52.54574
# Shear Modulus (GPa) = 45.14428 27.09352 36.11890
#
# Velocity S-wave (km/s) = 4.62669 3.58428 4.13844
# Velocity P-wave (km/s) = 7.07956 6.73666 6.91024
#
# Compressibility (1/GPa) = 0.02197434
#
# Stress axis : x y z
#
# Youngs Moduli (GPa) = 111.61954 139.80249 64.90371
#
# Poissons Ratio (x) = 0.44463 0.02558
# Poissons Ratio (y) = 0.35500 0.07775
# Poissons Ratio (z) = 0.04400 0.16747
#
# Static dielectric constant tensor:
#      x y z
#    x 1.787760 0.000000 0.000000 
#    y 0.000000 1.805610 0.000000 
#    z 0.000000 0.000000 1.797480 
# 
# From -- ./inp_files/10465.got.cif
#   From: 2010.05.17/outbox.cif.g08.bks.cpg/sg47_6_cif.got.tgz:10465.got - 2010.06.03 20:15:42.
