data_PCOD9386596
_publ_section_title
;
Structure prediction by ZEFSAII (Michael W. Deem and Ramdas Pophale) SiO2 
 PCOD9386596
Probable space group: P M M M
;
_chemical_formula_sum "Si O2"
_cell_formula_units_Z 48
_cell_length_a 17.624139
_cell_length_b 9.020921
_cell_length_c 15.710593
_cell_angle_alpha 90.000000
_cell_angle_beta 90.000000
_cell_angle_gamma 90.000000
_cell_volume 2497.763798
_symmetry_space_group_name_H-M "P M M M"
_symmetry_group_IT_number 47
_symmetry_cell_setting 'orthorhombic'
loop_
_space_group_symop_operation_xyz
x,y,z
-x,-y,z
x,-y,-z
-x,y,-z
-x,-y,-z
x,y,-z
-x,y,z
x,-y,z
loop_
_atom_site_type_symbol
_atom_site_label
_atom_site_fract_x
_atom_site_fract_y
_atom_site_fract_z
Si Si1 0.593020 0.171024 0.000000
Si Si2 0.087650 0.680353 0.903017
Si Si3 0.336454 0.822728 0.322234
Si Si4 0.588544 0.180487 0.500000
Si Si5 0.909005 0.830154 0.596115
Si Si6 0.180538 0.676115 0.739029
Si Si7 0.409906 0.333292 0.830649
O O1 0.620072 0.255283 0.084250
O O2 0.500000 0.172513 0.000000
O O3 0.616109 0.000000 0.000000
O O4 0.087966 0.500000 0.902183
O O5 0.145721 0.728396 0.829516
O O6 0.000000 0.725304 0.884643
O O7 0.106200 0.726669 0.000000
O O8 0.366654 0.773473 0.414864
O O9 0.257184 0.754342 0.291706
O O10 0.394307 0.765893 0.250983
O O11 0.331582 0.000000 0.322844
O O12 0.500000 0.229008 0.500000
O O13 0.586998 0.000000 0.500000
O O14 0.882614 0.794755 0.500000
O O15 0.879350 0.718629 0.666155
O O16 0.000000 0.829670 0.595428
O O17 0.884313 0.000000 0.615109
O O18 0.191743 0.500000 0.743462
O O19 0.500000 0.344914 0.841529
O O20 0.378927 0.500000 0.820567
#
# Coordination Sequence:
#
# PCOD9386596 Si02
#       7
#     4   8   8   4   8   8   8
#     4   9  17  31  55  85 113 145 184 225 272 333
#     4   8  15  31  56  83 111 148 194 239 283 335
#     4  11  23  39  59  83 113 152 193 240 295 354
#     4   9  20  40  65  87 104 137 196 251 293 348
#     4   9  19  36  57  80 109 149 193 232 277 341
#     4  11  22  35  54  84 119 150 187 238 294 349
#     4  10  20  36  58  85 116 148 186 236 292 348
#
# _framework density 19.217191
#
# number of rings (size 3 to 8) (size 9 to 14) (size 15 to 20)
#    0.000    2.333    0.000    3.750    1.167    4.000 
#    1.500    2.083    0.000    4.500    0.000    5.833 
#    0.000    0.000    0.000    0.000    0.000    0.000 
#
# Total GULP energy -267739.640040 kJ/mol
# GULP energy per Si atom -5577.909168 kJ/mol
# Density = 1.917345 g / cm^3
# Si number density = 19.217191 Si / 1000 Ang^3
#
#
#
# Elastic Constant Matrix: (Units=GPa)
#
#
# Indices 1 2 3 4 5 6 
#
# 1 67.8897 30.6885 61.6816 0.0000 0.0000 0.0000
# 2 30.6885 61.4607 50.3512 0.0000 0.0000 0.0000
# 3 61.6816 50.3512 175.0472 0.0000 0.0000 0.0000
# 4 0.0000 0.0000 0.0000 22.1671 0.0000 0.0000
# 5 0.0000 0.0000 0.0000 0.0000 20.9724 0.0000
# 6 0.0000 0.0000 0.0000 0.0000 0.0000 25.7205
#
#
#
# Elastic Compliance Matrix: (Units=1/GPa)
#
#
# Indices 1 2 3 4 5 6 
#
# 1 0.023481 -0.006471 -0.006413 0.000000 0.000000 0.000000
# 2 -0.006471 0.023070 -0.004356 0.000000 0.000000 0.000000
# 3 -0.006413 -0.004356 0.009225 0.000000 0.000000 0.000000
# 4 0.000000 0.000000 0.000000 0.045112 0.000000 0.000000
# 5 0.000000 0.000000 0.000000 0.000000 0.047682 0.000000
# 6 0.000000 0.000000 0.000000 0.000000 0.000000 0.038879
#
#
# Mechanical properties :
#
#
# Convention : Reuss Voigt Hill
#
# Bulk Modulus (GPa) = 46.95372 65.53779 56.24575
# Shear Modulus (GPa) = 21.83138 24.55042 23.19090
#
# Velocity S-wave (km/s) = 3.37417 3.57812 3.47764
# Velocity P-wave (km/s) = 6.29811 7.15880 6.74220
#
# Compressibility (1/GPa) = 0.02129757
#
# Stress axis : x y z
#
# Youngs Moduli (GPa) = 42.58714 43.34622 108.39725
#
# Poissons Ratio (x) = 0.28049 0.69513
# Poissons Ratio (y) = 0.27558 0.47215
# Poissons Ratio (z) = 0.27310 0.18881
#
# Static dielectric constant tensor:
#      x y z
#    x 1.619260 0.000000 0.000000 
#    y 0.000000 1.658280 0.000000 
#    z 0.000000 0.000000 1.670200 
# 
# From -- ./inp_files/24496.got.cif
#   From: 2010.05.17/outbox.cif.g08.bks.cpg/sg47_13_cif.got.tgz:24496.got - 2010.06.03 20:15:42.
