data_PCOD9386926
_publ_section_title
;
Structure prediction by ZEFSAII (Michael W. Deem and Ramdas Pophale) SiO2 
 PCOD9386926
Probable space group: P M M M
;
_chemical_formula_sum "Si O2"
_cell_formula_units_Z 44
_cell_length_a 16.456397
_cell_length_b 13.666051
_cell_length_c 10.183481
_cell_angle_alpha 90.000000
_cell_angle_beta 90.000000
_cell_angle_gamma 90.000000
_cell_volume 2290.203376
_symmetry_space_group_name_H-M "P M M M"
_symmetry_group_IT_number 47
_symmetry_cell_setting 'orthorhombic'
loop_
_space_group_symop_operation_xyz
x,y,z
-x,-y,z
x,-y,-z
-x,y,-z
-x,-y,-z
x,y,-z
-x,y,z
x,-y,z
loop_
_atom_site_type_symbol
_atom_site_label
_atom_site_fract_x
_atom_site_fract_y
_atom_site_fract_z
Si Si1 0.229403 0.814153 0.648455
Si Si2 0.908084 0.882170 0.150692
Si Si3 0.614641 0.611089 0.851299
Si Si4 0.203994 0.388516 0.239126
Si Si5 0.091855 0.618848 0.000000
Si Si6 0.411426 0.786173 0.655447
O O1 0.215243 0.848921 0.500000
O O2 0.163495 0.853686 0.750401
O O3 0.218035 0.695976 0.654927
O O4 0.324028 0.836129 0.685307
O O5 0.000000 0.849847 0.189025
O O6 0.910105 0.000000 0.147762
O O7 0.892516 0.849300 0.000000
O O8 0.588197 0.500000 0.823998
O O9 0.712227 0.609051 0.841917
O O10 0.587538 0.689311 0.744594
O O11 0.591519 0.637332 0.000000
O O12 0.188219 0.500000 0.286136
O O13 0.136201 0.355297 0.135238
O O14 0.093788 0.500000 0.000000
O O15 0.000000 0.652115 0.000000
O O16 0.406674 0.762411 0.500000
O O17 0.500000 0.836423 0.675856
#
# Coordination Sequence:
#
# PCOD9386926 Si02
#       6
#     8   8   8   8   4   8
#     4  10  21  34  54  83 109 141 183 224 270 318
#     4   9  20  40  64  88 112 138 169 209 263 326
#     4   9  16  27  44  64  90 127 174 229 279 315
#     4   9  17  30  46  67 102 143 181 221 263 312
#     4   9  16  26  42  64  88 124 176 221 256 302
#     4   9  19  34  48  66  99 141 181 219 260 313
#
# _framework density 19.212268000000002
#
# number of rings (size 3 to 8) (size 9 to 14) (size 15 to 20)
#    0.000    2.818    0.909    0.545    1.273    3.636 
#    0.000    6.364    0.000    0.545    0.000    7.636 
#    0.000    0.000    0.000    0.000    0.000    0.000 
#
# Total GULP energy -245061.743022 kJ/mol
# GULP energy per Si atom -5569.585069 kJ/mol
# Density = 1.916854 g / cm^3
# Si number density = 19.212268 Si / 1000 Ang^3
#
#
#
# Elastic Constant Matrix: (Units=GPa)
#
#
# Indices 1 2 3 4 5 6 
#
# 1 192.8170 17.4023 68.5807 0.0000 0.0000 0.0000
# 2 17.4023 26.2844 11.1169 0.0000 0.0000 0.0000
# 3 68.5807 11.1169 74.5229 0.0000 0.0000 0.0000
# 4 0.0000 0.0000 0.0000 11.2731 0.0000 0.0000
# 5 0.0000 0.0000 0.0000 0.0000 -18.8851 0.0000
# 6 0.0000 0.0000 0.0000 0.0000 0.0000 8.6808
#
#
#
# Elastic Compliance Matrix: (Units=1/GPa)
#
#
# Indices 1 2 3 4 5 6 
#
# 1 0.007836 -0.002282 -0.006871 0.000000 0.000000 0.000000
# 2 -0.002282 0.041272 -0.004057 0.000000 0.000000 0.000000
# 3 -0.006871 -0.004057 0.020347 0.000000 0.000000 0.000000
# 4 0.000000 0.000000 0.000000 0.088707 0.000000 0.000000
# 5 0.000000 0.000000 0.000000 0.000000 -0.052952 0.000000
# 6 0.000000 0.000000 0.000000 0.000000 0.000000 0.115197
#
#
# Mechanical properties :
#
#
# Convention : Reuss Voigt Hill
#
# Bulk Modulus (GPa) = 23.23639 54.20268 38.71953
# Shear Modulus (GPa) = 19.14453 13.31537 16.22995
#
# Velocity S-wave (km/s) = 3.16012 2.63547 2.90965
# Velocity P-wave (km/s) = 5.04341 6.12656 5.61118
#
# Compressibility (1/GPa) = 0.04303595
#
# Stress axis : x y z
#
# Youngs Moduli (GPa) = 127.61597 24.22945 49.14790
#
# Poissons Ratio (x) = 0.05529 0.33768
# Poissons Ratio (y) = 0.29123 0.19937
# Poissons Ratio (z) = 0.87682 0.09829
#
# Static dielectric constant tensor:
#      x y z
#    x 1.714010 0.000000 0.000000 
#    y 0.000000 1.696770 0.000000 
#    z 0.000000 0.000000 1.629970 
# 
# From -- ./inp_files/8971.got.cif
#   From: 2010.05.17/outbox.cif.g08.bks.cpg/sg47_5_cif.got.tgz:8971.got - 2010.06.03 20:15:42.
