data_PCOD9386900
_publ_section_title
;
Structure prediction by ZEFSAII (Michael W. Deem and Ramdas Pophale) SiO2 
 PCOD9386900
Probable space group: P M M M
;
_chemical_formula_sum "Si O2"
_cell_formula_units_Z 64
_cell_length_a 9.043072
_cell_length_b 26.778325
_cell_length_c 14.346959
_cell_angle_alpha 90.000000
_cell_angle_beta 90.000000
_cell_angle_gamma 90.000000
_cell_volume 3474.235503
_symmetry_space_group_name_H-M "P M M M"
_symmetry_group_IT_number 47
_symmetry_cell_setting 'orthorhombic'
loop_
_space_group_symop_operation_xyz
x,y,z
-x,-y,z
x,-y,-z
-x,y,-z
-x,-y,-z
x,y,-z
-x,y,z
x,-y,z
loop_
_atom_site_type_symbol
_atom_site_label
_atom_site_fract_x
_atom_site_fract_y
_atom_site_fract_z
Si Si1 0.831405 0.790993 0.113129
Si Si2 0.674770 0.310905 0.109843
Si Si3 0.677018 0.738848 0.611680
Si Si4 0.324017 0.557973 0.390001
Si Si5 0.178319 0.054530 0.296124
Si Si6 0.179878 0.902190 0.894629
Si Si7 0.175543 0.646906 0.719393
Si Si8 0.327441 0.850286 0.612401
O O1 0.728427 0.744797 0.137368
O O2 0.775653 0.846268 0.137120
O O3 0.000000 0.783536 0.147539
O O4 0.839337 0.792012 0.000000
O O5 0.500000 0.315384 0.124031
O O6 0.761688 0.348260 0.176218
O O7 0.706639 0.317600 0.000000
O O8 0.699135 0.734495 0.500000
O O9 0.500000 0.735157 0.628013
O O10 0.758974 0.694339 0.663398
O O11 0.726034 0.794780 0.641333
O O12 0.294989 0.566013 0.500000
O O13 0.500000 0.565603 0.375822
O O14 0.290757 0.500000 0.368946
O O15 0.234143 0.597076 0.329664
O O16 0.220838 0.060411 0.187165
O O17 0.241430 0.102391 0.348552
O O18 0.000000 0.056299 0.301288
O O19 0.226862 0.000000 0.331396
O O20 0.000000 0.900896 0.898937
O O21 0.232058 0.912560 0.000000
O O22 0.000000 0.648899 0.719138
O O23 0.320258 0.850948 0.500000
O O24 0.500000 0.854209 0.638932
#
# Coordination Sequence:
#
# PCOD9386900 Si02
#       8
#     8   8   8   8   8   8   8   8
#     4   8  14  27  47  70  97 129 168 216 268 320
#     4  10  21  36  53  75 107 148 193 236 276 322
#     4   9  19  37  58  80 109 142 178 223 273 329
#     4   9  19  38  63  88 117 156 198 237 276 320
#     4  10  21  34  50  76 105 132 170 219 266 319
#     4   8  15  29  49  72 100 134 168 205 255 317
#     4  12  24  34  53  86 121 155 187 226 277 331
#     4   9  20  39  59  76  97 131 174 220 271 325
#
# _framework density 18.421317999999999
#
# number of rings (size 3 to 8) (size 9 to 14) (size 15 to 20)
#    0.000    2.625    0.000    3.750    1.750    4.500 
#    0.000    4.375    0.000    0.750    0.000    3.500 
#    0.000    0.000    0.000    0.000    0.000    0.000 
#
# Total GULP energy -357097.768422 kJ/mol
# GULP energy per Si atom -5579.652632 kJ/mol
# Density = 1.837939 g / cm^3
# Si number density = 18.421318 Si / 1000 Ang^3
#
#
#
# Elastic Constant Matrix: (Units=GPa)
#
#
# Indices 1 2 3 4 5 6 
#
# 1 62.5725 64.7106 40.0285 0.0000 0.0000 0.0000
# 2 64.7106 116.4815 54.6978 0.0000 0.0000 0.0000
# 3 40.0285 54.6978 56.2129 0.0000 0.0000 0.0000
# 4 0.0000 0.0000 0.0000 28.7920 0.0000 0.0000
# 5 0.0000 0.0000 0.0000 0.0000 20.4390 0.0000
# 6 0.0000 0.0000 0.0000 0.0000 0.0000 34.7692
#
#
#
# Elastic Compliance Matrix: (Units=1/GPa)
#
#
# Indices 1 2 3 4 5 6 
#
# 1 0.042413 -0.017272 -0.013395 0.000000 0.000000 0.000000
# 2 -0.017272 0.022842 -0.009927 0.000000 0.000000 0.000000
# 3 -0.013395 -0.009927 0.036988 0.000000 0.000000 0.000000
# 4 0.000000 0.000000 0.000000 0.034732 0.000000 0.000000
# 5 0.000000 0.000000 0.000000 0.000000 0.048926 0.000000
# 6 0.000000 0.000000 0.000000 0.000000 0.000000 0.028761
#
#
# Mechanical properties :
#
#
# Convention : Reuss Voigt Hill
#
# Bulk Modulus (GPa) = 47.49735 61.57118 54.53427
# Shear Modulus (GPa) = 16.50884 21.85538 19.18211
#
# Velocity S-wave (km/s) = 2.99688 3.44818 3.23042
# Velocity P-wave (km/s) = 6.14938 7.02493 6.60169
#
# Compressibility (1/GPa) = 0.02105381
#
# Stress axis : x y z
#
# Youngs Moduli (GPa) = 23.57787 43.77869 27.03606
#
# Poissons Ratio (x) = 0.75615 0.36215
# Poissons Ratio (y) = 0.40724 0.26840
# Poissons Ratio (z) = 0.31582 0.43461
#
# Static dielectric constant tensor:
#      x y z
#    x 1.614330 0.000000 0.000000 
#    y 0.000000 1.631130 0.000000 
#    z 0.000000 0.000000 1.659980 
# 
# From -- ./inp_files/21873.got.cif
#   From: 2010.05.17/outbox.cif.g08.bks.cpg/sg47_11_cif.got.tgz:21873.got - 2010.06.03 20:15:42.
