data_PCOD9386777
_publ_section_title
;
Structure prediction by ZEFSAII (Michael W. Deem and Ramdas Pophale) SiO2 
 PCOD9386777
Probable space group: P M M M
;
_chemical_formula_sum "Si O2"
_cell_formula_units_Z 52
_cell_length_a 14.285669
_cell_length_b 18.892625
_cell_length_c 11.579529
_cell_angle_alpha 90.000000
_cell_angle_beta 90.000000
_cell_angle_gamma 90.000000
_cell_volume 3125.242937
_symmetry_space_group_name_H-M "P M M M"
_symmetry_group_IT_number 47
_symmetry_cell_setting 'orthorhombic'
loop_
_space_group_symop_operation_xyz
x,y,z
-x,-y,z
x,-y,-z
-x,y,-z
-x,-y,-z
x,y,-z
-x,y,z
x,-y,z
loop_
_atom_site_type_symbol
_atom_site_label
_atom_site_fract_x
_atom_site_fract_y
_atom_site_fract_z
Si Si1 0.114033 0.000000 0.131114
Si Si2 0.892376 0.585228 0.636945
Si Si3 0.608388 0.500000 0.862188
Si Si4 0.611873 0.582737 0.500000
Si Si5 0.707372 0.775935 0.139150
Si Si6 0.389272 0.922466 0.860707
Si Si7 0.105163 0.154114 0.140252
Si Si8 0.700600 0.368363 0.264082
O O1 0.136772 0.076161 0.183553
O O2 0.000000 0.000000 0.123638
O O3 0.152349 0.000000 0.000000
O O4 0.878972 0.600516 0.500000
O O5 0.882945 0.500000 0.649712
O O6 0.811342 0.621523 0.711374
O O7 0.000000 0.603907 0.666915
O O8 0.500000 0.500000 0.820262
O O9 0.661576 0.568634 0.815290
O O10 0.607529 0.500000 0.000000
O O11 0.643306 0.500000 0.500000
O O12 0.500000 0.583240 0.500000
O O13 0.651115 0.620205 0.613170
O O14 0.657718 0.849173 0.176560
O O15 0.817000 0.788558 0.164894
O O16 0.676753 0.706130 0.205501
O O17 0.694970 0.768006 0.000000
O O18 0.500000 0.919633 0.835898
O O19 0.353545 0.000000 0.819704
O O20 0.378759 0.923174 0.000000
O O21 0.000000 0.169538 0.179887
O O22 0.101894 0.147383 0.000000
#
# Coordination Sequence:
#
# PCOD9386777 Si02
#       8
#     4   8   4   4   8   8   8   8
#     4   7  10  18  36  60  87 126 173 214 245 278
#     4   9  17  32  56  82 102 128 170 220 272 313
#     4  11  24  39  56  77 106 147 181 206 254 322
#     4  11  22  38  61  83  98 126 172 227 278 310
#     4  10  21  31  46  75 109 145 173 201 253 314
#     4   8  15  29  47  66  93 133 179 220 253 294
#     4   8  14  25  40  63  98 137 174 208 244 292
#     4  12  21  36  56  80 111 136 170 221 265 310
#
# _framework density 16.638707
#
# number of rings (size 3 to 8) (size 9 to 14) (size 15 to 20)
#    0.000    2.538    2.308    2.769    1.077    1.846 
#    0.000    1.538    0.000    1.846    0.000    0.538 
#    0.000    1.846    0.000    4.462    0.000    0.923 
#
# Total GULP energy -289654.081962 kJ/mol
# GULP energy per Si atom -5570.270807 kJ/mol
# Density = 1.660084 g / cm^3
# Si number density = 16.638707 Si / 1000 Ang^3
#
#
#
# Elastic Constant Matrix: (Units=GPa)
#
#
# Indices 1 2 3 4 5 6 
#
# 1 80.3707 52.5508 26.4057 0.0000 0.0000 0.0000
# 2 52.5508 144.0184 43.5257 0.0000 0.0000 0.0000
# 3 26.4057 43.5257 46.6109 0.0000 0.0000 0.0000
# 4 0.0000 0.0000 0.0000 -2.9330 0.0000 0.0000
# 5 0.0000 0.0000 0.0000 0.0000 42.2306 0.0000
# 6 0.0000 0.0000 0.0000 0.0000 0.0000 14.1291
#
#
#
# Elastic Compliance Matrix: (Units=1/GPa)
#
#
# Indices 1 2 3 4 5 6 
#
# 1 0.017276 -0.004661 -0.005434 0.000000 0.000000 0.000000
# 2 -0.004661 0.010931 -0.007567 0.000000 0.000000 0.000000
# 3 -0.005434 -0.007567 0.031599 0.000000 0.000000 0.000000
# 4 0.000000 0.000000 0.000000 -0.340945 0.000000 0.000000
# 5 0.000000 0.000000 0.000000 0.000000 0.023679 0.000000
# 6 0.000000 0.000000 0.000000 0.000000 0.000000 0.070776
#
#
# Mechanical properties :
#
#
# Convention : Reuss Voigt Hill
#
# Bulk Modulus (GPa) = 40.84827 57.32937 49.08882
# Shear Modulus (GPa) = -34.91647 20.58653 -7.16497
#
# Velocity S-wave (km/s) = -4.58592 3.52130 -2.07739
# Velocity P-wave (km/s) = 1.85403 7.14583 4.87983
#
# Compressibility (1/GPa) = 0.02448084
#
# Stress axis : x y z
#
# Youngs Moduli (GPa) = 57.88523 91.47962 31.64676
#
# Poissons Ratio (x) = 0.42642 0.17197
# Poissons Ratio (y) = 0.26983 0.23947
# Poissons Ratio (z) = 0.31455 0.69223
#
# Static dielectric constant tensor:
#      x y z
#    x 1.609000 0.000000 0.000000 
#    y 0.000000 1.576740 0.000000 
#    z 0.000000 0.000000 1.554660 
# 
# From -- ./inp_files/17848.got.cif
#   From: 2010.05.17/outbox.cif.g08.bks.cpg/sg47_9_cif.got.tgz:17848.got - 2010.06.03 20:15:42.
