data_PCOD9386338
_publ_section_title
;
Structure prediction by ZEFSAII (Michael W. Deem and Ramdas Pophale) SiO2 
 PCOD9386338
Probable space group: P M M M
;
_chemical_formula_sum "Si O2"
_cell_formula_units_Z 52
_cell_length_a 8.741188
_cell_length_b 20.970593
_cell_length_c 16.677379
_cell_angle_alpha 90.000000
_cell_angle_beta 90.000000
_cell_angle_gamma 90.000000
_cell_volume 3057.095253
_symmetry_space_group_name_H-M "P M M M"
_symmetry_group_IT_number 47
_symmetry_cell_setting 'orthorhombic'
loop_
_space_group_symop_operation_xyz
x,y,z
-x,-y,z
x,-y,-z
-x,y,-z
-x,-y,-z
x,y,-z
-x,y,z
x,-y,z
loop_
_atom_site_type_symbol
_atom_site_label
_atom_site_fract_x
_atom_site_fract_y
_atom_site_fract_z
Si Si1 0.682429 0.866752 0.351293
Si Si2 0.183896 0.000000 0.404817
Si Si3 0.817157 0.632663 0.334046
Si Si4 0.681227 0.646704 0.500000
Si Si5 0.183779 0.427507 0.164595
Si Si6 0.816933 0.788401 0.500000
Si Si7 0.817316 0.236123 0.755387
Si Si8 0.317757 0.302279 0.091780
O O1 0.500000 0.868650 0.356389
O O2 0.750148 0.937058 0.362950
O O3 0.751818 0.825056 0.423519
O O4 0.736087 0.828149 0.273075
O O5 0.226278 0.000000 0.500000
O O6 0.000000 0.000000 0.400925
O O7 0.735141 0.615493 0.416675
O O8 0.782446 0.587816 0.258095
O O9 0.775423 0.704271 0.303516
O O10 0.000000 0.631977 0.347138
O O11 0.500000 0.654054 0.500000
O O12 0.761325 0.715970 0.500000
O O13 0.223907 0.500000 0.144786
O O14 0.267504 0.374489 0.112223
O O15 0.000000 0.419398 0.155198
O O16 0.000000 0.790556 0.500000
O O17 0.766864 0.258483 0.843279
O O18 0.000000 0.229041 0.750804
O O19 0.500000 0.296323 0.102255
O O20 0.278480 0.287214 0.000000
#
# Coordination Sequence:
#
# PCOD9386338 Si02
#       8
#     8   4   8   4   8   4   8   8
#     4  12  23  35  53  78 108 143 185 227 268 313
#     4  11  23  37  53  73 109 154 191 228 266 308
#     4   9  18  32  50  70  97 130 170 218 266 312
#     4  12  22  30  46  72  98 131 175 224 271 313
#     4   9  19  36  56  76 100 134 175 215 260 319
#     4  12  22  33  49  71 103 142 182 221 266 315
#     4  10  20  35  56  78 104 138 176 217 264 319
#     4  10  21  36  55  82 113 139 167 210 264 319
#
# _framework density 17.009609999999999
#
# number of rings (size 3 to 8) (size 9 to 14) (size 15 to 20)
#    0.000    1.615    2.308    4.846    0.000    4.615 
#    0.000    1.923    0.000    2.308    0.000    0.538 
#    0.000    4.308    0.000    0.000    0.000    0.000 
#
# Total GULP energy -290425.341128 kJ/mol
# GULP energy per Si atom -5585.102714 kJ/mol
# Density = 1.697090 g / cm^3
# Si number density = 17.009610 Si / 1000 Ang^3
#
#
#
# Elastic Constant Matrix: (Units=GPa)
#
#
# Indices 1 2 3 4 5 6 
#
# 1 74.5557 19.0583 29.5137 0.0000 0.0000 0.0000
# 2 19.0583 59.2195 11.4574 0.0000 0.0000 0.0000
# 3 29.5137 11.4574 81.2341 0.0000 0.0000 0.0000
# 4 0.0000 0.0000 0.0000 13.1308 0.0000 0.0000
# 5 0.0000 0.0000 0.0000 0.0000 27.9878 0.0000
# 6 0.0000 0.0000 0.0000 0.0000 0.0000 19.4245
#
#
#
# Elastic Compliance Matrix: (Units=1/GPa)
#
#
# Indices 1 2 3 4 5 6 
#
# 1 0.016672 -0.004311 -0.005449 0.000000 0.000000 0.000000
# 2 -0.004311 0.018475 -0.001039 0.000000 0.000000 0.000000
# 3 -0.005449 -0.001039 0.014436 0.000000 0.000000 0.000000
# 4 0.000000 0.000000 0.000000 0.076157 0.000000 0.000000
# 5 0.000000 0.000000 0.000000 0.000000 0.035730 0.000000
# 6 0.000000 0.000000 0.000000 0.000000 0.000000 0.051481
#
#
# Mechanical properties :
#
#
# Convention : Reuss Voigt Hill
#
# Bulk Modulus (GPa) = 35.73492 37.22978 36.48235
# Shear Modulus (GPa) = 20.50199 22.44061 21.47130
#
# Velocity S-wave (km/s) = 3.47554 3.63614 3.55675
# Velocity P-wave (km/s) = 6.09591 6.28997 6.19370
#
# Compressibility (1/GPa) = 0.02798384
#
# Stress axis : x y z
#
# Youngs Moduli (GPa) = 59.98103 54.12758 69.26904
#
# Poissons Ratio (x) = 0.23335 0.37746
# Poissons Ratio (y) = 0.25859 0.07200
# Poissons Ratio (z) = 0.32684 0.05626
#
# Static dielectric constant tensor:
#      x y z
#    x 1.566910 0.000000 0.000000 
#    y 0.000000 1.567980 0.000000 
#    z 0.000000 0.000000 1.606990 
# 
# From -- ./inp_files/21509.got.cif
#   From: 2010.05.17/outbox.cif.g08.bks.cpg/sg47_11_cif.got.tgz:21509.got - 2010.06.03 20:15:42.
