data_PCOD9386086
_publ_section_title
;
Structure prediction by ZEFSAII (Michael W. Deem and Ramdas Pophale) SiO2 
 PCOD9386086
Probable space group: P M M M
;
_chemical_formula_sum "Si O2"
_cell_formula_units_Z 29
_cell_length_a 16.236347
_cell_length_b 7.972621
_cell_length_c 11.928716
_cell_angle_alpha 90.000000
_cell_angle_beta 90.000000
_cell_angle_gamma 90.000000
_cell_volume 1544.127447
_symmetry_space_group_name_H-M "P M M M"
_symmetry_group_IT_number 47
_symmetry_cell_setting 'orthorhombic'
loop_
_space_group_symop_operation_xyz
x,y,z
-x,-y,z
x,-y,-z
-x,y,-z
-x,-y,-z
x,y,-z
-x,y,z
x,-y,z
loop_
_atom_site_type_symbol
_atom_site_label
_atom_site_fract_x
_atom_site_fract_y
_atom_site_fract_z
Si Si1 0.000000 0.795151 0.369439
Si Si2 0.500000 0.200353 0.370911
Si Si3 0.835315 0.802364 0.235167
Si Si4 0.128194 0.687601 0.000000
Si Si5 0.677128 0.300384 0.370857
Si Si6 0.000000 0.000000 0.000000
O O1 0.917542 0.743151 0.302245
O O2 0.000000 0.740622 0.500000
O O3 0.000000 0.000000 0.370818
O O4 0.500000 0.266140 0.500000
O O5 0.586966 0.259001 0.321587
O O6 0.500000 0.000000 0.373244
O O7 0.753962 0.778585 0.307983
O O8 0.848122 0.000000 0.214613
O O9 0.824973 0.708387 0.117558
O O10 0.091766 0.500000 0.000000
O O11 0.068915 0.848715 0.000000
O O12 0.677680 0.239626 0.500000
O O13 0.687547 0.500000 0.370919
#
# Coordination Sequence:
#
# PCOD9386086 Si02
#       6
#     4   4   8   4   8   1
#     4   9  19  33  53  81 113 150 190 234 286 343
#     4   9  17  31  53  82 111 148 197 243 294 355
#     4  11  21  37  60  83 117 154 201 248 293 353
#     4  12  25  41  63  87 116 154 202 256 303 350
#     4  10  20  34  54  84 121 157 194 242 300 358
#     4  12  22  44  60  86 110 146 198 248 296 348
#
# _framework density 18.780833999999999
#
# number of rings (size 3 to 8) (size 9 to 14) (size 15 to 20)
#    0.000    1.655    1.379    3.931    1.931    4.414 
#    0.000    2.069    0.000    5.793    0.000    5.793 
#    0.000    0.000    0.000    0.000    0.000    0.000 
#
# Total GULP energy -161505.974082 kJ/mol
# GULP energy per Si atom -5569.171520 kJ/mol
# Density = 1.873809 g / cm^3
# Si number density = 18.780834 Si / 1000 Ang^3
#
#
#
# Elastic Constant Matrix: (Units=GPa)
#
#
# Indices 1 2 3 4 5 6 
#
# 1 148.2381 13.7642 62.4071 0.0000 0.0000 0.0000
# 2 13.7642 79.8283 14.8296 0.0000 0.0000 0.0000
# 3 62.4071 14.8296 109.9061 0.0000 0.0000 0.0000
# 4 0.0000 0.0000 0.0000 13.3191 0.0000 0.0000
# 5 0.0000 0.0000 0.0000 0.0000 12.8346 0.0000
# 6 0.0000 0.0000 0.0000 0.0000 0.0000 83.9925
#
#
#
# Elastic Compliance Matrix: (Units=1/GPa)
#
#
# Indices 1 2 3 4 5 6 
#
# 1 0.008894 -0.000611 -0.004968 0.000000 0.000000 0.000000
# 2 -0.000611 0.012891 -0.001393 0.000000 0.000000 0.000000
# 3 -0.004968 -0.001393 0.012107 0.000000 0.000000 0.000000
# 4 0.000000 0.000000 0.000000 0.075080 0.000000 0.000000
# 5 0.000000 0.000000 0.000000 0.000000 0.077914 0.000000
# 6 0.000000 0.000000 0.000000 0.000000 0.000000 0.011906
#
#
# Mechanical properties :
#
#
# Convention : Reuss Voigt Hill
#
# Bulk Modulus (GPa) = 50.12499 57.77490 53.94995
# Shear Modulus (GPa) = 22.79098 38.49400 30.64249
#
# Velocity S-wave (km/s) = 3.48735 4.53221 4.04367
# Velocity P-wave (km/s) = 6.55460 7.63003 7.11267
#
# Compressibility (1/GPa) = 0.01995013
#
# Stress axis : x y z
#
# Youngs Moduli (GPa) = 112.43506 77.57419 82.59399
#
# Poissons Ratio (x) = 0.04737 0.41031
# Poissons Ratio (y) = 0.06866 0.11502
# Poissons Ratio (z) = 0.55856 0.10803
#
# Static dielectric constant tensor:
#      x y z
#    x 1.640860 0.000000 0.000000 
#    y 0.000000 1.662900 0.000000 
#    z 0.000000 0.000000 1.744840 
# 
# From -- ./inp_files/3285.got.cif
#   From: 2010.05.17/outbox.cif.g08.bks.cpg/sg47_2_cif.got.tgz:3285.got - 2010.06.03 20:15:42.
