data_PCOD9386988
_publ_section_title
;
Structure prediction by ZEFSAII (Michael W. Deem and Ramdas Pophale) SiO2 
 PCOD9386988
Probable space group: P M M M
;
_chemical_formula_sum "Si O2"
_cell_formula_units_Z 52
_cell_length_a 15.538293
_cell_length_b 21.465354
_cell_length_c 7.392238
_cell_angle_alpha 90.000000
_cell_angle_beta 90.000000
_cell_angle_gamma 90.000000
_cell_volume 2465.569804
_symmetry_space_group_name_H-M "P M M M"
_symmetry_group_IT_number 47
_symmetry_cell_setting 'orthorhombic'
loop_
_space_group_symop_operation_xyz
x,y,z
-x,-y,z
x,-y,-z
-x,y,-z
-x,-y,-z
x,y,-z
-x,y,z
x,-y,z
loop_
_atom_site_type_symbol
_atom_site_label
_atom_site_fract_x
_atom_site_fract_y
_atom_site_fract_z
Si Si1 0.094138 0.587699 0.209879
Si Si2 0.500000 0.074786 0.700644
Si Si3 0.908137 0.733017 0.281215
Si Si4 0.287982 0.431803 0.217760
Si Si5 0.266182 0.795765 0.721241
Si Si6 0.312588 0.070306 0.721510
Si Si7 0.401361 0.307721 0.285387
O O1 0.093539 0.662162 0.218649
O O2 0.188480 0.570936 0.285480
O O3 0.000000 0.568494 0.286625
O O4 0.093958 0.568444 0.000000
O O5 0.500000 0.104514 0.500000
O O6 0.408981 0.087015 0.786614
O O7 0.500000 0.000000 0.679730
O O8 0.905700 0.732357 0.500000
O O9 0.822282 0.765280 0.217610
O O10 0.000000 0.761217 0.226474
O O11 0.323680 0.500000 0.272398
O O12 0.345813 0.371557 0.263500
O O13 0.282979 0.430938 0.000000
O O14 0.269271 0.795057 0.500000
O O15 0.262227 0.868222 0.774071
O O16 0.345420 0.751655 0.782223
O O17 0.315942 0.067778 0.500000
O O18 0.288942 0.000000 0.779334
O O19 0.408490 0.298624 0.500000
O O20 0.500000 0.312010 0.214949
#
# Coordination Sequence:
#
# PCOD9386988 Si02
#       7
#     8   4   8   8   8   8   8
#     4   9  17  30  49  72  96 119 146 185 232 280
#     4   7  10  16  26  44  72 106 142 175 210 258
#     4   9  16  27  45  67  91 120 152 186 227 275
#     4  10  21  36  53  72  95 124 156 191 233 281
#     4   9  16  26  42  63  89 121 154 189 229 273
#     4   8  13  20  32  53  83 118 151 182 221 270
#     4  10  21  35  50  70  95 123 159 200 237 273
#
# _framework density 21.090458000000002
#
# number of rings (size 3 to 8) (size 9 to 14) (size 15 to 20)
#    0.000    3.000    1.538    0.923    1.077    1.231 
#    0.000    3.077    0.000    0.462    0.000    6.462 
#    0.000    2.462    0.000    5.231    0.000    5.538 
#
# Total GULP energy -289580.515710 kJ/mol
# GULP energy per Si atom -5568.856071 kJ/mol
# Density = 2.104246 g / cm^3
# Si number density = 21.090458 Si / 1000 Ang^3
#
#
#
# Elastic Constant Matrix: (Units=GPa)
#
#
# Indices 1 2 3 4 5 6 
#
# 1 153.2912 89.8778 8.8559 0.0000 0.0000 0.0000
# 2 89.8778 173.2283 -0.0924 0.0000 0.0000 0.0000
# 3 8.8559 -0.0924 72.5557 0.0000 0.0000 0.0000
# 4 0.0000 0.0000 0.0000 -25.5718 0.0000 0.0000
# 5 0.0000 0.0000 0.0000 0.0000 -6.0934 0.0000
# 6 0.0000 0.0000 0.0000 0.0000 0.0000 -5.4188
#
#
#
# Elastic Compliance Matrix: (Units=1/GPa)
#
#
# Indices 1 2 3 4 5 6 
#
# 1 0.009473 -0.004915 -0.001162 0.000000 0.000000 0.000000
# 2 -0.004915 0.008323 0.000611 0.000000 0.000000 0.000000
# 3 -0.001162 0.000611 0.013925 0.000000 0.000000 0.000000
# 4 0.000000 0.000000 0.000000 -0.039106 0.000000 0.000000
# 5 0.000000 0.000000 0.000000 0.000000 -0.164113 0.000000
# 6 0.000000 0.000000 0.000000 0.000000 0.000000 -0.184543
#
#
# Mechanical properties :
#
#
# Convention : Reuss Voigt Hill
#
# Bulk Modulus (GPa) = 48.10796 66.26196 57.18496
# Shear Modulus (GPa) = -14.78517 12.61215 -1.08651
#
# Velocity S-wave (km/s) = -2.65058 2.44806 -0.71853
# Velocity P-wave (km/s) = 3.67320 6.28306 5.14632
#
# Compressibility (1/GPa) = 0.02078658
#
# Stress axis : x y z
#
# Youngs Moduli (GPa) = 105.56632 120.14339 71.81241
#
# Poissons Ratio (x) = 0.59056 0.08348
# Poissons Ratio (y) = 0.51891 -0.04385
# Poissons Ratio (z) = 0.12272 -0.07336
#
# Static dielectric constant tensor:
#      x y z
#    x 1.802900 0.000000 0.000000 
#    y 0.000000 1.740130 0.000000 
#    z 0.000000 0.000000 1.842770 
# 
# From -- ./inp_files/7081.got.cif
#   From: 2010.05.17/outbox.cif.g08.bks.cpg/sg47_4_cif.got.tgz:7081.got - 2010.06.03 20:15:42.
