data_PCOD9386579
_publ_section_title
;
Structure prediction by ZEFSAII (Michael W. Deem and Ramdas Pophale) SiO2 
 PCOD9386579
Probable space group: P M M M
;
_chemical_formula_sum "Si O2"
_cell_formula_units_Z 48
_cell_length_a 14.182592
_cell_length_b 14.900535
_cell_length_c 12.421077
_cell_angle_alpha 90.000000
_cell_angle_beta 90.000000
_cell_angle_gamma 90.000000
_cell_volume 2624.923950
_symmetry_space_group_name_H-M "P M M M"
_symmetry_group_IT_number 47
_symmetry_cell_setting 'orthorhombic'
loop_
_space_group_symop_operation_xyz
x,y,z
-x,-y,z
x,-y,-z
-x,y,-z
-x,-y,-z
x,y,-z
-x,y,z
x,-y,z
loop_
_atom_site_type_symbol
_atom_site_label
_atom_site_fract_x
_atom_site_fract_y
_atom_site_fract_z
Si Si1 0.651462 0.597389 0.500000
Si Si2 0.888318 0.239073 0.628671
Si Si3 0.774149 0.598361 0.716159
Si Si4 0.606468 0.138269 0.124380
Si Si5 0.394772 0.644814 0.125281
Si Si6 0.605232 0.198766 0.500000
Si Si7 0.269307 0.897474 0.676228
O O1 0.601719 0.500000 0.500000
O O2 0.716068 0.598218 0.605265
O O3 0.601166 0.693365 0.500000
O O4 0.869332 0.253874 0.500000
O O5 0.847470 0.321145 0.699537
O O6 0.830873 0.151244 0.665136
O O7 0.000000 0.230351 0.641438
O O8 0.818688 0.500000 0.730651
O O9 0.694169 0.612282 0.806781
O O10 0.500000 0.109716 0.156115
O O11 0.607049 0.246801 0.128967
O O12 0.685711 0.104774 0.205204
O O13 0.621251 0.112460 0.000000
O O14 0.500000 0.616837 0.164983
O O15 0.387649 0.618014 0.000000
O O16 0.500000 0.162144 0.500000
O O17 0.661246 0.162398 0.602863
O O18 0.265903 0.000000 0.638334
#
# Coordination Sequence:
#
# PCOD9386579 Si02
#       7
#     4   8   8   8   8   4   8
#     4  10  20  36  57  82 113 153 195 233 279 335
#     4  11  23  42  64  85 112 147 192 246 302 353
#     4  11  20  35  59  86 118 150 189 240 293 349
#     4   9  18  34  58  86 117 156 198 236 277 333
#     4   9  18  34  57  85 119 161 202 235 275 335
#     4  12  23  37  56  83 123 159 190 230 283 347
#     4  12  23  38  59  85 118 153 192 238 291 349
#
# _framework density 18.286242999999999
#
# number of rings (size 3 to 8) (size 9 to 14) (size 15 to 20)
#    0.000    1.500    5.000    1.750    0.000    5.500 
#    0.000    5.000    0.000    2.000    0.000    2.333 
#    0.000    0.000    0.000    0.000    0.000    0.000 
#
# Total GULP energy -267878.867800 kJ/mol
# GULP energy per Si atom -5580.809746 kJ/mol
# Density = 1.824462 g / cm^3
# Si number density = 18.286243 Si / 1000 Ang^3
#
#
#
# Elastic Constant Matrix: (Units=GPa)
#
#
# Indices 1 2 3 4 5 6 
#
# 1 121.4049 48.9876 46.1155 0.0000 0.0000 0.0000
# 2 48.9876 129.8069 20.8712 0.0000 0.0000 0.0000
# 3 46.1155 20.8712 73.5630 0.0000 0.0000 0.0000
# 4 0.0000 0.0000 0.0000 4.1845 0.0000 0.0000
# 5 0.0000 0.0000 0.0000 0.0000 23.5913 0.0000
# 6 0.0000 0.0000 0.0000 0.0000 0.0000 -16.5006
#
#
#
# Elastic Compliance Matrix: (Units=1/GPa)
#
#
# Indices 1 2 3 4 5 6 
#
# 1 0.012182 -0.003530 -0.006635 0.000000 0.000000 0.000000
# 2 -0.003530 0.009095 -0.000367 0.000000 0.000000 0.000000
# 3 -0.006635 -0.000367 0.017857 0.000000 0.000000 0.000000
# 4 0.000000 0.000000 0.000000 0.238978 0.000000 0.000000
# 5 0.000000 0.000000 0.000000 0.000000 0.042389 0.000000
# 6 0.000000 0.000000 0.000000 0.000000 0.000000 -0.060604
#
#
# Mechanical properties :
#
#
# Convention : Reuss Voigt Hill
#
# Bulk Modulus (GPa) = 55.34355 61.85817 58.60086
# Shear Modulus (GPa) = 17.42252 16.17507 16.79879
#
# Velocity S-wave (km/s) = 3.09004 2.97736 3.03422
# Velocity P-wave (km/s) = 6.56216 6.76171 6.66268
#
# Compressibility (1/GPa) = 0.01806895
#
# Stress axis : x y z
#
# Youngs Moduli (GPa) = 82.09037 109.94876 55.99951
#
# Poissons Ratio (x) = 0.38817 0.37155
# Poissons Ratio (y) = 0.28981 0.02057
# Poissons Ratio (z) = 0.54466 0.04038
#
# Static dielectric constant tensor:
#      x y z
#    x 1.593520 0.000000 0.000000 
#    y 0.000000 1.677550 0.000000 
#    z 0.000000 0.000000 1.631780 
# 
# From -- ./inp_files/17605.got.cif
#   From: 2010.05.17/outbox.cif.g08.bks.cpg/sg47_9_cif.got.tgz:17605.got - 2010.06.03 20:15:42.
