data_PCOD9386010
_publ_section_title
;
Structure prediction by ZEFSAII (Michael W. Deem and Ramdas Pophale) SiO2 
 PCOD9386010
Probable space group: P M M M
;
_chemical_formula_sum "Si O2"
_cell_formula_units_Z 44
_cell_length_a 9.343681
_cell_length_b 29.054445
_cell_length_c 7.967803
_cell_angle_alpha 90.000000
_cell_angle_beta 90.000000
_cell_angle_gamma 90.000000
_cell_volume 2163.063030
_symmetry_space_group_name_H-M "P M M M"
_symmetry_group_IT_number 47
_symmetry_cell_setting 'orthorhombic'
loop_
_space_group_symop_operation_xyz
x,y,z
-x,-y,z
x,-y,-z
-x,y,-z
-x,-y,-z
x,y,-z
-x,y,z
x,-y,z
loop_
_atom_site_type_symbol
_atom_site_label
_atom_site_fract_x
_atom_site_fract_y
_atom_site_fract_z
Si Si1 0.665352 0.000000 0.705401
Si Si2 0.164077 0.090687 0.702642
Si Si3 0.835419 0.551941 0.202821
Si Si4 0.161892 0.270167 0.200742
Si Si5 0.661750 0.640968 0.699186
Si Si6 0.663343 0.818156 0.797395
O O1 0.749178 0.045695 0.760589
O O2 0.500000 0.000000 0.759458
O O3 0.665022 0.000000 0.500000
O O4 0.159753 0.088654 0.500000
O O5 0.247180 0.136745 0.751794
O O6 0.000000 0.090919 0.763493
O O7 0.796787 0.500000 0.257031
O O8 0.731434 0.591657 0.263531
O O9 0.000000 0.560884 0.255968
O O10 0.834339 0.552400 0.000000
O O11 0.239609 0.318334 0.232101
O O12 0.256050 0.227560 0.265898
O O13 0.000000 0.269837 0.268358
O O14 0.152537 0.264372 0.000000
O O15 0.655812 0.646819 0.500000
O O16 0.500000 0.643915 0.767347
O O17 0.500000 0.820782 0.735140
O O18 0.657475 0.815481 0.000000
#
# Coordination Sequence:
#
# PCOD9386010 Si02
#       6
#     4   8   8   8   8   8
#     4   9  17  31  52  77 106 141 180 222 268 317
#     4  10  20  34  54  80 109 142 180 221 266 318
#     4   9  19  37  60  84 109 140 181 225 267 316
#     4  10  21  38  60  82 104 136 179 223 267 319
#     4  11  24  38  53  79 114 147 179 219 267 317
#     4  10  21  37  57  81 109 141 177 219 269 322
#
# _framework density 20.341526000000002
#
# number of rings (size 3 to 8) (size 9 to 14) (size 15 to 20)
#    0.000    2.091    0.000    3.545    0.000    9.818 
#    0.000    3.182    0.000    2.727    0.000    0.000 
#    0.000    0.000    0.000    0.000    0.000    0.000 
#
# Total GULP energy -245839.419250 kJ/mol
# GULP energy per Si atom -5587.259528 kJ/mol
# Density = 2.029523 g / cm^3
# Si number density = 20.341526 Si / 1000 Ang^3
#
#
#
# Elastic Constant Matrix: (Units=GPa)
#
#
# Indices 1 2 3 4 5 6 
#
# 1 216.9414 117.1093 9.4961 0.0000 0.0000 0.0000
# 2 117.1093 163.2029 -2.2314 0.0000 0.0000 0.0000
# 3 9.4961 -2.2314 14.0086 0.0000 0.0000 0.0000
# 4 0.0000 0.0000 0.0000 31.8995 0.0000 0.0000
# 5 0.0000 0.0000 0.0000 0.0000 19.7701 0.0000
# 6 0.0000 0.0000 0.0000 0.0000 0.0000 56.2928
#
#
#
# Elastic Compliance Matrix: (Units=1/GPa)
#
#
# Indices 1 2 3 4 5 6 
#
# 1 0.008058 -0.005870 -0.006397 0.000000 0.000000 0.000000
# 2 -0.005870 0.010416 0.005638 0.000000 0.000000 0.000000
# 3 -0.006397 0.005638 0.076619 0.000000 0.000000 0.000000
# 4 0.000000 0.000000 0.000000 0.031348 0.000000 0.000000
# 5 0.000000 0.000000 0.000000 0.000000 0.050581 0.000000
# 6 0.000000 0.000000 0.000000 0.000000 0.000000 0.017764
#
#
# Mechanical properties :
#
#
# Convention : Reuss Voigt Hill
#
# Bulk Modulus (GPa) = 12.21957 71.43343 41.82650
# Shear Modulus (GPa) = 21.24722 39.57773 30.41248
#
# Velocity S-wave (km/s) = 3.23542 4.41575 3.87084
# Velocity P-wave (km/s) = 4.46962 7.82252 6.37061
#
# Compressibility (1/GPa) = 0.08183592
#
# Stress axis : x y z
#
# Youngs Moduli (GPa) = 124.09729 96.00246 13.05153
#
# Poissons Ratio (x) = 0.56351 0.08350
# Poissons Ratio (y) = 0.72842 -0.07359
# Poissons Ratio (z) = 0.79390 -0.54128
#
# Static dielectric constant tensor:
#      x y z
#    x 1.714640 0.000000 0.000000 
#    y 0.000000 1.674680 0.000000 
#    z 0.000000 0.000000 1.743340 
# 
# From -- ./inp_files/2135.got.cif
#   From: 2010.05.17/outbox.cif.g08.bks.cpg/sg47_2_cif.got.tgz:2135.got - 2010.06.03 20:15:42.
