data_PCOD9386961
_publ_section_title
;
Structure prediction by ZEFSAII (Michael W. Deem and Ramdas Pophale) SiO2 
 PCOD9386961
Probable space group: P M M M
;
_chemical_formula_sum "Si O2"
_cell_formula_units_Z 52
_cell_length_a 10.158887
_cell_length_b 7.758386
_cell_length_c 34.533511
_cell_angle_alpha 90.000000
_cell_angle_beta 90.000000
_cell_angle_gamma 90.000000
_cell_volume 2721.812772
_symmetry_space_group_name_H-M "P M M M"
_symmetry_group_IT_number 47
_symmetry_cell_setting 'orthorhombic'
loop_
_space_group_symop_operation_xyz
x,y,z
-x,-y,z
x,-y,-z
-x,y,-z
-x,-y,-z
x,y,-z
-x,y,z
x,-y,z
loop_
_atom_site_type_symbol
_atom_site_label
_atom_site_fract_x
_atom_site_fract_y
_atom_site_fract_z
Si Si1 0.350237 0.792694 0.416000
Si Si2 0.350182 0.792621 0.803123
Si Si3 0.339861 0.801391 0.500000
Si Si4 0.149125 0.206139 0.738738
Si Si5 0.150920 0.289453 0.043880
Si Si6 0.149166 0.705346 0.348326
Si Si7 0.349880 0.292343 0.109615
O O1 0.500000 0.731146 0.408262
O O2 0.304192 0.724263 0.458229
O O3 0.250260 0.755622 0.381668
O O4 0.357958 0.000000 0.419921
O O5 0.500000 0.726934 0.798425
O O6 0.250561 0.725762 0.770597
O O7 0.306659 0.752070 0.846847
O O8 0.355458 0.000000 0.799556
O O9 0.500000 0.804887 0.500000
O O10 0.292530 0.000000 0.500000
O O11 0.192011 0.237734 0.694575
O O12 0.000000 0.275158 0.742958
O O13 0.142288 0.000000 0.743965
O O14 0.152277 0.500000 0.044342
O O15 0.251542 0.228405 0.076527
O O16 0.000000 0.236923 0.051454
O O17 0.186182 0.237183 0.000000
O O18 0.142192 0.500000 0.347897
O O19 0.000000 0.773480 0.354857
O O20 0.500000 0.228577 0.104669
O O21 0.353478 0.500000 0.106832
#
# Coordination Sequence:
#
# PCOD9386961 Si02
#       7
#     8   8   4   8   8   8   8
#     4   9  17  31  53  77  98 124 161 202 241 282
#     4   9  18  32  48  66  90 118 146 180 225 275
#     4   7  12  26  48  73  98 122 154 199 242 277
#     4   9  18  33  51  68  87 116 155 194 230 271
#     4   8  14  25  41  62  88 116 146 181 219 257
#     4  10  21  35  49  69 100 133 161 193 237 286
#     4   9  17  28  43  65  90 114 143 180 220 261
#
# _framework density 19.104914999999998
#
# number of rings (size 3 to 8) (size 9 to 14) (size 15 to 20)
#    0.000    3.154    0.000    1.846    0.000    3.385 
#    0.000    3.846    0.000    4.154    0.000    3.231 
#    0.000    0.000    0.000    0.000    0.000    0.000 
#
# Total GULP energy -289775.166077 kJ/mol
# GULP energy per Si atom -5572.599348 kJ/mol
# Density = 1.906143 g / cm^3
# Si number density = 19.104915 Si / 1000 Ang^3
#
#
#
# Elastic Constant Matrix: (Units=GPa)
#
#
# Indices 1 2 3 4 5 6 
#
# 1 100.0635 4.8096 128.6255 0.0000 0.0000 0.0000
# 2 4.8096 26.5515 0.9142 0.0000 0.0000 0.0000
# 3 128.6255 0.9142 214.3586 0.0000 0.0000 0.0000
# 4 0.0000 0.0000 0.0000 18.6858 0.0000 0.0000
# 5 0.0000 0.0000 0.0000 0.0000 64.9863 0.0000
# 6 0.0000 0.0000 0.0000 0.0000 0.0000 -17.2600
#
#
#
# Elastic Compliance Matrix: (Units=1/GPa)
#
#
# Indices 1 2 3 4 5 6 
#
# 1 0.045049 -0.007231 -0.027001 0.000000 0.000000 0.000000
# 2 -0.007231 0.038829 0.004173 0.000000 0.000000 0.000000
# 3 -0.027001 0.004173 0.020849 0.000000 0.000000 0.000000
# 4 0.000000 0.000000 0.000000 0.053517 0.000000 0.000000
# 5 0.000000 0.000000 0.000000 0.000000 0.015388 0.000000
# 6 0.000000 0.000000 0.000000 0.000000 0.000000 -0.057938
#
#
# Mechanical properties :
#
#
# Convention : Reuss Voigt Hill
#
# Bulk Modulus (GPa) = 22.41636 67.74138 45.07887
# Shear Modulus (GPa) = 26.22190 27.05738 26.63964
#
# Velocity S-wave (km/s) = 3.70877 3.76740 3.73820
# Velocity P-wave (km/s) = 5.48624 7.37963 6.50222
#
# Compressibility (1/GPa) = 0.04461027
#
# Stress axis : x y z
#
# Youngs Moduli (GPa) = 22.19802 25.75413 47.96384
#
# Poissons Ratio (x) = 0.18622 1.29506
# Poissons Ratio (y) = 0.16051 -0.20016
# Poissons Ratio (z) = 0.59936 -0.10748
#
# Static dielectric constant tensor:
#      x y z
#    x 1.708740 0.000000 0.000000 
#    y 0.000000 1.712250 0.000000 
#    z 0.000000 0.000000 1.659320 
# 
# From -- ./inp_files/33574.got.cif
#   From: 2010.05.17/outbox.cif.g08.bks.cpg/sg47_17_cif.got.tgz:33574.got - 2010.06.03 20:15:42.
