data_PCOD9386332
_publ_section_title
;
Structure prediction by ZEFSAII (Michael W. Deem and Ramdas Pophale) SiO2 
 PCOD9386332
Probable space group: P M M M
;
_chemical_formula_sum "Si O2"
_cell_formula_units_Z 52
_cell_length_a 12.906998
_cell_length_b 27.110252
_cell_length_c 8.822504
_cell_angle_alpha 90.000000
_cell_angle_beta 90.000000
_cell_angle_gamma 90.000000
_cell_volume 3087.099740
_symmetry_space_group_name_H-M "P M M M"
_symmetry_group_IT_number 47
_symmetry_cell_setting 'orthorhombic'
loop_
_space_group_symop_operation_xyz
x,y,z
-x,-y,z
x,-y,-z
-x,y,-z
-x,-y,-z
x,y,-z
-x,y,z
x,-y,z
loop_
_atom_site_type_symbol
_atom_site_label
_atom_site_fract_x
_atom_site_fract_y
_atom_site_fract_z
Si Si1 0.878941 0.602355 0.681975
Si Si2 0.000000 0.119052 0.184198
Si Si3 0.201005 0.942685 0.816950
Si Si4 0.000000 0.766340 0.182910
Si Si5 0.196941 0.709037 0.682287
Si Si6 0.620656 0.878519 0.319130
Si Si7 0.378589 0.771486 0.181012
Si Si8 0.124853 0.500000 0.177909
O O1 0.877621 0.598399 0.500000
O O2 0.818295 0.651726 0.725820
O O3 0.838064 0.551182 0.749805
O O4 0.000000 0.608807 0.728023
O O5 0.897328 0.089923 0.232976
O O6 0.000000 0.176156 0.229695
O O7 0.000000 0.118331 0.000000
O O8 0.303733 0.919880 0.745031
O O9 0.186633 0.000000 0.777556
O O10 0.208142 0.939406 0.000000
O O11 0.101438 0.739499 0.247484
O O12 0.000000 0.763830 0.000000
O O13 0.191817 0.712323 0.500000
O O14 0.302747 0.732381 0.742598
O O15 0.631328 0.874369 0.500000
O O16 0.500000 0.888975 0.284212
O O17 0.647219 0.825957 0.243582
O O18 0.500000 0.762378 0.214937
O O19 0.364750 0.771021 0.000000
O O20 0.000000 0.500000 0.202498
O O21 0.144774 0.500000 0.000000
#
# Coordination Sequence:
#
# PCOD9386332 Si02
#       8
#     8   4   8   4   8   8   8   4
#     4   9  17  31  47  67 101 143 178 210 255 308
#     4   9  19  35  52  72  99 133 169 203 244 296
#     4  10  20  35  56  78 101 131 168 209 252 303
#     4  11  21  32  51  77 107 142 177 214 261 310
#     4  11  21  34  52  77 109 142 178 217 259 311
#     4  10  21  37  56  77 102 132 165 207 259 311
#     4  10  21  37  56  78 104 135 173 216 262 314
#     4   9  17  27  43  69  98 133 178 223 259 299
#
# _framework density 16.844287999999999
#
# number of rings (size 3 to 8) (size 9 to 14) (size 15 to 20)
#    0.000    2.077    0.769    3.000    0.000    6.769 
#    0.000    2.692    0.000    0.923    0.000    0.538 
#    0.000    4.308    0.000    0.000    0.000    0.000 
#
# Total GULP energy -290267.662870 kJ/mol
# GULP energy per Si atom -5582.070440 kJ/mol
# Density = 1.680595 g / cm^3
# Si number density = 16.844288 Si / 1000 Ang^3
#
#
#
# Elastic Constant Matrix: (Units=GPa)
#
#
# Indices 1 2 3 4 5 6 
#
# 1 61.4685 65.3814 31.1474 0.0000 0.0000 0.0000
# 2 65.3814 168.1018 52.1552 0.0000 0.0000 0.0000
# 3 31.1474 52.1552 36.2598 0.0000 0.0000 0.0000
# 4 0.0000 0.0000 0.0000 33.8952 0.0000 0.0000
# 5 0.0000 0.0000 0.0000 0.0000 25.9263 0.0000
# 6 0.0000 0.0000 0.0000 0.0000 0.0000 4.8976
#
#
#
# Elastic Compliance Matrix: (Units=1/GPa)
#
#
# Indices 1 2 3 4 5 6 
#
# 1 0.033153 -0.007330 -0.017936 0.000000 0.000000 0.000000
# 2 -0.007330 0.012364 -0.011487 0.000000 0.000000 0.000000
# 3 -0.017936 -0.011487 0.059509 0.000000 0.000000 0.000000
# 4 0.000000 0.000000 0.000000 0.029503 0.000000 0.000000
# 5 0.000000 0.000000 0.000000 0.000000 0.038571 0.000000
# 6 0.000000 0.000000 0.000000 0.000000 0.000000 0.204184
#
#
# Mechanical properties :
#
#
# Convention : Reuss Voigt Hill
#
# Bulk Modulus (GPa) = 31.72600 62.57757 47.15179
# Shear Modulus (GPa) = 10.83904 20.75355 15.79629
#
# Velocity S-wave (km/s) = 2.53945 3.51391 3.06565
# Velocity P-wave (km/s) = 5.24158 7.32767 6.37059
#
# Compressibility (1/GPa) = 0.03151989
#
# Stress axis : x y z
#
# Youngs Moduli (GPa) = 30.16274 80.88219 16.80426
#
# Poissons Ratio (x) = 0.59286 0.30140
# Poissons Ratio (y) = 0.22109 0.19303
# Poissons Ratio (z) = 0.54100 0.92911
#
# Static dielectric constant tensor:
#      x y z
#    x 1.549280 0.000000 0.000000 
#    y 0.000000 1.558820 0.000000 
#    z 0.000000 0.000000 1.565500 
# 
# From -- ./inp_files/4676.got.cif
#   From: 2010.05.17/outbox.cif.g08.bks.cpg/sg47_3_cif.got.tgz:4676.got - 2010.06.03 20:15:42.
