data_PCOD9386144
_publ_section_title
;
Structure prediction by ZEFSAII (Michael W. Deem and Ramdas Pophale) SiO2 
 PCOD9386144
Probable space group: P M M M
;
_chemical_formula_sum "Si O2"
_cell_formula_units_Z 52
_cell_length_a 8.031401
_cell_length_b 21.600127
_cell_length_c 15.181555
_cell_angle_alpha 90.000000
_cell_angle_beta 90.000000
_cell_angle_gamma 90.000000
_cell_volume 2633.685255
_symmetry_space_group_name_H-M "P M M M"
_symmetry_group_IT_number 47
_symmetry_cell_setting 'orthorhombic'
loop_
_space_group_symop_operation_xyz
x,y,z
-x,-y,z
x,-y,-z
-x,y,-z
-x,-y,-z
x,y,-z
-x,y,z
x,-y,z
loop_
_atom_site_type_symbol
_atom_site_label
_atom_site_fract_x
_atom_site_fract_y
_atom_site_fract_z
Si Si1 0.187357 0.925943 0.000000
Si Si2 0.197894 0.270904 0.596401
Si Si3 0.803516 0.567268 0.205479
Si Si4 0.305021 0.930424 0.191111
Si Si5 0.300148 0.200940 0.769450
Si Si6 0.305822 0.410859 0.402867
Si Si7 0.300180 0.690864 0.898759
O O1 0.286455 0.912829 0.911732
O O2 0.000000 0.899362 0.000000
O O3 0.170135 0.000000 0.000000
O O4 0.226069 0.242354 0.500000
O O5 0.263152 0.231682 0.676578
O O6 0.287257 0.336898 0.598043
O O7 0.000000 0.282009 0.606250
O O8 0.736365 0.500000 0.174478
O O9 0.775499 0.569219 0.311136
O O10 0.734362 0.628145 0.156804
O O11 0.000000 0.568284 0.189388
O O12 0.500000 0.934777 0.213664
O O13 0.230236 0.868981 0.234087
O O14 0.233381 0.000000 0.204771
O O15 0.500000 0.196072 0.782002
O O16 0.237295 0.248620 0.844891
O O17 0.239720 0.430461 0.500000
O O18 0.500000 0.427780 0.399361
O O19 0.500000 0.696618 0.902830
O O20 0.238027 0.687555 0.000000
#
# Coordination Sequence:
#
# PCOD9386144 Si02
#       7
#     4   8   8   8   8   8   8
#     4   9  17  29  45  69 103 141 182 223 264 317
#     4  10  20  34  55  83 113 143 177 221 274 331
#     4  11  24  40  58  81 111 147 186 229 276 327
#     4   9  18  32  51  76 108 147 186 224 272 327
#     4  10  20  34  57  84 110 143 183 228 272 321
#     4  10  20  35  57  84 113 144 179 221 272 331
#     4  10  22  39  58  81 109 143 186 233 277 322
#
# _framework density 19.744195999999999
#
# number of rings (size 3 to 8) (size 9 to 14) (size 15 to 20)
#    0.000    2.077    1.538    1.615    1.077    5.538 
#    0.000    3.077    0.000    0.462    0.000    3.231 
#    0.000    0.000    0.000    0.000    0.000    0.000 
#
# Total GULP energy -289791.418888 kJ/mol
# GULP energy per Si atom -5572.911902 kJ/mol
# Density = 1.969926 g / cm^3
# Si number density = 19.744196 Si / 1000 Ang^3
#
#
#
# Elastic Constant Matrix: (Units=GPa)
#
#
# Indices 1 2 3 4 5 6 
#
# 1 17.6875 9.3229 -0.6057 0.0000 0.0000 0.0000
# 2 9.3229 164.4080 70.9834 0.0000 0.0000 0.0000
# 3 -0.6057 70.9834 106.2452 0.0000 0.0000 0.0000
# 4 0.0000 0.0000 0.0000 -10.3828 0.0000 0.0000
# 5 0.0000 0.0000 0.0000 0.0000 92.2969 0.0000
# 6 0.0000 0.0000 0.0000 0.0000 0.0000 12.0398
#
#
#
# Elastic Compliance Matrix: (Units=1/GPa)
#
#
# Indices 1 2 3 4 5 6 
#
# 1 0.059259 -0.004928 0.003630 0.000000 0.000000 0.000000
# 2 -0.004928 0.008958 -0.006013 0.000000 0.000000 0.000000
# 3 0.003630 -0.006013 0.013450 0.000000 0.000000 0.000000
# 4 0.000000 0.000000 0.000000 -0.096313 0.000000 0.000000
# 5 0.000000 0.000000 0.000000 0.000000 0.010835 0.000000
# 6 0.000000 0.000000 0.000000 0.000000 0.000000 0.083058
#
#
# Mechanical properties :
#
#
# Convention : Reuss Voigt Hill
#
# Bulk Modulus (GPa) = 14.91521 49.74910 32.33215
# Shear Modulus (GPa) = 43.02326 32.70012 37.86169
#
# Velocity S-wave (km/s) = 4.67308 4.07405 4.38380
# Velocity P-wave (km/s) = 6.05702 6.88346 6.48342
#
# Compressibility (1/GPa) = 0.06704568
#
# Stress axis : x y z
#
# Youngs Moduli (GPa) = 16.87517 111.63260 74.34831
#
# Poissons Ratio (x) = 0.55007 -0.26988
# Poissons Ratio (y) = 0.08315 0.44705
# Poissons Ratio (z) = -0.06126 0.67124
#
# Static dielectric constant tensor:
#      x y z
#    x 1.711450 0.000000 0.000000 
#    y 0.000000 1.737720 0.000000 
#    z 0.000000 0.000000 1.699790 
# 
# From -- ./inp_files/11100.got.cif
#   From: 2010.05.17/outbox.cif.g08.bks.cpg/sg47_6_cif.got.tgz:11100.got - 2010.06.03 20:15:42.
