data_PCOD9386625
_publ_section_title
;
Structure prediction by ZEFSAII (Michael W. Deem and Ramdas Pophale) SiO2 
 PCOD9386625
Probable space group: P M M M
;
_chemical_formula_sum "Si O2"
_cell_formula_units_Z 48
_cell_length_a 18.320791
_cell_length_b 8.495384
_cell_length_c 15.931056
_cell_angle_alpha 90.000000
_cell_angle_beta 90.000000
_cell_angle_gamma 90.000000
_cell_volume 2479.543883
_symmetry_space_group_name_H-M "P M M M"
_symmetry_group_IT_number 47
_symmetry_cell_setting 'orthorhombic'
loop_
_space_group_symop_operation_xyz
x,y,z
-x,-y,z
x,-y,-z
-x,y,-z
-x,-y,-z
x,y,-z
-x,y,z
x,-y,z
loop_
_atom_site_type_symbol
_atom_site_label
_atom_site_fract_x
_atom_site_fract_y
_atom_site_fract_z
Si Si1 0.584698 0.807469 0.500000
Si Si2 0.688987 0.187638 0.348491
Si Si3 0.080713 0.000000 0.900448
Si Si4 0.672352 0.315618 0.160401
Si Si5 0.159993 0.674619 0.145223
Si Si6 0.000000 0.187384 0.595247
Si Si7 0.585025 0.691756 0.000000
Si Si8 0.153096 0.676392 0.653538
O O1 0.500000 0.756808 0.500000
O O2 0.629800 0.756737 0.582860
O O3 0.584366 0.000000 0.500000
O O4 0.671255 0.240277 0.253011
O O5 0.770980 0.242661 0.372479
O O6 0.689020 0.000000 0.349604
O O7 0.119275 0.165341 0.878998
O O8 0.000000 0.000000 0.860898
O O9 0.074833 0.000000 0.000000
O O10 0.655216 0.500000 0.173287
O O11 0.754697 0.307425 0.124558
O O12 0.621212 0.250416 0.086691
O O13 0.134532 0.500000 0.114149
O O14 0.157084 0.667946 0.245808
O O15 0.076337 0.243082 0.633825
O O16 0.000000 0.245419 0.500000
O O17 0.000000 0.000000 0.596807
O O18 0.594667 0.500000 0.000000
O O19 0.500000 0.726511 0.000000
O O20 0.151969 0.500000 0.618795
#
# Coordination Sequence:
#
# PCOD9386625 Si02
#       8
#     4   8   4   8   8   4   4   8
#     4   9  20  38  59  84 115 154 197 241 298 361
#     4  10  20  36  60  86 113 154 202 248 296 354
#     4  11  26  40  56  88 118 152 197 250 310 354
#     4   9  19  36  57  86 118 152 196 239 292 360
#     4   9  21  39  61  86 114 158 204 246 297 357
#     4  11  25  39  57  89 123 156 195 240 292 356
#     4   9  18  34  59  89 121 156 190 233 298 368
#     4  10  22  39  59  85 117 156 197 243 300 351
#
# _framework density 19.358398999999999
#
# number of rings (size 3 to 8) (size 9 to 14) (size 15 to 20)
#    0.000    2.333    0.000    2.250    9.333    2.000 
#    0.000    2.500    0.000    4.000    0.000    0.000 
#    0.000    0.000    0.000    0.000    0.000    0.000 
#
# Total GULP energy -267548.201479 kJ/mol
# GULP energy per Si atom -5573.920864 kJ/mol
# Density = 1.931434 g / cm^3
# Si number density = 19.358399 Si / 1000 Ang^3
#
#
#
# Elastic Constant Matrix: (Units=GPa)
#
#
# Indices 1 2 3 4 5 6 
#
# 1 156.7226 50.3920 75.1199 0.0000 0.0000 0.0000
# 2 50.3920 91.1486 31.9813 0.0000 0.0000 0.0000
# 3 75.1199 31.9813 71.6569 0.0000 0.0000 0.0000
# 4 0.0000 0.0000 0.0000 24.9714 0.0000 0.0000
# 5 0.0000 0.0000 0.0000 0.0000 32.1198 0.0000
# 6 0.0000 0.0000 0.0000 0.0000 0.0000 12.0046
#
#
#
# Elastic Compliance Matrix: (Units=1/GPa)
#
#
# Indices 1 2 3 4 5 6 
#
# 1 0.013464 -0.002954 -0.012796 0.000000 0.000000 0.000000
# 2 -0.002954 0.013656 -0.002998 0.000000 0.000000 0.000000
# 3 -0.012796 -0.002998 0.028708 0.000000 0.000000 0.000000
# 4 0.000000 0.000000 0.000000 0.040046 0.000000 0.000000
# 5 0.000000 0.000000 0.000000 0.000000 0.031133 0.000000
# 6 0.000000 0.000000 0.000000 0.000000 0.000000 0.083302
#
#
# Mechanical properties :
#
#
# Convention : Reuss Voigt Hill
#
# Bulk Modulus (GPa) = 54.55091 70.50159 62.52625
# Shear Modulus (GPa) = 19.69150 24.62149 22.15649
#
# Velocity S-wave (km/s) = 3.19283 3.57021 3.38678
# Velocity P-wave (km/s) = 6.46783 7.31391 6.90385
#
# Compressibility (1/GPa) = 0.01833150
#
# Stress axis : x y z
#
# Youngs Moduli (GPa) = 74.27243 73.22716 34.83308
#
# Poissons Ratio (x) = 0.21630 0.44574
# Poissons Ratio (y) = 0.21938 0.10444
# Poissons Ratio (z) = 0.95041 0.21956
#
# Static dielectric constant tensor:
#      x y z
#    x 1.800730 0.000000 0.000000 
#    y 0.000000 1.712890 0.000000 
#    z 0.000000 0.000000 1.681070 
# 
# From -- ./inp_files/24537.got.cif
#   From: 2010.05.17/outbox.cif.g08.bks.cpg/sg47_13_cif.got.tgz:24537.got - 2010.06.03 20:15:42.
