data_PCOD9386089
_publ_section_title
;
Structure prediction by ZEFSAII (Michael W. Deem and Ramdas Pophale) SiO2 
 PCOD9386089
Probable space group: P M M M
;
_chemical_formula_sum "Si O2"
_cell_formula_units_Z 44
_cell_length_a 33.054322
_cell_length_b 9.620921
_cell_length_c 7.627059
_cell_angle_alpha 90.000000
_cell_angle_beta 90.000000
_cell_angle_gamma 90.000000
_cell_volume 2425.504071
_symmetry_space_group_name_H-M "P M M M"
_symmetry_group_IT_number 47
_symmetry_cell_setting 'orthorhombic'
loop_
_space_group_symop_operation_xyz
x,y,z
-x,-y,z
x,-y,-z
-x,y,-z
-x,-y,-z
x,y,-z
-x,y,z
x,-y,z
loop_
_atom_site_type_symbol
_atom_site_label
_atom_site_fract_x
_atom_site_fract_y
_atom_site_fract_z
Si Si1 0.621678 0.656403 0.709263
Si Si2 0.000000 0.340561 0.286675
Si Si3 0.078302 0.163879 0.292684
Si Si4 0.544520 0.841163 0.789099
Si Si5 0.855442 0.835330 0.000000
Si Si6 0.227327 0.667981 0.000000
Si Si7 0.709770 0.669179 0.701286
O O1 0.626601 0.646191 0.500000
O O2 0.615620 0.500000 0.779270
O O3 0.582575 0.748359 0.741631
O O4 0.665290 0.713711 0.769589
O O5 0.959727 0.257120 0.236107
O O6 0.000000 0.500000 0.226362
O O7 0.000000 0.341820 0.500000
O O8 0.086306 0.188075 0.500000
O O9 0.068100 0.000000 0.272694
O O10 0.116684 0.192743 0.170298
O O11 0.500000 0.791081 0.728568
O O12 0.549625 0.000000 0.727132
O O13 0.543214 0.844863 0.000000
O O14 0.815378 0.743915 0.000000
O O15 0.845627 0.000000 0.000000
O O16 0.254198 0.707481 0.169400
O O17 0.222394 0.500000 0.000000
O O18 0.716096 0.714831 0.500000
O O19 0.707730 0.500000 0.699836
#
# Coordination Sequence:
#
# PCOD9386089 Si02
#       7
#     8   4   8   8   4   4   8
#     4   9  18  32  51  75  99 123 158 205 249 292
#     4   9  17  30  51  80 109 135 170 217 259 292
#     4   9  18  34  54  73 100 141 178 207 248 301
#     4   9  19  34  48  66  97 134 167 198 237 290
#     4  10  22  37  51  74 105 133 171 216 252 296
#     4  10  20  34  55  77  97 131 169 201 252 313
#     4   8  16  32  52  76 103 127 159 205 252 302
#
# _framework density 18.140557999999999
#
# number of rings (size 3 to 8) (size 9 to 14) (size 15 to 20)
#    0.000    3.000    0.000    1.909    1.273    4.364 
#    0.000    5.455    0.000    1.091    0.000    0.000 
#    0.000    0.000    0.000    0.000    0.000    0.000 
#
# Total GULP energy -245228.604102 kJ/mol
# GULP energy per Si atom -5573.377366 kJ/mol
# Density = 1.809927 g / cm^3
# Si number density = 18.140558 Si / 1000 Ang^3
#
#
#
# Elastic Constant Matrix: (Units=GPa)
#
#
# Indices 1 2 3 4 5 6 
#
# 1 204.3258 91.5940 65.5895 0.0000 0.0000 0.0000
# 2 91.5940 62.3587 34.0552 0.0000 0.0000 0.0000
# 3 65.5895 34.0552 74.3156 0.0000 0.0000 0.0000
# 4 0.0000 0.0000 0.0000 16.5953 0.0000 0.0000
# 5 0.0000 0.0000 0.0000 0.0000 31.9118 0.0000
# 6 0.0000 0.0000 0.0000 0.0000 0.0000 65.6167
#
#
#
# Elastic Compliance Matrix: (Units=1/GPa)
#
#
# Indices 1 2 3 4 5 6 
#
# 1 0.015281 -0.020113 -0.004270 0.000000 0.000000 0.000000
# 2 -0.020113 0.047863 -0.004182 0.000000 0.000000 0.000000
# 3 -0.004270 -0.004182 0.019141 0.000000 0.000000 0.000000
# 4 0.000000 0.000000 0.000000 0.060258 0.000000 0.000000
# 5 0.000000 0.000000 0.000000 0.000000 0.031336 0.000000
# 6 0.000000 0.000000 0.000000 0.000000 0.000000 0.015240
#
#
# Mechanical properties :
#
#
# Convention : Reuss Voigt Hill
#
# Bulk Modulus (GPa) = 39.75309 80.38643 60.06976
# Shear Modulus (GPa) = 19.63602 32.80884 26.22243
#
# Velocity S-wave (km/s) = 3.29361 4.25737 3.80612
# Velocity P-wave (km/s) = 6.03534 8.28107 7.24574
#
# Compressibility (1/GPa) = 0.02515528
#
# Stress axis : x y z
#
# Youngs Moduli (GPa) = 65.44022 20.89296 52.24458
#
# Poissons Ratio (x) = 0.42023 0.22307
# Poissons Ratio (y) = 1.31623 0.21846
# Poissons Ratio (z) = 0.27942 0.08736
#
# Static dielectric constant tensor:
#      x y z
#    x 1.614400 0.000000 0.000000 
#    y 0.000000 1.608480 0.000000 
#    z 0.000000 0.000000 1.658000 
# 
# From -- ./inp_files/13701.got.cif
#   From: 2010.05.17/outbox.cif.g08.bks.cpg/sg47_7_cif.got.tgz:13701.got - 2010.06.03 20:15:42.
