data_PCOD9386979
_publ_section_title
;
Structure prediction by ZEFSAII (Michael W. Deem and Ramdas Pophale) SiO2 
 PCOD9386979
Probable space group: P M M M
;
_chemical_formula_sum "Si O2"
_cell_formula_units_Z 56
_cell_length_a 19.593288
_cell_length_b 19.617158
_cell_length_c 7.783246
_cell_angle_alpha 90.000000
_cell_angle_beta 90.000000
_cell_angle_gamma 90.000000
_cell_volume 2991.604441
_symmetry_space_group_name_H-M "P M M M"
_symmetry_group_IT_number 47
_symmetry_cell_setting 'orthorhombic'
loop_
_space_group_symop_operation_xyz
x,y,z
-x,-y,z
x,-y,-z
-x,y,-z
-x,-y,-z
x,y,-z
-x,y,z
x,-y,z
loop_
_atom_site_type_symbol
_atom_site_label
_atom_site_fract_x
_atom_site_fract_y
_atom_site_fract_z
Si Si1 0.844061 0.788244 0.206410
Si Si2 0.922319 0.076754 0.293507
Si Si3 0.210142 0.575808 0.703671
Si Si4 0.582670 0.072637 0.202453
Si Si5 0.076294 0.655283 0.792198
Si Si6 0.287784 0.710973 0.796002
Si Si7 0.577995 0.777547 0.788903
O O1 0.870555 0.863218 0.247949
O O2 0.897239 0.729847 0.265742
O O3 0.770067 0.763311 0.272222
O O4 0.841735 0.783653 0.000000
O O5 0.924892 0.074331 0.500000
O O6 0.000000 0.092181 0.232606
O O7 0.904409 0.000000 0.233169
O O8 0.219329 0.573582 0.500000
O O9 0.221702 0.500000 0.774612
O O10 0.133209 0.600974 0.739624
O O11 0.259478 0.635172 0.770383
O O12 0.500000 0.072465 0.210793
O O13 0.601783 0.146808 0.269875
O O14 0.606397 0.000000 0.277502
O O15 0.600795 0.071940 0.000000
O O16 0.000000 0.641379 0.730090
O O17 0.075115 0.656075 0.000000
O O18 0.363762 0.725576 0.730822
O O19 0.291032 0.722729 0.000000
O O20 0.500000 0.764797 0.732709
O O21 0.575365 0.778987 0.000000
#
# Coordination Sequence:
#
# PCOD9386979 Si02
#       7
#     8   8   8   8   8   8   8
#     4   9  17  29  44  64  92 122 151 184 224 272
#     4   9  18  31  45  62  85 116 158 204 241 270
#     4  10  21  35  50  69  93 122 156 190 222 263
#     4   7   9  14  27  51  84 117 143 169 209 261
#     4   9  18  32  50  73  99 124 150 183 226 275
#     4   9  18  32  49  70  95 121 150 186 231 282
#     4   8  13  23  42  67  92 118 151 191 230 269
#
# _framework density 18.719052000000001
#
# number of rings (size 3 to 8) (size 9 to 14) (size 15 to 20)
#    0.000    3.286    0.000    3.429    0.000    5.143 
#    0.000    2.857    0.000    3.429    0.000    3.000 
#    0.000    0.000    0.000    5.143    0.000    4.000 
#
# Total GULP energy -311769.523914 kJ/mol
# GULP energy per Si atom -5567.312927 kJ/mol
# Density = 1.867645 g / cm^3
# Si number density = 18.719052 Si / 1000 Ang^3
#
#
#
# Elastic Constant Matrix: (Units=GPa)
#
#
# Indices 1 2 3 4 5 6 
#
# 1 124.7513 85.4804 4.1437 0.0000 0.0000 0.0000
# 2 85.4804 137.8430 -5.8220 0.0000 0.0000 0.0000
# 3 4.1437 -5.8220 17.1038 0.0000 0.0000 0.0000
# 4 0.0000 0.0000 0.0000 18.7925 0.0000 0.0000
# 5 0.0000 0.0000 0.0000 0.0000 -8.8806 0.0000
# 6 0.0000 0.0000 0.0000 0.0000 0.0000 12.7286
#
#
#
# Elastic Compliance Matrix: (Units=1/GPa)
#
#
# Indices 1 2 3 4 5 6 
#
# 1 0.014668 -0.009381 -0.006747 0.000000 0.000000 0.000000
# 2 -0.009381 0.013360 0.006820 0.000000 0.000000 0.000000
# 3 -0.006747 0.006820 0.062423 0.000000 0.000000 0.000000
# 4 0.000000 0.000000 0.000000 0.053213 0.000000 0.000000
# 5 0.000000 0.000000 0.000000 0.000000 -0.112605 0.000000
# 6 0.000000 0.000000 0.000000 0.000000 0.000000 0.078564
#
#
# Mechanical properties :
#
#
# Convention : Reuss Voigt Hill
#
# Bulk Modulus (GPa) = 13.92060 49.70025 31.81043
# Shear Modulus (GPa) = 32.85540 17.58782 25.22161
#
# Velocity S-wave (km/s) = 4.19404 3.06856 3.67464
# Velocity P-wave (km/s) = 5.55932 6.25804 5.91900
#
# Compressibility (1/GPa) = 0.07183596
#
# Stress axis : x y z
#
# Youngs Moduli (GPa) = 68.17579 74.84966 16.01983
#
# Poissons Ratio (x) = 0.70216 0.10808
# Poissons Ratio (y) = 0.63956 -0.10926
# Poissons Ratio (z) = 0.45996 -0.51050
#
# Static dielectric constant tensor:
#      x y z
#    x 1.653140 0.000000 0.000000 
#    y 0.000000 1.674640 0.000000 
#    z 0.000000 0.000000 1.692350 
# 
# From -- ./inp_files/11510.got.cif
#   From: 2010.05.17/outbox.cif.g08.bks.cpg/sg47_6_cif.got.tgz:11510.got - 2010.06.03 20:15:42.
