data_PCOD9386303
_publ_section_title
;
Structure prediction by ZEFSAII (Michael W. Deem and Ramdas Pophale) SiO2 
 PCOD9386303
Probable space group: P M M M
;
_chemical_formula_sum "Si O2"
_cell_formula_units_Z 44
_cell_length_a 14.777636
_cell_length_b 8.423628
_cell_length_c 18.521755
_cell_angle_alpha 90.000000
_cell_angle_beta 90.000000
_cell_angle_gamma 90.000000
_cell_volume 2305.612296
_symmetry_space_group_name_H-M "P M M M"
_symmetry_group_IT_number 47
_symmetry_cell_setting 'orthorhombic'
loop_
_space_group_symop_operation_xyz
x,y,z
-x,-y,z
x,-y,-z
-x,y,-z
-x,-y,-z
x,y,-z
-x,y,z
x,-y,z
loop_
_atom_site_type_symbol
_atom_site_label
_atom_site_fract_x
_atom_site_fract_y
_atom_site_fract_z
Si Si1 0.896244 0.807821 0.221444
Si Si2 0.788288 0.194071 0.919612
Si Si3 0.601569 0.191506 0.684979
Si Si4 0.896218 0.189877 0.500000
Si Si5 0.600160 0.193197 0.853945
Si Si6 0.789319 0.687942 0.360949
O O1 0.853615 0.755372 0.145254
O O2 0.835684 0.750885 0.287777
O O3 0.000000 0.755494 0.229410
O O4 0.894974 0.000000 0.222160
O O5 0.686086 0.245444 0.899965
O O6 0.788732 0.000000 0.919445
O O7 0.814082 0.245818 0.000000
O O8 0.500000 0.239612 0.662547
O O9 0.612501 0.236676 0.769660
O O10 0.684624 0.260012 0.640528
O O11 0.605965 0.000000 0.682162
O O12 0.843321 0.244982 0.570923
O O13 0.000000 0.249383 0.500000
O O14 0.899125 0.000000 0.500000
O O15 0.500000 0.246389 0.877517
O O16 0.599651 0.000000 0.856066
O O17 0.794784 0.500000 0.362100
#
# Coordination Sequence:
#
# PCOD9386303 Si02
#       6
#     8   8   8   4   8   8
#     4  10  20  35  55  77 106 148 197 243 288 344
#     4   9  16  26  44  74 110 143 183 241 297 339
#     4   9  17  33  59  86 114 152 195 234 274 330
#     4  11  25  45  68  91 116 149 189 234 284 337
#     4   8  13  23  43  72 105 140 179 228 283 334
#     4  12  24  38  60  89 121 151 183 231 284 340
#
# _framework density 19.083867000000001
#
# number of rings (size 3 to 8) (size 9 to 14) (size 15 to 20)
#    0.000    2.273    1.818    3.545    0.000    4.364 
#    0.000    4.091    0.000    3.273    0.000    1.273 
#    0.000    2.909    0.000    0.000    0.000    0.000 
#
# Total GULP energy -245560.620992 kJ/mol
# GULP energy per Si atom -5580.923204 kJ/mol
# Density = 1.904043 g / cm^3
# Si number density = 19.083867 Si / 1000 Ang^3
#
#
#
# Elastic Constant Matrix: (Units=GPa)
#
#
# Indices 1 2 3 4 5 6 
#
# 1 155.3568 28.7407 80.4383 0.0000 0.0000 0.0000
# 2 28.7407 21.1852 21.7478 0.0000 0.0000 0.0000
# 3 80.4383 21.7478 123.9254 0.0000 0.0000 0.0000
# 4 0.0000 0.0000 0.0000 -27.8524 0.0000 0.0000
# 5 0.0000 0.0000 0.0000 0.0000 18.7951 0.0000
# 6 0.0000 0.0000 0.0000 0.0000 0.0000 -6.3239
#
#
#
# Elastic Compliance Matrix: (Units=1/GPa)
#
#
# Indices 1 2 3 4 5 6 
#
# 1 0.011009 -0.009270 -0.005519 0.000000 0.000000 0.000000
# 2 -0.009270 0.065381 -0.005457 0.000000 0.000000 0.000000
# 3 -0.005519 -0.005457 0.012609 0.000000 0.000000 0.000000
# 4 0.000000 0.000000 0.000000 -0.035904 0.000000 0.000000
# 5 0.000000 0.000000 0.000000 0.000000 0.053205 0.000000
# 6 0.000000 0.000000 0.000000 0.000000 0.000000 -0.158131
#
#
# Mechanical properties :
#
#
# Convention : Reuss Voigt Hill
#
# Bulk Modulus (GPa) = 20.61536 62.48012 41.54774
# Shear Modulus (GPa) = 1034.92271 8.22647 521.57459
#
# Velocity S-wave (km/s) = 23.31265 2.07847 16.54992
# Velocity P-wave (km/s) = 27.11947 6.21055 19.67278
#
# Compressibility (1/GPa) = 0.04850751
#
# Stress axis : x y z
#
# Youngs Moduli (GPa) = 90.83143 15.29506 79.30567
#
# Poissons Ratio (x) = 0.14179 0.43771
# Poissons Ratio (y) = 0.84201 0.43275
# Poissons Ratio (z) = 0.50132 0.08346
#
# Static dielectric constant tensor:
#      x y z
#    x 1.672220 0.000000 0.000000 
#    y 0.000000 1.654480 0.000000 
#    z 0.000000 0.000000 1.517930 
# 
# From -- ./inp_files/26391.got.cif
#   From: 2010.05.17/outbox.cif.g08.bks.cpg/sg47_14_cif.got.tgz:26391.got - 2010.06.03 20:15:42.
