data_PCOD9386608
_publ_section_title
;
Structure prediction by ZEFSAII (Michael W. Deem and Ramdas Pophale) SiO2 
 PCOD9386608
Probable space group: P M M M
;
_chemical_formula_sum "Si O2"
_cell_formula_units_Z 56
_cell_length_a 16.635834
_cell_length_b 7.647949
_cell_length_c 20.001917
_cell_angle_alpha 90.000000
_cell_angle_beta 90.000000
_cell_angle_gamma 90.000000
_cell_volume 2544.844100
_symmetry_space_group_name_H-M "P M M M"
_symmetry_group_IT_number 47
_symmetry_cell_setting 'orthorhombic'
loop_
_space_group_symop_operation_xyz
x,y,z
-x,-y,z
x,-y,-z
-x,y,-z
-x,-y,-z
x,y,-z
-x,y,z
x,-y,z
loop_
_atom_site_type_symbol
_atom_site_label
_atom_site_fract_x
_atom_site_fract_y
_atom_site_fract_z
Si Si1 0.658492 0.295326 0.782745
Si Si2 0.587185 0.796514 0.350265
Si Si3 0.253287 0.789975 0.576061
Si Si4 0.905721 0.287240 0.927501
Si Si5 0.593923 0.789134 0.926798
Si Si6 0.912420 0.710202 0.348959
Si Si7 0.161679 0.714234 0.212826
O O1 0.657034 0.500000 0.767344
O O2 0.598953 0.210365 0.729783
O O3 0.637669 0.273776 0.860498
O O4 0.748334 0.227267 0.770820
O O5 0.500000 0.718176 0.367833
O O6 0.668673 0.722199 0.383301
O O7 0.584258 0.000000 0.369999
O O8 0.255028 0.724975 0.500000
O O9 0.167183 0.752927 0.609387
O O10 0.259572 0.000000 0.574810
O O11 0.901446 0.500000 0.927283
O O12 0.862625 0.224840 0.860816
O O13 0.000000 0.242434 0.923628
O O14 0.874321 0.227750 0.000000
O O15 0.500000 0.737993 0.922436
O O16 0.596837 0.000000 0.926268
O O17 0.624625 0.730048 0.000000
O O18 0.915994 0.500000 0.347946
O O19 0.896657 0.768520 0.272538
O O20 0.000000 0.774379 0.372907
O O21 0.161707 0.500000 0.211316
#
# Coordination Sequence:
#
# PCOD9386608 Si02
#       7
#     8   8   8   8   8   8   8
#     4  11  21  32  51  80 112 143 179 231 287 333
#     4  10  21  38  60  83 109 146 188 227 274 338
#     4  10  22  40  61  86 115 144 178 228 284 334
#     4   8  13  22  38  61  91 130 174 216 259 308
#     4   9  19  36  54  71  98 141 190 235 279 332
#     4  10  20  36  59  84 113 152 193 229 270 327
#     4   9  17  29  45  70 105 141 178 222 269 318
#
# _framework density 22.005275999999999
#
# number of rings (size 3 to 8) (size 9 to 14) (size 15 to 20)
#    0.000    2.429    1.429    2.143    0.000    6.000 
#    0.000    5.000    0.000    0.000    0.000    2.000 
#    0.000    0.000    0.000    9.429    0.000    9.143 
#
# Total GULP energy -312542.224247 kJ/mol
# GULP energy per Si atom -5581.111147 kJ/mol
# Density = 2.195519 g / cm^3
# Si number density = 22.005276 Si / 1000 Ang^3
#
#
#
# Elastic Constant Matrix: (Units=GPa)
#
#
# Indices 1 2 3 4 5 6 
#
# 1 162.8845 10.1079 74.3185 0.0000 0.0000 0.0000
# 2 10.1079 43.2679 2.1014 0.0000 0.0000 0.0000
# 3 74.3185 2.1014 132.1249 0.0000 0.0000 0.0000
# 4 0.0000 0.0000 0.0000 12.2515 0.0000 0.0000
# 5 0.0000 0.0000 0.0000 0.0000 14.1234 0.0000
# 6 0.0000 0.0000 0.0000 0.0000 0.0000 12.2381
#
#
#
# Elastic Compliance Matrix: (Units=1/GPa)
#
#
# Indices 1 2 3 4 5 6 
#
# 1 0.008387 -0.001731 -0.004690 0.000000 0.000000 0.000000
# 2 -0.001731 0.023487 0.000600 0.000000 0.000000 0.000000
# 3 -0.004690 0.000600 0.010197 0.000000 0.000000 0.000000
# 4 0.000000 0.000000 0.000000 0.081623 0.000000 0.000000
# 5 0.000000 0.000000 0.000000 0.000000 0.070804 0.000000
# 6 0.000000 0.000000 0.000000 0.000000 0.000000 0.081712
#
#
# Mechanical properties :
#
#
# Convention : Reuss Voigt Hill
#
# Bulk Modulus (GPa) = 32.86341 56.81477 44.83909
# Shear Modulus (GPa) = 16.77883 24.50589 20.64236
#
# Velocity S-wave (km/s) = 2.76432 3.34074 3.06611
# Velocity P-wave (km/s) = 5.01551 6.38400 5.74068
#
# Compressibility (1/GPa) = 0.03042898
#
# Stress axis : x y z
#
# Youngs Moduli (GPa) = 119.23849 42.57643 98.06812
#
# Poissons Ratio (x) = 0.07372 0.45992
# Poissons Ratio (y) = 0.20645 -0.05888
# Poissons Ratio (z) = 0.55920 -0.02556
#
# Static dielectric constant tensor:
#      x y z
#    x 1.809450 0.000000 0.000000 
#    y 0.000000 1.836990 0.000000 
#    z 0.000000 0.000000 1.795270 
# 
# From -- ./inp_files/25145.got.cif
#   From: 2010.05.17/outbox.cif.g08.bks.cpg/sg47_13_cif.got.tgz:25145.got - 2010.06.03 20:15:42.
