data_PCOD9386262
_publ_section_title
;
Structure prediction by ZEFSAII (Michael W. Deem and Ramdas Pophale) SiO2 
 PCOD9386262
Probable space group: P M M M
;
_chemical_formula_sum "Si O2"
_cell_formula_units_Z 44
_cell_length_a 11.208277
_cell_length_b 8.961407
_cell_length_c 24.556245
_cell_angle_alpha 90.000000
_cell_angle_beta 90.000000
_cell_angle_gamma 90.000000
_cell_volume 2466.476690
_symmetry_space_group_name_H-M "P M M M"
_symmetry_group_IT_number 47
_symmetry_cell_setting 'orthorhombic'
loop_
_space_group_symop_operation_xyz
x,y,z
-x,-y,z
x,-y,-z
-x,y,-z
-x,-y,-z
x,y,-z
-x,y,z
x,-y,z
loop_
_atom_site_type_symbol
_atom_site_label
_atom_site_fract_x
_atom_site_fract_y
_atom_site_fract_z
Si Si1 0.500000 0.678887 0.063794
Si Si2 0.141640 0.668315 0.060950
Si Si3 0.362454 0.180507 0.364749
Si Si4 0.865652 0.181422 0.563508
Si Si5 0.295801 0.173949 0.136967
Si Si6 0.357821 0.327360 0.752802
O O1 0.500000 0.500000 0.066582
O O2 0.610888 0.744303 0.097130
O O3 0.500000 0.721844 0.000000
O O4 0.184691 0.500000 0.075185
O O5 0.174964 0.788497 0.105679
O O6 0.000000 0.660551 0.057383
O O7 0.187957 0.703138 0.000000
O O8 0.500000 0.223122 0.380977
O O9 0.252018 0.229638 0.403122
O O10 0.340248 0.246179 0.304737
O O11 0.360832 0.000000 0.362726
O O12 0.854108 0.224057 0.500000
O O13 0.000000 0.228542 0.582205
O O14 0.865743 0.000000 0.565454
O O15 0.298258 0.244969 0.196597
O O16 0.322761 0.000000 0.140389
O O17 0.500000 0.323650 0.763871
O O18 0.320936 0.500000 0.749566
#
# Coordination Sequence:
#
# PCOD9386262 Si02
#       6
#     4   8   8   8   8   8
#     4  11  23  37  53  75 105 139 172 207 254 317
#     4   9  19  37  58  76  98 133 173 210 254 314
#     4   9  17  29  48  75 104 132 171 223 268 306
#     4   8  14  26  46  74 108 143 174 207 257 319
#     4  12  23  34  53  79 106 133 167 216 267 314
#     4  10  20  35  54  72  97 136 177 213 258 317
#
# _framework density 17.839212
#
# number of rings (size 3 to 8) (size 9 to 14) (size 15 to 20)
#    0.000    2.273    0.909    4.091    0.000    4.727 
#    0.000    3.636    0.000    4.364    0.000    3.818 
#    0.000    0.000    0.000    0.000    0.000    0.000 
#
# Total GULP energy -245178.667422 kJ/mol
# GULP energy per Si atom -5572.242441 kJ/mol
# Density = 1.779861 g / cm^3
# Si number density = 17.839212 Si / 1000 Ang^3
#
#
#
# Elastic Constant Matrix: (Units=GPa)
#
#
# Indices 1 2 3 4 5 6 
#
# 1 97.3075 27.2178 65.3249 0.0000 0.0000 0.0000
# 2 27.2178 45.2729 32.6193 0.0000 0.0000 0.0000
# 3 65.3249 32.6193 102.6879 0.0000 0.0000 0.0000
# 4 0.0000 0.0000 0.0000 110.2226 0.0000 0.0000
# 5 0.0000 0.0000 0.0000 0.0000 -2.6542 0.0000
# 6 0.0000 0.0000 0.0000 0.0000 0.0000 16.0141
#
#
#
# Elastic Compliance Matrix: (Units=1/GPa)
#
#
# Indices 1 2 3 4 5 6 
#
# 1 0.018331 -0.003396 -0.010582 0.000000 0.000000 0.000000
# 2 -0.003396 0.029273 -0.007139 0.000000 0.000000 0.000000
# 3 -0.010582 -0.007139 0.018738 0.000000 0.000000 0.000000
# 4 0.000000 0.000000 0.000000 0.009073 0.000000 0.000000
# 5 0.000000 0.000000 0.000000 0.000000 -0.376768 0.000000
# 6 0.000000 0.000000 0.000000 0.000000 0.000000 0.062445
#
#
# Mechanical properties :
#
#
# Convention : Reuss Voigt Hill
#
# Bulk Modulus (GPa) = 41.47942 55.06583 48.27263
# Shear Modulus (GPa) = -26.50571 32.72359 3.10894
#
# Velocity S-wave (km/s) = -3.85880 4.28759 1.32157
# Velocity P-wave (km/s) = 1.85701 7.44622 5.42654
#
# Compressibility (1/GPa) = 0.02410834
#
# Stress axis : x y z
#
# Youngs Moduli (GPa) = 54.55309 34.16101 53.36777
#
# Poissons Ratio (x) = 0.11600 0.56476
# Poissons Ratio (y) = 0.18524 0.38097
# Poissons Ratio (z) = 0.57731 0.24386
#
# Static dielectric constant tensor:
#      x y z
#    x 1.711830 0.000000 0.000000 
#    y 0.000000 1.603980 0.000000 
#    z 0.000000 0.000000 1.583360 
# 
# From -- ./inp_files/31860.got.cif
#   From: 2010.05.17/outbox.cif.g08.bks.cpg/sg47_16_cif.got.tgz:31860.got - 2010.06.03 20:15:42.
