data_PCOD9386931
_publ_section_title
;
Structure prediction by ZEFSAII (Michael W. Deem and Ramdas Pophale) SiO2 
 PCOD9386931
Probable space group: P M M M
;
_chemical_formula_sum "Si O2"
_cell_formula_units_Z 40
_cell_length_a 7.748311
_cell_length_b 27.074733
_cell_length_c 10.026068
_cell_angle_alpha 90.000000
_cell_angle_beta 90.000000
_cell_angle_gamma 90.000000
_cell_volume 2103.303150
_symmetry_space_group_name_H-M "P M M M"
_symmetry_group_IT_number 47
_symmetry_cell_setting 'orthorhombic'
loop_
_space_group_symop_operation_xyz
x,y,z
-x,-y,z
x,-y,-z
-x,y,-z
-x,-y,-z
x,y,-z
-x,y,z
x,-y,z
loop_
_atom_site_type_symbol
_atom_site_label
_atom_site_fract_x
_atom_site_fract_y
_atom_site_fract_z
Si Si1 0.795370 0.053123 0.338363
Si Si2 0.792576 0.160214 0.652199
Si Si3 0.206487 0.640955 0.848673
Si Si4 0.294616 0.248793 0.848734
Si Si5 0.210918 0.444332 0.346676
O O1 0.783155 0.053847 0.500000
O O2 0.725706 0.106704 0.296589
O O3 0.000000 0.052107 0.306093
O O4 0.721939 0.000000 0.293210
O O5 0.730042 0.168735 0.500000
O O6 0.755225 0.205142 0.749752
O O7 0.000000 0.155531 0.644261
O O8 0.239110 0.696796 0.801380
O O9 0.273400 0.598499 0.751163
O O10 0.000000 0.634743 0.855412
O O11 0.275215 0.636915 0.000000
O O12 0.500000 0.249205 0.856683
O O13 0.224946 0.241772 0.000000
O O14 0.263684 0.436054 0.500000
O O15 0.262660 0.500000 0.307198
O O16 0.000000 0.443598 0.345720
#
# Coordination Sequence:
#
# PCOD9386931 Si02
#       5
#     8   8   8   8   8
#     4   7  10  19  38  65  94 118 140 174 223 273
#     4   9  17  29  48  74  97 117 148 190 232 275
#     4   9  17  29  46  67  88 112 147 189 227 264
#     4  10  21  35  48  63  89 126 162 194 231 274
#     4   8  14  25  42  66  94 118 139 170 217 269
#
# _framework density 19.017704999999999
#
# number of rings (size 3 to 8) (size 9 to 14) (size 15 to 20)
#    0.000    3.400    0.000    3.000    0.000    2.800 
#    0.000    4.000    0.000    1.800    0.000   11.200 
#    0.000    0.000    0.000    0.000    0.000    0.000 
#
# Total GULP energy -222698.054868 kJ/mol
# GULP energy per Si atom -5567.451372 kJ/mol
# Density = 1.897442 g / cm^3
# Si number density = 19.017705 Si / 1000 Ang^3
#
#
#
# Elastic Constant Matrix: (Units=GPa)
#
#
# Indices 1 2 3 4 5 6 
#
# 1 27.8984 4.5386 4.6374 0.0000 0.0000 0.0000
# 2 4.5386 236.3697 107.0340 0.0000 0.0000 0.0000
# 3 4.6374 107.0340 68.1302 0.0000 0.0000 0.0000
# 4 0.0000 0.0000 0.0000 -110.4727 0.0000 0.0000
# 5 0.0000 0.0000 0.0000 0.0000 17.6583 0.0000
# 6 0.0000 0.0000 0.0000 0.0000 0.0000 -39.0878
#
#
#
# Elastic Compliance Matrix: (Units=1/GPa)
#
#
# Indices 1 2 3 4 5 6 
#
# 1 0.036400 0.001466 -0.004780 0.000000 0.000000 0.000000
# 2 0.001466 0.014718 -0.023222 0.000000 0.000000 0.000000
# 3 -0.004780 -0.023222 0.051486 0.000000 0.000000 0.000000
# 4 0.000000 0.000000 0.000000 -0.009052 0.000000 0.000000
# 5 0.000000 0.000000 0.000000 0.000000 0.056631 0.000000
# 6 0.000000 0.000000 0.000000 0.000000 0.000000 -0.025583
#
#
# Mechanical properties :
#
#
# Convention : Reuss Voigt Hill
#
# Bulk Modulus (GPa) = 20.18951 62.75759 41.47355
# Shear Modulus (GPa) = 25.74885 -11.96788 6.89048
#
# Velocity S-wave (km/s) = 3.68359 -2.51131 1.90553
# Velocity P-wave (km/s) = 5.36013 4.96611 5.16688
#
# Compressibility (1/GPa) = 0.04953067
#
# Stress axis : x y z
#
# Youngs Moduli (GPa) = 27.47218 67.94356 19.42285
#
# Poissons Ratio (x) = -0.09958 0.09285
# Poissons Ratio (y) = -0.04027 0.45104
# Poissons Ratio (z) = 0.13133 1.57780
#
# Static dielectric constant tensor:
#      x y z
#    x 1.689590 0.000000 0.000000 
#    y 0.000000 1.693050 0.000000 
#    z 0.000000 0.000000 1.702120 
# 
# From -- ./inp_files/1421.got.cif
#   From: 2010.05.17/outbox.cif.g08.bks.cpg/sg47_1_cif.got.tgz:1421.got - 2010.06.03 20:15:42.
