data_PCOD9386990
_publ_section_title
;
Structure prediction by ZEFSAII (Michael W. Deem and Ramdas Pophale) SiO2 
 PCOD9386990
Probable space group: P M M M
;
_chemical_formula_sum "Si O2"
_cell_formula_units_Z 52
_cell_length_a 34.084295
_cell_length_b 9.953762
_cell_length_c 7.457625
_cell_angle_alpha 90.000000
_cell_angle_beta 90.000000
_cell_angle_gamma 90.000000
_cell_volume 2530.125765
_symmetry_space_group_name_H-M "P M M M"
_symmetry_group_IT_number 47
_symmetry_cell_setting 'orthorhombic'
loop_
_space_group_symop_operation_xyz
x,y,z
-x,-y,z
x,-y,-z
-x,y,-z
-x,-y,-z
x,y,-z
-x,y,z
x,-y,z
loop_
_atom_site_type_symbol
_atom_site_label
_atom_site_fract_x
_atom_site_fract_y
_atom_site_fract_z
Si Si1 0.000000 0.345533 0.719702
Si Si2 0.930771 0.847879 0.285332
Si Si3 0.613400 0.153921 0.281366
Si Si4 0.773537 0.348529 0.787477
Si Si5 0.456198 0.344896 0.281304
Si Si6 0.840295 0.848280 0.214527
Si Si7 0.702104 0.152505 0.284111
O O1 0.961858 0.261500 0.778902
O O2 0.000000 0.500000 0.778332
O O3 0.000000 0.347575 0.500000
O O4 0.935234 0.853937 0.500000
O O5 0.885606 0.812928 0.247863
O O6 0.937975 0.000000 0.216826
O O7 0.613378 0.158183 0.500000
O O8 0.579336 0.252506 0.218679
O O9 0.657845 0.186990 0.224098
O O10 0.605476 0.000000 0.229903
O O11 0.770664 0.500000 0.714741
O O12 0.809535 0.259875 0.713638
O O13 0.734177 0.261703 0.766281
O O14 0.780313 0.360797 0.000000
O O15 0.455836 0.342420 0.500000
O O16 0.500000 0.300933 0.226229
O O17 0.450981 0.500000 0.228098
O O18 0.833484 0.000000 0.284486
O O19 0.835112 0.854679 0.000000
O O20 0.701300 0.147635 0.500000
O O21 0.711709 0.000000 0.222020
#
# Coordination Sequence:
#
# PCOD9386990 Si02
#       7
#     4   8   8   8   8   8   8
#     4   9  17  29  46  69  96 124 152 183 222 266
#     4   9  17  30  49  71  93 119 153 190 224 262
#     4   8  14  24  37  55  80 109 142 182 226 267
#     4  10  21  35  50  70  96 125 157 193 234 282
#     4   8  13  20  30  47  74 109 146 179 213 260
#     4   9  18  33  51  69  91 121 154 188 230 276
#     4   9  18  32  49  69  93 121 155 195 236 279
#
# _framework density 20.552339
#
# number of rings (size 3 to 8) (size 9 to 14) (size 15 to 20)
#    0.000    3.154    0.000    2.077    0.000    4.308 
#    0.000    5.000    0.000    2.308    0.000    0.000 
#    0.000    0.615    0.000    6.769    0.000   11.077 
#
# Total GULP energy -290115.401697 kJ/mol
# GULP energy per Si atom -5579.142340 kJ/mol
# Density = 2.050556 g / cm^3
# Si number density = 20.552339 Si / 1000 Ang^3
#
#
#
# Elastic Constant Matrix: (Units=GPa)
#
#
# Indices 1 2 3 4 5 6 
#
# 1 193.7553 164.0212 0.2355 0.0000 0.0000 0.0000
# 2 164.0212 182.2350 6.8555 0.0000 0.0000 0.0000
# 3 0.2355 6.8555 60.5037 0.0000 0.0000 0.0000
# 4 0.0000 0.0000 0.0000 5.6965 0.0000 0.0000
# 5 0.0000 0.0000 0.0000 0.0000 18.3957 0.0000
# 6 0.0000 0.0000 0.0000 0.0000 0.0000 44.5773
#
#
#
# Elastic Compliance Matrix: (Units=1/GPa)
#
#
# Indices 1 2 3 4 5 6 
#
# 1 0.021957 -0.019844 0.002163 0.000000 0.000000 0.000000
# 2 -0.019844 0.023445 -0.002579 0.000000 0.000000 0.000000
# 3 0.002163 -0.002579 0.016812 0.000000 0.000000 0.000000
# 4 0.000000 0.000000 0.000000 0.175547 0.000000 0.000000
# 5 0.000000 0.000000 0.000000 0.000000 0.054360 0.000000
# 6 0.000000 0.000000 0.000000 0.000000 0.000000 0.022433
#
#
# Mechanical properties :
#
#
# Convention : Reuss Voigt Hill
#
# Bulk Modulus (GPa) = 46.09668 86.52425 66.31046
# Shear Modulus (GPa) = 13.80045 31.42602 22.61324
#
# Velocity S-wave (km/s) = 2.59410 3.91458 3.32064
# Velocity P-wave (km/s) = 5.60804 7.91345 6.85831
#
# Compressibility (1/GPa) = 0.02169354
#
# Stress axis : x y z
#
# Youngs Moduli (GPa) = 45.54287 42.65258 59.48217
#
# Poissons Ratio (x) = 0.84640 -0.12866
# Poissons Ratio (y) = 0.90376 0.15342
# Poissons Ratio (z) = -0.09851 0.11001
#
# Static dielectric constant tensor:
#      x y z
#    x 1.704610 0.000000 0.000000 
#    y 0.000000 1.714770 0.000000 
#    z 0.000000 0.000000 1.795550 
# 
# From -- ./inp_files/20023.got.cif
#   From: 2010.05.17/outbox.cif.g08.bks.cpg/sg47_11_cif.got.tgz:20023.got - 2010.06.03 20:15:42.
