data_PCOD9386915
_publ_section_title
;
Structure prediction by ZEFSAII (Michael W. Deem and Ramdas Pophale) SiO2 
 PCOD9386915
Probable space group: P M M M
;
_chemical_formula_sum "Si O2"
_cell_formula_units_Z 64
_cell_length_a 14.625889
_cell_length_b 8.514227
_cell_length_c 26.999456
_cell_angle_alpha 90.000000
_cell_angle_beta 90.000000
_cell_angle_gamma 90.000000
_cell_volume 3362.192010
_symmetry_space_group_name_H-M "P M M M"
_symmetry_group_IT_number 47
_symmetry_cell_setting 'orthorhombic'
loop_
_space_group_symop_operation_xyz
x,y,z
-x,-y,z
x,-y,-z
-x,y,-z
-x,-y,-z
x,y,-z
-x,y,z
x,-y,z
loop_
_atom_site_type_symbol
_atom_site_label
_atom_site_fract_x
_atom_site_fract_y
_atom_site_fract_z
Si Si1 0.389194 0.676736 0.800500
Si Si2 0.106814 0.308828 0.259353
Si Si3 0.605192 0.814606 0.094304
Si Si4 0.892703 0.309011 0.850157
Si Si5 0.776060 0.687826 0.353711
Si Si6 0.105023 0.810479 0.556916
Si Si7 0.785181 0.311854 0.053836
Si Si8 0.394587 0.812643 0.694611
O O1 0.500000 0.670796 0.798832
O O2 0.353356 0.500000 0.807684
O O3 0.368184 0.778791 0.848597
O O4 0.361943 0.741916 0.747231
O O5 0.109472 0.500000 0.259478
O O6 0.139493 0.257165 0.204602
O O7 0.165165 0.254306 0.306120
O O8 0.000000 0.264457 0.264644
O O9 0.500000 0.761719 0.087238
O O10 0.678928 0.728146 0.061007
O O11 0.608778 0.000000 0.085299
O O12 0.886658 0.500000 0.850267
O O13 0.838359 0.249614 0.897934
O O14 0.000000 0.270073 0.854310
O O15 0.772171 0.500000 0.351628
O O16 0.826529 0.740072 0.403340
O O17 0.674781 0.755242 0.346970
O O18 0.124711 0.764903 0.500000
O O19 0.000000 0.763348 0.568112
O O20 0.108806 0.000000 0.559353
O O21 0.796151 0.500000 0.053928
O O22 0.816973 0.252998 0.000000
O O23 0.500000 0.763004 0.686440
O O24 0.393249 0.000000 0.698375
#
# Coordination Sequence:
#
# PCOD9386915 Si02
#       8
#     8   8   8   8   8   8   8   8
#     4   9  17  31  52  76 101 131 170 217 267 317
#     4   8  15  28  46  73 108 140 170 208 261 324
#     4  10  21  36  53  73  99 134 173 211 260 325
#     4   8  15  30  51  73 101 135 168 209 262 318
#     4  11  21  31  52  85 115 147 188 234 282 329
#     4   9  19  37  59  82 113 155 197 234 277 333
#     4  10  21  34  51  77 102 128 171 223 269 316
#     4  10  21  36  52  74 110 153 193 230 270 322
#
# _framework density 19.035201000000001
#
# number of rings (size 3 to 8) (size 9 to 14) (size 15 to 20)
#    0.000    2.625    0.000    3.000    1.750    4.750 
#    0.000    3.125    0.000    0.750    0.000    5.250 
#    0.000    0.000    0.000    0.000    0.000    0.000 
#
# Total GULP energy -357119.510430 kJ/mol
# GULP energy per Si atom -5579.992350 kJ/mol
# Density = 1.899188 g / cm^3
# Si number density = 19.035201 Si / 1000 Ang^3
#
#
#
# Elastic Constant Matrix: (Units=GPa)
#
#
# Indices 1 2 3 4 5 6 
#
# 1 71.3628 2.7880 53.0194 0.0000 0.0000 0.0000
# 2 2.7880 7.3293 6.3330 0.0000 0.0000 0.0000
# 3 53.0194 6.3330 98.4271 0.0000 0.0000 0.0000
# 4 0.0000 0.0000 0.0000 19.6616 0.0000 0.0000
# 5 0.0000 0.0000 0.0000 0.0000 27.5802 0.0000
# 6 0.0000 0.0000 0.0000 0.0000 0.0000 15.1934
#
#
#
# Elastic Compliance Matrix: (Units=1/GPa)
#
#
# Indices 1 2 3 4 5 6 
#
# 1 0.023394 0.002107 -0.012737 0.000000 0.000000 0.000000
# 2 0.002107 0.144661 -0.010443 0.000000 0.000000 0.000000
# 3 -0.012737 -0.010443 0.017693 0.000000 0.000000 0.000000
# 4 0.000000 0.000000 0.000000 0.050860 0.000000 0.000000
# 5 0.000000 0.000000 0.000000 0.000000 0.036258 0.000000
# 6 0.000000 0.000000 0.000000 0.000000 0.000000 0.065818
#
#
# Mechanical properties :
#
#
# Convention : Reuss Voigt Hill
#
# Bulk Modulus (GPa) = 6.96369 33.48887 20.22628
# Shear Modulus (GPa) = 11.66326 20.15230 15.90778
#
# Velocity S-wave (km/s) = 2.47801 3.25728 2.89399
# Velocity P-wave (km/s) = 3.44291 5.63718 4.67073
#
# Compressibility (1/GPa) = 0.14360213
#
# Stress axis : x y z
#
# Youngs Moduli (GPa) = 42.74689 6.91270 56.52075
#
# Poissons Ratio (x) = -0.01456 0.71990
# Poissons Ratio (y) = -0.09007 0.59023
# Poissons Ratio (z) = 0.54446 0.07219
#
# Static dielectric constant tensor:
#      x y z
#    x 1.681090 0.000000 0.000000 
#    y 0.000000 1.654630 0.000000 
#    z 0.000000 0.000000 1.662650 
# 
# From -- ./inp_files/32148.got.cif
#   From: 2010.05.17/outbox.cif.g08.bks.cpg/sg47_17_cif.got.tgz:32148.got - 2010.06.03 20:15:42.
