data_PCOD9386363
_publ_section_title
;
Structure prediction by ZEFSAII (Michael W. Deem and Ramdas Pophale) SiO2 
 PCOD9386363
Probable space group: P M M M
;
_chemical_formula_sum "Si O2"
_cell_formula_units_Z 52
_cell_length_a 14.447470
_cell_length_b 23.367410
_cell_length_c 8.919823
_cell_angle_alpha 90.000000
_cell_angle_beta 90.000000
_cell_angle_gamma 90.000000
_cell_volume 3011.331843
_symmetry_space_group_name_H-M "P M M M"
_symmetry_group_IT_number 47
_symmetry_cell_setting 'orthorhombic'
loop_
_space_group_symop_operation_xyz
x,y,z
-x,-y,z
x,-y,-z
-x,y,-z
-x,-y,-z
x,y,-z
-x,y,z
x,-y,z
loop_
_atom_site_type_symbol
_atom_site_label
_atom_site_fract_x
_atom_site_fract_y
_atom_site_fract_z
Si Si1 0.393095 0.777750 0.177326
Si Si2 0.890988 0.727236 0.178985
Si Si3 0.891004 0.500000 0.679630
Si Si4 0.779717 0.831695 0.321975
Si Si5 0.108001 0.066785 0.179355
Si Si6 0.787362 0.392091 0.179318
Si Si7 0.606291 0.652030 0.320783
O O1 0.500000 0.795173 0.197856
O O2 0.320000 0.820954 0.247539
O O3 0.381259 0.716120 0.256106
O O4 0.375556 0.770795 0.000000
O O5 0.843396 0.779074 0.265841
O O6 0.840212 0.667533 0.213563
O O7 0.000000 0.723393 0.212452
O O8 0.880950 0.737563 0.000000
O O9 0.881546 0.500000 0.500000
O O10 0.842377 0.555785 0.747798
O O11 0.000000 0.500000 0.716899
O O12 0.772207 0.830713 0.500000
O O13 0.826574 0.889831 0.265373
O O14 0.000000 0.078603 0.214859
O O15 0.125847 0.000000 0.212863
O O16 0.118718 0.074644 0.000000
O O17 0.684267 0.386681 0.245228
O O18 0.784467 0.398499 0.000000
O O19 0.618212 0.652947 0.500000
O O20 0.500000 0.634865 0.287739
#
# Coordination Sequence:
#
# PCOD9386363 Si02
#       7
#     8   8   4   8   8   8   8
#     4  10  20  35  56  81 110 147 190 231 274 330
#     4  10  21  36  54  78 110 147 186 230 277 326
#     4  11  25  43  62  83 112 151 191 234 284 339
#     4  12  23  33  52  83 117 149 182 227 285 338
#     4   9  19  37  59  80 107 149 196 236 275 326
#     4  11  22  38  61  85 111 148 192 234 277 332
#     4  10  20  35  57  86 118 148 180 225 283 340
#
# _framework density 17.268106
#
# number of rings (size 3 to 8) (size 9 to 14) (size 15 to 20)
#    0.000    1.615    1.538    4.385    0.000    6.462 
#    0.000    1.154    0.000    2.769    0.000    3.231 
#    0.000    0.000    0.000    0.000    0.000    0.000 
#
# Total GULP energy -290572.302723 kJ/mol
# GULP energy per Si atom -5587.928899 kJ/mol
# Density = 1.722880 g / cm^3
# Si number density = 17.268106 Si / 1000 Ang^3
#
#
#
# Elastic Constant Matrix: (Units=GPa)
#
#
# Indices 1 2 3 4 5 6 
#
# 1 145.7096 72.2703 75.3245 0.0000 0.0000 0.0000
# 2 72.2703 85.8419 58.0418 0.0000 0.0000 0.0000
# 3 75.3245 58.0418 82.7709 0.0000 0.0000 0.0000
# 4 0.0000 0.0000 0.0000 -395.3832 0.0000 0.0000
# 5 0.0000 0.0000 0.0000 0.0000 25.2346 0.0000
# 6 0.0000 0.0000 0.0000 0.0000 0.0000 32.6288
#
#
#
# Elastic Compliance Matrix: (Units=1/GPa)
#
#
# Indices 1 2 3 4 5 6 
#
# 1 0.014539 -0.006264 -0.008838 0.000000 0.000000 0.000000
# 2 -0.006264 0.024852 -0.011726 0.000000 0.000000 0.000000
# 3 -0.008838 -0.011726 0.028347 0.000000 0.000000 0.000000
# 4 0.000000 0.000000 0.000000 -0.002529 0.000000 0.000000
# 5 0.000000 0.000000 0.000000 0.000000 0.039628 0.000000
# 6 0.000000 0.000000 0.000000 0.000000 0.000000 0.030648
#
#
# Mechanical properties :
#
#
# Convention : Reuss Voigt Hill
#
# Bulk Modulus (GPa) = 71.01885 80.62175 75.82030
# Shear Modulus (GPa) = 25.79498 -60.25824 -17.23163
#
# Velocity S-wave (km/s) = 3.86915 -5.91367 -3.16236
# Velocity P-wave (km/s) = 7.82157 0.40126 5.53796
#
# Compressibility (1/GPa) = 0.01408077
#
# Stress axis : x y z
#
# Youngs Moduli (GPa) = 68.78092 40.23815 35.27660
#
# Poissons Ratio (x) = 0.25207 0.31178
# Poissons Ratio (y) = 0.43087 0.41366
# Poissons Ratio (z) = 0.60789 0.47184
#
# Static dielectric constant tensor:
#      x y z
#    x 1.588170 0.000000 0.000000 
#    y 0.000000 1.553180 0.000000 
#    z 0.000000 0.000000 1.571840 
# 
# From -- ./inp_files/6916.got.cif
#   From: 2010.05.17/outbox.cif.g08.bks.cpg/sg47_4_cif.got.tgz:6916.got - 2010.06.03 20:15:42.
