data_PCOD9386436
_publ_section_title
;
Structure prediction by ZEFSAII (Michael W. Deem and Ramdas Pophale) SiO2 
 PCOD9386436
Probable space group: P M M M
;
_chemical_formula_sum "Si O2"
_cell_formula_units_Z 48
_cell_length_a 32.280838
_cell_length_b 8.115127
_cell_length_c 9.460005
_cell_angle_alpha 90.000000
_cell_angle_beta 90.000000
_cell_angle_gamma 90.000000
_cell_volume 2478.172236
_symmetry_space_group_name_H-M "P M M M"
_symmetry_group_IT_number 47
_symmetry_cell_setting 'orthorhombic'
loop_
_space_group_symop_operation_xyz
x,y,z
-x,-y,z
x,-y,-z
-x,y,-z
-x,-y,-z
x,y,-z
-x,y,z
x,-y,z
loop_
_atom_site_type_symbol
_atom_site_label
_atom_site_fract_x
_atom_site_fract_y
_atom_site_fract_z
Si Si1 0.831398 0.801395 0.162087
Si Si2 0.340459 0.303860 0.661212
Si Si3 0.580163 0.802102 0.838623
Si Si4 0.739012 0.800731 0.835421
Si Si5 0.000000 0.692455 0.327356
Si Si6 0.500000 0.201900 0.663497
Si Si7 0.089434 0.301135 0.338551
O O1 0.785376 0.747334 0.209312
O O2 0.870295 0.744527 0.251509
O O3 0.830939 0.000000 0.163243
O O4 0.836307 0.746747 0.000000
O O5 0.342356 0.239435 0.500000
O O6 0.344822 0.500000 0.656048
O O7 0.377674 0.236562 0.756750
O O8 0.297017 0.262404 0.735189
O O9 0.540871 0.742889 0.747675
O O10 0.576473 0.000000 0.846714
O O11 0.580329 0.738761 0.000000
O O12 0.737929 0.000000 0.833297
O O13 0.732668 0.750946 0.000000
O O14 0.044670 0.762586 0.283211
O O15 0.000000 0.500000 0.284760
O O16 0.000000 0.695918 0.500000
O O17 0.500000 0.254886 0.500000
O O18 0.500000 0.000000 0.662528
O O19 0.094279 0.243321 0.500000
O O20 0.086376 0.500000 0.341600
#
# Coordination Sequence:
#
# PCOD9386436 Si02
#       7
#     8   8   8   8   4   4   8
#     4   9  19  35  52  72 101 133 164 202 250 303
#     4  11  24  38  52  76 109 139 169 210 258 305
#     4  10  20  35  57  83 109 139 177 217 255 300
#     4   9  19  37  58  76  96 129 172 211 249 300
#     4   7  12  26  46  67  94 128 164 203 246 291
#     4   9  17  31  54  83 112 141 174 214 258 301
#     4   9  17  30  50  74  98 127 166 209 250 295
#
# _framework density 19.369115000000001
#
# number of rings (size 3 to 8) (size 9 to 14) (size 15 to 20)
#    0.000    2.667    0.000    3.750    0.000    7.667 
#    0.000    6.250    0.000    6.500    0.000    0.000 
#    0.000    0.000    0.000    0.000    0.000    0.000 
#
# Total GULP energy -267687.960374 kJ/mol
# GULP energy per Si atom -5576.832508 kJ/mol
# Density = 1.932503 g / cm^3
# Si number density = 19.369115 Si / 1000 Ang^3
#
#
#
# Elastic Constant Matrix: (Units=GPa)
#
#
# Indices 1 2 3 4 5 6 
#
# 1 211.2462 7.2266 113.6532 0.0000 0.0000 0.0000
# 2 7.2266 8.0365 11.4377 0.0000 0.0000 0.0000
# 3 113.6532 11.4377 134.8536 0.0000 0.0000 0.0000
# 4 0.0000 0.0000 0.0000 22.4569 0.0000 0.0000
# 5 0.0000 0.0000 0.0000 0.0000 39.5907 0.0000
# 6 0.0000 0.0000 0.0000 0.0000 0.0000 31.3575
#
#
#
# Elastic Compliance Matrix: (Units=1/GPa)
#
#
# Indices 1 2 3 4 5 6 
#
# 1 0.008723 0.002979 -0.007604 0.000000 0.000000 0.000000
# 2 0.002979 0.142533 -0.014600 0.000000 0.000000 0.000000
# 3 -0.007604 -0.014600 0.015063 0.000000 0.000000 0.000000
# 4 0.000000 0.000000 0.000000 0.044530 0.000000 0.000000
# 5 0.000000 0.000000 0.000000 0.000000 0.025258 0.000000
# 6 0.000000 0.000000 0.000000 0.000000 0.000000 0.031890
#
#
# Mechanical properties :
#
#
# Convention : Reuss Voigt Hill
#
# Bulk Modulus (GPa) = 7.82055 68.75237 38.28646
# Shear Modulus (GPa) = 14.32375 33.46894 23.89634
#
# Velocity S-wave (km/s) = 2.72235 4.16138 3.51627
# Velocity P-wave (km/s) = 3.73202 7.65913 6.02455
#
# Compressibility (1/GPa) = 0.12786831
#
# Stress axis : x y z
#
# Youngs Moduli (GPa) = 114.63650 7.01592 66.38910
#
# Poissons Ratio (x) = -0.02090 0.50486
# Poissons Ratio (y) = -0.34148 0.96925
# Poissons Ratio (z) = 0.87175 0.10243
#
# Static dielectric constant tensor:
#      x y z
#    x 1.679780 0.000000 0.000000 
#    y 0.000000 1.698020 0.000000 
#    z 0.000000 0.000000 1.663950 
# 
# From -- ./inp_files/13837.got.cif
#   From: 2010.05.17/outbox.cif.g08.bks.cpg/sg47_7_cif.got.tgz:13837.got - 2010.06.03 20:15:42.
