data_PCOD9386165
_publ_section_title
;
Structure prediction by ZEFSAII (Michael W. Deem and Ramdas Pophale) SiO2 
 PCOD9386165
Probable space group: P M M M
;
_chemical_formula_sum "Si O2"
_cell_formula_units_Z 56
_cell_length_a 8.623308
_cell_length_b 14.637321
_cell_length_c 23.171849
_cell_angle_alpha 90.000000
_cell_angle_beta 90.000000
_cell_angle_gamma 90.000000
_cell_volume 2924.800074
_symmetry_space_group_name_H-M "P M M M"
_symmetry_group_IT_number 47
_symmetry_cell_setting 'orthorhombic'
loop_
_space_group_symop_operation_xyz
x,y,z
-x,-y,z
x,-y,-z
-x,y,-z
-x,-y,-z
x,y,-z
-x,y,z
x,-y,z
loop_
_atom_site_type_symbol
_atom_site_label
_atom_site_fract_x
_atom_site_fract_y
_atom_site_fract_z
Si Si1 0.814368 0.205931 0.062892
Si Si2 0.681728 0.770259 0.715209
Si Si3 0.313594 0.393109 0.500000
Si Si4 0.819499 0.603669 0.777136
Si Si5 0.816121 0.247347 0.588591
Si Si6 0.312618 0.106192 0.823123
Si Si7 0.313936 0.894553 0.500000
Si Si8 0.313810 0.398742 0.906173
O O1 0.748850 0.154597 0.118974
O O2 0.752046 0.309605 0.063426
O O3 0.000000 0.207210 0.067256
O O4 0.771992 0.164800 0.000000
O O5 0.500000 0.787400 0.704632
O O6 0.710142 0.671663 0.743226
O O7 0.769306 0.766508 0.654731
O O8 0.737119 0.841445 0.764573
O O9 0.265537 0.500000 0.500000
O O10 0.500000 0.389947 0.500000
O O11 0.254311 0.336210 0.444130
O O12 0.809288 0.500000 0.755336
O O13 0.763229 0.603553 0.843021
O O14 0.000000 0.632676 0.773905
O O15 0.751489 0.160130 0.554356
O O16 0.000000 0.252921 0.582677
O O17 0.500000 0.111655 0.824634
O O18 0.266889 0.000000 0.821875
O O19 0.500000 0.888667 0.500000
O O20 0.268139 0.000000 0.500000
O O21 0.500000 0.390754 0.901638
O O22 0.280073 0.500000 0.930831
#
# Coordination Sequence:
#
# PCOD9386165 Si02
#       8
#     8   8   4   8   8   8   4   8
#     4  11  24  40  60  87 119 155 196 246 304 365
#     4  11  22  38  61  88 121 159 200 247 298 355
#     4  10  21  40  65  91 124 168 215 259 300 349
#     4  10  20  34  55  84 118 154 190 233 287 345
#     4  11  23  38  60  91 126 162 201 249 301 354
#     4  10  23  43  65  88 114 150 198 252 309 367
#     4  10  21  40  65  89 118 156 197 245 298 351
#     4  10  20  35  57  85 116 152 193 236 285 345
#
# _framework density 19.146608000000001
#
# number of rings (size 3 to 8) (size 9 to 14) (size 15 to 20)
#    0.000    1.571    1.429    4.286    0.000    6.571 
#    0.000    4.286    0.000    0.000    0.000    0.000 
#    0.000    0.000    0.000    0.000    0.000    0.000 
#
# Total GULP energy -312679.786668 kJ/mol
# GULP energy per Si atom -5583.567619 kJ/mol
# Density = 1.910303 g / cm^3
# Si number density = 19.146608 Si / 1000 Ang^3
#
#
#
# Elastic Constant Matrix: (Units=GPa)
#
#
# Indices 1 2 3 4 5 6 
#
# 1 58.7825 39.4161 29.4650 0.0000 0.0000 0.0000
# 2 39.4161 135.0152 68.6989 0.0000 0.0000 0.0000
# 3 29.4650 68.6989 123.5994 0.0000 0.0000 0.0000
# 4 0.0000 0.0000 0.0000 -0.0478 0.0000 0.0000
# 5 0.0000 0.0000 0.0000 0.0000 28.3019 0.0000
# 6 0.0000 0.0000 0.0000 0.0000 0.0000 -42.0803
#
#
#
# Elastic Compliance Matrix: (Units=1/GPa)
#
#
# Indices 1 2 3 4 5 6 
#
# 1 0.021609 -0.005141 -0.002294 0.000000 0.000000 0.000000
# 2 -0.005141 0.011551 -0.005194 0.000000 0.000000 0.000000
# 3 -0.002294 -0.005194 0.011525 0.000000 0.000000 0.000000
# 4 0.000000 0.000000 0.000000-20.937542 0.000000 0.000000
# 5 0.000000 0.000000 0.000000 0.000000 0.035333 0.000000
# 6 0.000000 0.000000 0.000000 0.000000 0.000000 -0.023764
#
#
# Mechanical properties :
#
#
# Convention : Reuss Voigt Hill
#
# Bulk Modulus (GPa) = 51.47930 65.83967 58.65949
# Shear Modulus (GPa) = -0.23981 9.22258 4.49138
#
# Velocity S-wave (km/s) = -0.35429 2.19711 1.53326
# Velocity P-wave (km/s) = 5.17474 6.39517 5.81705
#
# Compressibility (1/GPa) = 0.01942528
#
# Stress axis : x y z
#
# Youngs Moduli (GPa) = 46.27665 86.57585 86.77109
#
# Poissons Ratio (x) = 0.44512 0.19903
# Poissons Ratio (y) = 0.23793 0.45072
# Poissons Ratio (z) = 0.10615 0.44971
#
# Static dielectric constant tensor:
#      x y z
#    x 1.646890 0.000000 0.000000 
#    y 0.000000 1.666770 0.000000 
#    z 0.000000 0.000000 1.638870 
# 
# From -- ./inp_files/29804.got.cif
#   From: 2010.05.17/outbox.cif.g08.bks.cpg/sg47_15_cif.got.tgz:29804.got - 2010.06.03 20:15:42.
