data_PCOD9386950
_publ_section_title
;
Structure prediction by ZEFSAII (Michael W. Deem and Ramdas Pophale) SiO2 
 PCOD9386950
Probable space group: P M M M
;
_chemical_formula_sum "Si O2"
_cell_formula_units_Z 36
_cell_length_a 7.859698
_cell_length_b 24.512645
_cell_length_c 9.726173
_cell_angle_alpha 90.000000
_cell_angle_beta 90.000000
_cell_angle_gamma 90.000000
_cell_volume 1873.863815
_symmetry_space_group_name_H-M "P M M M"
_symmetry_group_IT_number 47
_symmetry_cell_setting 'orthorhombic'
loop_
_space_group_symop_operation_xyz
x,y,z
-x,-y,z
x,-y,-z
-x,y,-z
-x,-y,-z
x,y,-z
-x,y,z
x,-y,z
loop_
_atom_site_type_symbol
_atom_site_label
_atom_site_fract_x
_atom_site_fract_y
_atom_site_fract_z
Si Si1 0.297802 0.441313 0.166664
Si Si2 0.295039 0.676731 0.842900
Si Si3 0.296506 0.100547 0.656898
Si Si4 0.291104 0.000000 0.841810
Si Si5 0.202710 0.778543 0.655832
O O1 0.500000 0.442522 0.198224
O O2 0.225638 0.500000 0.213316
O O3 0.230276 0.382214 0.211892
O O4 0.284274 0.440284 0.000000
O O5 0.500000 0.672306 0.848792
O O6 0.253107 0.728160 0.750142
O O7 0.234044 0.684442 0.000000
O O8 0.229351 0.095173 0.500000
O O9 0.500000 0.094185 0.649013
O O10 0.260960 0.161953 0.706021
O O11 0.233994 0.053548 0.758347
O O12 0.500000 0.000000 0.842828
O O13 0.236022 0.000000 0.000000
O O14 0.270717 0.771773 0.500000
O O15 0.000000 0.779895 0.649434
#
# Coordination Sequence:
#
# PCOD9386950 Si02
#       5
#     8   8   8   4   8
#     4   7  10  19  38  65  94 119 145 184 234 283
#     4   9  17  29  48  74  98 121 154 196 241 287
#     4   9  17  31  51  71  91 119 155 191 228 273
#     4   9  17  29  48  75 100 118 142 183 232 277
#     4  10  21  35  49  67  94 129 166 200 235 276
#
# _framework density 19.211642999999999
#
# number of rings (size 3 to 8) (size 9 to 14) (size 15 to 20)
#    0.000    3.222    0.000    3.000    0.000    4.000 
#    0.000    2.778    0.000    4.667    0.000    7.778 
#    0.000    0.000    0.000    0.000    0.000    0.000 
#
# Total GULP energy -200479.391183 kJ/mol
# GULP energy per Si atom -5568.871977 kJ/mol
# Density = 1.916792 g / cm^3
# Si number density = 19.211643 Si / 1000 Ang^3
#
#
#
# Elastic Constant Matrix: (Units=GPa)
#
#
# Indices 1 2 3 4 5 6 
#
# 1 20.0324 6.1370 6.0854 0.0000 0.0000 0.0000
# 2 6.1370 245.7315 102.2422 0.0000 0.0000 0.0000
# 3 6.0854 102.2422 67.9420 0.0000 0.0000 0.0000
# 4 0.0000 0.0000 0.0000 93.1690 0.0000 0.0000
# 5 0.0000 0.0000 0.0000 0.0000 47.4550 0.0000
# 6 0.0000 0.0000 0.0000 0.0000 0.0000 -39.9863
#
#
#
# Elastic Compliance Matrix: (Units=1/GPa)
#
#
# Indices 1 2 3 4 5 6 
#
# 1 0.051578 0.001696 -0.007172 0.000000 0.000000 0.000000
# 2 0.001696 0.010940 -0.016615 0.000000 0.000000 0.000000
# 3 -0.007172 -0.016615 0.040364 0.000000 0.000000 0.000000
# 4 0.000000 0.000000 0.000000 0.010733 0.000000 0.000000
# 5 0.000000 0.000000 0.000000 0.000000 0.021073 0.000000
# 6 0.000000 0.000000 0.000000 0.000000 0.000000 -0.025009
#
#
# Mechanical properties :
#
#
# Convention : Reuss Voigt Hill
#
# Bulk Modulus (GPa) = 17.03563 62.51500 39.77532
# Shear Modulus (GPa) = 28.83011 34.74363 31.78687
#
# Velocity S-wave (km/s) = 3.87804 4.25722 4.07204
# Velocity P-wave (km/s) = 5.37948 7.53499 6.54656
#
# Compressibility (1/GPa) = 0.05870049
#
# Stress axis : x y z
#
# Youngs Moduli (GPa) = 19.38798 91.40476 24.77429
#
# Poissons Ratio (x) = -0.15501 0.17767
# Poissons Ratio (y) = -0.03288 0.41164
# Poissons Ratio (z) = 0.13905 1.51873
#
# Static dielectric constant tensor:
#      x y z
#    x 1.687410 0.000000 0.000000 
#    y 0.000000 1.705080 0.000000 
#    z 0.000000 0.000000 1.664410 
# 
# From -- ./inp_files/1401.got.cif
#   From: 2010.05.17/outbox.cif.g08.bks.cpg/sg47_1_cif.got.tgz:1401.got - 2010.06.03 20:15:42.
