data_PCOD9386631
_publ_section_title
;
Structure prediction by ZEFSAII (Michael W. Deem and Ramdas Pophale) SiO2 
 PCOD9386631
Probable space group: P M M M
;
_chemical_formula_sum "Si O2"
_cell_formula_units_Z 48
_cell_length_a 8.182620
_cell_length_b 16.082905
_cell_length_c 18.205723
_cell_angle_alpha 90.000000
_cell_angle_beta 90.000000
_cell_angle_gamma 90.000000
_cell_volume 2395.878611
_symmetry_space_group_name_H-M "P M M M"
_symmetry_group_IT_number 47
_symmetry_cell_setting 'orthorhombic'
loop_
_space_group_symop_operation_xyz
x,y,z
-x,-y,z
x,-y,-z
-x,y,-z
-x,-y,-z
x,y,-z
-x,y,z
x,-y,z
loop_
_atom_site_type_symbol
_atom_site_label
_atom_site_fract_x
_atom_site_fract_y
_atom_site_fract_z
Si Si1 0.802426 0.265822 0.917392
Si Si2 0.194824 0.405422 0.500000
Si Si3 0.302872 0.328172 0.653396
Si Si4 0.805204 0.091849 0.853545
Si Si5 0.694978 0.141912 0.307155
Si Si6 0.302638 0.592382 0.804124
Si Si7 0.803528 0.000000 0.415207
O O1 0.741348 0.173633 0.895115
O O2 0.750098 0.334974 0.859018
O O3 0.000000 0.263123 0.916549
O O4 0.748664 0.286523 0.000000
O O5 0.260827 0.500000 0.500000
O O6 0.247550 0.359238 0.574212
O O7 0.000000 0.409214 0.500000
O O8 0.500000 0.328006 0.652941
O O9 0.248593 0.234627 0.672681
O O10 0.248303 0.385914 0.721184
O O11 0.775134 0.108618 0.767439
O O12 0.000000 0.089229 0.866547
O O13 0.739021 0.000000 0.872941
O O14 0.500000 0.143579 0.295292
O O15 0.736811 0.080048 0.372851
O O16 0.500000 0.591834 0.803744
O O17 0.245463 0.500000 0.825483
O O18 0.754348 0.000000 0.500000
O O19 0.000000 0.000000 0.410871
#
# Coordination Sequence:
#
# PCOD9386631 Si02
#       7
#     8   4   8   8   8   8   4
#     4  10  22  39  59  87 123 159 196 244 299 355
#     4  11  25  41  59  88 121 152 191 241 294 351
#     4  10  22  40  62  87 116 154 197 243 298 354
#     4  10  20  36  60  87 116 154 196 237 288 352
#     4  11  22  37  60  87 114 149 195 245 289 340
#     4  10  21  39  63  88 115 153 201 247 294 354
#     4  11  25  41  57  83 120 159 196 237 291 350
#
# _framework density 20.034403000000001
#
# number of rings (size 3 to 8) (size 9 to 14) (size 15 to 20)
#    0.000    1.667    2.500    1.500    1.167    5.333 
#    0.000    3.333    0.000    0.000    0.000    2.333 
#    0.000    0.000    0.000    0.000    0.000    0.000 
#
# Total GULP energy -268155.149725 kJ/mol
# GULP energy per Si atom -5586.565619 kJ/mol
# Density = 1.998880 g / cm^3
# Si number density = 20.034403 Si / 1000 Ang^3
#
#
#
# Elastic Constant Matrix: (Units=GPa)
#
#
# Indices 1 2 3 4 5 6 
#
# 1 9.7247 15.1173 3.0652 0.0000 0.0000 0.0000
# 2 15.1173 166.8976 57.7515 0.0000 0.0000 0.0000
# 3 3.0652 57.7515 123.9660 0.0000 0.0000 0.0000
# 4 0.0000 0.0000 0.0000 13.3848 0.0000 0.0000
# 5 0.0000 0.0000 0.0000 0.0000 42.8190 0.0000
# 6 0.0000 0.0000 0.0000 0.0000 0.0000 24.1384
#
#
#
# Elastic Compliance Matrix: (Units=1/GPa)
#
#
# Indices 1 2 3 4 5 6 
#
# 1 0.120333 -0.011767 0.002506 0.000000 0.000000 0.000000
# 2 -0.011767 0.008294 -0.003573 0.000000 0.000000 0.000000
# 3 0.002506 -0.003573 0.009669 0.000000 0.000000 0.000000
# 4 0.000000 0.000000 0.000000 0.074711 0.000000 0.000000
# 5 0.000000 0.000000 0.000000 0.000000 0.023354 0.000000
# 6 0.000000 0.000000 0.000000 0.000000 0.000000 0.041428
#
#
# Mechanical properties :
#
#
# Convention : Reuss Voigt Hill
#
# Bulk Modulus (GPa) = 8.87870 50.27292 29.57581
# Shear Modulus (GPa) = 14.66282 31.04540 22.85411
#
# Velocity S-wave (km/s) = 2.70827 3.94077 3.38115
# Velocity P-wave (km/s) = 3.77107 6.77156 5.48065
#
# Compressibility (1/GPa) = 0.11262909
#
# Stress axis : x y z
#
# Youngs Moduli (GPa) = 8.31030 120.57169 103.42090
#
# Poissons Ratio (x) = 1.41874 -0.25921
# Poissons Ratio (y) = 0.09779 0.36951
# Poissons Ratio (z) = -0.02083 0.43079
#
# Static dielectric constant tensor:
#      x y z
#    x 1.713280 0.000000 0.000000 
#    y 0.000000 1.716070 0.000000 
#    z 0.000000 0.000000 1.664570 
# 
# From -- ./inp_files/9251.got.cif
#   From: 2010.05.17/outbox.cif.g08.bks.cpg/sg47_5_cif.got.tgz:9251.got - 2010.06.03 20:15:42.
