data_PCOD9386531
_publ_section_title
;
Structure prediction by ZEFSAII (Michael W. Deem and Ramdas Pophale) SiO2 
 PCOD9386531
Probable space group: P M M M
;
_chemical_formula_sum "Si O2"
_cell_formula_units_Z 52
_cell_length_a 7.879792
_cell_length_b 12.837733
_cell_length_c 28.616747
_cell_angle_alpha 90.000000
_cell_angle_beta 90.000000
_cell_angle_gamma 90.000000
_cell_volume 2894.831946
_symmetry_space_group_name_H-M "P M M M"
_symmetry_group_IT_number 47
_symmetry_cell_setting 'orthorhombic'
loop_
_space_group_symop_operation_xyz
x,y,z
-x,-y,z
x,-y,-z
-x,y,-z
-x,-y,-z
x,y,-z
-x,y,z
x,-y,z
loop_
_atom_site_type_symbol
_atom_site_label
_atom_site_fract_x
_atom_site_fract_y
_atom_site_fract_z
Si Si1 0.792760 0.378944 0.447721
Si Si2 0.198099 0.879865 0.176830
Si Si3 0.699491 0.882135 0.279754
Si Si4 0.295081 0.500000 0.809374
Si Si5 0.704764 0.500000 0.702908
Si Si6 0.200793 0.709001 0.648107
Si Si7 0.696040 0.684956 0.879084
Si Si8 0.000000 0.625341 0.055105
O O1 0.739021 0.347898 0.500000
O O2 0.743302 0.500000 0.440301
O O3 0.732492 0.309693 0.404464
O O4 0.000000 0.377813 0.447174
O O5 0.214807 0.848043 0.231269
O O6 0.292738 0.798559 0.144086
O O7 0.000000 0.877322 0.164166
O O8 0.258224 0.000000 0.173665
O O9 0.500000 0.884833 0.269503
O O10 0.727359 0.803998 0.322157
O O11 0.757611 0.000000 0.290581
O O12 0.500000 0.500000 0.806187
O O13 0.231790 0.500000 0.756408
O O14 0.249659 0.398078 0.839087
O O15 0.500000 0.500000 0.703042
O O16 0.765220 0.397333 0.676220
O O17 0.000000 0.725115 0.645031
O O18 0.500000 0.662475 0.892429
O O19 0.831649 0.670660 0.920214
O O20 0.000000 0.500000 0.061727
O O21 0.000000 0.646774 0.000000
#
# Coordination Sequence:
#
# PCOD9386531 Si02
#       8
#     8   8   8   4   4   8   8   4
#     4   8  14  27  48  71  97 129 169 220 276 332
#     4  10  20  35  58  87 116 149 191 234 276 329
#     4  10  21  36  52  74 108 150 188 220 266 330
#     4   9  20  34  50  76 108 147 187 224 268 330
#     4  11  21  33  48  72 110 146 172 205 266 338
#     4  11  20  32  50  76 104 133 176 226 276 326
#     4  11  21  38  61  86 118 153 193 237 286 339
#     4  11  24  42  63  91 123 155 196 241 289 340
#
# _framework density 17.963047
#
# number of rings (size 3 to 8) (size 9 to 14) (size 15 to 20)
#    0.000    1.923    2.308    3.000    0.000    3.385 
#    2.769    0.769    0.000    3.692    0.000    4.308 
#    0.000    0.000    0.000    0.000    0.000    0.000 
#
# Total GULP energy -290240.287157 kJ/mol
# GULP energy per Si atom -5581.543984 kJ/mol
# Density = 1.792216 g / cm^3
# Si number density = 17.963047 Si / 1000 Ang^3
#
#
#
# Elastic Constant Matrix: (Units=GPa)
#
#
# Indices 1 2 3 4 5 6 
#
# 1 56.5706 12.9522 27.0975 0.0000 0.0000 0.0000
# 2 12.9522 75.2414 52.5511 0.0000 0.0000 0.0000
# 3 27.0975 52.5511 130.0396 0.0000 0.0000 0.0000
# 4 0.0000 0.0000 0.0000 21.7059 0.0000 0.0000
# 5 0.0000 0.0000 0.0000 0.0000 -14.9524 0.0000
# 6 0.0000 0.0000 0.0000 0.0000 0.0000 25.7083
#
#
#
# Elastic Compliance Matrix: (Units=1/GPa)
#
#
# Indices 1 2 3 4 5 6 
#
# 1 0.019666 -0.000729 -0.003803 0.000000 0.000000 0.000000
# 2 -0.000729 0.018544 -0.007342 0.000000 0.000000 0.000000
# 3 -0.003803 -0.007342 0.011450 0.000000 0.000000 0.000000
# 4 0.000000 0.000000 0.000000 0.046070 0.000000 0.000000
# 5 0.000000 0.000000 0.000000 0.000000 -0.066879 0.000000
# 6 0.000000 0.000000 0.000000 0.000000 0.000000 0.038898
#
#
# Mechanical properties :
#
#
# Convention : Reuss Voigt Hill
#
# Bulk Modulus (GPa) = 38.59415 49.67257 44.13336
# Shear Modulus (GPa) = 49.93296 17.77574 33.85435
#
# Velocity S-wave (km/s) = 5.27806 3.14916 4.34598
# Velocity P-wave (km/s) = 7.66002 6.39809 7.05732
#
# Compressibility (1/GPa) = 0.02591066
#
# Stress axis : x y z
#
# Youngs Moduli (GPa) = 50.84982 53.92601 87.33980
#
# Poissons Ratio (x) = 0.03931 0.33219
# Poissons Ratio (y) = 0.03706 0.64125
# Poissons Ratio (z) = 0.19340 0.39593
#
# Static dielectric constant tensor:
#      x y z
#    x 1.651020 0.000000 0.000000 
#    y 0.000000 1.605510 0.000000 
#    z 0.000000 0.000000 1.608040 
# 
# From -- ./inp_files/33263.got.cif
#   From: 2010.05.17/outbox.cif.g08.bks.cpg/sg47_17_cif.got.tgz:33263.got - 2010.06.03 20:15:42.
