data_PCOD9386942
_publ_section_title
;
Structure prediction by ZEFSAII (Michael W. Deem and Ramdas Pophale) SiO2 
 PCOD9386942
Probable space group: P M M M
;
_chemical_formula_sum "Si O2"
_cell_formula_units_Z 48
_cell_length_a 32.453539
_cell_length_b 9.740255
_cell_length_c 7.512064
_cell_angle_alpha 90.000000
_cell_angle_beta 90.000000
_cell_angle_gamma 90.000000
_cell_volume 2374.606591
_symmetry_space_group_name_H-M "P M M M"
_symmetry_group_IT_number 47
_symmetry_cell_setting 'orthorhombic'
loop_
_space_group_symop_operation_xyz
x,y,z
-x,-y,z
x,-y,-z
-x,y,-z
-x,-y,-z
x,y,-z
-x,y,z
x,-y,z
loop_
_atom_site_type_symbol
_atom_site_label
_atom_site_fract_x
_atom_site_fract_y
_atom_site_fract_z
Si Si1 0.213551 0.156637 0.212755
Si Si2 0.045859 0.658659 0.717252
Si Si3 0.544298 0.165958 0.288162
Si Si4 0.287400 0.655268 0.787602
Si Si5 0.879012 0.843719 0.286128
Si Si6 0.634097 0.157670 0.285354
O O1 0.248731 0.257183 0.283545
O O2 0.167066 0.206779 0.245758
O O3 0.217142 0.000000 0.282788
O O4 0.218817 0.148285 0.000000
O O5 0.046315 0.660721 0.500000
O O6 0.050750 0.500000 0.770420
O O7 0.083682 0.750568 0.780488
O O8 0.000000 0.705570 0.771566
O O9 0.543678 0.195542 0.500000
O O10 0.500000 0.214754 0.215140
O O11 0.589169 0.208751 0.219110
O O12 0.544616 0.000000 0.270652
O O13 0.289864 0.500000 0.717035
O O14 0.328843 0.741963 0.759485
O O15 0.281661 0.644867 0.000000
O O16 0.882478 0.848448 0.500000
O O17 0.882003 0.000000 0.218702
O O18 0.631419 0.151234 0.500000
O O19 0.641411 0.000000 0.223647
#
# Coordination Sequence:
#
# PCOD9386942 Si02
#       6
#     8   8   8   8   8   8
#     4   9  18  33  50  65  85 116 150 183 225 276
#     4   8  14  25  41  62  89 119 147 174 208 253
#     4   7  10  19  38  65  94 119 144 179 223 268
#     4  10  21  35  49  66  90 122 159 194 229 274
#     4   9  17  28  44  68  92 111 138 180 223 259
#     4   9  17  29  48  74  98 120 150 189 232 275
#
# _framework density 20.213873
#
# number of rings (size 3 to 8) (size 9 to 14) (size 15 to 20)
#    0.000    3.333    0.000    2.500    0.000    3.000 
#    0.000    3.333    0.000    1.500    0.000    9.333 
#    0.000    0.000    0.000    0.000    0.000    0.000 
#
# Total GULP energy -267477.619723 kJ/mol
# GULP energy per Si atom -5572.450411 kJ/mol
# Density = 2.016787 g / cm^3
# Si number density = 20.213873 Si / 1000 Ang^3
#
#
#
# Elastic Constant Matrix: (Units=GPa)
#
#
# Indices 1 2 3 4 5 6 
#
# 1 249.2595 116.8124 0.9972 0.0000 0.0000 0.0000
# 2 116.8124 93.5750 5.0487 0.0000 0.0000 0.0000
# 3 0.9972 5.0487 52.4563 0.0000 0.0000 0.0000
# 4 0.0000 0.0000 0.0000 8.8716 0.0000 0.0000
# 5 0.0000 0.0000 0.0000 0.0000 32.3686 0.0000
# 6 0.0000 0.0000 0.0000 0.0000 0.0000 -40.0353
#
#
#
# Elastic Compliance Matrix: (Units=1/GPa)
#
#
# Indices 1 2 3 4 5 6 
#
# 1 0.009718 -0.012185 0.000988 0.000000 0.000000 0.000000
# 2 -0.012185 0.026020 -0.002273 0.000000 0.000000 0.000000
# 3 0.000988 -0.002273 0.019263 0.000000 0.000000 0.000000
# 4 0.000000 0.000000 0.000000 0.112719 0.000000 0.000000
# 5 0.000000 0.000000 0.000000 0.000000 0.030894 0.000000
# 6 0.000000 0.000000 0.000000 0.000000 0.000000 -0.024978
#
#
# Mechanical properties :
#
#
# Convention : Reuss Voigt Hill
#
# Bulk Modulus (GPa) = 35.63469 71.22305 53.42887
# Shear Modulus (GPa) = 23.81748 18.40314 21.11031
#
# Velocity S-wave (km/s) = 3.43632 3.02059 3.23514
# Velocity P-wave (km/s) = 5.78027 6.89032 6.35956
#
# Compressibility (1/GPa) = 0.02806254
#
# Stress axis : x y z
#
# Youngs Moduli (GPa) = 102.89974 38.43210 51.91184
#
# Poissons Ratio (x) = 0.46829 -0.05129
# Poissons Ratio (y) = 1.25381 0.11798
# Poissons Ratio (z) = -0.10166 0.08734
#
# Static dielectric constant tensor:
#      x y z
#    x 1.735740 0.000000 0.000000 
#    y 0.000000 1.689500 0.000000 
#    z 0.000000 0.000000 1.772170 
# 
# From -- ./inp_files/4465.got.cif
#   From: 2010.05.17/outbox.cif.g08.bks.cpg/sg47_3_cif.got.tgz:4465.got - 2010.06.03 20:15:42.
