data_PCOD9386134
_publ_section_title
;
Structure prediction by ZEFSAII (Michael W. Deem and Ramdas Pophale) SiO2 
 PCOD9386134
Probable space group: P M M M
;
_chemical_formula_sum "Si O2"
_cell_formula_units_Z 40
_cell_length_a 15.481489
_cell_length_b 9.121334
_cell_length_c 14.839726
_cell_angle_alpha 90.000000
_cell_angle_beta 90.000000
_cell_angle_gamma 90.000000
_cell_volume 2095.544895
_symmetry_space_group_name_H-M "P M M M"
_symmetry_group_IT_number 47
_symmetry_cell_setting 'orthorhombic'
loop_
_space_group_symop_operation_xyz
x,y,z
-x,-y,z
x,-y,-z
-x,y,-z
-x,-y,-z
x,y,-z
-x,y,z
x,-y,z
loop_
_atom_site_type_symbol
_atom_site_label
_atom_site_fract_x
_atom_site_fract_y
_atom_site_fract_z
Si Si1 0.902227 0.678931 0.500000
Si Si2 0.768097 0.324889 0.351690
Si Si3 0.102114 0.824207 0.000000
Si Si4 0.596184 0.829272 0.138073
Si Si5 0.772640 0.324867 0.139694
Si Si6 0.594187 0.829657 0.642840
O O1 0.904767 0.500000 0.500000
O O2 0.847887 0.724363 0.587447
O O3 0.000000 0.732083 0.500000
O O4 0.760948 0.500000 0.358796
O O5 0.780629 0.290752 0.246211
O O6 0.678688 0.256340 0.385840
O O7 0.152202 0.754749 0.084823
O O8 0.000000 0.789759 0.000000
O O9 0.111776 0.000000 0.000000
O O10 0.500000 0.782048 0.108200
O O11 0.678487 0.734807 0.109694
O O12 0.594517 0.824502 0.247549
O O13 0.607846 0.000000 0.112534
O O14 0.777000 0.500000 0.127281
O O15 0.500000 0.773393 0.613379
O O16 0.600508 0.000000 0.616997
#
# Coordination Sequence:
#
# PCOD9386134 Si02
#       6
#     4   8   4   8   8   8
#     4   9  18  34  54  75 102 136 175 217 260 313
#     4   9  18  32  53  80 106 137 175 213 257 305
#     4  11  25  43  60  77 100 135 177 218 264 321
#     4   8  14  27  49  76 107 144 180 210 247 303
#     4  10  20  34  55  83 111 137 170 218 269 311
#     4   8  14  26  46  72 103 140 176 209 251 302
#
# _framework density 19.088114000000001
#
# number of rings (size 3 to 8) (size 9 to 14) (size 15 to 20)
#    0.000    3.000    0.000    2.100    0.000    3.200 
#    0.000    7.500    0.000    7.200    0.000    0.000 
#    0.000    0.000    0.000    0.000    0.000    0.000 
#
# Total GULP energy -223101.252004 kJ/mol
# GULP energy per Si atom -5577.531300 kJ/mol
# Density = 1.904467 g / cm^3
# Si number density = 19.088114 Si / 1000 Ang^3
#
#
#
# Elastic Constant Matrix: (Units=GPa)
#
#
# Indices 1 2 3 4 5 6 
#
# 1 228.7793 73.5074 77.1696 0.0000 0.0000 0.0000
# 2 73.5074 47.3171 37.4218 0.0000 0.0000 0.0000
# 3 77.1696 37.4218 88.5541 0.0000 0.0000 0.0000
# 4 0.0000 0.0000 0.0000 6.8241 0.0000 0.0000
# 5 0.0000 0.0000 0.0000 0.0000 37.4792 0.0000
# 6 0.0000 0.0000 0.0000 0.0000 0.0000 31.5795
#
#
#
# Elastic Compliance Matrix: (Units=1/GPa)
#
#
# Indices 1 2 3 4 5 6 
#
# 1 0.009222 -0.011971 -0.002977 0.000000 0.000000 0.000000
# 2 -0.011971 0.047284 -0.009549 0.000000 0.000000 0.000000
# 3 -0.002977 -0.009549 0.017922 0.000000 0.000000 0.000000
# 4 0.000000 0.000000 0.000000 0.146539 0.000000 0.000000
# 5 0.000000 0.000000 0.000000 0.000000 0.026681 0.000000
# 6 0.000000 0.000000 0.000000 0.000000 0.000000 0.031666
#
#
# Mechanical properties :
#
#
# Convention : Reuss Voigt Hill
#
# Bulk Modulus (GPa) = 39.32004 82.31646 60.81825
# Shear Modulus (GPa) = 14.84616 26.94668 20.89642
#
# Velocity S-wave (km/s) = 2.79188 3.76133 3.31227
# Velocity P-wave (km/s) = 5.57106 7.87919 6.82343
#
# Compressibility (1/GPa) = 0.02543232
#
# Stress axis : x y z
#
# Youngs Moduli (GPa) = 108.43979 21.14890 55.79624
#
# Poissons Ratio (x) = 0.25318 0.16612
# Poissons Ratio (y) = 1.29817 0.53281
# Poissons Ratio (z) = 0.32285 0.20195
#
# Static dielectric constant tensor:
#      x y z
#    x 1.649550 0.000000 0.000000 
#    y 0.000000 1.631320 0.000000 
#    z 0.000000 0.000000 1.721680 
# 
# From -- ./inp_files/23374.got.cif
#   From: 2010.05.17/outbox.cif.g08.bks.cpg/sg47_12_cif.got.tgz:23374.got - 2010.06.03 20:15:42.
