data_PCOD9386748
_publ_section_title
;
Structure prediction by ZEFSAII (Michael W. Deem and Ramdas Pophale) SiO2 
 PCOD9386748
Probable space group: P M M M
;
_chemical_formula_sum "Si O2"
_cell_formula_units_Z 56
_cell_length_a 22.475838
_cell_length_b 15.231548
_cell_length_c 9.181439
_cell_angle_alpha 90.000000
_cell_angle_beta 90.000000
_cell_angle_gamma 90.000000
_cell_volume 3143.190403
_symmetry_space_group_name_H-M "P M M M"
_symmetry_group_IT_number 47
_symmetry_cell_setting 'orthorhombic'
loop_
_space_group_symop_operation_xyz
x,y,z
-x,-y,z
x,-y,-z
-x,y,-z
-x,-y,-z
x,y,-z
-x,y,z
x,-y,z
loop_
_atom_site_type_symbol
_atom_site_label
_atom_site_fract_x
_atom_site_fract_y
_atom_site_fract_z
Si Si1 0.652270 0.636858 0.670191
Si Si2 0.500000 0.105521 0.830286
Si Si3 0.839311 0.769408 0.174773
Si Si4 0.430814 0.500000 0.825722
Si Si5 0.380243 0.158728 0.330495
Si Si6 0.210142 0.398675 0.675037
Si Si7 0.071044 0.899448 0.326998
Si Si8 0.734706 0.097022 0.827601
O O1 0.647030 0.611021 0.500000
O O2 0.605024 0.582798 0.763045
O O3 0.638231 0.739436 0.681294
O O4 0.720302 0.617015 0.714778
O O5 0.558802 0.141057 0.752726
O O6 0.500000 0.000000 0.820161
O O7 0.500000 0.130145 0.000000
O O8 0.829552 0.673906 0.244756
O O9 0.893608 0.825589 0.239554
O O10 0.780920 0.827410 0.213220
O O11 0.843510 0.763802 0.000000
O O12 0.500000 0.500000 0.780029
O O13 0.428823 0.500000 0.000000
O O14 0.387039 0.136179 0.500000
O O15 0.326234 0.106083 0.258983
O O16 0.205651 0.386614 0.500000
O O17 0.195066 0.500000 0.708722
O O18 0.083672 0.891063 0.500000
O O19 0.000000 0.890380 0.307961
O O20 0.086854 0.000000 0.283455
O O21 0.760801 0.000000 0.802623
O O22 0.722262 0.105359 0.000000
#
# Coordination Sequence:
#
# PCOD9386748 Si02
#       8
#     8   4   8   4   8   8   8   8
#     4  10  21  39  59  80 107 140 179 228 286 341
#     4  11  25  43  59  74 101 142 181 223 280 343
#     4  11  22  35  56  88 124 157 193 239 291 346
#     4  11  25  39  55  83 111 139 180 227 282 351
#     4  11  23  38  58  82 105 135 182 234 279 330
#     4  10  20  38  61  83 111 149 193 239 289 347
#     4   9  19  37  61  89 123 165 209 247 284 333
#     4  10  21  36  53  78 115 153 185 223 279 340
#
# _framework density 17.816293000000002
#
# number of rings (size 3 to 8) (size 9 to 14) (size 15 to 20)
#    0.000    1.714    2.143    2.571    1.000    6.857 
#    0.000    0.714    0.000    0.429    0.000    3.000 
#    0.000    0.000    0.000    0.000    0.000    0.000 
#
# Total GULP energy -312781.162675 kJ/mol
# GULP energy per Si atom -5585.377905 kJ/mol
# Density = 1.777574 g / cm^3
# Si number density = 17.816293 Si / 1000 Ang^3
#
#
#
# Elastic Constant Matrix: (Units=GPa)
#
#
# Indices 1 2 3 4 5 6 
#
# 1 84.1533 52.6730 46.4786 0.0000 0.0000 0.0000
# 2 52.6730 121.7397 55.4448 0.0000 0.0000 0.0000
# 3 46.4786 55.4448 53.8327 0.0000 0.0000 0.0000
# 4 0.0000 0.0000 0.0000 23.1617 0.0000 0.0000
# 5 0.0000 0.0000 0.0000 0.0000 32.0745 0.0000
# 6 0.0000 0.0000 0.0000 0.0000 0.0000 24.1968
#
#
#
# Elastic Compliance Matrix: (Units=1/GPa)
#
#
# Indices 1 2 3 4 5 6 
#
# 1 0.022900 -0.001702 -0.018020 0.000000 0.000000 0.000000
# 2 -0.001702 0.015598 -0.014596 0.000000 0.000000 0.000000
# 3 -0.018020 -0.014596 0.049167 0.000000 0.000000 0.000000
# 4 0.000000 0.000000 0.000000 0.043175 0.000000 0.000000
# 5 0.000000 0.000000 0.000000 0.000000 0.031177 0.000000
# 6 0.000000 0.000000 0.000000 0.000000 0.000000 0.041328
#
#
# Mechanical properties :
#
#
# Convention : Reuss Voigt Hill
#
# Bulk Modulus (GPa) = 52.54484 63.21316 57.87900
# Shear Modulus (GPa) = 17.96470 22.89521 20.42995
#
# Velocity S-wave (km/s) = 3.17887 3.58868 3.38997
# Velocity P-wave (km/s) = 6.55974 7.26148 6.91951
#
# Compressibility (1/GPa) = 0.01903136
#
# Stress axis : x y z
#
# Youngs Moduli (GPa) = 43.66729 64.11068 20.33880
#
# Poissons Ratio (x) = 0.10909 0.36650
# Poissons Ratio (y) = 0.07430 0.29687
# Poissons Ratio (z) = 0.78686 0.93576
#
# Static dielectric constant tensor:
#      x y z
#    x 1.577690 0.000000 0.000000 
#    y 0.000000 1.622900 0.000000 
#    z 0.000000 0.000000 1.595140 
# 
# From -- ./inp_files/11374.got.cif
#   From: 2010.05.17/outbox.cif.g08.bks.cpg/sg47_6_cif.got.tgz:11374.got - 2010.06.03 20:15:42.
