data_PCOD9386133
_publ_section_title
;
Structure prediction by ZEFSAII (Michael W. Deem and Ramdas Pophale) SiO2 
 PCOD9386133
Probable space group: P M M M
;
_chemical_formula_sum "Si O2"
_cell_formula_units_Z 44
_cell_length_a 29.406294
_cell_length_b 8.812738
_cell_length_c 9.294277
_cell_angle_alpha 90.000000
_cell_angle_beta 90.000000
_cell_angle_gamma 90.000000
_cell_volume 2408.611555
_symmetry_space_group_name_H-M "P M M M"
_symmetry_group_IT_number 47
_symmetry_cell_setting 'orthorhombic'
loop_
_space_group_symop_operation_xyz
x,y,z
-x,-y,z
x,-y,-z
-x,y,-z
-x,-y,-z
x,y,-z
-x,y,z
x,-y,z
loop_
_atom_site_type_symbol
_atom_site_label
_atom_site_fract_x
_atom_site_fract_y
_atom_site_fract_z
Si Si1 0.326495 0.183592 0.831869
Si Si2 0.764021 0.184916 0.333538
Si Si3 0.135327 0.821546 0.327473
Si Si4 0.587059 0.682051 0.331050
Si Si5 0.500000 0.182240 0.830810
Si Si6 0.949767 0.317518 0.167382
O O1 0.277945 0.230797 0.765462
O O2 0.367093 0.256439 0.741532
O O3 0.329694 0.000000 0.820698
O O4 0.329902 0.223505 0.000000
O O5 0.756732 0.231234 0.500000
O O6 0.814260 0.235745 0.284590
O O7 0.765406 0.000000 0.333740
O O8 0.133141 0.806634 0.500000
O O9 0.092726 0.742149 0.255494
O O10 0.133005 0.000000 0.292506
O O11 0.585506 0.723254 0.500000
O O12 0.585334 0.500000 0.320350
O O13 0.544366 0.752404 0.247437
O O14 0.500000 0.000000 0.820638
O O15 0.500000 0.223067 0.000000
O O16 0.949574 0.500000 0.172338
O O17 0.000000 0.266376 0.218986
O O18 0.945505 0.272392 0.000000
#
# Coordination Sequence:
#
# PCOD9386133 Si02
#       6
#     8   8   8   8   4   8
#     4  10  20  34  55  83 110 138 177 220 260 307
#     4   8  15  30  51  74 103 138 172 209 256 307
#     4   9  18  32  51  77 105 131 165 211 260 310
#     4  11  24  40  58  82 112 146 183 220 261 310
#     4  11  24  41  62  88 114 141 178 221 264 314
#     4   9  19  35  51  68  95 132 172 212 255 307
#
# _framework density 18.267783999999999
#
# number of rings (size 3 to 8) (size 9 to 14) (size 15 to 20)
#    0.000    2.455    0.000    3.818    0.000    8.727 
#    0.000    5.455    0.000    1.091    0.000    0.000 
#    0.000    0.000    0.000    0.000    0.000    0.000 
#
# Total GULP energy -245503.715056 kJ/mol
# GULP energy per Si atom -5579.629888 kJ/mol
# Density = 1.822621 g / cm^3
# Si number density = 18.267784 Si / 1000 Ang^3
#
#
#
# Elastic Constant Matrix: (Units=GPa)
#
#
# Indices 1 2 3 4 5 6 
#
# 1 202.3712 48.5425 96.0212 0.0000 0.0000 0.0000
# 2 48.5425 24.9550 44.8273 0.0000 0.0000 0.0000
# 3 96.0212 44.8273 112.0366 0.0000 0.0000 0.0000
# 4 0.0000 0.0000 0.0000 26.7083 0.0000 0.0000
# 5 0.0000 0.0000 0.0000 0.0000 59.4940 0.0000
# 6 0.0000 0.0000 0.0000 0.0000 0.0000 160.2160
#
#
#
# Elastic Compliance Matrix: (Units=1/GPa)
#
#
# Indices 1 2 3 4 5 6 
#
# 1 0.009481 -0.013674 -0.002655 0.000000 0.000000 0.000000
# 2 -0.013674 0.162191 -0.053176 0.000000 0.000000 0.000000
# 3 -0.002655 -0.053176 0.032477 0.000000 0.000000 0.000000
# 4 0.000000 0.000000 0.000000 0.037441 0.000000 0.000000
# 5 0.000000 0.000000 0.000000 0.000000 0.016808 0.000000
# 6 0.000000 0.000000 0.000000 0.000000 0.000000 0.006242
#
#
# Mechanical properties :
#
#
# Convention : Reuss Voigt Hill
#
# Bulk Modulus (GPa) = 15.35131 79.79387 47.57259
# Shear Modulus (GPa) = 11.75470 59.28178 35.51824
#
# Velocity S-wave (km/s) = 2.53942 5.70281 4.41422
# Velocity P-wave (km/s) = 4.12552 9.33475 7.21656
#
# Compressibility (1/GPa) = 0.06514103
#
# Stress axis : x y z
#
# Youngs Moduli (GPa) = 105.47585 6.16557 30.79100
#
# Poissons Ratio (x) = 0.08431 0.08174
# Poissons Ratio (y) = 1.44225 1.63733
# Poissons Ratio (z) = 0.27999 0.32786
#
# Static dielectric constant tensor:
#      x y z
#    x 1.621890 0.000000 0.000000 
#    y 0.000000 1.619730 0.000000 
#    z 0.000000 0.000000 1.607970 
# 
# From -- ./inp_files/13560.got.cif
#   From: 2010.05.17/outbox.cif.g08.bks.cpg/sg47_7_cif.got.tgz:13560.got - 2010.06.03 20:15:42.
