data_PCOD9386518
_publ_section_title
;
Structure prediction by ZEFSAII (Michael W. Deem and Ramdas Pophale) SiO2 
 PCOD9386518
Probable space group: P M M M
;
_chemical_formula_sum "Si O2"
_cell_formula_units_Z 64
_cell_length_a 15.107925
_cell_length_b 25.813236
_cell_length_c 8.380724
_cell_angle_alpha 90.000000
_cell_angle_beta 90.000000
_cell_angle_gamma 90.000000
_cell_volume 3268.351901
_symmetry_space_group_name_H-M "P M M M"
_symmetry_group_IT_number 47
_symmetry_cell_setting 'orthorhombic'
loop_
_space_group_symop_operation_xyz
x,y,z
-x,-y,z
x,-y,-z
-x,y,-z
-x,-y,-z
x,y,-z
-x,y,z
x,-y,z
loop_
_atom_site_type_symbol
_atom_site_label
_atom_site_fract_x
_atom_site_fract_y
_atom_site_fract_z
Si Si1 0.265467 0.752500 0.809191
Si Si2 0.250291 0.636237 0.691396
Si Si3 0.601786 0.157368 0.807768
Si Si4 0.292234 0.056535 0.689680
Si Si5 0.901762 0.076041 0.813656
Si Si6 0.103756 0.441535 0.807536
Si Si7 0.097166 0.189048 0.685066
Si Si8 0.599897 0.441699 0.305574
O O1 0.268164 0.692661 0.762190
O O2 0.345409 0.790682 0.755817
O O3 0.176458 0.774436 0.731318
O O4 0.259632 0.756983 0.000000
O O5 0.252155 0.640557 0.500000
O O6 0.161621 0.605298 0.739381
O O7 0.329062 0.599094 0.749390
O O8 0.500000 0.155517 0.749189
O O9 0.657465 0.106246 0.760305
O O10 0.598900 0.158514 0.000000
O O11 0.302847 0.059034 0.500000
O O12 0.187466 0.057972 0.728981
O O13 0.326025 0.000000 0.746529
O O14 0.899460 0.138011 0.792570
O O15 0.000000 0.059862 0.753853
O O16 0.896511 0.062434 0.000000
O O17 0.132475 0.500000 0.755167
O O18 0.000000 0.436196 0.765815
O O19 0.110143 0.440349 0.000000
O O20 0.105653 0.172484 0.500000
O O21 0.000000 0.213475 0.703935
O O22 0.601094 0.441797 0.500000
O O23 0.500000 0.429286 0.256124
O O24 0.621220 0.500000 0.253453
#
# Coordination Sequence:
#
# PCOD9386518 Si02
#       8
#     8   8   8   8   8   8   8   8
#     4  11  23  39  59  83 114 154 195 237 289 349
#     4  11  22  34  54  85 117 149 190 240 289 340
#     4  10  23  44  67  88 112 149 198 249 302 361
#     4  11  24  40  61  91 125 158 195 244 297 349
#     4  10  20  35  58  88 121 158 196 232 277 338
#     4   9  19  37  59  82 113 156 201 243 292 350
#     4  10  20  35  58  86 115 147 185 232 282 335
#     4   8  15  30  52  78 109 143 179 223 277 336
#
# _framework density 19.581734999999998
#
# number of rings (size 3 to 8) (size 9 to 14) (size 15 to 20)
#    0.000    2.000    1.250    3.000    0.000    5.750 
#    0.000    3.125    0.000    1.125    0.000    4.375 
#    0.000    0.000    0.000    0.000    0.000    0.000 
#
# Total GULP energy -357137.402245 kJ/mol
# GULP energy per Si atom -5580.271910 kJ/mol
# Density = 1.953717 g / cm^3
# Si number density = 19.581735 Si / 1000 Ang^3
#
#
#
# Elastic Constant Matrix: (Units=GPa)
#
#
# Indices 1 2 3 4 5 6 
#
# 1 128.1974 83.8201 16.6079 0.0000 0.0000 0.0000
# 2 83.8201 132.8283 13.9896 0.0000 0.0000 0.0000
# 3 16.6079 13.9896 27.2868 0.0000 0.0000 0.0000
# 4 0.0000 0.0000 0.0000 21.3929 0.0000 0.0000
# 5 0.0000 0.0000 0.0000 0.0000 7.9984 0.0000
# 6 0.0000 0.0000 0.0000 0.0000 0.0000 -2.9135
#
#
#
# Elastic Compliance Matrix: (Units=1/GPa)
#
#
# Indices 1 2 3 4 5 6 
#
# 1 0.013706 -0.008214 -0.004131 0.000000 0.000000 0.000000
# 2 -0.008214 0.012881 -0.001604 0.000000 0.000000 0.000000
# 3 -0.004131 -0.001604 0.039985 0.000000 0.000000 0.000000
# 4 0.000000 0.000000 0.000000 0.046745 0.000000 0.000000
# 5 0.000000 0.000000 0.000000 0.000000 0.125025 0.000000
# 6 0.000000 0.000000 0.000000 0.000000 0.000000 -0.343231
#
#
# Mechanical properties :
#
#
# Convention : Reuss Voigt Hill
#
# Bulk Modulus (GPa) = 25.85794 57.46084 41.65939
# Shear Modulus (GPa) = -78.00457 16.88855 -30.55801
#
# Velocity S-wave (km/s) = -6.31837 2.93996 -3.95465
# Velocity P-wave (km/s) = 6.32419 6.39783 0.68445
#
# Compressibility (1/GPa) = 0.03867284
#
# Stress axis : x y z
#
# Youngs Moduli (GPa) = 72.95871 77.63373 25.00961
#
# Poissons Ratio (x) = 0.63770 0.10331
# Poissons Ratio (y) = 0.59930 0.04013
# Poissons Ratio (z) = 0.30139 0.12456
#
# Static dielectric constant tensor:
#      x y z
#    x 1.690340 0.000000 0.000000 
#    y 0.000000 1.687730 0.000000 
#    z 0.000000 0.000000 1.677400 
# 
# From -- ./inp_files/7821.got.cif
#   From: 2010.05.17/outbox.cif.g08.bks.cpg/sg47_4_cif.got.tgz:7821.got - 2010.06.03 20:15:42.
