data_PCOD9386099
_publ_section_title
;
Structure prediction by ZEFSAII (Michael W. Deem and Ramdas Pophale) SiO2 
 PCOD9386099
Probable space group: P M M M
;
_chemical_formula_sum "Si O2"
_cell_formula_units_Z 48
_cell_length_a 9.502653
_cell_length_b 7.629985
_cell_length_c 33.750647
_cell_angle_alpha 90.000000
_cell_angle_beta 90.000000
_cell_angle_gamma 90.000000
_cell_volume 2447.094031
_symmetry_space_group_name_H-M "P M M M"
_symmetry_group_IT_number 47
_symmetry_cell_setting 'orthorhombic'
loop_
_space_group_symop_operation_xyz
x,y,z
-x,-y,z
x,-y,-z
-x,y,-z
-x,-y,-z
x,y,-z
-x,y,z
x,-y,z
loop_
_atom_site_type_symbol
_atom_site_label
_atom_site_fract_x
_atom_site_fract_y
_atom_site_fract_z
Si Si1 0.830213 0.291362 0.595222
Si Si2 0.336186 0.214052 0.152275
Si Si3 0.340303 0.291380 0.000000
Si Si4 0.842639 0.290604 0.316167
Si Si5 0.659364 0.210354 0.239929
Si Si6 0.159271 0.790268 0.922439
Si Si7 0.666276 0.000000 0.452593
O O1 0.802131 0.500000 0.590217
O O2 0.791675 0.234307 0.640321
O O3 0.744559 0.169714 0.565474
O O4 0.000000 0.268111 0.591347
O O5 0.500000 0.264717 0.146784
O O6 0.289702 0.270098 0.196437
O O7 0.238655 0.277740 0.116677
O O8 0.334081 0.000000 0.151433
O O9 0.253623 0.240500 0.961031
O O10 0.350202 0.500000 0.000000
O O11 0.500000 0.219438 0.000000
O O12 0.852544 0.500000 0.319622
O O13 0.749615 0.253489 0.278137
O O14 0.000000 0.219771 0.310006
O O15 0.500000 0.275789 0.244941
O O16 0.653753 0.000000 0.237675
O O17 0.000000 0.722096 0.926898
O O18 0.149155 0.000000 0.917893
O O19 0.500000 0.000000 0.442430
O O20 0.678774 0.000000 0.500000
#
# Coordination Sequence:
#
# PCOD9386099 Si02
#       7
#     8   8   4   8   8   8   4
#     4   9  20  40  63  86 116 156 202 249 295 349
#     4   8  15  30  50  72 102 138 173 211 254 303
#     4  11  24  39  54  74 100 131 168 207 252 312
#     4   9  19  35  53  76 107 142 182 227 272 320
#     4   9  18  31  49  77 109 139 175 217 261 313
#     4  10  20  34  55  81 104 128 165 212 259 311
#     4  11  25  41  59  89 125 157 193 243 303 364
#
# _framework density 19.615100999999999
#
# number of rings (size 3 to 8) (size 9 to 14) (size 15 to 20)
#    0.000    2.667    0.000    3.250    1.167    6.000 
#    0.000    5.833    0.000    1.000    0.000    0.000 
#    0.000    0.000    0.000    0.000    0.000    0.000 
#
# Total GULP energy -267749.814310 kJ/mol
# GULP energy per Si atom -5578.121131 kJ/mol
# Density = 1.957046 g / cm^3
# Si number density = 19.615101 Si / 1000 Ang^3
#
#
#
# Elastic Constant Matrix: (Units=GPa)
#
#
# Indices 1 2 3 4 5 6 
#
# 1 119.4519 30.8783 106.6939 0.0000 0.0000 0.0000
# 2 30.8783 58.8547 35.6336 0.0000 0.0000 0.0000
# 3 106.6939 35.6336 183.2600 0.0000 0.0000 0.0000
# 4 0.0000 0.0000 0.0000 81.4757 0.0000 0.0000
# 5 0.0000 0.0000 0.0000 0.0000 46.0497 0.0000
# 6 0.0000 0.0000 0.0000 0.0000 0.0000 29.4491
#
#
#
# Elastic Compliance Matrix: (Units=1/GPa)
#
#
# Indices 1 2 3 4 5 6 
#
# 1 0.018064 -0.003525 -0.009832 0.000000 0.000000 0.000000
# 2 -0.003525 0.019946 -0.001826 0.000000 0.000000 0.000000
# 3 -0.009832 -0.001826 0.011536 0.000000 0.000000 0.000000
# 4 0.000000 0.000000 0.000000 0.012274 0.000000 0.000000
# 5 0.000000 0.000000 0.000000 0.000000 0.021716 0.000000
# 6 0.000000 0.000000 0.000000 0.000000 0.000000 0.033957
#
#
# Mechanical properties :
#
#
# Convention : Reuss Voigt Hill
#
# Bulk Modulus (GPa) = 52.13580 78.66425 65.40003
# Shear Modulus (GPa) = 32.41463 43.95229 38.18346
#
# Velocity S-wave (km/s) = 4.06955 4.73878 4.41686
# Velocity P-wave (km/s) = 6.97988 8.37451 7.70880
#
# Compressibility (1/GPa) = 0.01918068
#
# Stress axis : x y z
#
# Youngs Moduli (GPa) = 55.35764 50.13535 86.68670
#
# Poissons Ratio (x) = 0.17672 0.85227
# Poissons Ratio (y) = 0.19513 0.15830
# Poissons Ratio (z) = 0.54426 0.09155
#
# Static dielectric constant tensor:
#      x y z
#    x 1.692120 0.000000 0.000000 
#    y 0.000000 1.778590 0.000000 
#    z 0.000000 0.000000 1.684650 
# 
# From -- ./inp_files/34110.got.cif
#   From: 2010.05.17/outbox.cif.g08.bks.cpg/sg47_18_cif.got.tgz:34110.got - 2010.06.03 20:15:42.
