data_PCOD9386120
_publ_section_title
;
Structure prediction by ZEFSAII (Michael W. Deem and Ramdas Pophale) SiO2 
 PCOD9386120
Probable space group: P M M M
;
_chemical_formula_sum "Si O2"
_cell_formula_units_Z 48
_cell_length_a 35.017156
_cell_length_b 7.597411
_cell_length_c 8.518522
_cell_angle_alpha 90.000000
_cell_angle_beta 90.000000
_cell_angle_gamma 90.000000
_cell_volume 2266.265260
_symmetry_space_group_name_H-M "P M M M"
_symmetry_group_IT_number 47
_symmetry_cell_setting 'orthorhombic'
loop_
_space_group_symop_operation_xyz
x,y,z
-x,-y,z
x,-y,-z
-x,y,-z
-x,-y,-z
x,y,-z
-x,y,z
x,-y,z
loop_
_atom_site_type_symbol
_atom_site_label
_atom_site_fract_x
_atom_site_fract_y
_atom_site_fract_z
Si Si1 0.398139 0.702309 0.310882
Si Si2 0.918907 0.706776 0.673481
Si Si3 0.955117 0.286393 0.000000
Si Si4 0.682741 0.288464 0.822739
Si Si5 0.158047 0.786596 0.175531
Si Si6 0.235741 0.210665 0.324673
Si Si7 0.456283 0.000000 0.307981
O O1 0.397860 0.701296 0.500000
O O2 0.403281 0.500000 0.257616
O O3 0.356724 0.770216 0.256097
O O4 0.432093 0.829401 0.258218
O O5 0.928840 0.779851 0.500000
O O6 0.929024 0.500000 0.669336
O O7 0.873581 0.724326 0.702229
O O8 0.937342 0.779996 0.834914
O O9 0.949792 0.500000 0.000000
O O10 0.000000 0.249882 0.000000
O O11 0.680529 0.500000 0.825817
O O12 0.721862 0.245218 0.735950
O O13 0.684875 0.221503 0.000000
O O14 0.200767 0.726417 0.217796
O O15 0.157405 0.000000 0.176340
O O16 0.147682 0.726818 0.000000
O O17 0.231389 0.281520 0.500000
O O18 0.231714 0.000000 0.330736
O O19 0.500000 0.000000 0.254684
O O20 0.456847 0.000000 0.500000
#
# Coordination Sequence:
#
# PCOD9386120 Si02
#       7
#     8   8   4   8   8   8   4
#     4   9  18  33  53  77 107 142 179 224 278 334
#     4  10  20  34  55  82 109 142 183 225 277 338
#     4   9  18  34  55  81 113 143 177 229 285 337
#     4  10  21  36  53  75 104 139 179 222 271 324
#     4  10  20  35  55  78 107 145 186 226 274 329
#     4  10  21  35  52  76 105 138 178 224 269 318
#     4   9  18  32  53  83 111 137 179 229 279 339
#
# _framework density 21.180221
#
# number of rings (size 3 to 8) (size 9 to 14) (size 15 to 20)
#    0.000    2.333    0.833    1.500    1.167    4.333 
#    0.000    3.333    0.000    2.000    0.000    3.500 
#    0.000    0.000    0.000    0.000    0.000    0.000 
#
# Total GULP energy -267923.879531 kJ/mol
# GULP energy per Si atom -5581.747490 kJ/mol
# Density = 2.113201 g / cm^3
# Si number density = 21.180221 Si / 1000 Ang^3
#
#
#
# Elastic Constant Matrix: (Units=GPa)
#
#
# Indices 1 2 3 4 5 6 
#
# 1 124.5488 11.8569 52.0286 0.0000 0.0000 0.0000
# 2 11.8569 53.4116 18.1766 0.0000 0.0000 0.0000
# 3 52.0286 18.1766 121.0087 0.0000 0.0000 0.0000
# 4 0.0000 0.0000 0.0000 8.7885 0.0000 0.0000
# 5 0.0000 0.0000 0.0000 0.0000 20.4040 0.0000
# 6 0.0000 0.0000 0.0000 0.0000 0.0000 16.9871
#
#
#
# Elastic Compliance Matrix: (Units=1/GPa)
#
#
# Indices 1 2 3 4 5 6 
#
# 1 0.009818 -0.000783 -0.004104 0.000000 0.000000 0.000000
# 2 -0.000783 0.019794 -0.002637 0.000000 0.000000 0.000000
# 3 -0.004104 -0.002637 0.010424 0.000000 0.000000 0.000000
# 4 0.000000 0.000000 0.000000 0.113785 0.000000 0.000000
# 5 0.000000 0.000000 0.000000 0.000000 0.049010 0.000000
# 6 0.000000 0.000000 0.000000 0.000000 0.000000 0.058868
#
#
# Mechanical properties :
#
#
# Convention : Reuss Voigt Hill
#
# Bulk Modulus (GPa) = 40.01694 51.45481 45.73588
# Shear Modulus (GPa) = 17.53926 23.69639 20.61782
#
# Velocity S-wave (km/s) = 2.88079 3.34847 3.12340
# Velocity P-wave (km/s) = 5.47721 6.26867 5.88626
#
# Compressibility (1/GPa) = 0.02498941
#
# Stress axis : x y z
#
# Youngs Moduli (GPa) = 101.85641 50.52143 95.92987
#
# Poissons Ratio (x) = 0.03956 0.39366
# Poissons Ratio (y) = 0.07975 0.25292
# Poissons Ratio (z) = 0.41798 0.13320
#
# Static dielectric constant tensor:
#      x y z
#    x 1.727330 0.000000 0.000000 
#    y 0.000000 1.787510 0.000000 
#    z 0.000000 0.000000 1.776420 
# 
# From -- ./inp_files/13888.got.cif
#   From: 2010.05.17/outbox.cif.g08.bks.cpg/sg47_7_cif.got.tgz:13888.got - 2010.06.03 20:15:42.
