data_PCOD9386387
_publ_section_title
;
Structure prediction by ZEFSAII (Michael W. Deem and Ramdas Pophale) SiO2 
 PCOD9386387
Probable space group: P M M M
;
_chemical_formula_sum "Si O2"
_cell_formula_units_Z 48
_cell_length_a 8.727431
_cell_length_b 13.634975
_cell_length_c 20.196237
_cell_angle_alpha 90.000000
_cell_angle_beta 90.000000
_cell_angle_gamma 90.000000
_cell_volume 2403.317940
_symmetry_space_group_name_H-M "P M M M"
_symmetry_group_IT_number 47
_symmetry_cell_setting 'orthorhombic'
loop_
_space_group_symop_operation_xyz
x,y,z
-x,-y,z
x,-y,-z
-x,y,-z
-x,-y,-z
x,y,-z
-x,y,z
x,-y,z
loop_
_atom_site_type_symbol
_atom_site_label
_atom_site_fract_x
_atom_site_fract_y
_atom_site_fract_z
Si Si1 0.678835 0.288439 0.795572
Si Si2 0.178417 0.883647 0.140257
Si Si3 0.676082 0.119305 0.000000
Si Si4 0.819241 0.382149 0.926928
Si Si5 0.815229 0.305926 0.346204
Si Si6 0.812885 0.500000 0.575884
Si Si7 0.186569 0.889218 0.577446
O O1 0.500000 0.304378 0.788574
O O2 0.719744 0.174782 0.808119
O O3 0.738124 0.340525 0.862262
O O4 0.763264 0.319617 0.729040
O O5 0.000000 0.858622 0.149107
O O6 0.194712 0.000000 0.146674
O O7 0.234074 0.854876 0.066670
O O8 0.500000 0.154420 0.000000
O O9 0.669783 0.000000 0.000000
O O10 0.807507 0.500000 0.925088
O O11 0.000000 0.357569 0.924028
O O12 0.760140 0.350854 0.000000
O O13 0.763413 0.400226 0.388141
O O14 0.761116 0.202359 0.377883
O O15 0.000000 0.303693 0.348045
O O16 0.763780 0.500000 0.500000
O O17 0.000000 0.500000 0.576825
O O18 0.228041 0.874169 0.500000
O O19 0.000000 0.889326 0.579835
O O20 0.235798 0.000000 0.597088
#
# Coordination Sequence:
#
# PCOD9386387 Si02
#       7
#     8   8   4   8   8   4   8
#     4  12  26  39  55  83 121 161 197 240 296 355
#     4  10  21  38  59  81 108 148 199 248 293 345
#     4   9  17  31  53  81 112 145 184 237 299 355
#     4   9  20  41  67  89 109 140 189 249 306 360
#     4  10  20  35  56  84 117 154 197 243 294 354
#     4   9  18  34  61  93 118 147 192 249 301 344
#     4   8  14  27  52  86 118 146 183 238 296 346
#
# _framework density 19.972390000000001
#
# number of rings (size 3 to 8) (size 9 to 14) (size 15 to 20)
#    0.000    2.333    0.000    3.750    2.333    5.333 
#    0.000    2.500    0.000    2.500    0.000    1.167 
#    0.000    0.000    0.000    0.000    0.000    0.000 
#
# Total GULP energy -267981.837323 kJ/mol
# GULP energy per Si atom -5582.954944 kJ/mol
# Density = 1.992693 g / cm^3
# Si number density = 19.972390 Si / 1000 Ang^3
#
#
#
# Elastic Constant Matrix: (Units=GPa)
#
#
# Indices 1 2 3 4 5 6 
#
# 1 20.3510 15.4656 11.0566 0.0000 0.0000 0.0000
# 2 15.4656 120.6895 73.8074 0.0000 0.0000 0.0000
# 3 11.0566 73.8074 133.1489 0.0000 0.0000 0.0000
# 4 0.0000 0.0000 0.0000 18.5896 0.0000 0.0000
# 5 0.0000 0.0000 0.0000 0.0000 -27.3981 0.0000
# 6 0.0000 0.0000 0.0000 0.0000 0.0000 12.1254
#
#
#
# Elastic Compliance Matrix: (Units=1/GPa)
#
#
# Indices 1 2 3 4 5 6 
#
# 1 0.054525 -0.006381 -0.000990 0.000000 0.000000 0.000000
# 2 -0.006381 0.013282 -0.006833 0.000000 0.000000 0.000000
# 3 -0.000990 -0.006833 0.011380 0.000000 0.000000 0.000000
# 4 0.000000 0.000000 0.000000 0.053793 0.000000 0.000000
# 5 0.000000 0.000000 0.000000 0.000000 -0.036499 0.000000
# 6 0.000000 0.000000 0.000000 0.000000 0.000000 0.082471
#
#
# Mechanical properties :
#
#
# Convention : Reuss Voigt Hill
#
# Bulk Modulus (GPa) = 19.69339 52.76095 36.22717
# Shear Modulus (GPa) = 22.29281 12.25406 17.27343
#
# Velocity S-wave (km/s) = 3.34455 2.47968 2.94405
# Velocity P-wave (km/s) = 4.97960 5.88835 5.45294
#
# Compressibility (1/GPa) = 0.05077845
#
# Stress axis : x y z
#
# Youngs Moduli (GPa) = 18.34018 75.29054 87.87300
#
# Poissons Ratio (x) = 0.48046 0.08703
# Poissons Ratio (y) = 0.11704 0.60040
# Poissons Ratio (z) = 0.01816 0.51443
#
# Static dielectric constant tensor:
#      x y z
#    x 1.667150 0.000000 0.000000 
#    y 0.000000 1.751170 0.000000 
#    z 0.000000 0.000000 1.701900 
# 
# From -- ./inp_files/26544.got.cif
#   From: 2010.05.17/outbox.cif.g08.bks.cpg/sg47_14_cif.got.tgz:26544.got - 2010.06.03 20:15:42.
