data_PCOD9386719
_publ_section_title
;
Structure prediction by ZEFSAII (Michael W. Deem and Ramdas Pophale) SiO2 
 PCOD9386719
Probable space group: P M M M
;
_chemical_formula_sum "Si O2"
_cell_formula_units_Z 48
_cell_length_a 8.538183
_cell_length_b 19.539001
_cell_length_c 15.555563
_cell_angle_alpha 90.000000
_cell_angle_beta 90.000000
_cell_angle_gamma 90.000000
_cell_volume 2595.096716
_symmetry_space_group_name_H-M "P M M M"
_symmetry_group_IT_number 47
_symmetry_cell_setting 'orthorhombic'
loop_
_space_group_symop_operation_xyz
x,y,z
-x,-y,z
x,-y,-z
-x,y,-z
-x,-y,-z
x,y,-z
-x,y,z
x,-y,z
loop_
_atom_site_type_symbol
_atom_site_label
_atom_site_fract_x
_atom_site_fract_y
_atom_site_fract_z
Si Si1 0.687826 0.579004 0.500000
Si Si2 0.687434 0.421542 0.000000
Si Si3 0.687835 0.177103 0.401288
Si Si4 0.188057 0.326500 0.651619
Si Si5 0.809079 0.825790 0.902589
Si Si6 0.189219 0.672360 0.848040
Si Si7 0.189691 0.078837 0.253916
O O1 0.739375 0.500000 0.500000
O O2 0.500000 0.581030 0.500000
O O3 0.748165 0.619135 0.583619
O O4 0.746201 0.381221 0.083753
O O5 0.743170 0.500000 0.000000
O O6 0.500000 0.421405 0.000000
O O7 0.734476 0.163475 0.500000
O O8 0.500000 0.179281 0.397194
O O9 0.752935 0.251100 0.373828
O O10 0.750451 0.120247 0.336161
O O11 0.236786 0.341378 0.749790
O O12 0.000000 0.326291 0.648289
O O13 0.761570 0.749320 0.874489
O O14 0.758146 0.880603 0.831683
O O15 0.000000 0.826365 0.902856
O O16 0.757165 0.839865 0.000000
O O17 0.000000 0.670758 0.852007
O O18 0.000000 0.080153 0.255005
O O19 0.240445 0.000000 0.253807
#
# Coordination Sequence:
#
# PCOD9386719 Si02
#       7
#     4   4   8   8   8   8   8
#     4  11  25  43  61  87 126 163 196 241 299 361
#     4  11  25  41  57  85 124 159 194 242 298 354
#     4  11  23  38  59  86 117 155 199 245 299 361
#     4  11  22  38  64  92 119 153 200 253 298 350
#     4   9  16  31  57  86 115 147 189 238 288 342
#     4  10  20  37  62  89 115 151 199 248 293 347
#     4  10  21  37  58  87 121 154 194 246 299 349
#
# _framework density 18.496421000000002
#
# number of rings (size 3 to 8) (size 9 to 14) (size 15 to 20)
#    0.000    1.667    3.333    1.500    0.000    5.333 
#    0.000    6.667    0.000    0.000    0.000    1.167 
#    0.000    0.000    0.000    0.000    0.000    0.000 
#
# Total GULP energy -268153.023948 kJ/mol
# GULP energy per Si atom -5586.521332 kJ/mol
# Density = 1.845432 g / cm^3
# Si number density = 18.496421 Si / 1000 Ang^3
#
#
#
# Elastic Constant Matrix: (Units=GPa)
#
#
# Indices 1 2 3 4 5 6 
#
# 1 21.5548 34.2060 38.1241 0.0000 0.0000 0.0000
# 2 34.2060 198.9510 127.3732 0.0000 0.0000 0.0000
# 3 38.1241 127.3732 228.2734 0.0000 0.0000 0.0000
# 4 0.0000 0.0000 0.0000 34.2270 0.0000 0.0000
# 5 0.0000 0.0000 0.0000 0.0000 -37.5903 0.0000
# 6 0.0000 0.0000 0.0000 0.0000 0.0000 -44.4264
#
#
#
# Elastic Compliance Matrix: (Units=1/GPa)
#
#
# Indices 1 2 3 4 5 6 
#
# 1 0.072048 -0.007287 -0.007967 0.000000 0.000000 0.000000
# 2 -0.007287 0.008557 -0.003558 0.000000 0.000000 0.000000
# 3 -0.007967 -0.003558 0.007696 0.000000 0.000000 0.000000
# 4 0.000000 0.000000 0.000000 0.029217 0.000000 0.000000
# 5 0.000000 0.000000 0.000000 0.000000 -0.026603 0.000000
# 6 0.000000 0.000000 0.000000 0.000000 0.000000 -0.022509
#
#
# Mechanical properties :
#
#
# Convention : Reuss Voigt Hill
#
# Bulk Modulus (GPa) = 19.73221 94.24288 56.98754
# Shear Modulus (GPa) = 40.67640 7.04712 23.86176
#
# Velocity S-wave (km/s) = 4.69460 1.95404 3.59566
# Velocity P-wave (km/s) = 6.33063 7.49357 6.93652
#
# Compressibility (1/GPa) = 0.05067857
#
# Stress axis : x y z
#
# Youngs Moduli (GPa) = 13.87967 116.86494 129.93124
#
# Poissons Ratio (x) = 0.85157 1.03514
# Poissons Ratio (y) = 0.10114 0.46225
# Poissons Ratio (z) = 0.11058 0.41576
#
# Static dielectric constant tensor:
#      x y z
#    x 1.632190 0.000000 0.000000 
#    y 0.000000 1.604320 0.000000 
#    z 0.000000 0.000000 1.627160 
# 
# From -- ./inp_files/21082.got.cif
#   From: 2010.05.17/outbox.cif.g08.bks.cpg/sg47_11_cif.got.tgz:21082.got - 2010.06.03 20:15:42.
