data_PCOD9386238
_publ_section_title
;
Structure prediction by ZEFSAII (Michael W. Deem and Ramdas Pophale) SiO2 
 PCOD9386238
Probable space group: P M M M
;
_chemical_formula_sum "Si O2"
_cell_formula_units_Z 46
_cell_length_a 7.639794
_cell_length_b 32.006928
_cell_length_c 9.751717
_cell_angle_alpha 90.000000
_cell_angle_beta 90.000000
_cell_angle_gamma 90.000000
_cell_volume 2384.551633
_symmetry_space_group_name_H-M "P M M M"
_symmetry_group_IT_number 47
_symmetry_cell_setting 'orthorhombic'
loop_
_space_group_symop_operation_xyz
x,y,z
-x,-y,z
x,-y,-z
-x,y,-z
-x,-y,-z
x,y,-z
-x,y,z
x,-y,z
loop_
_atom_site_type_symbol
_atom_site_label
_atom_site_fract_x
_atom_site_fract_y
_atom_site_fract_z
Si Si1 0.791840 0.624415 0.845194
Si Si2 0.000000 0.000000 0.000000
Si Si3 0.289108 0.223878 0.844863
Si Si4 0.000000 0.000000 0.500000
Si Si5 0.000000 0.933840 0.749219
Si Si6 0.208417 0.301283 0.345005
Si Si7 0.288797 0.452345 0.654659
Si Si8 0.293839 0.871628 0.164762
O O1 0.718783 0.661307 0.749127
O O2 0.767093 0.580748 0.767443
O O3 0.000000 0.631438 0.856110
O O4 0.720285 0.624516 0.000000
O O5 0.000000 0.036399 0.881140
O O6 0.500000 0.223692 0.850091
O O7 0.234373 0.258051 0.735154
O O8 0.238021 0.176377 0.809582
O O9 0.226192 0.233878 0.000000
O O10 0.000000 0.036622 0.618797
O O11 0.829794 0.904102 0.759158
O O12 0.279442 0.300850 0.500000
O O13 0.000000 0.307985 0.355898
O O14 0.230256 0.440477 0.500000
O O15 0.500000 0.452724 0.653005
O O16 0.230524 0.500000 0.681266
O O17 0.500000 0.876376 0.198852
O O18 0.277737 0.877909 0.000000
#
# Coordination Sequence:
#
# PCOD9386238 Si02
#       8
#     8   1   8   1   4   8   8   8
#     4  10  21  36  54  77 106 141 180 227 275 327
#     4  10  20  34  66  90 112 140 220 234 278 354
#     4   9  19  35  55  83 114 141 180 230 275 329
#     4  10  28  42  58  86 132 156 200 246 294 346
#     4  11  20  42  60  88 120 164 190 250 291 344
#     4  10  21  36  53  77 108 144 186 222 267 330
#     4   9  19  36  56  78 104 136 177 222 271 332
#     4   9  18  35  62  92 116 148 198 246 290 344
#
# _framework density 19.290838999999998
#
# number of rings (size 3 to 8) (size 9 to 14) (size 15 to 20)
#    0.000    2.435    0.870    2.609    1.217    4.174 
#    1.565    5.652    0.000    0.000    0.000    0.000 
#    0.000    0.000    0.000    0.000    0.000    0.000 
#
# Total GULP energy -256172.382517 kJ/mol
# GULP energy per Si atom -5568.964837 kJ/mol
# Density = 1.924693 g / cm^3
# Si number density = 19.290839 Si / 1000 Ang^3
#
#
#
# Elastic Constant Matrix: (Units=GPa)
#
#
# Indices 1 2 3 4 5 6 
#
# 1 48.8739 27.3469 27.6619 0.0000 0.0000 0.0000
# 2 27.3469 147.8619 120.9745 0.0000 0.0000 0.0000
# 3 27.6619 120.9745 195.6433 0.0000 0.0000 0.0000
# 4 0.0000 0.0000 0.0000 26.0533 0.0000 0.0000
# 5 0.0000 0.0000 0.0000 0.0000 12.9035 0.0000
# 6 0.0000 0.0000 0.0000 0.0000 0.0000 -10.8790
#
#
#
# Elastic Compliance Matrix: (Units=1/GPa)
#
#
# Indices 1 2 3 4 5 6 
#
# 1 0.022974 -0.003221 -0.001257 0.000000 0.000000 0.000000
# 2 -0.003221 0.014139 -0.008287 0.000000 0.000000 0.000000
# 3 -0.001257 -0.008287 0.010414 0.000000 0.000000 0.000000
# 4 0.000000 0.000000 0.000000 0.038383 0.000000 0.000000
# 5 0.000000 0.000000 0.000000 0.000000 0.077498 0.000000
# 6 0.000000 0.000000 0.000000 0.000000 0.000000 -0.091920
#
#
# Mechanical properties :
#
#
# Convention : Reuss Voigt Hill
#
# Bulk Modulus (GPa) = 45.46089 82.70506 64.08298
# Shear Modulus (GPa) = 47.91548 20.04194 33.97871
#
# Velocity S-wave (km/s) = 4.98923 3.22675 4.20145
# Velocity P-wave (km/s) = 7.53705 7.53978 7.53842
#
# Compressibility (1/GPa) = 0.02199693
#
# Stress axis : x y z
#
# Youngs Moduli (GPa) = 43.52682 70.72510 96.02887
#
# Poissons Ratio (x) = 0.22780 0.12068
# Poissons Ratio (y) = 0.14019 0.79584
# Poissons Ratio (z) = 0.05470 0.58613
#
# Static dielectric constant tensor:
#      x y z
#    x 1.699890 0.000000 0.000000 
#    y 0.000000 1.650860 0.000000 
#    z 0.000000 0.000000 1.663120 
# 
# From -- ./inp_files/2851.got.cif
#   From: 2010.05.17/outbox.cif.g08.bks.cpg/sg47_2_cif.got.tgz:2851.got - 2010.06.03 20:15:42.
