data_PCOD9386314
_publ_section_title
;
Structure prediction by ZEFSAII (Michael W. Deem and Ramdas Pophale) SiO2 
 PCOD9386314
Probable space group: P M M M
;
_chemical_formula_sum "Si O2"
_cell_formula_units_Z 56
_cell_length_a 20.634163
_cell_length_b 15.541319
_cell_length_c 9.340745
_cell_angle_alpha 90.000000
_cell_angle_beta 90.000000
_cell_angle_gamma 90.000000
_cell_volume 2995.409811
_symmetry_space_group_name_H-M "P M M M"
_symmetry_group_IT_number 47
_symmetry_cell_setting 'orthorhombic'
loop_
_space_group_symop_operation_xyz
x,y,z
-x,-y,z
x,-y,-z
-x,y,-z
-x,-y,-z
x,y,-z
-x,y,z
x,-y,z
loop_
_atom_site_type_symbol
_atom_site_label
_atom_site_fract_x
_atom_site_fract_y
_atom_site_fract_z
Si Si1 0.427177 0.158660 0.672164
Si Si2 0.575398 0.500000 0.344312
Si Si3 0.604241 0.332340 0.837640
Si Si4 0.715498 0.095548 0.326796
Si Si5 0.923114 0.172507 0.830513
Si Si6 0.747609 0.601932 0.160462
Si Si7 0.921634 0.000000 0.661926
Si Si8 0.810593 0.745468 0.670612
O O1 0.424575 0.172087 0.500000
O O2 0.500000 0.122838 0.702716
O O3 0.419571 0.248641 0.754604
O O4 0.360955 0.108011 0.710723
O O5 0.500000 0.500000 0.367784
O O6 0.609377 0.500000 0.500000
O O7 0.587506 0.584241 0.253008
O O8 0.681518 0.343208 0.846060
O O9 0.579078 0.334304 0.000000
O O10 0.718104 0.094998 0.500000
O O11 0.760081 0.177377 0.283931
O O12 0.737115 0.000000 0.277150
O O13 0.877580 0.240287 0.753296
O O14 0.000000 0.186988 0.809602
O O15 0.904737 0.083892 0.751196
O O16 0.911308 0.167293 0.000000
O O17 0.735464 0.500000 0.187426
O O18 0.786354 0.651706 0.281829
O O19 0.777176 0.607581 0.000000
O O20 0.894774 0.000000 0.500000
O O21 0.000000 0.000000 0.650858
O O22 0.818040 0.751782 0.500000
#
# Coordination Sequence:
#
# PCOD9386314 Si02
#       8
#     8   4   8   8   8   8   4   8
#     4  10  20  35  55  78 107 146 194 245 294 343
#     4  11  23  35  49  73 105 139 176 223 282 347
#     4  11  21  35  54  77 106 142 182 229 287 349
#     4   9  19  35  54  81 115 150 194 244 291 340
#     4  10  21  37  57  84 121 163 201 238 287 349
#     4  10  21  39  60  82 111 148 189 236 291 355
#     4   9  17  31  53  83 119 157 198 241 282 331
#     4  11  22  36  60  89 118 154 192 241 295 344
#
# _framework density 18.695271000000002
#
# number of rings (size 3 to 8) (size 9 to 14) (size 15 to 20)
#    0.000    1.857    2.143    2.143    1.000    5.429 
#    0.000    1.429    0.000    2.571    0.000    4.000 
#    0.000    0.000    0.000    0.000    0.000    0.000 
#
# Total GULP energy -312064.400102 kJ/mol
# GULP energy per Si atom -5572.578573 kJ/mol
# Density = 1.865272 g / cm^3
# Si number density = 18.695271 Si / 1000 Ang^3
#
#
#
# Elastic Constant Matrix: (Units=GPa)
#
#
# Indices 1 2 3 4 5 6 
#
# 1 67.5074 18.1913 40.9329 0.0000 0.0000 0.0000
# 2 18.1913 61.3371 22.3718 0.0000 0.0000 0.0000
# 3 40.9329 22.3718 78.0470 0.0000 0.0000 0.0000
# 4 0.0000 0.0000 0.0000 -1.0956 0.0000 0.0000
# 5 0.0000 0.0000 0.0000 0.0000 25.2107 0.0000
# 6 0.0000 0.0000 0.0000 0.0000 0.0000 50.5761
#
#
#
# Elastic Compliance Matrix: (Units=1/GPa)
#
#
# Indices 1 2 3 4 5 6 
#
# 1 0.022085 -0.002597 -0.010838 0.000000 0.000000 0.000000
# 2 -0.002597 0.018512 -0.003945 0.000000 0.000000 0.000000
# 3 -0.010838 -0.003945 0.019628 0.000000 0.000000 0.000000
# 4 0.000000 0.000000 0.000000 -0.912742 0.000000 0.000000
# 5 0.000000 0.000000 0.000000 0.000000 0.039666 0.000000
# 6 0.000000 0.000000 0.000000 0.000000 0.000000 0.019772
#
#
# Mechanical properties :
#
#
# Convention : Reuss Voigt Hill
#
# Bulk Modulus (GPa) = 39.26878 41.09817 40.18348
# Shear Modulus (GPa) = -6.66817 23.29793 8.31488
#
# Velocity S-wave (km/s) = -1.89064 3.53398 2.11122
# Velocity P-wave (km/s) = 4.03537 6.21956 5.24248
#
# Compressibility (1/GPa) = 0.02546552
#
# Stress axis : x y z
#
# Youngs Moduli (GPa) = 45.28014 54.01847 50.94815
#
# Poissons Ratio (x) = 0.14027 0.55219
# Poissons Ratio (y) = 0.11758 0.20097
# Poissons Ratio (z) = 0.49076 0.21308
#
# Static dielectric constant tensor:
#      x y z
#    x 1.702440 0.000000 0.000000 
#    y 0.000000 1.664560 0.000000 
#    z 0.000000 0.000000 1.716650 
# 
# From -- ./inp_files/11302.got.cif
#   From: 2010.05.17/outbox.cif.g08.bks.cpg/sg47_6_cif.got.tgz:11302.got - 2010.06.03 20:15:42.
