data_PCOD9386002
_publ_section_title
;
Structure prediction by ZEFSAII (Michael W. Deem and Ramdas Pophale) SiO2 
 PCOD9386002
Probable space group: P M M M
;
_chemical_formula_sum "Si O2"
_cell_formula_units_Z 40
_cell_length_a 9.417167
_cell_length_b 8.236758
_cell_length_c 26.520058
_cell_angle_alpha 90.000000
_cell_angle_beta 90.000000
_cell_angle_gamma 90.000000
_cell_volume 2057.079366
_symmetry_space_group_name_H-M "P M M M"
_symmetry_group_IT_number 47
_symmetry_cell_setting 'orthorhombic'
loop_
_space_group_symop_operation_xyz
x,y,z
-x,-y,z
x,-y,-z
-x,y,-z
-x,-y,-z
x,y,-z
-x,y,z
x,-y,z
loop_
_atom_site_type_symbol
_atom_site_label
_atom_site_fract_x
_atom_site_fract_y
_atom_site_fract_z
Si Si1 0.662618 0.196417 0.097487
Si Si2 0.162759 0.694359 0.000000
Si Si3 0.163178 0.693981 0.694132
Si Si4 0.163621 0.803992 0.194771
Si Si5 0.338013 0.195646 0.597975
Si Si6 0.163591 0.198719 0.500000
O O1 0.500000 0.253407 0.093663
O O2 0.737834 0.252687 0.149042
O O3 0.660307 0.000000 0.098532
O O4 0.754217 0.248132 0.049510
O O5 0.159801 0.500000 0.000000
O O6 0.000000 0.754845 0.000000
O O7 0.161705 0.500000 0.692201
O O8 0.210109 0.747411 0.749917
O O9 0.261820 0.758042 0.649787
O O10 0.000000 0.753248 0.687295
O O11 0.000000 0.749696 0.187205
O O12 0.163844 0.000000 0.194532
O O13 0.500000 0.255602 0.595846
O O14 0.246238 0.252678 0.550107
O O15 0.342370 0.000000 0.595096
O O16 0.000000 0.251423 0.500000
O O17 0.163396 0.000000 0.500000
#
# Coordination Sequence:
#
# PCOD9386002 Si02
#       6
#     8   4   8   8   8   4
#     4  10  21  37  58  84 112 141 176 220 269 320
#     4  11  24  39  56  80 110 145 184 223 264 314
#     4  10  21  36  54  78 109 144 181 221 265 315
#     4   9  18  34  56  80 107 142 183 224 265 312
#     4  10  20  34  54  80 109 140 176 220 268 318
#     4   9  17  31  54  81 106 135 174 220 268 317
#
# _framework density 19.445043999999999
#
# number of rings (size 3 to 8) (size 9 to 14) (size 15 to 20)
#    0.000    2.200    0.000    2.700    0.000    8.400 
#    0.000    4.500    0.000    3.000    0.000    0.000 
#    0.000    0.000    0.000    0.000    0.000    0.000 
#
# Total GULP energy -223412.453928 kJ/mol
# GULP energy per Si atom -5585.311348 kJ/mol
# Density = 1.940079 g / cm^3
# Si number density = 19.445044 Si / 1000 Ang^3
#
#
#
# Elastic Constant Matrix: (Units=GPa)
#
#
# Indices 1 2 3 4 5 6 
#
# 1 180.8710 17.8123 143.0882 0.0000 0.0000 0.0000
# 2 17.8123 7.2738 13.5453 0.0000 0.0000 0.0000
# 3 143.0882 13.5453 211.1837 0.0000 0.0000 0.0000
# 4 0.0000 0.0000 0.0000 -65.7244 0.0000 0.0000
# 5 0.0000 0.0000 0.0000 0.0000 -69.3441 0.0000
# 6 0.0000 0.0000 0.0000 0.0000 0.0000 16.6994
#
#
#
# Elastic Compliance Matrix: (Units=1/GPa)
#
#
# Indices 1 2 3 4 5 6 
#
# 1 0.013835 -0.018651 -0.008178 0.000000 0.000000 0.000000
# 2 -0.018651 0.181271 0.001010 0.000000 0.000000 0.000000
# 3 -0.008178 0.001010 0.010211 0.000000 0.000000 0.000000
# 4 0.000000 0.000000 0.000000 -0.015215 0.000000 0.000000
# 5 0.000000 0.000000 0.000000 0.000000 -0.014421 0.000000
# 6 0.000000 0.000000 0.000000 0.000000 0.000000 0.059882
#
#
# Mechanical properties :
#
#
# Convention : Reuss Voigt Hill
#
# Bulk Modulus (GPa) = 6.50702 83.13556 44.82129
# Shear Modulus (GPa) = 14.77426 -8.68164 3.04631
#
# Velocity S-wave (km/s) = 2.75943 -2.11528 1.25301
# Velocity P-wave (km/s) = 3.67508 6.07298 5.01933
#
# Compressibility (1/GPa) = 0.15368028
#
# Stress axis : x y z
#
# Youngs Moduli (GPa) = 72.28070 5.51662 97.93164
#
# Poissons Ratio (x) = 0.10289 0.80085
# Poissons Ratio (y) = 1.34810 -0.09894
# Poissons Ratio (z) = 0.59109 -0.00557
#
# Static dielectric constant tensor:
#      x y z
#    x 1.675280 0.000000 0.000000 
#    y 0.000000 1.676000 0.000000 
#    z 0.000000 0.000000 1.637360 
# 
# From -- ./inp_files/33066.got.cif
#   From: 2010.05.17/outbox.cif.g08.bks.cpg/sg47_17_cif.got.tgz:33066.got - 2010.06.03 20:15:42.
