data_PCOD9386233
_publ_section_title
;
Structure prediction by ZEFSAII (Michael W. Deem and Ramdas Pophale) SiO2 
 PCOD9386233
Probable space group: P M M M
;
_chemical_formula_sum "Si O2"
_cell_formula_units_Z 64
_cell_length_a 25.156458
_cell_length_b 9.009759
_cell_length_c 15.039922
_cell_angle_alpha 90.000000
_cell_angle_beta 90.000000
_cell_angle_gamma 90.000000
_cell_volume 3408.852824
_symmetry_space_group_name_H-M "P M M M"
_symmetry_group_IT_number 47
_symmetry_cell_setting 'orthorhombic'
loop_
_space_group_symop_operation_xyz
x,y,z
-x,-y,z
x,-y,-z
-x,y,-z
-x,-y,-z
x,y,-z
-x,y,z
x,-y,z
loop_
_atom_site_type_symbol
_atom_site_label
_atom_site_fract_x
_atom_site_fract_y
_atom_site_fract_z
Si Si1 0.341843 0.320908 0.896179
Si Si2 0.131263 0.825906 0.753861
Si Si3 0.418221 0.174943 0.596564
Si Si4 0.938966 0.321734 0.604395
Si Si5 0.936469 0.668832 0.103865
Si Si6 0.709830 0.172287 0.600484
Si Si7 0.755726 0.323884 0.770309
Si Si8 0.440849 0.179400 0.206158
O O1 0.345945 0.500000 0.890296
O O2 0.288646 0.276604 0.842476
O O3 0.393246 0.249999 0.849438
O O4 0.338901 0.280013 0.000000
O O5 0.104178 0.754077 0.666838
O O6 0.092174 0.785572 0.834493
O O7 0.187882 0.755257 0.777584
O O8 0.136811 0.000000 0.740901
O O9 0.434711 0.238157 0.500000
O O10 0.354182 0.182840 0.600840
O O11 0.438320 0.233134 0.690893
O O12 0.432630 0.000000 0.594706
O O13 0.931613 0.286774 0.500000
O O14 0.935358 0.500000 0.613994
O O15 0.000000 0.279630 0.628942
O O16 0.921351 0.500000 0.130985
O O17 0.000000 0.679533 0.112327
O O18 0.923202 0.686407 0.000000
O O19 0.728005 0.204673 0.500000
O O20 0.733110 0.279403 0.673958
O O21 0.723224 0.000000 0.620919
O O22 0.762695 0.500000 0.777838
O O23 0.500000 0.212081 0.170876
O O24 0.434131 0.000000 0.207052
#
# Coordination Sequence:
#
# PCOD9386233 Si02
#       8
#     8   8   8   8   8   8   8   8
#     4  10  23  43  63  81 104 141 189 238 290 345
#     4  12  25  37  55  86 122 155 189 235 291 349
#     4   8  14  27  50  80 114 149 180 213 260 319
#     4   9  19  38  63  88 117 158 206 250 290 336
#     4   9  19  38  63  87 113 149 190 231 278 334
#     4   9  17  32  56  82 109 143 180 221 273 331
#     4  11  23  39  59  81 107 145 193 241 287 339
#     4  10  20  34  57  89 120 148 183 228 275 331
#
# _framework density 18.774643999999999
#
# number of rings (size 3 to 8) (size 9 to 14) (size 15 to 20)
#    0.000    2.250    1.250    3.375    0.000    5.250 
#    0.000    5.000    0.000    0.375    0.000    0.875 
#    0.000    0.000    0.000    0.000    0.000    0.000 
#
# Total GULP energy -357159.807716 kJ/mol
# GULP energy per Si atom -5580.621996 kJ/mol
# Density = 1.873191 g / cm^3
# Si number density = 18.774644 Si / 1000 Ang^3
#
#
#
# Elastic Constant Matrix: (Units=GPa)
#
#
# Indices 1 2 3 4 5 6 
#
# 1 101.8082 45.2121 66.1362 0.0000 0.0000 0.0000
# 2 45.2121 45.2825 40.7246 0.0000 0.0000 0.0000
# 3 66.1362 40.7246 109.6551 0.0000 0.0000 0.0000
# 4 0.0000 0.0000 0.0000 -94.6997 0.0000 0.0000
# 5 0.0000 0.0000 0.0000 0.0000 -58.5390 0.0000
# 6 0.0000 0.0000 0.0000 0.0000 0.0000 18.7140
#
#
#
# Elastic Compliance Matrix: (Units=1/GPa)
#
#
# Indices 1 2 3 4 5 6 
#
# 1 0.020929 -0.014331 -0.007301 0.000000 0.000000 0.000000
# 2 -0.014331 0.042972 -0.007316 0.000000 0.000000 0.000000
# 3 -0.007301 -0.007316 0.016240 0.000000 0.000000 0.000000
# 4 0.000000 0.000000 0.000000 -0.010560 0.000000 0.000000
# 5 0.000000 0.000000 0.000000 0.000000 -0.017083 0.000000
# 6 0.000000 0.000000 0.000000 0.000000 0.000000 0.053436
#
#
# Mechanical properties :
#
#
# Convention : Reuss Voigt Hill
#
# Bulk Modulus (GPa) = 44.95211 62.32129 53.63670
# Shear Modulus (GPa) = 29.19803 -19.92674 4.63564
#
# Velocity S-wave (km/s) = 3.94786 -3.26139 1.57304
# Velocity P-wave (km/s) = 6.69147 4.36855 5.65066
#
# Compressibility (1/GPa) = 0.02224590
#
# Stress axis : x y z
#
# Youngs Moduli (GPa) = 47.77991 23.27115 61.57708
#
# Poissons Ratio (x) = 0.33350 0.44956
# Poissons Ratio (y) = 0.68473 0.45049
# Poissons Ratio (z) = 0.34883 0.17025
#
# Static dielectric constant tensor:
#      x y z
#    x 1.653670 0.000000 0.000000 
#    y 0.000000 1.630240 0.000000 
#    z 0.000000 0.000000 1.659110 
# 
# From -- ./inp_files/25587.got.cif
#   From: 2010.05.17/outbox.cif.g08.bks.cpg/sg47_13_cif.got.tgz:25587.got - 2010.06.03 20:15:42.
