data_PCOD9386427
_publ_section_title
;
Structure prediction by ZEFSAII (Michael W. Deem and Ramdas Pophale) SiO2 
 PCOD9386427
Probable space group: P M M M
;
_chemical_formula_sum "Si O2"
_cell_formula_units_Z 40
_cell_length_a 9.585851
_cell_length_b 8.757761
_cell_length_c 26.516982
_cell_angle_alpha 90.000000
_cell_angle_beta 90.000000
_cell_angle_gamma 90.000000
_cell_volume 2226.116338
_symmetry_space_group_name_H-M "P M M M"
_symmetry_group_IT_number 47
_symmetry_cell_setting 'orthorhombic'
loop_
_space_group_symop_operation_xyz
x,y,z
-x,-y,z
x,-y,-z
-x,y,-z
-x,-y,-z
x,y,-z
-x,y,z
x,-y,z
loop_
_atom_site_type_symbol
_atom_site_label
_atom_site_fract_x
_atom_site_fract_y
_atom_site_fract_z
Si Si1 0.164002 0.316017 0.709585
Si Si2 0.661927 0.817127 0.801275
Si Si3 0.660056 0.313107 0.500000
Si Si4 0.160082 0.314031 0.404768
Si Si5 0.830651 0.175630 0.000000
Si Si6 0.836512 0.682708 0.893554
O O1 0.177156 0.500000 0.712959
O O2 0.260509 0.240352 0.751157
O O3 0.199496 0.268779 0.652157
O O4 0.000000 0.280210 0.718084
O O5 0.500000 0.768942 0.801469
O O6 0.743717 0.750636 0.849192
O O7 0.667208 0.000000 0.803247
O O8 0.662473 0.500000 0.500000
O O9 0.500000 0.264969 0.500000
O O10 0.740166 0.262571 0.550404
O O11 0.160887 0.500000 0.404954
O O12 0.000000 0.267309 0.414174
O O13 0.788743 0.257605 0.051699
O O14 0.000000 0.178361 0.000000
O O15 0.785013 0.000000 0.000000
O O16 0.830137 0.500000 0.892555
O O17 0.000000 0.727062 0.886541
#
# Coordination Sequence:
#
# PCOD9386427 Si02
#       6
#     8   8   4   8   4   8
#     4   9  18  33  53  76  99 127 168 214 258 306
#     4  11  24  38  51  72 103 137 172 210 255 308
#     4   9  15  21  33  59  94 129 164 199 238 290
#     4   8  14  25  41  62  91 125 159 199 248 298
#     4   9  17  31  54  83 112 141 172 208 252 299
#     4  10  20  35  57  83 108 135 171 214 256 300
#
# _framework density 17.968513999999999
#
# number of rings (size 3 to 8) (size 9 to 14) (size 15 to 20)
#    0.000    2.600    0.000    3.600    0.000    8.800 
#    0.000    2.500    0.000    3.000    0.000    0.700 
#    0.000    5.600    0.000    0.000    0.000    0.000 
#
# Total GULP energy -223143.551425 kJ/mol
# GULP energy per Si atom -5578.588786 kJ/mol
# Density = 1.792762 g / cm^3
# Si number density = 17.968514 Si / 1000 Ang^3
#
#
#
# Elastic Constant Matrix: (Units=GPa)
#
#
# Indices 1 2 3 4 5 6 
#
# 1 118.8236 41.6010 126.1431 0.0000 0.0000 0.0000
# 2 41.6010 30.7660 45.5230 0.0000 0.0000 0.0000
# 3 126.1431 45.5230 206.3119 0.0000 0.0000 0.0000
# 4 0.0000 0.0000 0.0000 -33.3873 0.0000 0.0000
# 5 0.0000 0.0000 0.0000 0.0000 -8.0555 0.0000
# 6 0.0000 0.0000 0.0000 0.0000 0.0000 20.2367
#
#
#
# Elastic Compliance Matrix: (Units=1/GPa)
#
#
# Indices 1 2 3 4 5 6 
#
# 1 0.030722 -0.020412 -0.014280 0.000000 0.000000 0.000000
# 2 -0.020412 0.061821 -0.001161 0.000000 0.000000 0.000000
# 3 -0.014280 -0.001161 0.013834 0.000000 0.000000 0.000000
# 4 0.000000 0.000000 0.000000 -0.029952 0.000000 0.000000
# 5 0.000000 0.000000 0.000000 0.000000 -0.124139 0.000000
# 6 0.000000 0.000000 0.000000 0.000000 0.000000 0.049415
#
#
# Mechanical properties :
#
#
# Convention : Reuss Voigt Hill
#
# Bulk Modulus (GPa) = 28.84167 86.93729 57.88948
# Shear Modulus (GPa) = 58.84806 5.26774 32.05790
#
# Velocity S-wave (km/s) = 5.72903 1.71406 4.22846
# Velocity P-wave (km/s) = 7.73618 7.23917 7.49179
#
# Compressibility (1/GPa) = 0.03467205
#
# Stress axis : x y z
#
# Youngs Moduli (GPa) = 32.55013 16.17574 72.28423
#
# Poissons Ratio (x) = 0.33017 1.03222
# Poissons Ratio (y) = 0.66440 0.08391
# Poissons Ratio (z) = 0.46482 0.01878
#
# Static dielectric constant tensor:
#      x y z
#    x 1.596080 0.000000 0.000000 
#    y 0.000000 1.603310 0.000000 
#    z 0.000000 0.000000 1.602050 
# 
# From -- ./inp_files/33049.got.cif
#   From: 2010.05.17/outbox.cif.g08.bks.cpg/sg47_17_cif.got.tgz:33049.got - 2010.06.03 20:15:42.
