data_PCOD9386450
_publ_section_title
;
Structure prediction by ZEFSAII (Michael W. Deem and Ramdas Pophale) SiO2 
 PCOD9386450
Probable space group: P M M M
;
_chemical_formula_sum "Si O2"
_cell_formula_units_Z 48
_cell_length_a 9.186377
_cell_length_b 8.705783
_cell_length_c 31.970183
_cell_angle_alpha 90.000000
_cell_angle_beta 90.000000
_cell_angle_gamma 90.000000
_cell_volume 2556.802748
_symmetry_space_group_name_H-M "P M M M"
_symmetry_group_IT_number 47
_symmetry_cell_setting 'orthorhombic'
loop_
_space_group_symop_operation_xyz
x,y,z
-x,-y,z
x,-y,-z
-x,y,-z
-x,-y,-z
x,y,-z
-x,y,z
x,-y,z
loop_
_atom_site_type_symbol
_atom_site_label
_atom_site_fract_x
_atom_site_fract_y
_atom_site_fract_z
Si Si1 0.329807 0.315836 0.662822
Si Si2 0.170329 0.815650 0.581463
Si Si3 0.169935 0.814146 0.256038
Si Si4 0.670323 0.315618 0.500000
Si Si5 0.830256 0.185159 0.912323
Si Si6 0.175940 0.679961 0.000000
Si Si7 0.667226 0.812624 0.171389
O O1 0.500000 0.271854 0.661808
O O2 0.320590 0.500000 0.660918
O O3 0.246735 0.245700 0.623206
O O4 0.256043 0.256412 0.705200
O O5 0.251029 0.748573 0.541074
O O6 0.000000 0.771874 0.581044
O O7 0.178974 0.000000 0.580556
O O8 0.241495 0.765897 0.212081
O O9 0.000000 0.772061 0.257549
O O10 0.179127 0.000000 0.258633
O O11 0.678836 0.500000 0.500000
O O12 0.500000 0.271736 0.500000
O O13 0.772462 0.246150 0.956642
O O14 0.740544 0.237870 0.871966
O O15 0.000000 0.231403 0.907653
O O16 0.826840 0.000000 0.913561
O O17 0.206341 0.500000 0.000000
O O18 0.000000 0.702269 0.000000
O O19 0.500000 0.763007 0.174569
O O20 0.668546 0.000000 0.170880
#
# Coordination Sequence:
#
# PCOD9386450 Si02
#       7
#     8   8   8   4   8   4   8
#     4  11  24  40  58  83 115 150 188 229 275 328
#     4  11  24  41  62  89 118 150 192 237 279 328
#     4  10  20  35  57  84 111 141 180 224 270 323
#     4  11  24  41  62  90 122 155 192 233 280 334
#     4   9  16  28  48  72  96 125 165 211 255 303
#     4   9  17  29  46  69  96 126 162 205 254 308
#     4   9  17  30  50  76 104 134 170 214 263 313
#
# _framework density 18.773447000000001
#
# number of rings (size 3 to 8) (size 9 to 14) (size 15 to 20)
#    0.000    2.000    0.000    3.750    0.000   12.333 
#    0.000    1.250    0.000    6.000    0.000    0.000 
#    0.000    0.000    0.000    0.000    0.000    0.000 
#
# Total GULP energy -268133.774027 kJ/mol
# GULP energy per Si atom -5586.120292 kJ/mol
# Density = 1.873072 g / cm^3
# Si number density = 18.773447 Si / 1000 Ang^3
#
#
#
# Elastic Constant Matrix: (Units=GPa)
#
#
# Indices 1 2 3 4 5 6 
#
# 1 170.5714 47.2225 116.9781 0.0000 0.0000 0.0000
# 2 47.2225 21.5064 47.0113 0.0000 0.0000 0.0000
# 3 116.9781 47.0113 217.3837 0.0000 0.0000 0.0000
# 4 0.0000 0.0000 0.0000 -84.0999 0.0000 0.0000
# 5 0.0000 0.0000 0.0000 0.0000 205.7536 0.0000
# 6 0.0000 0.0000 0.0000 0.0000 0.0000 19.5173
#
#
#
# Elastic Compliance Matrix: (Units=1/GPa)
#
#
# Indices 1 2 3 4 5 6 
#
# 1 0.015330 -0.029639 -0.001839 0.000000 0.000000 0.000000
# 2 -0.029639 0.145491 -0.015514 0.000000 0.000000 0.000000
# 3 -0.001839 -0.015514 0.008945 0.000000 0.000000 0.000000
# 4 0.000000 0.000000 0.000000 -0.011891 0.000000 0.000000
# 5 0.000000 0.000000 0.000000 0.000000 0.004860 0.000000
# 6 0.000000 0.000000 0.000000 0.000000 0.000000 0.051237
#
#
# Mechanical properties :
#
#
# Convention : Reuss Voigt Hill
#
# Bulk Modulus (GPa) = 13.19616 92.43172 52.81394
# Shear Modulus (GPa) = 15.00519 41.45082 28.22801
#
# Velocity S-wave (km/s) = 2.83022 4.70398 3.88185
# Velocity P-wave (km/s) = 4.21006 8.87950 6.94874
#
# Compressibility (1/GPa) = 0.07577962
#
# Stress axis : x y z
#
# Youngs Moduli (GPa) = 65.23276 6.87328 111.79252
#
# Poissons Ratio (x) = 0.20372 0.20564
# Poissons Ratio (y) = 1.93345 1.73440
# Poissons Ratio (z) = 0.11999 0.10664
#
# Static dielectric constant tensor:
#      x y z
#    x 1.635300 0.000000 0.000000 
#    y 0.000000 1.634580 0.000000 
#    z 0.000000 0.000000 1.616970 
# 
# From -- ./inp_files/2675.got.cif
#   From: 2010.05.17/outbox.cif.g08.bks.cpg/sg47_2_cif.got.tgz:2675.got - 2010.06.03 20:15:42.
