data_PCOD9386377
_publ_section_title
;
Structure prediction by ZEFSAII (Michael W. Deem and Ramdas Pophale) SiO2 
 PCOD9386377
Probable space group: P M M M
;
_chemical_formula_sum "Si O2"
_cell_formula_units_Z 48
_cell_length_a 14.272134
_cell_length_b 8.989604
_cell_length_c 18.779985
_cell_angle_alpha 90.000000
_cell_angle_beta 90.000000
_cell_angle_gamma 90.000000
_cell_volume 2409.487717
_symmetry_space_group_name_H-M "P M M M"
_symmetry_group_IT_number 47
_symmetry_cell_setting 'orthorhombic'
loop_
_space_group_symop_operation_xyz
x,y,z
-x,-y,z
x,-y,-z
-x,y,-z
-x,-y,-z
x,y,-z
-x,y,z
x,-y,z
loop_
_atom_site_type_symbol
_atom_site_label
_atom_site_fract_x
_atom_site_fract_y
_atom_site_fract_z
Si Si1 0.613806 0.829475 0.000000
Si Si2 0.893476 0.324113 0.286460
Si Si3 0.888995 0.834034 0.139026
Si Si4 0.295755 0.175485 0.291523
Si Si5 0.387483 0.322698 0.848472
Si Si6 0.387946 0.330374 0.579240
Si Si7 0.884817 0.329832 0.000000
O O1 0.637234 0.747125 0.925614
O O2 0.500000 0.834342 0.000000
O O3 0.648584 0.000000 0.000000
O O4 0.882641 0.500000 0.296868
O O5 0.883492 0.280438 0.203513
O O6 0.806805 0.232695 0.316541
O O7 0.000000 0.282090 0.308006
O O8 0.851320 0.759442 0.068445
O O9 0.000000 0.851803 0.126960
O O10 0.851473 0.000000 0.154503
O O11 0.331073 0.251201 0.217769
O O12 0.360948 0.225859 0.356207
O O13 0.296188 0.000000 0.281943
O O14 0.500000 0.298718 0.837183
O O15 0.371074 0.500000 0.849613
O O16 0.354472 0.285635 0.500000
O O17 0.500000 0.336179 0.576266
O O18 0.354500 0.500000 0.593251
O O19 0.853736 0.500000 0.000000
O O20 0.000000 0.333174 0.000000
#
# Coordination Sequence:
#
# PCOD9386377 Si02
#       7
#     4   8   8   8   8   8   4
#     4   9  17  31  52  79 113 151 192 241 297 351
#     4  10  21  38  58  77 101 139 188 238 286 338
#     4   9  16  27  44  66  92 122 161 215 278 335
#     4  12  24  36  56  87 121 155 192 238 291 344
#     4  10  20  35  56  82 115 156 200 242 286 343
#     4   9  19  38  64  93 126 162 195 228 272 331
#     4   9  15  23  38  61  88 121 164 211 264 331
#
# _framework density 19.921247999999999
#
# number of rings (size 3 to 8) (size 9 to 14) (size 15 to 20)
#    0.000    2.167    0.000    4.500    0.000    8.667 
#    0.000    1.667    0.000    0.500    0.000    3.500 
#    0.000    0.000    0.000    0.000    0.000    0.000 
#
# Total GULP energy -267856.589445 kJ/mol
# GULP energy per Si atom -5580.345613 kJ/mol
# Density = 1.987591 g / cm^3
# Si number density = 19.921248 Si / 1000 Ang^3
#
#
#
# Elastic Constant Matrix: (Units=GPa)
#
#
# Indices 1 2 3 4 5 6 
#
# 1 87.9599 46.3703 29.7445 0.0000 0.0000 0.0000
# 2 46.3703 126.6526 53.5765 0.0000 0.0000 0.0000
# 3 29.7445 53.5765 84.4057 0.0000 0.0000 0.0000
# 4 0.0000 0.0000 0.0000 -2.9545 0.0000 0.0000
# 5 0.0000 0.0000 0.0000 0.0000 -30.1724 0.0000
# 6 0.0000 0.0000 0.0000 0.0000 0.0000 12.7876
#
#
#
# Elastic Compliance Matrix: (Units=1/GPa)
#
#
# Indices 1 2 3 4 5 6 
#
# 1 0.014426 -0.004280 -0.002367 0.000000 0.000000 0.000000
# 2 -0.004280 0.012064 -0.006149 0.000000 0.000000 0.000000
# 3 -0.002367 -0.006149 0.016585 0.000000 0.000000 0.000000
# 4 0.000000 0.000000 0.000000 -0.338466 0.000000 0.000000
# 5 0.000000 0.000000 0.000000 0.000000 -0.033143 0.000000
# 6 0.000000 0.000000 0.000000 0.000000 0.000000 0.078201
#
#
# Mechanical properties :
#
#
# Convention : Reuss Voigt Hill
#
# Bulk Modulus (GPa) = 57.20191 62.04455 59.62323
# Shear Modulus (GPa) = -22.84003 7.22059 -7.80972
#
# Velocity S-wave (km/s) = -3.38970 1.90590 -1.98212
# Velocity P-wave (km/s) = 3.66828 6.00465 4.97554
#
# Compressibility (1/GPa) = 0.01748194
#
# Stress axis : x y z
#
# Youngs Moduli (GPa) = 69.32099 82.89117 60.29643
#
# Poissons Ratio (x) = 0.35481 0.14270
# Poissons Ratio (y) = 0.29672 0.37078
# Poissons Ratio (z) = 0.16405 0.50972
#
# Static dielectric constant tensor:
#      x y z
#    x 1.795190 0.000000 0.000000 
#    y 0.000000 1.692600 0.000000 
#    z 0.000000 0.000000 1.842400 
# 
# From -- ./inp_files/28049.got.cif
#   From: 2010.05.17/outbox.cif.g08.bks.cpg/sg47_15_cif.got.tgz:28049.got - 2010.06.03 20:15:42.
