data_PCOD9386408
_publ_section_title
;
Structure prediction by ZEFSAII (Michael W. Deem and Ramdas Pophale) SiO2 
 PCOD9386408
Probable space group: P M M M
;
_chemical_formula_sum "Si O2"
_cell_formula_units_Z 48
_cell_length_a 32.141777
_cell_length_b 9.100315
_cell_length_c 9.233436
_cell_angle_alpha 90.000000
_cell_angle_beta 90.000000
_cell_angle_gamma 90.000000
_cell_volume 2700.782757
_symmetry_space_group_name_H-M "P M M M"
_symmetry_group_IT_number 47
_symmetry_cell_setting 'orthorhombic'
loop_
_space_group_symop_operation_xyz
x,y,z
-x,-y,z
x,-y,-z
-x,y,-z
-x,-y,-z
x,y,-z
-x,y,z
x,-y,z
loop_
_atom_site_type_symbol
_atom_site_label
_atom_site_fract_x
_atom_site_fract_y
_atom_site_fract_z
Si Si1 0.000000 0.175814 0.671225
Si Si2 0.415424 0.825129 0.672484
Si Si3 0.668674 0.174971 0.172114
Si Si4 0.245627 0.676654 0.829710
Si Si5 0.500000 0.330294 0.676484
Si Si6 0.162386 0.321074 0.666364
Si Si7 0.077992 0.677111 0.170867
O O1 0.959558 0.244780 0.746801
O O2 0.000000 0.210009 0.500000
O O3 0.000000 0.000000 0.688278
O O4 0.411560 0.801406 0.500000
O O5 0.373217 0.773798 0.749092
O O6 0.457543 0.747629 0.724632
O O7 0.419546 0.000000 0.696767
O O8 0.711027 0.253266 0.220368
O O9 0.672698 0.000000 0.196444
O O10 0.664337 0.199639 0.000000
O O11 0.248540 0.500000 0.818826
O O12 0.205467 0.726769 0.739958
O O13 0.239816 0.712889 0.000000
O O14 0.500000 0.500000 0.717962
O O15 0.500000 0.321661 0.500000
O O16 0.159091 0.272677 0.500000
O O17 0.163050 0.500000 0.666703
O O18 0.121991 0.278320 0.758599
O O19 0.073751 0.500000 0.186636
O O20 0.077201 0.710175 0.000000
#
# Coordination Sequence:
#
# PCOD9386408 Si02
#       7
#     4   8   8   8   4   8   8
#     4  11  24  39  54  76 108 141 172 211 260 308
#     4   9  17  30  48  67  88 118 155 191 228 274
#     4   9  18  32  48  67  93 124 157 193 234 281
#     4   9  17  30  48  69  94 125 159 195 237 285
#     4   9  17  29  46  69  94 118 148 189 234 278
#     4   9  17  30  50  76 103 130 163 205 249 291
#     4  10  20  35  57  82 105 134 175 216 253 301
#
# _framework density 17.772625999999999
#
# number of rings (size 3 to 8) (size 9 to 14) (size 15 to 20)
#    0.000    2.667    0.000    1.750    0.000    7.000 
#    0.000    1.250    0.000    5.500    0.000    0.000 
#    0.000    0.000    0.000    0.000    0.000    0.000 
#
# Total GULP energy -267713.116190 kJ/mol
# GULP energy per Si atom -5577.356587 kJ/mol
# Density = 1.773218 g / cm^3
# Si number density = 17.772626 Si / 1000 Ang^3
#
#
#
# Elastic Constant Matrix: (Units=GPa)
#
#
# Indices 1 2 3 4 5 6 
#
# 1 225.5929 59.9927 97.2692 0.0000 0.0000 0.0000
# 2 59.9927 23.1285 44.2193 0.0000 0.0000 0.0000
# 3 97.2692 44.2193 93.0164 0.0000 0.0000 0.0000
# 4 0.0000 0.0000 0.0000 16.1086 0.0000 0.0000
# 5 0.0000 0.0000 0.0000 0.0000 38.3818 0.0000
# 6 0.0000 0.0000 0.0000 0.0000 0.0000 79.6526
#
#
#
# Elastic Compliance Matrix: (Units=1/GPa)
#
#
# Indices 1 2 3 4 5 6 
#
# 1 0.029305 -0.191263 0.060280 0.000000 0.000000 0.000000
# 2 -0.191263 1.722914 -0.619052 0.000000 0.000000 0.000000
# 3 0.060280 -0.619052 0.242007 0.000000 0.000000 0.000000
# 4 0.000000 0.000000 0.000000 0.062079 0.000000 0.000000
# 5 0.000000 0.000000 0.000000 0.000000 0.026054 0.000000
# 6 0.000000 0.000000 0.000000 0.000000 0.000000 0.012555
#
#
# Mechanical properties :
#
#
# Convention : Reuss Voigt Hill
#
# Bulk Modulus (GPa) = 2.02365 82.74446 42.38406
# Shear Modulus (GPa) = 1.32989 36.17904 18.75447
#
# Velocity S-wave (km/s) = 0.86597 4.51672 3.25198
# Velocity P-wave (km/s) = 1.46321 8.59415 6.16443
#
# Compressibility (1/GPa) = 0.49415554
#
# Stress axis : x y z
#
# Youngs Moduli (GPa) = 34.12398 0.58041 4.13211
#
# Poissons Ratio (x) = 0.11101 -0.24908
# Poissons Ratio (y) = 6.52665 2.55799
# Poissons Ratio (z) = -2.05700 0.35931
#
# Static dielectric constant tensor:
#      x y z
#    x 1.588190 0.000000 0.000000 
#    y 0.000000 1.595930 0.000000 
#    z 0.000000 0.000000 1.597650 
# 
# From -- ./inp_files/13942.got.cif
#   From: 2010.05.17/outbox.cif.g08.bks.cpg/sg47_7_cif.got.tgz:13942.got - 2010.06.03 20:15:42.
