data_PCOD9386814
_publ_section_title
;
Structure prediction by ZEFSAII (Michael W. Deem and Ramdas Pophale) SiO2 
 PCOD9386814
Probable space group: P M M M
;
_chemical_formula_sum "Si O2"
_cell_formula_units_Z 48
_cell_length_a 19.294581
_cell_length_b 7.253129
_cell_length_c 14.813933
_cell_angle_alpha 90.000000
_cell_angle_beta 90.000000
_cell_angle_gamma 90.000000
_cell_volume 2073.151927
_symmetry_space_group_name_H-M "P M M M"
_symmetry_group_IT_number 47
_symmetry_cell_setting 'orthorhombic'
loop_
_space_group_symop_operation_xyz
x,y,z
-x,-y,z
x,-y,-z
-x,y,-z
-x,-y,-z
x,y,-z
-x,y,z
x,-y,z
loop_
_atom_site_type_symbol
_atom_site_label
_atom_site_fract_x
_atom_site_fract_y
_atom_site_fract_z
Si Si1 0.922219 0.724168 0.894858
Si Si2 0.711787 0.286919 0.601174
Si Si3 0.420200 0.777241 0.705012
Si Si4 0.815890 0.277520 0.249807
Si Si5 0.921568 0.277086 0.403260
Si Si6 0.583113 0.778933 0.902842
O O1 0.922750 0.500000 0.888478
O O2 0.852470 0.785710 0.842830
O O3 0.000000 0.780642 0.861003
O O4 0.918688 0.773536 0.000000
O O5 0.723463 0.209960 0.500000
O O6 0.735191 0.500000 0.595824
O O7 0.631059 0.281375 0.626385
O O8 0.749686 0.211023 0.691716
O O9 0.500000 0.718614 0.693788
O O10 0.393536 0.712903 0.804386
O O11 0.420604 0.000000 0.706968
O O12 0.807618 0.500000 0.240036
O O13 0.876117 0.227001 0.319994
O O14 0.892425 0.218954 0.500000
O O15 0.923340 0.500000 0.403550
O O16 0.000000 0.213297 0.396362
O O17 0.500000 0.747540 0.903129
O O18 0.593053 0.000000 0.903493
O O19 0.610363 0.709998 0.000000
#
# Coordination Sequence:
#
# PCOD9386814 Si02
#       6
#     8   8   8   8   8   8
#     4   8  13  21  35  57  85 119 158 193 224 265
#     4  10  21  34  46  63  90 124 158 193 240 295
#     4   9  18  33  53  74  92 114 151 197 240 284
#     4   9  15  24  37  52  78 116 149 177 217 270
#     4   8  12  17  28  48  71  96 130 170 207 242
#     4   7  10  20  42  70  93 109 129 164 212 263
#
# _framework density 23.153148999999999
#
# number of rings (size 3 to 8) (size 9 to 14) (size 15 to 20)
#    0.000    3.500    0.000    3.500    0.000    5.000 
#    0.000    2.500    0.000    1.500    0.000    2.333 
#    0.000    2.667    0.000   10.000    0.000   10.000 
#
# Total GULP energy -267244.790484 kJ/mol
# GULP energy per Si atom -5567.599802 kJ/mol
# Density = 2.310045 g / cm^3
# Si number density = 23.153149 Si / 1000 Ang^3
#
#
#
# Elastic Constant Matrix: (Units=GPa)
#
#
# Indices 1 2 3 4 5 6 
#
# 1 89.9399 -3.1559 59.8093 0.0000 0.0000 0.0000
# 2 -3.1559 99.9911 0.7224 0.0000 0.0000 0.0000
# 3 59.8093 0.7224 109.6590 0.0000 0.0000 0.0000
# 4 0.0000 0.0000 0.0000 -9.0257 0.0000 0.0000
# 5 0.0000 0.0000 0.0000 0.0000 59.1290 0.0000
# 6 0.0000 0.0000 0.0000 0.0000 0.0000 4.6178
#
#
#
# Elastic Compliance Matrix: (Units=1/GPa)
#
#
# Indices 1 2 3 4 5 6 
#
# 1 0.017485 0.000621 -0.009540 0.000000 0.000000 0.000000
# 2 0.000621 0.010023 -0.000405 0.000000 0.000000 0.000000
# 3 -0.009540 -0.000405 0.014325 0.000000 0.000000 0.000000
# 4 0.000000 0.000000 0.000000 -0.110795 0.000000 0.000000
# 5 0.000000 0.000000 0.000000 0.000000 0.016912 0.000000
# 6 0.000000 0.000000 0.000000 0.000000 0.000000 0.216551
#
#
# Mechanical properties :
#
#
# Convention : Reuss Voigt Hill
#
# Bulk Modulus (GPa) = 43.13164 46.03794 44.58479
# Shear Modulus (GPa) = 26.19472 27.09184 26.64328
#
# Velocity S-wave (km/s) = 3.36723 3.42440 3.39594
# Velocity P-wave (km/s) = 5.81265 5.96344 5.88853
#
# Compressibility (1/GPa) = 0.02318484
#
# Stress axis : x y z
#
# Youngs Moduli (GPa) = 57.19315 99.76650 69.80659
#
# Poissons Ratio (x) = -0.06193 0.66598
# Poissons Ratio (y) = -0.03550 0.02824
# Poissons Ratio (z) = 0.54565 0.04037
#
# Static dielectric constant tensor:
#      x y z
#    x 1.867540 0.000000 0.000000 
#    y 0.000000 2.059810 0.000000 
#    z 0.000000 0.000000 1.894230 
# 
# From -- ./inp_files/24426.got.cif
#   From: 2010.05.17/outbox.cif.g08.bks.cpg/sg47_13_cif.got.tgz:24426.got - 2010.06.03 20:15:42.
