data_PCOD9386153
_publ_section_title
;
Structure prediction by ZEFSAII (Michael W. Deem and Ramdas Pophale) SiO2 
 PCOD9386153
Probable space group: P M M M
;
_chemical_formula_sum "Si O2"
_cell_formula_units_Z 56
_cell_length_a 23.218843
_cell_length_b 14.984814
_cell_length_c 8.740754
_cell_angle_alpha 90.000000
_cell_angle_beta 90.000000
_cell_angle_gamma 90.000000
_cell_volume 3041.170921
_symmetry_space_group_name_H-M "P M M M"
_symmetry_group_IT_number 47
_symmetry_cell_setting 'orthorhombic'
loop_
_space_group_symop_operation_xyz
x,y,z
-x,-y,z
x,-y,-z
-x,y,-z
-x,-y,-z
x,y,-z
-x,y,z
x,-y,z
loop_
_atom_site_type_symbol
_atom_site_label
_atom_site_fract_x
_atom_site_fract_y
_atom_site_fract_z
Si Si1 0.887533 0.790166 0.683405
Si Si2 0.758137 0.597884 0.677883
Si Si3 0.000000 0.898817 0.686280
Si Si4 0.881622 0.599107 0.180386
Si Si5 0.430841 0.000000 0.671952
Si Si6 0.681459 0.769952 0.318830
Si Si7 0.434023 0.188634 0.817693
Si Si8 0.777001 0.895081 0.816228
O O1 0.881749 0.792074 0.500000
O O2 0.900659 0.688912 0.735154
O O3 0.829562 0.834470 0.751929
O O4 0.941962 0.849163 0.733047
O O5 0.778265 0.606643 0.500000
O O6 0.730457 0.500000 0.691469
O O7 0.813208 0.599739 0.786587
O O8 0.716999 0.679759 0.709621
O O9 0.000000 0.899333 0.500000
O O10 0.000000 0.000000 0.740726
O O11 0.902440 0.500000 0.231852
O O12 0.893103 0.606593 0.000000
O O13 0.417777 0.911288 0.764508
O O14 0.500000 0.000000 0.657540
O O15 0.406210 0.000000 0.500000
O O16 0.678904 0.786431 0.500000
O O17 0.617377 0.756021 0.255362
O O18 0.717814 0.849978 0.242107
O O19 0.500000 0.207169 0.766585
O O20 0.432971 0.194634 0.000000
O O21 0.781960 0.000000 0.769856
O O22 0.778360 0.891669 0.000000
#
# Coordination Sequence:
#
# PCOD9386153 Si02
#       8
#     8   8   4   8   4   8   8   8
#     4  11  21  37  61  86 113 148 190 238 286 331
#     4   9  18  34  56  83 112 141 178 225 279 337
#     4   9  20  38  60  85 112 148 195 241 282 331
#     4  10  20  34  55  83 115 150 184 224 280 340
#     4   9  17  31  51  73  97 131 179 228 269 320
#     4  11  22  35  56  84 111 143 183 230 281 333
#     4  10  21  36  53  73 104 146 186 228 279 333
#     4  11  24  39  55  79 115 153 186 228 281 336
#
# _framework density 18.413959999999999
#
# number of rings (size 3 to 8) (size 9 to 14) (size 15 to 20)
#    0.000    1.857    1.429    2.786    1.000    4.857 
#    0.000    1.786    0.000    5.143    0.000    3.000 
#    0.000    0.000    0.000    0.000    0.000    0.000 
#
# Total GULP energy -312362.882497 kJ/mol
# GULP energy per Si atom -5577.908616 kJ/mol
# Density = 1.837205 g / cm^3
# Si number density = 18.413960 Si / 1000 Ang^3
#
#
#
# Elastic Constant Matrix: (Units=GPa)
#
#
# Indices 1 2 3 4 5 6 
#
# 1 86.0124 37.5377 19.3489 0.0000 0.0000 0.0000
# 2 37.5377 121.7723 32.8039 0.0000 0.0000 0.0000
# 3 19.3489 32.8039 45.3158 0.0000 0.0000 0.0000
# 4 0.0000 0.0000 0.0000 25.2061 0.0000 0.0000
# 5 0.0000 0.0000 0.0000 0.0000 87.1041 0.0000
# 6 0.0000 0.0000 0.0000 0.0000 0.0000 14.9735
#
#
#
# Elastic Compliance Matrix: (Units=1/GPa)
#
#
# Indices 1 2 3 4 5 6 
#
# 1 0.013869 -0.003329 -0.003512 0.000000 0.000000 0.000000
# 2 -0.003329 0.011001 -0.006542 0.000000 0.000000 0.000000
# 3 -0.003512 -0.006542 0.028302 0.000000 0.000000 0.000000
# 4 0.000000 0.000000 0.000000 0.039673 0.000000 0.000000
# 5 0.000000 0.000000 0.000000 0.000000 0.011481 0.000000
# 6 0.000000 0.000000 0.000000 0.000000 0.000000 0.066785
#
#
# Mechanical properties :
#
#
# Convention : Reuss Voigt Hill
#
# Bulk Modulus (GPa) = 37.86947 48.05350 42.96148
# Shear Modulus (GPa) = 24.19219 36.35073 30.27146
#
# Velocity S-wave (km/s) = 3.62856 4.44789 4.05895
# Velocity P-wave (km/s) = 6.17783 7.24784 6.73412
#
# Compressibility (1/GPa) = 0.02640649
#
# Stress axis : x y z
#
# Youngs Moduli (GPa) = 72.10214 90.90412 35.33271
#
# Poissons Ratio (x) = 0.30265 0.12408
# Poissons Ratio (y) = 0.24005 0.23114
# Poissons Ratio (z) = 0.25321 0.59467
#
# Static dielectric constant tensor:
#      x y z
#    x 1.635870 0.000000 0.000000 
#    y 0.000000 1.692640 0.000000 
#    z 0.000000 0.000000 1.629530 
# 
# From -- ./inp_files/11387.got.cif
#   From: 2010.05.17/outbox.cif.g08.bks.cpg/sg47_6_cif.got.tgz:11387.got - 2010.06.03 20:15:42.
