data_PCOD9386130
_publ_section_title
;
Structure prediction by ZEFSAII (Michael W. Deem and Ramdas Pophale) SiO2 
 PCOD9386130
Probable space group: P M M M
;
_chemical_formula_sum "Si O2"
_cell_formula_units_Z 56
_cell_length_a 8.684082
_cell_length_b 17.488891
_cell_length_c 21.022078
_cell_angle_alpha 90.000000
_cell_angle_beta 90.000000
_cell_angle_gamma 90.000000
_cell_volume 3192.727330
_symmetry_space_group_name_H-M "P M M M"
_symmetry_group_IT_number 47
_symmetry_cell_setting 'orthorhombic'
loop_
_space_group_symop_operation_xyz
x,y,z
-x,-y,z
x,-y,-z
-x,y,-z
-x,-y,-z
x,y,-z
-x,y,z
x,-y,z
loop_
_atom_site_type_symbol
_atom_site_label
_atom_site_fract_x
_atom_site_fract_y
_atom_site_fract_z
Si Si1 0.684695 0.659949 0.309639
Si Si2 0.683801 0.500000 0.875574
Si Si3 0.184078 0.657725 0.072586
Si Si4 0.186757 0.084009 0.617301
Si Si5 0.186470 0.248165 0.571186
Si Si6 0.185316 0.086161 0.767079
Si Si7 0.183728 0.500000 0.267407
Si Si8 0.683925 0.758599 0.184931
O O1 0.500000 0.654360 0.309880
O O2 0.742435 0.701355 0.373108
O O3 0.756656 0.576411 0.301397
O O4 0.730648 0.710705 0.248050
O O5 0.500000 0.500000 0.872726
O O6 0.742412 0.576033 0.910259
O O7 0.749292 0.500000 0.804050
O O8 0.242836 0.718770 0.123690
O O9 0.000000 0.650800 0.077634
O O10 0.223378 0.678511 0.000000
O O11 0.236926 0.159830 0.581003
O O12 0.225367 0.093024 0.692044
O O13 0.000000 0.082262 0.613285
O O14 0.241694 0.000000 0.595711
O O15 0.227381 0.273528 0.500000
O O16 0.000000 0.250170 0.576963
O O17 0.262476 0.154649 0.804939
O O18 0.000000 0.092959 0.771437
O O19 0.227935 0.000000 0.787345
O O20 0.000000 0.500000 0.264594
O O21 0.500000 0.754699 0.180050
#
# Coordination Sequence:
#
# PCOD9386130 Si02
#       8
#     8   4   8   8   8   8   4   8
#     4  11  23  39  58  83 114 148 187 233 284 341
#     4  12  23  37  58  88 123 157 188 223 277 340
#     4  11  24  40  59  85 118 156 195 233 277 333
#     4   8  14  26  47  77 111 145 182 228 281 331
#     4  10  20  34  55  82 112 149 193 239 285 337
#     4   9  17  31  54  82 112 148 191 238 285 334
#     4  12  24  39  64  89 112 144 184 238 286 329
#     4  11  22  35  57  85 115 152 191 235 284 337
#
# _framework density 17.539863
#
# number of rings (size 3 to 8) (size 9 to 14) (size 15 to 20)
#    0.000    1.714    2.857    3.643    0.000    4.000 
#    0.000    1.786    0.000    3.000    0.000    4.000 
#    0.000    0.000    0.000    0.000    0.000    0.000 
#
# Total GULP energy -312737.863479 kJ/mol
# GULP energy per Si atom -5584.604705 kJ/mol
# Density = 1.749994 g / cm^3
# Si number density = 17.539863 Si / 1000 Ang^3
#
#
#
# Elastic Constant Matrix: (Units=GPa)
#
#
# Indices 1 2 3 4 5 6 
#
# 1 54.8575 48.0665 53.6987 0.0000 0.0000 0.0000
# 2 48.0665 137.7317 80.5816 0.0000 0.0000 0.0000
# 3 53.6987 80.5816 138.3388 0.0000 0.0000 0.0000
# 4 0.0000 0.0000 0.0000 48.8874 0.0000 0.0000
# 5 0.0000 0.0000 0.0000 0.0000 15.2100 0.0000
# 6 0.0000 0.0000 0.0000 0.0000 0.0000 3.3681
#
#
#
# Elastic Compliance Matrix: (Units=1/GPa)
#
#
# Indices 1 2 3 4 5 6 
#
# 1 0.032353 -0.005982 -0.009074 0.000000 0.000000 0.000000
# 2 -0.005982 0.012120 -0.004738 0.000000 0.000000 0.000000
# 3 -0.009074 -0.004738 0.013511 0.000000 0.000000 0.000000
# 4 0.000000 0.000000 0.000000 0.020455 0.000000 0.000000
# 5 0.000000 0.000000 0.000000 0.000000 0.065746 0.000000
# 6 0.000000 0.000000 0.000000 0.000000 0.000000 0.296904
#
#
# Mechanical properties :
#
#
# Convention : Reuss Voigt Hill
#
# Bulk Modulus (GPa) = 54.35950 77.29129 65.82540
# Shear Modulus (GPa) = 10.27099 23.39850 16.83474
#
# Velocity S-wave (km/s) = 2.42250 3.65638 3.10142
# Velocity P-wave (km/s) = 6.23570 7.87320 7.10180
#
# Compressibility (1/GPa) = 0.01839605
#
# Stress axis : x y z
#
# Youngs Moduli (GPa) = 30.90942 82.50789 74.01589
#
# Poissons Ratio (x) = 0.49355 0.67161
# Poissons Ratio (y) = 0.18490 0.35068
# Poissons Ratio (z) = 0.28047 0.39091
#
# Static dielectric constant tensor:
#      x y z
#    x 1.591690 0.000000 0.000000 
#    y 0.000000 1.587410 0.000000 
#    z 0.000000 0.000000 1.579530 
# 
# From -- ./inp_files/29818.got.cif
#   From: 2010.05.17/outbox.cif.g08.bks.cpg/sg47_15_cif.got.tgz:29818.got - 2010.06.03 20:15:42.
