data_PCOD9386885
_publ_section_title
;
Structure prediction by ZEFSAII (Michael W. Deem and Ramdas Pophale) SiO2 
 PCOD9386885
Probable space group: P M M M
;
_chemical_formula_sum "Si O2"
_cell_formula_units_Z 48
_cell_length_a 7.821315
_cell_length_b 9.434852
_cell_length_c 35.037757
_cell_angle_alpha 90.000000
_cell_angle_beta 90.000000
_cell_angle_gamma 90.000000
_cell_volume 2585.539432
_symmetry_space_group_name_H-M "P M M M"
_symmetry_group_IT_number 47
_symmetry_cell_setting 'orthorhombic'
loop_
_space_group_symop_operation_xyz
x,y,z
-x,-y,z
x,-y,-z
-x,y,-z
-x,-y,-z
x,y,-z
-x,y,z
x,-y,z
loop_
_atom_site_type_symbol
_atom_site_label
_atom_site_fract_x
_atom_site_fract_y
_atom_site_fract_z
Si Si1 0.000000 0.170132 0.087489
Si Si2 0.299863 0.331291 0.773169
Si Si3 0.699129 0.665397 0.045865
Si Si4 0.202624 0.840443 0.384205
Si Si5 0.000000 0.330639 0.167329
Si Si6 0.704311 0.161263 0.301452
Si Si7 0.705654 0.337794 0.541863
O O1 0.833086 0.232583 0.066118
O O2 0.000000 0.236565 0.129691
O O3 0.000000 0.000000 0.087658
O O4 0.500000 0.294487 0.781297
O O5 0.294220 0.500000 0.766384
O O6 0.239912 0.251572 0.734872
O O7 0.168920 0.300713 0.807335
O O8 0.500000 0.694132 0.055552
O O9 0.734660 0.500000 0.055733
O O10 0.715655 0.677550 0.000000
O O11 0.257323 0.777809 0.343368
O O12 0.247030 0.753473 0.421704
O O13 0.000000 0.850935 0.382834
O O14 0.276999 0.000000 0.386637
O O15 0.000000 0.500000 0.158318
O O16 0.500000 0.153543 0.298544
O O17 0.773618 0.000000 0.300162
O O18 0.764779 0.284931 0.500000
O O19 0.500000 0.341407 0.540658
O O20 0.766234 0.500000 0.546128
#
# Coordination Sequence:
#
# PCOD9386885 Si02
#       7
#     4   8   8   8   4   8   8
#     4  12  25  37  54  87 126 162 198 245 305 360
#     4   9  19  36  57  80 104 134 178 231 282 331
#     4   9  19  38  64  90 117 157 208 255 299 352
#     4  10  21  34  49  75 107 136 166 202 247 305
#     4  10  22  39  57  78 108 149 195 239 282 338
#     4   9  18  33  53  76 102 132 165 205 256 314
#     4   9  19  36  55  73  95 127 168 211 253 299
#
# _framework density 18.564792000000001
#
# number of rings (size 3 to 8) (size 9 to 14) (size 15 to 20)
#    0.000    2.500    0.000    2.500    1.167    5.667 
#    0.000    6.667    0.000    0.000    0.000    0.000 
#    0.000    0.000    0.000    0.000    0.000    0.000 
#
# Total GULP energy -267683.893898 kJ/mol
# GULP energy per Si atom -5576.747790 kJ/mol
# Density = 1.852254 g / cm^3
# Si number density = 18.564792 Si / 1000 Ang^3
#
#
#
# Elastic Constant Matrix: (Units=GPa)
#
#
# Indices 1 2 3 4 5 6 
#
# 1 81.2394 53.8610 64.1756 0.0000 0.0000 0.0000
# 2 53.8610 83.4195 83.7340 0.0000 0.0000 0.0000
# 3 64.1756 83.7340 136.0045 0.0000 0.0000 0.0000
# 4 0.0000 0.0000 0.0000 41.3977 0.0000 0.0000
# 5 0.0000 0.0000 0.0000 0.0000 -18.5695 0.0000
# 6 0.0000 0.0000 0.0000 0.0000 0.0000 15.7636
#
#
#
# Elastic Compliance Matrix: (Units=1/GPa)
#
#
# Indices 1 2 3 4 5 6 
#
# 1 0.022474 -0.010120 -0.004374 0.000000 0.000000 0.000000
# 2 -0.010120 0.035938 -0.017350 0.000000 0.000000 0.000000
# 3 -0.004374 -0.017350 0.020099 0.000000 0.000000 0.000000
# 4 0.000000 0.000000 0.000000 0.024156 0.000000 0.000000
# 5 0.000000 0.000000 0.000000 0.000000 -0.053852 0.000000
# 6 0.000000 0.000000 0.000000 0.000000 0.000000 0.063437
#
#
# Mechanical properties :
#
#
# Convention : Reuss Voigt Hill
#
# Bulk Modulus (GPa) = 67.47044 78.24495 72.85770
# Shear Modulus (GPa) = 27.64230 14.31124 20.97677
#
# Velocity S-wave (km/s) = 3.86290 2.77949 3.36508
# Velocity P-wave (km/s) = 7.50454 7.24839 7.37758
#
# Compressibility (1/GPa) = 0.01482131
#
# Stress axis : x y z
#
# Youngs Moduli (GPa) = 44.49536 27.82579 49.75424
#
# Poissons Ratio (x) = 0.28161 0.21762
# Poissons Ratio (y) = 0.45031 0.86326
# Poissons Ratio (z) = 0.19462 0.48279
#
# Static dielectric constant tensor:
#      x y z
#    x 1.652800 0.000000 0.000000 
#    y 0.000000 1.642590 0.000000 
#    z 0.000000 0.000000 1.636070 
# 
# From -- ./inp_files/34050.got.cif
#   From: 2010.05.17/outbox.cif.g08.bks.cpg/sg47_18_cif.got.tgz:34050.got - 2010.06.03 20:15:42.
