data_PCOD9386514
_publ_section_title
;
Structure prediction by ZEFSAII (Michael W. Deem and Ramdas Pophale) SiO2 
 PCOD9386514
Probable space group: P M M M
;
_chemical_formula_sum "Si O2"
_cell_formula_units_Z 56
_cell_length_a 9.303450
_cell_length_b 21.413576
_cell_length_c 14.720313
_cell_angle_alpha 90.000000
_cell_angle_beta 90.000000
_cell_angle_gamma 90.000000
_cell_volume 2932.582723
_symmetry_space_group_name_H-M "P M M M"
_symmetry_group_IT_number 47
_symmetry_cell_setting 'orthorhombic'
loop_
_space_group_symop_operation_xyz
x,y,z
-x,-y,z
x,-y,-z
-x,y,-z
-x,-y,-z
x,y,-z
-x,y,z
x,-y,z
loop_
_atom_site_type_symbol
_atom_site_label
_atom_site_fract_x
_atom_site_fract_y
_atom_site_fract_z
Si Si1 0.671988 0.743762 0.109159
Si Si2 0.826299 0.628193 0.794957
Si Si3 0.163947 0.072462 0.353355
Si Si4 0.171878 0.684707 0.394342
Si Si5 0.341955 0.192442 0.605804
Si Si6 0.825784 0.500000 0.894684
Si Si7 0.164543 0.134276 0.157790
Si Si8 0.340169 0.926523 0.000000
O O1 0.500000 0.743512 0.121996
O O2 0.744411 0.681602 0.148878
O O3 0.747030 0.801502 0.160944
O O4 0.699610 0.750063 0.000000
O O5 0.793554 0.636410 0.687044
O O6 0.785064 0.561928 0.838879
O O7 0.000000 0.635961 0.804678
O O8 0.269504 0.124654 0.391501
O O9 0.160716 0.093263 0.248432
O O10 0.000000 0.079319 0.388297
O O11 0.205933 0.000000 0.365085
O O12 0.213262 0.669203 0.500000
O O13 0.241673 0.750543 0.363611
O O14 0.000000 0.692678 0.395413
O O15 0.358813 0.206465 0.500000
O O16 0.500000 0.192263 0.649654
O O17 0.000000 0.500000 0.898559
O O18 0.774953 0.500000 0.000000
O O19 0.249652 0.094394 0.085278
O O20 0.000000 0.147925 0.131411
O O21 0.500000 0.897530 0.000000
O O22 0.354242 0.000000 0.000000
#
# Coordination Sequence:
#
# PCOD9386514 Si02
#       8
#     8   8   8   8   8   4   8   4
#     4  11  23  37  54  80 114 145 181 234 291 341
#     4  10  20  35  58  85 113 150 194 232 275 333
#     4  10  22  38  54  75 103 137 180 227 277 335
#     4   9  18  34  56  83 114 146 182 228 281 335
#     4  10  21  36  55  80 108 139 178 225 278 336
#     4   9  18  34  56  84 118 155 195 239 278 323
#     4  11  22  37  57  78 103 138 182 229 275 330
#     4  11  23  37  53  75 105 140 177 220 275 333
#
# _framework density 19.095794999999999
#
# number of rings (size 3 to 8) (size 9 to 14) (size 15 to 20)
#    0.000    1.857    0.714    3.214    0.000    9.143 
#    0.000    2.143    0.000    3.429    0.000    0.000 
#    0.000    3.429    0.000    0.000    0.000    0.000 
#
# Total GULP energy -312316.086009 kJ/mol
# GULP energy per Si atom -5577.072964 kJ/mol
# Density = 1.905233 g / cm^3
# Si number density = 19.095795 Si / 1000 Ang^3
#
#
#
# Elastic Constant Matrix: (Units=GPa)
#
#
# Indices 1 2 3 4 5 6 
#
# 1 62.6586 29.7093 34.1295 0.0000 0.0000 0.0000
# 2 29.7093 134.5404 44.4344 0.0000 0.0000 0.0000
# 3 34.1295 44.4344 104.1963 0.0000 0.0000 0.0000
# 4 0.0000 0.0000 0.0000 40.2350 0.0000 0.0000
# 5 0.0000 0.0000 0.0000 0.0000 -141.9681 0.0000
# 6 0.0000 0.0000 0.0000 0.0000 0.0000 6.4861
#
#
#
# Elastic Compliance Matrix: (Units=1/GPa)
#
#
# Indices 1 2 3 4 5 6 
#
# 1 0.020205 -0.002649 -0.005488 0.000000 0.000000 0.000000
# 2 -0.002649 0.008998 -0.002970 0.000000 0.000000 0.000000
# 3 -0.005488 -0.002970 0.012661 0.000000 0.000000 0.000000
# 4 0.000000 0.000000 0.000000 0.024854 0.000000 0.000000
# 5 0.000000 0.000000 0.000000 0.000000 -0.007044 0.000000
# 6 0.000000 0.000000 0.000000 0.000000 0.000000 0.154175
#
#
# Mechanical properties :
#
#
# Convention : Reuss Voigt Hill
#
# Bulk Modulus (GPa) = 50.88917 57.54906 54.21911
# Shear Modulus (GPa) = 20.60883 -6.17457 7.21713
#
# Velocity S-wave (km/s) = 3.28873 -1.80014 1.94619
# Velocity P-wave (km/s) = 6.41313 5.08742 5.78835
#
# Compressibility (1/GPa) = 0.01965055
#
# Stress axis : x y z
#
# Youngs Moduli (GPa) = 49.49264 111.13012 78.97992
#
# Poissons Ratio (x) = 0.29438 0.43348
# Poissons Ratio (y) = 0.13111 0.23455
# Poissons Ratio (z) = 0.27164 0.33002
#
# Static dielectric constant tensor:
#      x y z
#    x 1.668620 0.000000 0.000000 
#    y 0.000000 1.633780 0.000000 
#    z 0.000000 0.000000 1.719470 
# 
# From -- ./inp_files/21631.got.cif
#   From: 2010.05.17/outbox.cif.g08.bks.cpg/sg47_11_cif.got.tgz:21631.got - 2010.06.03 20:15:42.
