data_PCOD9386551
_publ_section_title
;
Structure prediction by ZEFSAII (Michael W. Deem and Ramdas Pophale) SiO2 
 PCOD9386551
Probable space group: P M M M
;
_chemical_formula_sum "Si O2"
_cell_formula_units_Z 48
_cell_length_a 8.845605
_cell_length_b 20.862350
_cell_length_c 14.289601
_cell_angle_alpha 90.000000
_cell_angle_beta 90.000000
_cell_angle_gamma 90.000000
_cell_volume 2637.004504
_symmetry_space_group_name_H-M "P M M M"
_symmetry_group_IT_number 47
_symmetry_cell_setting 'orthorhombic'
loop_
_space_group_symop_operation_xyz
x,y,z
-x,-y,z
x,-y,-z
-x,y,-z
-x,-y,-z
x,y,-z
-x,y,z
x,-y,z
loop_
_atom_site_type_symbol
_atom_site_label
_atom_site_fract_x
_atom_site_fract_y
_atom_site_fract_z
Si Si1 0.681386 0.000000 0.609938
Si Si2 0.179476 0.877444 0.287319
Si Si3 0.180358 0.680324 0.108134
Si Si4 0.680255 0.821978 0.108126
Si Si5 0.679196 0.243678 0.389086
Si Si6 0.818608 0.500000 0.390266
Si Si7 0.319300 0.377714 0.286538
O O1 0.746945 0.937314 0.659947
O O2 0.500000 0.000000 0.616800
O O3 0.722007 0.000000 0.500000
O O4 0.244766 0.868706 0.182983
O O5 0.227134 0.812880 0.341851
O O6 0.000000 0.884015 0.285063
O O7 0.252813 0.750661 0.122829
O O8 0.251877 0.632701 0.183314
O O9 0.000000 0.684664 0.121401
O O10 0.209762 0.662206 0.000000
O O11 0.500000 0.819574 0.122457
O O12 0.709988 0.839568 0.000000
O O13 0.705387 0.245813 0.500000
O O14 0.500000 0.230976 0.373475
O O15 0.714336 0.312127 0.343045
O O16 0.776101 0.500000 0.500000
O O17 0.752989 0.562562 0.339604
O O18 0.000000 0.500000 0.383918
O O19 0.500000 0.385068 0.282243
#
# Coordination Sequence:
#
# PCOD9386551 Si02
#       7
#     4   8   8   8   8   4   8
#     4  11  25  45  66  85 116 163 207 248 298 359
#     4  12  24  38  60  90 123 157 197 248 304 358
#     4  10  20  35  58  90 125 158 195 244 302 357
#     4  10  20  36  60  89 121 159 202 245 293 353
#     4  10  21  37  58  85 117 154 199 248 296 351
#     4  11  25  43  62  85 120 163 203 248 306 365
#     4  11  22  38  62  89 119 158 204 249 297 357
#
# _framework density 18.202472
#
# number of rings (size 3 to 8) (size 9 to 14) (size 15 to 20)
#    0.000    1.333    1.667    4.500    0.000    7.000 
#    0.000    0.833    0.000    5.000    0.000    0.000 
#    0.000    0.000    0.000    0.000    0.000    0.000 
#
# Total GULP energy -268382.708162 kJ/mol
# GULP energy per Si atom -5591.306420 kJ/mol
# Density = 1.816104 g / cm^3
# Si number density = 18.202472 Si / 1000 Ang^3
#
#
#
# Elastic Constant Matrix: (Units=GPa)
#
#
# Indices 1 2 3 4 5 6 
#
# 1 102.3624 76.6031 85.5523 0.0000 0.0000 0.0000
# 2 76.6031 130.1729 92.3449 0.0000 0.0000 0.0000
# 3 85.5523 92.3449 168.9547 0.0000 0.0000 0.0000
# 4 0.0000 0.0000 0.0000 32.6781 0.0000 0.0000
# 5 0.0000 0.0000 0.0000 0.0000 27.0847 0.0000
# 6 0.0000 0.0000 0.0000 0.0000 0.0000 47.2365
#
#
#
# Elastic Compliance Matrix: (Units=1/GPa)
#
#
# Indices 1 2 3 4 5 6 
#
# 1 0.020891 -0.007822 -0.006303 0.000000 0.000000 0.000000
# 2 -0.007822 0.015476 -0.004498 0.000000 0.000000 0.000000
# 3 -0.006303 -0.004498 0.011569 0.000000 0.000000 0.000000
# 4 0.000000 0.000000 0.000000 0.030602 0.000000 0.000000
# 5 0.000000 0.000000 0.000000 0.000000 0.036921 0.000000
# 6 0.000000 0.000000 0.000000 0.000000 0.000000 0.021170
#
#
# Mechanical properties :
#
#
# Convention : Reuss Voigt Hill
#
# Bulk Modulus (GPa) = 93.54970 101.16563 97.35766
# Shear Modulus (GPa) = 28.17888 31.19917 29.68902
#
# Velocity S-wave (km/s) = 3.93883 4.14455 4.04300
# Velocity P-wave (km/s) = 8.49655 8.86576 8.68312
#
# Compressibility (1/GPa) = 0.01068951
#
# Stress axis : x y z
#
# Youngs Moduli (GPa) = 47.86751 64.61592 86.44093
#
# Poissons Ratio (x) = 0.50546 0.54483
# Poissons Ratio (y) = 0.37444 0.38878
# Poissons Ratio (z) = 0.30170 0.29062
#
# Static dielectric constant tensor:
#      x y z
#    x 1.605640 0.000000 0.000000 
#    y 0.000000 1.583890 0.000000 
#    z 0.000000 0.000000 1.630100 
# 
# From -- ./inp_files/21114.got.cif
#   From: 2010.05.17/outbox.cif.g08.bks.cpg/sg47_11_cif.got.tgz:21114.got - 2010.06.03 20:15:42.
