data_PCOD9386055
_publ_section_title
;
Structure prediction by ZEFSAII (Michael W. Deem and Ramdas Pophale) SiO2 
 PCOD9386055
Probable space group: P M M M
;
_chemical_formula_sum "Si O2"
_cell_formula_units_Z 52
_cell_length_a 8.847279
_cell_length_b 21.449982
_cell_length_c 14.482969
_cell_angle_alpha 90.000000
_cell_angle_beta 90.000000
_cell_angle_gamma 90.000000
_cell_volume 2748.490601
_symmetry_space_group_name_H-M "P M M M"
_symmetry_group_IT_number 47
_symmetry_cell_setting 'orthorhombic'
loop_
_space_group_symop_operation_xyz
x,y,z
-x,-y,z
x,-y,-z
-x,y,-z
-x,-y,-z
x,y,-z
-x,y,z
x,-y,z
loop_
_atom_site_type_symbol
_atom_site_label
_atom_site_fract_x
_atom_site_fract_y
_atom_site_fract_z
Si Si1 0.180762 0.872611 0.893342
Si Si2 0.318608 0.500000 0.108040
Si Si3 0.815851 0.678047 0.395155
Si Si4 0.680030 0.068819 0.279305
Si Si5 0.676265 0.261608 0.110907
Si Si6 0.175683 0.181550 0.389063
Si Si7 0.181187 0.380401 0.208689
O O1 0.247518 0.921003 0.821117
O O2 0.248857 0.804966 0.868121
O O3 0.000000 0.870314 0.886692
O O4 0.221476 0.885729 0.000000
O O5 0.500000 0.500000 0.110984
O O6 0.256050 0.439153 0.159444
O O7 0.272526 0.500000 0.000000
O O8 0.765839 0.664526 0.500000
O O9 0.767005 0.748407 0.368058
O O10 0.773170 0.629553 0.315890
O O11 0.000000 0.680430 0.397138
O O12 0.500000 0.071946 0.271666
O O13 0.736801 0.125356 0.342310
O O14 0.722071 0.000000 0.315384
O O15 0.500000 0.262049 0.138437
O O16 0.765551 0.317783 0.157469
O O17 0.682789 0.269483 0.000000
O O18 0.180347 0.176123 0.500000
O O19 0.000000 0.177906 0.359604
O O20 0.000000 0.386067 0.204093
#
# Coordination Sequence:
#
# PCOD9386055 Si02
#       7
#     8   4   8   8   8   8   8
#     4  10  21  37  57  80 105 136 180 234 284 330
#     4  11  25  43  58  75 110 158 195 225 272 329
#     4   8  16  33  57  85 113 138 170 217 273 327
#     4  11  24  38  52  74 107 147 186 226 279 343
#     4  10  20  34  54  81 113 146 177 216 274 338
#     4   9  18  35  60  86 111 142 181 226 275 329
#     4  11  21  34  58  87 112 144 187 232 271 312
#
# _framework density 18.919477000000001
#
# number of rings (size 3 to 8) (size 9 to 14) (size 15 to 20)
#    0.000    2.077    0.000    4.385    0.000    7.692 
#    0.000    4.231    0.000    6.000    0.000    0.000 
#    0.000    0.000    0.000    0.000    0.000    0.000 
#
# Total GULP energy -290409.841687 kJ/mol
# GULP energy per Si atom -5584.804648 kJ/mol
# Density = 1.887642 g / cm^3
# Si number density = 18.919477 Si / 1000 Ang^3
#
#
#
# Elastic Constant Matrix: (Units=GPa)
#
#
# Indices 1 2 3 4 5 6 
#
# 1 55.0077 34.3431 33.0550 0.0000 0.0000 0.0000
# 2 34.3431 96.5649 70.4427 0.0000 0.0000 0.0000
# 3 33.0550 70.4427 89.7059 0.0000 0.0000 0.0000
# 4 0.0000 0.0000 0.0000 20.9106 0.0000 0.0000
# 5 0.0000 0.0000 0.0000 0.0000 14.0875 0.0000
# 6 0.0000 0.0000 0.0000 0.0000 0.0000 30.3873
#
#
#
# Elastic Compliance Matrix: (Units=1/GPa)
#
#
# Indices 1 2 3 4 5 6 
#
# 1 0.024318 -0.004944 -0.005078 0.000000 0.000000 0.000000
# 2 -0.004944 0.025248 -0.018005 0.000000 0.000000 0.000000
# 3 -0.005078 -0.018005 0.027157 0.000000 0.000000 0.000000
# 4 0.000000 0.000000 0.000000 0.047823 0.000000 0.000000
# 5 0.000000 0.000000 0.000000 0.000000 0.070985 0.000000
# 6 0.000000 0.000000 0.000000 0.000000 0.000000 0.032908
#
#
# Mechanical properties :
#
#
# Convention : Reuss Voigt Hill
#
# Bulk Modulus (GPa) = 48.38142 57.44001 52.91072
# Shear Modulus (GPa) = 17.15959 19.97294 18.56626
#
# Velocity S-wave (km/s) = 3.01488 3.25265 3.13602
# Velocity P-wave (km/s) = 6.14387 6.67327 6.41403
#
# Compressibility (1/GPa) = 0.02066909
#
# Stress axis : x y z
#
# Youngs Moduli (GPa) = 41.12254 39.60675 36.82268
#
# Poissons Ratio (x) = 0.19582 0.18699
# Poissons Ratio (y) = 0.20331 0.66298
# Poissons Ratio (z) = 0.20883 0.71311
#
# Static dielectric constant tensor:
#      x y z
#    x 1.632500 0.000000 0.000000 
#    y 0.000000 1.636430 0.000000 
#    z 0.000000 0.000000 1.676800 
# 
# From -- ./inp_files/21482.got.cif
#   From: 2010.05.17/outbox.cif.g08.bks.cpg/sg47_11_cif.got.tgz:21482.got - 2010.06.03 20:15:42.
