data_PCOD9386627
_publ_section_title
;
Structure prediction by ZEFSAII (Michael W. Deem and Ramdas Pophale) SiO2 
 PCOD9386627
Probable space group: P M M M
;
_chemical_formula_sum "Si O2"
_cell_formula_units_Z 28
_cell_length_a 8.277993
_cell_length_b 7.548970
_cell_length_c 20.373489
_cell_angle_alpha 90.000000
_cell_angle_beta 90.000000
_cell_angle_gamma 90.000000
_cell_volume 1273.145864
_symmetry_space_group_name_H-M "P M M M"
_symmetry_group_IT_number 47
_symmetry_cell_setting 'orthorhombic'
loop_
_space_group_symop_operation_xyz
x,y,z
-x,-y,z
x,-y,-z
-x,y,-z
-x,-y,-z
x,y,-z
-x,y,z
x,-y,z
loop_
_atom_site_type_symbol
_atom_site_label
_atom_site_fract_x
_atom_site_fract_y
_atom_site_fract_z
Si Si1 0.683693 0.216192 0.289083
Si Si2 0.824516 0.212272 0.154354
Si Si3 0.500000 0.290577 0.073489
Si Si4 0.809588 0.215217 0.571304
O O1 0.500000 0.264309 0.273628
O O2 0.793827 0.276593 0.228861
O O3 0.729248 0.279001 0.361774
O O4 0.692743 0.000000 0.290758
O O5 0.664988 0.246830 0.111821
O O6 0.000000 0.276949 0.129841
O O7 0.833767 0.000000 0.157790
O O8 0.500000 0.500000 0.067835
O O9 0.500000 0.212615 0.000000
O O10 0.746830 0.276064 0.500000
O O11 0.000000 0.256122 0.574260
O O12 0.795735 0.000000 0.571226
#
# Coordination Sequence:
#
# PCOD9386627 Si02
#       4
#     8   8   4   8
#     4   9  15  24  41  66  98 135 176 222 268 315
#     4  10  20  36  60  87 114 146 185 228 274 325
#     4  11  25  43  61  83 114 147 178 220 273 331
#     4   8  13  20  30  50  87 134 177 214 258 315
#
# _framework density 21.992767000000001
#
# number of rings (size 3 to 8) (size 9 to 14) (size 15 to 20)
#    0.000    2.714    1.429    2.143    0.000    6.286 
#    0.000    5.714    0.000    0.000    0.000    0.000 
#    0.000    2.286    0.000    6.000    0.000    5.714 
#
# Total GULP energy -156191.287968 kJ/mol
# GULP energy per Si atom -5578.260285 kJ/mol
# Density = 2.194271 g / cm^3
# Si number density = 21.992767 Si / 1000 Ang^3
#
#
#
# Elastic Constant Matrix: (Units=GPa)
#
#
# Indices 1 2 3 4 5 6 
#
# 1 160.6089 11.3431 92.5510 0.0000 0.0000 0.0000
# 2 11.3431 53.7789 7.3319 0.0000 0.0000 0.0000
# 3 92.5510 7.3319 162.0089 0.0000 0.0000 0.0000
# 4 0.0000 0.0000 0.0000 31.2153 0.0000 0.0000
# 5 0.0000 0.0000 0.0000 0.0000 14.9632 0.0000
# 6 0.0000 0.0000 0.0000 0.0000 0.0000 -26.2713
#
#
#
# Elastic Compliance Matrix: (Units=1/GPa)
#
#
# Indices 1 2 3 4 5 6 
#
# 1 0.009365 -0.001254 -0.005293 0.000000 0.000000 0.000000
# 2 -0.001254 0.018878 -0.000138 0.000000 0.000000 0.000000
# 3 -0.005293 -0.000138 0.009203 0.000000 0.000000 0.000000
# 4 0.000000 0.000000 0.000000 0.032036 0.000000 0.000000
# 5 0.000000 0.000000 0.000000 0.000000 0.066830 0.000000
# 6 0.000000 0.000000 0.000000 0.000000 0.000000 -0.038064
#
#
# Mechanical properties :
#
#
# Convention : Reuss Voigt Hill
#
# Bulk Modulus (GPa) = 41.53603 66.53875 54.03739
# Shear Modulus (GPa) = 41.79107 21.65948 31.72527
#
# Velocity S-wave (km/s) = 4.36388 3.14163 3.80219
# Velocity P-wave (km/s) = 6.65721 6.59396 6.62566
#
# Compressibility (1/GPa) = 0.02407548
#
# Stress axis : x y z
#
# Youngs Moduli (GPa) = 106.77941 52.97196 108.66429
#
# Poissons Ratio (x) = 0.06641 0.57519
# Poissons Ratio (y) = 0.13386 0.01501
# Poissons Ratio (z) = 0.56521 0.00732
#
# Static dielectric constant tensor:
#      x y z
#    x 1.681110 0.000000 0.000000 
#    y 0.000000 1.853010 0.000000 
#    z 0.000000 0.000000 1.822010 
# 
# From -- ./inp_files/839.got.cif
#   From: 2010.05.17/outbox.cif.g08.bks.cpg/sg47_1_cif.got.tgz:839.got - 2010.06.03 20:15:42.
