data_PCOD9386336
_publ_section_title
;
Structure prediction by ZEFSAII (Michael W. Deem and Ramdas Pophale) SiO2 
 PCOD9386336
Probable space group: P M M M
;
_chemical_formula_sum "Si O2"
_cell_formula_units_Z 52
_cell_length_a 9.110975
_cell_length_b 11.918510
_cell_length_c 29.022010
_cell_angle_alpha 90.000000
_cell_angle_beta 90.000000
_cell_angle_gamma 90.000000
_cell_volume 3151.478202
_symmetry_space_group_name_H-M "P M M M"
_symmetry_group_IT_number 47
_symmetry_cell_setting 'orthorhombic'
loop_
_space_group_symop_operation_xyz
x,y,z
-x,-y,z
x,-y,-z
-x,y,-z
-x,-y,-z
x,y,-z
-x,y,z
x,-y,z
loop_
_atom_site_type_symbol
_atom_site_label
_atom_site_fract_x
_atom_site_fract_y
_atom_site_fract_z
Si Si1 0.826996 0.366376 0.867779
Si Si2 0.669248 0.636839 0.500000
Si Si3 0.673608 0.227597 0.946722
Si Si4 0.168927 0.363454 0.593077
Si Si5 0.824314 0.000000 0.914690
Si Si6 0.326737 0.000000 0.815708
Si Si7 0.675886 0.631791 0.687619
Si Si8 0.675232 0.753463 0.218323
O O1 0.809347 0.500000 0.865151
O O2 0.742516 0.316254 0.911599
O O3 0.760245 0.309117 0.822395
O O4 0.000000 0.340135 0.871455
O O5 0.672735 0.500000 0.500000
O O6 0.500000 0.670857 0.500000
O O7 0.749225 0.673961 0.546722
O O8 0.500000 0.213446 0.937324
O O9 0.755759 0.110320 0.937819
O O10 0.691320 0.260840 0.000000
O O11 0.172214 0.500000 0.592475
O O12 0.247741 0.330462 0.640446
O O13 0.000000 0.328320 0.592579
O O14 0.770815 0.000000 0.861612
O O15 0.000000 0.000000 0.917716
O O16 0.299976 0.886260 0.787473
O O17 0.500000 0.000000 0.829360
O O18 0.500000 0.638905 0.681840
O O19 0.711778 0.500000 0.695675
O O20 0.718312 0.703876 0.732159
O O21 0.500000 0.733320 0.212678
#
# Coordination Sequence:
#
# PCOD9386336 Si02
#       8
#     8   4   8   8   4   4   8   8
#     4  11  24  39  56  80 109 139 171 210 257 308
#     4   9  15  23  37  57  85 124 167 208 247 293
#     4  11  24  41  61  83 107 137 173 211 251 302
#     4   9  16  25  38  59  89 126 166 208 252 295
#     4  12  23  37  60  87 112 136 165 207 259 308
#     4  10  20  35  57  82 106 134 169 210 255 304
#     4   9  17  29  45  67  96 132 172 209 248 297
#     4  10  20  35  56  78 103 135 172 213 256 306
#
# _framework density 16.500192999999999
#
# number of rings (size 3 to 8) (size 9 to 14) (size 15 to 20)
#    0.000    1.923    1.538    3.000    0.000    7.692 
#    0.000    3.077    0.000    0.000    0.000    0.000 
#    0.000    0.615    0.000    7.231    0.000    3.538 
#
# Total GULP energy -290251.667158 kJ/mol
# GULP energy per Si atom -5581.762830 kJ/mol
# Density = 1.646264 g / cm^3
# Si number density = 16.500193 Si / 1000 Ang^3
#
#
#
# Elastic Constant Matrix: (Units=GPa)
#
#
# Indices 1 2 3 4 5 6 
#
# 1 105.8273 53.5867 92.5279 0.0000 0.0000 0.0000
# 2 53.5867 63.3597 60.3878 0.0000 0.0000 0.0000
# 3 92.5279 60.3878 170.4665 0.0000 0.0000 0.0000
# 4 0.0000 0.0000 0.0000 29.3975 0.0000 0.0000
# 5 0.0000 0.0000 0.0000 0.0000 -30.8507 0.0000
# 6 0.0000 0.0000 0.0000 0.0000 0.0000 18.9478
#
#
#
# Elastic Compliance Matrix: (Units=1/GPa)
#
#
# Indices 1 2 3 4 5 6 
#
# 1 0.022082 -0.010949 -0.008107 0.000000 0.000000 0.000000
# 2 -0.010949 0.029257 -0.004421 0.000000 0.000000 0.000000
# 3 -0.008107 -0.004421 0.011833 0.000000 0.000000 0.000000
# 4 0.000000 0.000000 0.000000 0.034016 0.000000 0.000000
# 5 0.000000 0.000000 0.000000 0.000000 -0.032414 0.000000
# 6 0.000000 0.000000 0.000000 0.000000 0.000000 0.052777
#
#
# Mechanical properties :
#
#
# Convention : Reuss Voigt Hill
#
# Bulk Modulus (GPa) = 61.66369 83.62871 72.64620
# Shear Modulus (GPa) = 29.42718 12.37565 20.90141
#
# Velocity S-wave (km/s) = 4.22767 2.74164 3.56299
# Velocity P-wave (km/s) = 7.82838 7.79844 7.81342
#
# Compressibility (1/GPa) = 0.01621700
#
# Stress axis : x y z
#
# Youngs Moduli (GPa) = 45.28622 34.18002 84.50927
#
# Poissons Ratio (x) = 0.37423 0.68513
# Poissons Ratio (y) = 0.49583 0.37364
# Poissons Ratio (z) = 0.36714 0.15112
#
# Static dielectric constant tensor:
#      x y z
#    x 1.554380 0.000000 0.000000 
#    y 0.000000 1.533390 0.000000 
#    z 0.000000 0.000000 1.539480 
# 
# From -- ./inp_files/33311.got.cif
#   From: 2010.05.17/outbox.cif.g08.bks.cpg/sg47_17_cif.got.tgz:33311.got - 2010.06.03 20:15:42.
