data_PCOD9386640
_publ_section_title
;
Structure prediction by ZEFSAII (Michael W. Deem and Ramdas Pophale) SiO2 
 PCOD9386640
Probable space group: P M M M
;
_chemical_formula_sum "Si O2"
_cell_formula_units_Z 44
_cell_length_a 17.777316
_cell_length_b 8.891404
_cell_length_c 14.761701
_cell_angle_alpha 90.000000
_cell_angle_beta 90.000000
_cell_angle_gamma 90.000000
_cell_volume 2333.312676
_symmetry_space_group_name_H-M "P M M M"
_symmetry_group_IT_number 47
_symmetry_cell_setting 'orthorhombic'
loop_
_space_group_symop_operation_xyz
x,y,z
-x,-y,z
x,-y,-z
-x,y,-z
-x,-y,-z
x,y,-z
-x,y,z
x,-y,z
loop_
_atom_site_type_symbol
_atom_site_label
_atom_site_fract_x
_atom_site_fract_y
_atom_site_fract_z
Si Si1 0.310790 0.679980 0.898670
Si Si2 0.844329 0.171618 0.854275
Si Si3 0.500000 0.680801 0.392478
Si Si4 0.913175 0.679222 0.500000
Si Si5 0.355893 0.182051 0.292662
Si Si6 0.805497 0.171636 0.643221
Si Si7 0.000000 0.667440 0.107359
O O1 0.315932 0.500000 0.888549
O O2 0.223636 0.731477 0.894934
O O3 0.348378 0.757971 0.810868
O O4 0.339978 0.719767 0.000000
O O5 0.831168 0.168340 0.746962
O O6 0.924963 0.243409 0.869376
O O7 0.840548 0.000000 0.888048
O O8 0.500000 0.500000 0.382551
O O9 0.500000 0.715812 0.500000
O O10 0.572491 0.750750 0.343108
O O11 0.916008 0.500000 0.500000
O O12 0.864336 0.735133 0.414897
O O13 0.000000 0.735433 0.500000
O O14 0.280609 0.227199 0.348913
O O15 0.357566 0.000000 0.289926
O O16 0.804488 0.000000 0.608867
O O17 0.000000 0.500000 0.148917
O O18 0.000000 0.652276 0.000000
#
# Coordination Sequence:
#
# PCOD9386640 Si02
#       7
#     8   8   4   4   8   8   4
#     4  10  20  36  60  89 122 160 199 243 299 360
#     4  10  21  36  55  80 109 147 197 247 296 354
#     4  11  25  43  66  97 130 163 199 246 306 365
#     4  11  25  39  55  84 115 150 199 249 300 355
#     4  10  22  41  65  94 125 161 205 250 299 358
#     4   9  21  40  60  83 112 152 195 241 297 353
#     4  11  23  35  49  74 109 148 189 239 300 357
#
# _framework density 18.857309999999998
#
# number of rings (size 3 to 8) (size 9 to 14) (size 15 to 20)
#    0.000    1.909    0.000    4.091    2.545   10.182 
#    0.000    0.455    0.000    2.727    0.000    0.000 
#    0.000    0.000    0.000    0.000    0.000    0.000 
#
# Total GULP energy -245577.457473 kJ/mol
# GULP energy per Si atom -5581.305852 kJ/mol
# Density = 1.881439 g / cm^3
# Si number density = 18.857310 Si / 1000 Ang^3
#
#
#
# Elastic Constant Matrix: (Units=GPa)
#
#
# Indices 1 2 3 4 5 6 
#
# 1 159.7653 54.1062 74.1697 0.0000 0.0000 0.0000
# 2 54.1062 81.1463 45.3467 0.0000 0.0000 0.0000
# 3 74.1697 45.3467 119.6668 0.0000 0.0000 0.0000
# 4 0.0000 0.0000 0.0000 34.1002 0.0000 0.0000
# 5 0.0000 0.0000 0.0000 0.0000 -19.5147 0.0000
# 6 0.0000 0.0000 0.0000 0.0000 0.0000 32.6995
#
#
#
# Elastic Compliance Matrix: (Units=1/GPa)
#
#
# Indices 1 2 3 4 5 6 
#
# 1 0.009687 -0.003938 -0.004512 0.000000 0.000000 0.000000
# 2 -0.003938 0.017235 -0.004090 0.000000 0.000000 0.000000
# 3 -0.004512 -0.004090 0.012703 0.000000 0.000000 0.000000
# 4 0.000000 0.000000 0.000000 0.029325 0.000000 0.000000
# 5 0.000000 0.000000 0.000000 0.000000 -0.051243 0.000000
# 6 0.000000 0.000000 0.000000 0.000000 0.000000 0.030581
#
#
# Mechanical properties :
#
#
# Convention : Reuss Voigt Hill
#
# Bulk Modulus (GPa) = 68.75247 78.64705 73.69976
# Shear Modulus (GPa) = 63.92404 21.92072 42.92238
#
# Velocity S-wave (km/s) = 5.82859 3.41317 4.77609
# Velocity P-wave (km/s) = 9.04627 7.57165 8.34161
#
# Compressibility (1/GPa) = 0.01454493
#
# Stress axis : x y z
#
# Youngs Moduli (GPa) = 103.22600 58.02194 78.72081
#
# Poissons Ratio (x) = 0.22848 0.35520
# Poissons Ratio (y) = 0.40649 0.32199
# Poissons Ratio (z) = 0.46577 0.23733
#
# Static dielectric constant tensor:
#      x y z
#    x 1.587510 0.000000 0.000000 
#    y 0.000000 1.655920 0.000000 
#    z 0.000000 0.000000 1.662560 
# 
# From -- ./inp_files/24372.got.cif
#   From: 2010.05.17/outbox.cif.g08.bks.cpg/sg47_13_cif.got.tgz:24372.got - 2010.06.03 20:15:42.
