data_PCOD9386793
_publ_section_title
;
Structure prediction by ZEFSAII (Michael W. Deem and Ramdas Pophale) SiO2 
 PCOD9386793
Probable space group: P M M M
;
_chemical_formula_sum "Si O2"
_cell_formula_units_Z 52
_cell_length_a 12.661532
_cell_length_b 14.257891
_cell_length_c 15.068412
_cell_angle_alpha 90.000000
_cell_angle_beta 90.000000
_cell_angle_gamma 90.000000
_cell_volume 2720.251343
_symmetry_space_group_name_H-M "P M M M"
_symmetry_group_IT_number 47
_symmetry_cell_setting 'orthorhombic'
loop_
_space_group_symop_operation_xyz
x,y,z
-x,-y,z
x,-y,-z
-x,y,-z
-x,-y,-z
x,y,-z
-x,y,z
x,-y,z
loop_
_atom_site_type_symbol
_atom_site_label
_atom_site_fract_x
_atom_site_fract_y
_atom_site_fract_z
Si Si1 0.883223 0.388169 0.096491
Si Si2 0.375496 0.112911 0.599500
Si Si3 0.884233 0.613664 0.601607
Si Si4 0.500000 0.888376 0.899299
Si Si5 0.313430 0.806340 0.216981
Si Si6 0.283943 0.609102 0.747379
Si Si7 0.125690 0.888875 0.105559
O O1 0.894870 0.500000 0.087783
O O2 0.801706 0.382009 0.174667
O O3 0.000000 0.349596 0.115339
O O4 0.847847 0.351847 0.000000
O O5 0.342432 0.144059 0.500000
O O6 0.500000 0.137528 0.610228
O O7 0.313220 0.151409 0.683919
O O8 0.369426 0.000000 0.601007
O O9 0.874383 0.644599 0.500000
O O10 0.888254 0.500000 0.601909
O O11 0.782548 0.634927 0.659620
O O12 0.000000 0.645121 0.636221
O O13 0.602047 0.857215 0.844869
O O14 0.500000 0.000000 0.903866
O O15 0.500000 0.850746 0.000000
O O16 0.353844 0.698840 0.230009
O O17 0.201437 0.825686 0.167311
O O18 0.321345 0.500000 0.743227
O O19 0.000000 0.874477 0.120707
O O20 0.147821 0.000000 0.122532
O O21 0.145462 0.873146 0.000000
#
# Coordination Sequence:
#
# PCOD9386793 Si02
#       7
#     8   8   8   4   8   8   8
#     4   8  14  26  44  64  90 132 187 240 278 305
#     4   9  18  35  61  90 115 137 171 229 296 351
#     4   8  14  27  48  71  98 140 194 246 288 318
#     4  11  24  42  66  94 114 129 168 240 310 354
#     4  12  22  35  60  87 115 151 192 235 284 339
#     4  10  21  33  46  71 109 152 193 232 272 321
#     4   9  19  36  57  84 120 157 189 227 285 359
#
# _framework density 19.115881999999999
#
# number of rings (size 3 to 8) (size 9 to 14) (size 15 to 20)
#    0.000    2.538    0.769    4.154    0.000    6.154 
#    0.000    1.923    0.000    0.923    0.000    3.231 
#    0.000    0.000    0.000    0.000    0.000    0.000 
#
# Total GULP energy -289509.641034 kJ/mol
# GULP energy per Si atom -5567.493097 kJ/mol
# Density = 1.907237 g / cm^3
# Si number density = 19.115882 Si / 1000 Ang^3
#
#
#
# Elastic Constant Matrix: (Units=GPa)
#
#
# Indices 1 2 3 4 5 6 
#
# 1 41.9102 14.7875 28.2156 0.0000 0.0000 0.0000
# 2 14.7875 99.4420 22.4529 0.0000 0.0000 0.0000
# 3 28.2156 22.4529 107.3850 0.0000 0.0000 0.0000
# 4 0.0000 0.0000 0.0000 -25.1871 0.0000 0.0000
# 5 0.0000 0.0000 0.0000 0.0000 11.3349 0.0000
# 6 0.0000 0.0000 0.0000 0.0000 0.0000 2.0553
#
#
#
# Elastic Compliance Matrix: (Units=1/GPa)
#
#
# Indices 1 2 3 4 5 6 
#
# 1 0.029706 -0.002787 -0.007223 0.000000 0.000000 0.000000
# 2 -0.002787 0.010816 -0.001529 0.000000 0.000000 0.000000
# 3 -0.007223 -0.001529 0.011530 0.000000 0.000000 0.000000
# 4 0.000000 0.000000 0.000000 -0.039703 0.000000 0.000000
# 5 0.000000 0.000000 0.000000 0.000000 0.088223 0.000000
# 6 0.000000 0.000000 0.000000 0.000000 0.000000 0.486538
#
#
# Mechanical properties :
#
#
# Convention : Reuss Voigt Hill
#
# Bulk Modulus (GPa) = 34.51287 42.18325 38.34806
# Shear Modulus (GPa) = 8.06652 9.85937 8.96295
#
# Velocity S-wave (km/s) = 2.05644 2.27352 2.16770
# Velocity P-wave (km/s) = 4.87159 5.38580 5.13514
#
# Compressibility (1/GPa) = 0.02897470
#
# Stress axis : x y z
#
# Youngs Moduli (GPa) = 33.66268 92.45743 86.73148
#
# Poissons Ratio (x) = 0.25765 0.62644
# Poissons Ratio (y) = 0.09381 0.13263
# Poissons Ratio (z) = 0.24314 0.14139
#
# Static dielectric constant tensor:
#      x y z
#    x 1.642060 0.000000 0.000000 
#    y 0.000000 1.744530 0.000000 
#    z 0.000000 0.000000 1.684440 
# 
# From -- ./inp_files/22801.got.cif
#   From: 2010.05.17/outbox.cif.g08.bks.cpg/sg47_12_cif.got.tgz:22801.got - 2010.06.03 20:15:42.
