data_PCOD9386698
_publ_section_title
;
Structure prediction by ZEFSAII (Michael W. Deem and Ramdas Pophale) SiO2 
 PCOD9386698
Probable space group: P M M M
;
_chemical_formula_sum "Si O2"
_cell_formula_units_Z 48
_cell_length_a 30.080396
_cell_length_b 10.332937
_cell_length_c 7.933977
_cell_angle_alpha 90.000000
_cell_angle_beta 90.000000
_cell_angle_gamma 90.000000
_cell_volume 2466.029502
_symmetry_space_group_name_H-M "P M M M"
_symmetry_group_IT_number 47
_symmetry_cell_setting 'orthorhombic'
loop_
_space_group_symop_operation_xyz
x,y,z
-x,-y,z
x,-y,-z
-x,y,-z
-x,-y,-z
x,y,-z
-x,y,z
x,-y,z
loop_
_atom_site_type_symbol
_atom_site_label
_atom_site_fract_x
_atom_site_fract_y
_atom_site_fract_z
Si Si1 0.449034 0.500000 0.200022
Si Si2 0.877186 0.353771 0.703466
Si Si3 0.394118 0.753069 0.296809
Si Si4 0.224396 0.353223 0.799076
Si Si5 0.050572 0.852060 0.294099
Si Si6 0.449557 0.000000 0.706224
Si Si7 0.700881 0.149406 0.297641
O O1 0.500000 0.500000 0.270085
O O2 0.419958 0.623921 0.249762
O O3 0.453076 0.500000 0.000000
O O4 0.879663 0.354790 0.500000
O O5 0.886804 0.500000 0.763424
O O6 0.826458 0.323311 0.750673
O O7 0.912773 0.249443 0.765706
O O8 0.392253 0.755828 0.500000
O O9 0.343967 0.778993 0.234927
O O10 0.423595 0.873490 0.238277
O O11 0.234632 0.500000 0.734035
O O12 0.257557 0.241711 0.739453
O O13 0.227367 0.358167 0.000000
O O14 0.051139 0.850818 0.500000
O O15 0.000000 0.819501 0.243297
O O16 0.060018 0.000000 0.242429
O O17 0.500000 0.000000 0.763627
O O18 0.449652 0.000000 0.500000
O O19 0.697197 0.140087 0.500000
O O20 0.704148 0.000000 0.235150
#
# Coordination Sequence:
#
# PCOD9386698 Si02
#       7
#     4   8   8   8   8   4   8
#     4  11  25  41  55  79 117 153 183 217 258 309
#     4   9  17  30  49  74 102 133 173 220 267 312
#     4  10  20  37  60  86 110 138 178 222 267 315
#     4  10  22  38  55  77 107 144 183 221 267 322
#     4   8  14  25  43  70 103 135 168 211 264 318
#     4   9  16  30  57  87 111 135 169 217 266 311
#     4  10  21  38  59  84 111 136 172 222 273 323
#
# _framework density 19.464486999999998
#
# number of rings (size 3 to 8) (size 9 to 14) (size 15 to 20)
#    0.000    2.500    0.833    1.750    1.167    4.333 
#    0.000    3.750    0.000    2.000    0.000    3.500 
#    0.000    0.000    0.000    0.000    0.000    0.000 
#
# Total GULP energy -267758.399712 kJ/mol
# GULP energy per Si atom -5578.299994 kJ/mol
# Density = 1.942019 g / cm^3
# Si number density = 19.464487 Si / 1000 Ang^3
#
#
#
# Elastic Constant Matrix: (Units=GPa)
#
#
# Indices 1 2 3 4 5 6 
#
# 1 188.1234 147.9871 10.7935 0.0000 0.0000 0.0000
# 2 147.9871 200.0513 12.4533 0.0000 0.0000 0.0000
# 3 10.7935 12.4533 19.0815 0.0000 0.0000 0.0000
# 4 0.0000 0.0000 0.0000 12.0869 0.0000 0.0000
# 5 0.0000 0.0000 0.0000 0.0000 -17.8175 0.0000
# 6 0.0000 0.0000 0.0000 0.0000 0.0000 42.3180
#
#
#
# Elastic Compliance Matrix: (Units=1/GPa)
#
#
# Indices 1 2 3 4 5 6 
#
# 1 0.012737 -0.009353 -0.001100 0.000000 0.000000 0.000000
# 2 -0.009353 0.012079 -0.002593 0.000000 0.000000 0.000000
# 3 -0.001100 -0.002593 0.054721 0.000000 0.000000 0.000000
# 4 0.000000 0.000000 0.000000 0.082734 0.000000 0.000000
# 5 0.000000 0.000000 0.000000 0.000000 -0.056125 0.000000
# 6 0.000000 0.000000 0.000000 0.000000 0.000000 0.023631
#
#
# Mechanical properties :
#
#
# Convention : Reuss Voigt Hill
#
# Bulk Modulus (GPa) = 18.71088 83.30265 51.00677
# Shear Modulus (GPa) = 28.78792 23.05231 25.92012
#
# Velocity S-wave (km/s) = 3.84995 3.44514 3.65315
# Velocity P-wave (km/s) = 5.42185 7.66260 6.63747
#
# Compressibility (1/GPa) = 0.05344483
#
# Stress axis : x y z
#
# Youngs Moduli (GPa) = 78.51401 82.78689 18.27445
#
# Poissons Ratio (x) = 0.77433 0.02010
# Poissons Ratio (y) = 0.73437 0.04738
# Poissons Ratio (z) = 0.08637 0.21463
#
# Static dielectric constant tensor:
#      x y z
#    x 1.662710 0.000000 0.000000 
#    y 0.000000 1.674300 0.000000 
#    z 0.000000 0.000000 1.694750 
# 
# From -- ./inp_files/2813.got.cif
#   From: 2010.05.17/outbox.cif.g08.bks.cpg/sg47_2_cif.got.tgz:2813.got - 2010.06.03 20:15:42.
