data_PCOD9386040
_publ_section_title
;
Structure prediction by ZEFSAII (Michael W. Deem and Ramdas Pophale) SiO2 
 PCOD9386040
Probable space group: P M M M
;
_chemical_formula_sum "Si O2"
_cell_formula_units_Z 48
_cell_length_a 9.055614
_cell_length_b 9.218796
_cell_length_c 31.676730
_cell_angle_alpha 90.000000
_cell_angle_beta 90.000000
_cell_angle_gamma 90.000000
_cell_volume 2644.432280
_symmetry_space_group_name_H-M "P M M M"
_symmetry_group_IT_number 47
_symmetry_cell_setting 'orthorhombic'
loop_
_space_group_symop_operation_xyz
x,y,z
-x,-y,z
x,-y,-z
-x,y,-z
-x,-y,-z
x,y,-z
-x,y,z
x,-y,z
loop_
_atom_site_type_symbol
_atom_site_label
_atom_site_fract_x
_atom_site_fract_y
_atom_site_fract_z
Si Si1 0.324582 0.327489 0.835323
Si Si2 0.826653 0.674172 0.253060
Si Si3 0.820244 0.666948 0.000000
Si Si4 0.822576 0.828879 0.085595
Si Si5 0.824931 0.173408 0.420591
Si Si6 0.673241 0.174077 0.332086
Si Si7 0.675120 0.327233 0.500000
O O1 0.500000 0.304923 0.832758
O O2 0.297535 0.500000 0.841402
O O3 0.248997 0.284274 0.791192
O O4 0.255848 0.241269 0.874242
O O5 0.812319 0.500000 0.257243
O O6 0.748185 0.749725 0.292345
O O7 0.000000 0.710304 0.252192
O O8 0.774592 0.749350 0.042515
O O9 0.771290 0.500000 0.000000
O O10 0.000000 0.667439 0.000000
O O11 0.000000 0.809801 0.089811
O O12 0.792854 0.000000 0.082757
O O13 0.753327 0.214597 0.375776
O O14 0.748553 0.257054 0.458767
O O15 0.000000 0.201062 0.420080
O O16 0.803059 0.000000 0.426327
O O17 0.500000 0.210334 0.334339
O O18 0.686742 0.000000 0.327492
O O19 0.697533 0.500000 0.500000
O O20 0.500000 0.297959 0.500000
#
# Coordination Sequence:
#
# PCOD9386040 Si02
#       7
#     8   8   4   8   8   8   4
#     4  10  21  37  56  78 106 142 183 225 270 322
#     4  10  21  37  58  83 110 143 183 226 273 324
#     4   9  17  31  54  81 108 141 180 222 268 319
#     4  10  20  34  54  81 111 142 178 222 271 322
#     4  10  21  38  60  84 110 144 186 229 274 326
#     4  10  21  37  58  84 113 146 183 223 270 324
#     4  11  24  39  56  82 114 147 184 227 276 328
#
# _framework density 18.151344000000002
#
# number of rings (size 3 to 8) (size 9 to 14) (size 15 to 20)
#    0.000    2.000    0.000    3.250    0.000    9.000 
#    0.000    0.417    0.000    2.500    0.000    0.000 
#    0.000    0.000    0.000    0.000    0.000    0.000 
#
# Total GULP energy -268179.031066 kJ/mol
# GULP energy per Si atom -5587.063147 kJ/mol
# Density = 1.811003 g / cm^3
# Si number density = 18.151344 Si / 1000 Ang^3
#
#
#
# Elastic Constant Matrix: (Units=GPa)
#
#
# Indices 1 2 3 4 5 6 
#
# 1 115.3578 80.0138 113.2416 0.0000 0.0000 0.0000
# 2 80.0138 73.6066 100.8463 0.0000 0.0000 0.0000
# 3 113.2416 100.8463 232.2738 0.0000 0.0000 0.0000
# 4 0.0000 0.0000 0.0000 41.5130 0.0000 0.0000
# 5 0.0000 0.0000 0.0000 0.0000 247.2083 0.0000
# 6 0.0000 0.0000 0.0000 0.0000 0.0000 28.4174
#
#
#
# Elastic Compliance Matrix: (Units=1/GPa)
#
#
# Indices 1 2 3 4 5 6 
#
# 1 0.035411 -0.036628 -0.001361 0.000000 0.000000 0.000000
# 2 -0.036628 0.071420 -0.013151 0.000000 0.000000 0.000000
# 3 -0.001361 -0.013151 0.010678 0.000000 0.000000 0.000000
# 4 0.000000 0.000000 0.000000 0.024089 0.000000 0.000000
# 5 0.000000 0.000000 0.000000 0.000000 0.004045 0.000000
# 6 0.000000 0.000000 0.000000 0.000000 0.000000 0.035190
#
#
# Mechanical properties :
#
#
# Convention : Reuss Voigt Hill
#
# Bulk Modulus (GPa) = 65.66504 112.16016 88.91260
# Shear Modulus (GPa) = 17.34969 71.90352 44.62661
#
# Velocity S-wave (km/s) = 3.09501 6.30074 4.96379
# Velocity P-wave (km/s) = 7.00193 10.71719 9.05222
#
# Compressibility (1/GPa) = 0.01522880
#
# Stress axis : x y z
#
# Youngs Moduli (GPa) = 28.24007 14.00168 93.64625
#
# Poissons Ratio (x) = 0.51286 0.12745
# Poissons Ratio (y) = 1.03439 1.23152
# Poissons Ratio (z) = 0.03844 0.18413
#
# Static dielectric constant tensor:
#      x y z
#    x 1.604740 0.000000 0.000000 
#    y 0.000000 1.607580 0.000000 
#    z 0.000000 0.000000 1.579820 
# 
# From -- ./inp_files/34194.got.cif
#   From: 2010.05.17/outbox.cif.g08.bks.cpg/sg47_18_cif.got.tgz:34194.got - 2010.06.03 20:15:42.
