data_PCOD9386069
_publ_section_title
;
Structure prediction by ZEFSAII (Michael W. Deem and Ramdas Pophale) SiO2 
 PCOD9386069
Probable space group: P M M M
;
_chemical_formula_sum "Si O2"
_cell_formula_units_Z 48
_cell_length_a 7.719290
_cell_length_b 30.005583
_cell_length_c 9.892395
_cell_angle_alpha 90.000000
_cell_angle_beta 90.000000
_cell_angle_gamma 90.000000
_cell_volume 2291.294305
_symmetry_space_group_name_H-M "P M M M"
_symmetry_group_IT_number 47
_symmetry_cell_setting 'orthorhombic'
loop_
_space_group_symop_operation_xyz
x,y,z
-x,-y,z
x,-y,-z
-x,y,-z
-x,-y,-z
x,y,-z
-x,y,z
x,-y,z
loop_
_atom_site_type_symbol
_atom_site_label
_atom_site_fract_x
_atom_site_fract_y
_atom_site_fract_z
Si Si1 0.792669 0.051555 0.500000
Si Si2 0.796383 0.207407 0.155075
Si Si3 0.205945 0.369308 0.154231
Si Si4 0.704252 0.889720 0.757212
Si Si5 0.712634 0.949573 0.000000
Si Si6 0.709093 0.551232 0.348327
Si Si7 0.212670 0.288136 0.342834
O O1 0.734089 0.081509 0.375178
O O2 0.000000 0.049144 0.500000
O O3 0.727632 0.000000 0.500000
O O4 0.780089 0.159312 0.225311
O O5 0.727640 0.245177 0.256491
O O6 0.000000 0.217120 0.141327
O O7 0.725266 0.206691 0.000000
O O8 0.233800 0.415976 0.230252
O O9 0.271160 0.330981 0.256066
O O10 0.000000 0.362090 0.143692
O O11 0.275197 0.367825 0.000000
O O12 0.500000 0.883559 0.776954
O O13 0.773491 0.921780 0.873220
O O14 0.500000 0.950623 0.000000
O O15 0.772274 0.000000 0.000000
O O16 0.766984 0.565536 0.500000
O O17 0.500000 0.551337 0.349671
O O18 0.765413 0.500000 0.328306
O O19 0.268776 0.288362 0.500000
O O20 0.000000 0.288096 0.346516
#
# Coordination Sequence:
#
# PCOD9386069 Si02
#       7
#     4   8   8   8   4   8   8
#     4  11  25  43  61  85 117 151 189 233 280 333
#     4  10  20  35  56  82 114 149 186 230 283 339
#     4  10  20  34  54  82 115 148 188 237 285 336
#     4  11  22  38  60  86 117 151 188 231 280 335
#     4   9  18  34  57  83 111 145 185 225 270 327
#     4   9  19  36  56  78 108 148 192 236 285 342
#     4   9  18  33  55  81 108 146 192 235 281 334
#
# _framework density 20.948858000000001
#
# number of rings (size 3 to 8) (size 9 to 14) (size 15 to 20)
#    0.000    2.167    0.833    2.750    1.167    5.333 
#    0.000    3.333    0.000    5.000    0.000    0.000 
#    0.000    0.000    0.000    0.000    0.000    0.000 
#
# Total GULP energy -267863.193236 kJ/mol
# GULP energy per Si atom -5580.483192 kJ/mol
# Density = 2.090118 g / cm^3
# Si number density = 20.948858 Si / 1000 Ang^3
#
#
#
# Elastic Constant Matrix: (Units=GPa)
#
#
# Indices 1 2 3 4 5 6 
#
# 1 30.9220 -5.2310 -2.9656 0.0000 0.0000 0.0000
# 2 -5.2310 159.3651 111.5164 0.0000 0.0000 0.0000
# 3 -2.9656 111.5164 216.7923 0.0000 0.0000 0.0000
# 4 0.0000 0.0000 0.0000 38.6661 0.0000 0.0000
# 5 0.0000 0.0000 0.0000 0.0000 2.0611 0.0000
# 6 0.0000 0.0000 0.0000 0.0000 0.0000 32.1799
#
#
#
# Elastic Compliance Matrix: (Units=1/GPa)
#
#
# Indices 1 2 3 4 5 6 
#
# 1 0.032524 0.001182 -0.000163 0.000000 0.000000 0.000000
# 2 0.001182 0.009847 -0.005049 0.000000 0.000000 0.000000
# 3 -0.000163 -0.005049 0.007208 0.000000 0.000000 0.000000
# 4 0.000000 0.000000 0.000000 0.025862 0.000000 0.000000
# 5 0.000000 0.000000 0.000000 0.000000 0.485184 0.000000
# 6 0.000000 0.000000 0.000000 0.000000 0.000000 0.031075
#
#
# Mechanical properties :
#
#
# Convention : Reuss Voigt Hill
#
# Bulk Modulus (GPa) = 24.08625 68.19101 46.13863
# Shear Modulus (GPa) = 8.14864 34.83206 21.49035
#
# Velocity S-wave (km/s) = 1.97439 4.08207 3.20636
# Velocity P-wave (km/s) = 4.08904 7.40537 5.98163
#
# Compressibility (1/GPa) = 0.04151746
#
# Stress axis : x y z
#
# Youngs Moduli (GPa) = 30.74684 101.55727 138.74260
#
# Poissons Ratio (x) = -0.11999 0.02260
# Poissons Ratio (y) = -0.03633 0.70050
# Poissons Ratio (z) = 0.00501 0.51275
#
# Static dielectric constant tensor:
#      x y z
#    x 1.785680 0.000000 0.000000 
#    y 0.000000 1.736060 0.000000 
#    z 0.000000 0.000000 -14.279270 
# 
# From -- ./inp_files/2662.got.cif
#   From: 2010.05.17/outbox.cif.g08.bks.cpg/sg47_2_cif.got.tgz:2662.got - 2010.06.03 20:15:42.
