data_PCOD9386981
_publ_section_title
;
Structure prediction by ZEFSAII (Michael W. Deem and Ramdas Pophale) SiO2 
 PCOD9386981
Probable space group: P M M M
;
_chemical_formula_sum "Si O2"
_cell_formula_units_Z 52
_cell_length_a 9.355594
_cell_length_b 18.385514
_cell_length_c 17.886331
_cell_angle_alpha 90.000000
_cell_angle_beta 90.000000
_cell_angle_gamma 90.000000
_cell_volume 3076.581371
_symmetry_space_group_name_H-M "P M M M"
_symmetry_group_IT_number 47
_symmetry_cell_setting 'orthorhombic'
loop_
_space_group_symop_operation_xyz
x,y,z
-x,-y,z
x,-y,-z
-x,y,-z
-x,-y,-z
x,y,-z
-x,y,z
x,-y,z
loop_
_atom_site_type_symbol
_atom_site_label
_atom_site_fract_x
_atom_site_fract_y
_atom_site_fract_z
Si Si1 0.668973 0.082983 0.733875
Si Si2 0.171613 0.874053 0.416135
Si Si3 0.837523 0.716837 0.360883
Si Si4 0.329157 0.579624 0.588396
Si Si5 0.166024 0.213373 0.803284
Si Si6 0.174554 0.340508 0.087051
Si Si7 0.166579 0.500000 0.091152
O O1 0.500000 0.097853 0.726608
O O2 0.743733 0.090737 0.652419
O O3 0.742023 0.141354 0.788731
O O4 0.688040 0.000000 0.759538
O O5 0.206235 0.899845 0.500000
O O6 0.201727 0.787553 0.409733
O O7 0.000000 0.883090 0.404518
O O8 0.739580 0.647864 0.371992
O O9 0.833457 0.744849 0.276001
O O10 0.000000 0.696745 0.380177
O O11 0.296364 0.584532 0.500000
O O12 0.500000 0.582006 0.595729
O O13 0.279555 0.500000 0.615268
O O14 0.219516 0.271361 0.864278
O O15 0.000000 0.194376 0.819695
O O16 0.226300 0.420797 0.113734
O O17 0.000000 0.342734 0.090796
O O18 0.213015 0.331944 0.000000
O O19 0.000000 0.500000 0.114058
O O20 0.168436 0.500000 0.000000
#
# Coordination Sequence:
#
# PCOD9386981 Si02
#       7
#     8   8   8   8   8   8   4
#     4  10  21  35  50  69  94 126 163 200 237 282
#     4   9  18  32  50  72  96 121 151 191 241 293
#     4   9  17  29  43  63  91 118 147 185 230 278
#     4   9  18  31  44  58  79 112 156 200 236 271
#     4   9  18  32  49  72  98 124 156 193 237 287
#     4   8  13  24  45  73 102 129 158 193 233 280
#     4   7  10  18  36  66 101 129 150 179 226 277
#
# _framework density 16.901876999999999
#
# number of rings (size 3 to 8) (size 9 to 14) (size 15 to 20)
#    0.000    3.154    0.000    3.231    0.000    5.538 
#    1.385    2.308    0.000    0.923    0.000    3.231 
#    0.000    1.846    0.000    0.000    0.000    0.000 
#
# Total GULP energy -289499.208463 kJ/mol
# GULP energy per Si atom -5567.292470 kJ/mol
# Density = 1.686341 g / cm^3
# Si number density = 16.901877 Si / 1000 Ang^3
#
#
#
# Elastic Constant Matrix: (Units=GPa)
#
#
# Indices 1 2 3 4 5 6 
#
# 1 34.7320 53.0699 15.3444 0.0000 0.0000 0.0000
# 2 53.0699 133.0466 44.5243 0.0000 0.0000 0.0000
# 3 15.3444 44.5243 48.0824 0.0000 0.0000 0.0000
# 4 0.0000 0.0000 0.0000 8.9995 0.0000 0.0000
# 5 0.0000 0.0000 0.0000 0.0000 3.7269 0.0000
# 6 0.0000 0.0000 0.0000 0.0000 0.0000 29.3268
#
#
#
# Elastic Compliance Matrix: (Units=1/GPa)
#
#
# Indices 1 2 3 4 5 6 
#
# 1 0.074696 -0.031615 0.005438 0.000000 0.000000 0.000000
# 2 -0.031615 0.024272 -0.012387 0.000000 0.000000 0.000000
# 3 0.005438 -0.012387 0.030532 0.000000 0.000000 0.000000
# 4 0.000000 0.000000 0.000000 0.111117 0.000000 0.000000
# 5 0.000000 0.000000 0.000000 0.000000 0.268322 0.000000
# 6 0.000000 0.000000 0.000000 0.000000 0.000000 0.034098
#
#
# Mechanical properties :
#
#
# Convention : Reuss Voigt Hill
#
# Bulk Modulus (GPa) = 19.09385 49.08203 34.08794
# Shear Modulus (GPa) = 7.84164 15.27215 11.55689
#
# Velocity S-wave (km/s) = 2.15629 3.00922 2.61772
# Velocity P-wave (km/s) = 4.18579 6.41688 5.41743
#
# Compressibility (1/GPa) = 0.05237290
#
# Stress axis : x y z
#
# Youngs Moduli (GPa) = 13.38759 41.19995 32.75210
#
# Poissons Ratio (x) = 1.30252 -0.17809
# Poissons Ratio (y) = 0.42324 0.40569
# Poissons Ratio (z) = -0.07280 0.51033
#
# Static dielectric constant tensor:
#      x y z
#    x 1.561720 0.000000 0.000000 
#    y 0.000000 1.595750 0.000000 
#    z 0.000000 0.000000 1.570190 
# 
# From -- ./inp_files/26746.got.cif
#   From: 2010.05.17/outbox.cif.g08.bks.cpg/sg47_14_cif.got.tgz:26746.got - 2010.06.03 20:15:42.
