data_PCOD9386176
_publ_section_title
;
Structure prediction by ZEFSAII (Michael W. Deem and Ramdas Pophale) SiO2 
 PCOD9386176
Probable space group: P M M M
;
_chemical_formula_sum "Si O2"
_cell_formula_units_Z 48
_cell_length_a 9.858671
_cell_length_b 8.192038
_cell_length_c 30.046821
_cell_angle_alpha 90.000000
_cell_angle_beta 90.000000
_cell_angle_gamma 90.000000
_cell_volume 2426.659610
_symmetry_space_group_name_H-M "P M M M"
_symmetry_group_IT_number 47
_symmetry_cell_setting 'orthorhombic'
loop_
_space_group_symop_operation_xyz
x,y,z
-x,-y,z
x,-y,-z
-x,y,-z
-x,-y,-z
x,y,-z
-x,y,z
x,-y,z
loop_
_atom_site_type_symbol
_atom_site_label
_atom_site_fract_x
_atom_site_fract_y
_atom_site_fract_z
Si Si1 0.342029 0.693735 0.206453
Si Si2 0.655620 0.696609 0.630263
Si Si3 0.154114 0.699151 0.448910
Si Si4 0.500000 0.199149 0.050028
Si Si5 0.747245 0.195279 0.889918
Si Si6 0.000000 0.695700 0.948213
Si Si7 0.842939 0.194270 0.288018
O O1 0.500000 0.754072 0.207914
O O2 0.347215 0.500000 0.213610
O O3 0.276396 0.729648 0.158474
O O4 0.243401 0.766518 0.243825
O O5 0.500000 0.756832 0.635180
O O6 0.647893 0.500000 0.627739
O O7 0.732428 0.755784 0.585693
O O8 0.753876 0.738171 0.671231
O O9 0.178295 0.749476 0.500000
O O10 0.155237 0.500000 0.448452
O O11 0.000000 0.748583 0.436187
O O12 0.373090 0.251715 0.078327
O O13 0.500000 0.000000 0.048351
O O14 0.500000 0.260049 0.000000
O O15 0.876010 0.242991 0.918647
O O16 0.742659 0.000000 0.884339
O O17 0.000000 0.500000 0.949734
O O18 0.000000 0.754254 0.000000
O O19 0.000000 0.255890 0.286732
O O20 0.849971 0.000000 0.292814
#
# Coordination Sequence:
#
# PCOD9386176 Si02
#       7
#     8   8   8   4   8   4   8
#     4  11  24  42  64  90 121 153 189 235 294 358
#     4  10  20  34  55  85 119 154 194 241 296 353
#     4   8  14  26  47  77 114 156 199 242 289 344
#     4   9  18  34  59  91 121 151 193 239 284 337
#     4  11  22  39  64  91 122 158 198 244 292 346
#     4  11  25  43  61  87 125 165 203 245 294 345
#     4  11  25  42  61  85 113 149 196 244 293 351
#
# _framework density 19.780277999999999
#
# number of rings (size 3 to 8) (size 9 to 14) (size 15 to 20)
#    0.000    1.833    0.833    3.750    1.167    7.000 
#    0.000    1.667    0.000    2.500    0.000    3.500 
#    0.000    0.000    0.000    0.000    0.000    0.000 
#
# Total GULP energy -267894.546597 kJ/mol
# GULP energy per Si atom -5581.136387 kJ/mol
# Density = 1.973526 g / cm^3
# Si number density = 19.780278 Si / 1000 Ang^3
#
#
#
# Elastic Constant Matrix: (Units=GPa)
#
#
# Indices 1 2 3 4 5 6 
#
# 1 205.3566 8.4200 100.8824 0.0000 0.0000 0.0000
# 2 8.4200 17.3729 -2.5383 0.0000 0.0000 0.0000
# 3 100.8824 -2.5383 152.0696 0.0000 0.0000 0.0000
# 4 0.0000 0.0000 0.0000 -208.7816 0.0000 0.0000
# 5 0.0000 0.0000 0.0000 0.0000 38.9332 0.0000
# 6 0.0000 0.0000 0.0000 0.0000 0.0000 6.3249
#
#
#
# Elastic Compliance Matrix: (Units=1/GPa)
#
#
# Indices 1 2 3 4 5 6 
#
# 1 0.007545 -0.004399 -0.005079 0.000000 0.000000 0.000000
# 2 -0.004399 0.060266 0.003924 0.000000 0.000000 0.000000
# 3 -0.005079 0.003924 0.010011 0.000000 0.000000 0.000000
# 4 0.000000 0.000000 0.000000 -0.004790 0.000000 0.000000
# 5 0.000000 0.000000 0.000000 0.000000 0.025685 0.000000
# 6 0.000000 0.000000 0.000000 0.000000 0.000000 0.158105
#
#
# Mechanical properties :
#
#
# Convention : Reuss Voigt Hill
#
# Bulk Modulus (GPa) = 14.98918 65.36971 40.17944
# Shear Modulus (GPa) = 17.23145 -14.83570 1.19788
#
# Velocity S-wave (km/s) = 2.95472 -2.74163 0.77904
# Velocity P-wave (km/s) = 4.38574 4.80600 4.60067
#
# Compressibility (1/GPa) = 0.06671481
#
# Stress axis : x y z
#
# Youngs Moduli (GPa) = 132.54094 16.59309 99.89429
#
# Poissons Ratio (x) = 0.07299 0.50733
# Poissons Ratio (y) = 0.58301 -0.39199
# Poissons Ratio (z) = 0.67313 -0.06511
#
# Static dielectric constant tensor:
#      x y z
#    x 1.649120 0.000000 0.000000 
#    y 0.000000 1.706340 0.000000 
#    z 0.000000 0.000000 1.692670 
# 
# From -- ./inp_files/34166.got.cif
#   From: 2010.05.17/outbox.cif.g08.bks.cpg/sg47_18_cif.got.tgz:34166.got - 2010.06.03 20:15:42.
