data_PCOD9386342
_publ_section_title
;
Structure prediction by ZEFSAII (Michael W. Deem and Ramdas Pophale) SiO2 
 PCOD9386342
Probable space group: P M M M
;
_chemical_formula_sum "Si O2"
_cell_formula_units_Z 40
_cell_length_a 28.770568
_cell_length_b 8.230685
_cell_length_c 9.073267
_cell_angle_alpha 90.000000
_cell_angle_beta 90.000000
_cell_angle_gamma 90.000000
_cell_volume 2148.563077
_symmetry_space_group_name_H-M "P M M M"
_symmetry_group_IT_number 47
_symmetry_cell_setting 'orthorhombic'
loop_
_space_group_symop_operation_xyz
x,y,z
-x,-y,z
x,-y,-z
-x,y,-z
-x,-y,-z
x,y,-z
-x,y,z
x,-y,z
loop_
_atom_site_type_symbol
_atom_site_label
_atom_site_fract_x
_atom_site_fract_y
_atom_site_fract_z
Si Si1 0.000000 0.693871 0.334035
Si Si2 0.809929 0.693169 0.170032
Si Si3 0.288494 0.805389 0.830841
Si Si4 0.446473 0.500000 0.679611
Si Si5 0.092002 0.193503 0.831446
Si Si6 0.614522 0.189012 0.677771
O O1 0.046709 0.748056 0.252822
O O2 0.000000 0.500000 0.338431
O O3 0.000000 0.759330 0.500000
O O4 0.811822 0.500000 0.166134
O O5 0.760321 0.744205 0.234607
O O6 0.858344 0.754920 0.235825
O O7 0.809086 0.757174 0.000000
O O8 0.334692 0.766561 0.740374
O O9 0.285601 0.000000 0.836449
O O10 0.292898 0.743743 0.000000
O O11 0.500000 0.500000 0.727812
O O12 0.446053 0.500000 0.500000
O O13 0.420580 0.667290 0.724961
O O14 0.090998 0.000000 0.837215
O O15 0.090221 0.258074 0.000000
O O16 0.615762 0.188847 0.500000
O O17 0.603690 0.000000 0.722880
#
# Coordination Sequence:
#
# PCOD9386342 Si02
#       6
#     4   8   8   4   8   8
#     4  11  24  39  54  74 102 133 166 207 256 308
#     4   9  17  29  48  75 103 131 165 205 246 291
#     4   9  17  30  49  73 101 134 169 204 246 298
#     4   9  18  32  51  75 101 131 171 216 257 298
#     4  10  20  35  56  79 101 129 168 210 251 298
#     4   9  18  32  50  73 101 132 168 211 258 305
#
# _framework density 18.617092
#
# number of rings (size 3 to 8) (size 9 to 14) (size 15 to 20)
#    0.000    2.600    0.000    1.800    1.400    6.000 
#    0.000    3.000    0.000    4.800    0.000    2.800 
#    0.000    0.000    0.000    0.000    0.000    0.000 
#
# Total GULP energy -222887.081468 kJ/mol
# GULP energy per Si atom -5572.177037 kJ/mol
# Density = 1.857472 g / cm^3
# Si number density = 18.617092 Si / 1000 Ang^3
#
#
#
# Elastic Constant Matrix: (Units=GPa)
#
#
# Indices 1 2 3 4 5 6 
#
# 1 206.4107 84.1609 36.8206 0.0000 0.0000 0.0000
# 2 84.1609 76.0469 19.6278 0.0000 0.0000 0.0000
# 3 36.8206 19.6278 21.6253 0.0000 0.0000 0.0000
# 4 0.0000 0.0000 0.0000 13.2499 0.0000 0.0000
# 5 0.0000 0.0000 0.0000 0.0000 41.3114 0.0000
# 6 0.0000 0.0000 0.0000 0.0000 0.0000 42.0680
#
#
#
# Elastic Compliance Matrix: (Units=1/GPa)
#
#
# Indices 1 2 3 4 5 6 
#
# 1 0.010050 -0.008757 -0.009163 0.000000 0.000000 0.000000
# 2 -0.008757 0.024803 -0.007602 0.000000 0.000000 0.000000
# 3 -0.009163 -0.007602 0.068744 0.000000 0.000000 0.000000
# 4 0.000000 0.000000 0.000000 0.075472 0.000000 0.000000
# 5 0.000000 0.000000 0.000000 0.000000 0.024206 0.000000
# 6 0.000000 0.000000 0.000000 0.000000 0.000000 0.023771
#
#
# Mechanical properties :
#
#
# Convention : Reuss Voigt Hill
#
# Bulk Modulus (GPa) = 19.02861 65.03348 42.03105
# Shear Modulus (GPa) = 16.91427 30.22412 23.56919
#
# Velocity S-wave (km/s) = 3.01746 4.03359 3.56195
# Velocity P-wave (km/s) = 4.73110 7.53001 6.28826
#
# Compressibility (1/GPa) = 0.05255244
#
# Stress axis : x y z
#
# Youngs Moduli (GPa) = 99.50333 40.31721 14.54679
#
# Poissons Ratio (x) = 0.35306 0.13330
# Poissons Ratio (y) = 0.87137 0.11058
# Poissons Ratio (z) = 0.91178 0.30648
#
# Static dielectric constant tensor:
#      x y z
#    x 1.650360 0.000000 0.000000 
#    y 0.000000 1.643970 0.000000 
#    z 0.000000 0.000000 1.660970 
# 
# From -- ./inp_files/12976.got.cif
#   From: 2010.05.17/outbox.cif.g08.bks.cpg/sg47_7_cif.got.tgz:12976.got - 2010.06.03 20:15:42.
