data_PCOD9386247
_publ_section_title
;
Structure prediction by ZEFSAII (Michael W. Deem and Ramdas Pophale) SiO2 
 PCOD9386247
Probable space group: P M M M
;
_chemical_formula_sum "Si O2"
_cell_formula_units_Z 44
_cell_length_a 17.317236
_cell_length_b 10.154285
_cell_length_c 13.824099
_cell_angle_alpha 90.000000
_cell_angle_beta 90.000000
_cell_angle_gamma 90.000000
_cell_volume 2430.886935
_symmetry_space_group_name_H-M "P M M M"
_symmetry_group_IT_number 47
_symmetry_cell_setting 'orthorhombic'
loop_
_space_group_symop_operation_xyz
x,y,z
-x,-y,z
x,-y,-z
-x,y,-z
-x,-y,-z
x,y,-z
-x,y,z
x,-y,z
loop_
_atom_site_type_symbol
_atom_site_label
_atom_site_fract_x
_atom_site_fract_y
_atom_site_fract_z
Si Si1 0.366330 0.351109 0.383419
Si Si2 0.589977 0.000000 0.117330
Si Si3 0.413510 0.500000 0.117225
Si Si4 0.690617 0.748249 0.116020
Si Si5 0.500000 0.153465 0.382441
Si Si6 0.795655 0.344022 0.274037
Si Si7 0.092302 0.848402 0.385485
O O1 0.361854 0.345077 0.500000
O O2 0.393454 0.500000 0.358655
O O3 0.425409 0.237742 0.351477
O O4 0.281290 0.333761 0.340228
O O5 0.641185 0.874985 0.145133
O O6 0.500000 0.000000 0.147717
O O7 0.586703 0.000000 0.000000
O O8 0.500000 0.500000 0.155092
O O9 0.364300 0.373589 0.142958
O O10 0.418635 0.500000 0.000000
O O11 0.769253 0.722546 0.173328
O O12 0.702077 0.750371 0.000000
O O13 0.500000 0.154946 0.500000
O O14 0.500000 0.000000 0.354587
O O15 0.813285 0.500000 0.262972
O O16 0.862338 0.259536 0.324100
O O17 0.108373 0.830269 0.500000
O O18 0.000000 0.836878 0.372587
O O19 0.114271 0.000000 0.360757
#
# Coordination Sequence:
#
# PCOD9386247 Si02
#       7
#     8   4   4   8   4   8   8
#     4   9  18  33  49  67  98 138 175 217 265 315
#     4   9  18  34  54  74 102 145 198 252 298 335
#     4   9  16  30  52  72 100 147 196 242 288 327
#     4  10  20  35  52  77 112 150 192 238 287 332
#     4   9  17  31  49  67  92 131 180 224 264 310
#     4  11  22  35  54  85 113 143 183 224 272 330
#     4   9  20  40  65  91 117 143 172 214 272 336
#
# _framework density 18.100390000000001
#
# number of rings (size 3 to 8) (size 9 to 14) (size 15 to 20)
#    0.000    2.455    0.909    1.909    1.273    5.455 
#    3.273    2.727    0.000    0.545    0.000    2.545 
#    0.000    0.000    0.000    0.000    0.000    0.000 
#
# Total GULP energy -245599.700101 kJ/mol
# GULP energy per Si atom -5581.811366 kJ/mol
# Density = 1.805919 g / cm^3
# Si number density = 18.100390 Si / 1000 Ang^3
#
#
#
# Elastic Constant Matrix: (Units=GPa)
#
#
# Indices 1 2 3 4 5 6 
#
# 1 68.9134 61.5234 37.7609 0.0000 0.0000 0.0000
# 2 61.5234 163.8520 47.9846 0.0000 0.0000 0.0000
# 3 37.7609 47.9846 78.1648 0.0000 0.0000 0.0000
# 4 0.0000 0.0000 0.0000 182.2696 0.0000 0.0000
# 5 0.0000 0.0000 0.0000 0.0000 26.9277 0.0000
# 6 0.0000 0.0000 0.0000 0.0000 0.0000 33.4385
#
#
#
# Elastic Compliance Matrix: (Units=1/GPa)
#
#
# Indices 1 2 3 4 5 6 
#
# 1 0.025168 -0.007180 -0.007751 0.000000 0.000000 0.000000
# 2 -0.007180 0.009489 -0.002357 0.000000 0.000000 0.000000
# 3 -0.007751 -0.002357 0.017984 0.000000 0.000000 0.000000
# 4 0.000000 0.000000 0.000000 0.005486 0.000000 0.000000
# 5 0.000000 0.000000 0.000000 0.000000 0.037136 0.000000
# 6 0.000000 0.000000 0.000000 0.000000 0.000000 0.029906
#
#
# Mechanical properties :
#
#
# Convention : Reuss Voigt Hill
#
# Bulk Modulus (GPa) = 55.35025 67.27422 61.31224
# Shear Modulus (GPa) = 30.16259 59.43790 44.80025
#
# Velocity S-wave (km/s) = 4.08659 5.73665 4.98043
# Velocity P-wave (km/s) = 7.27413 9.00705 8.18657
#
# Compressibility (1/GPa) = 0.01806676
#
# Stress axis : x y z
#
# Youngs Moduli (GPa) = 39.73247 105.38164 55.60352
#
# Poissons Ratio (x) = 0.75669 0.43096
# Poissons Ratio (y) = 0.28530 0.13103
# Poissons Ratio (z) = 0.30795 0.24834
#
# Static dielectric constant tensor:
#      x y z
#    x 1.581510 0.000000 0.000000 
#    y 0.000000 1.624750 0.000000 
#    z 0.000000 0.000000 1.670370 
# 
# From -- ./inp_files/24362.got.cif
#   From: 2010.05.17/outbox.cif.g08.bks.cpg/sg47_13_cif.got.tgz:24362.got - 2010.06.03 20:15:42.
