data_PCOD9386043
_publ_section_title
;
Structure prediction by ZEFSAII (Michael W. Deem and Ramdas Pophale) SiO2 
 PCOD9386043
Probable space group: P M M M
;
_chemical_formula_sum "Si O2"
_cell_formula_units_Z 48
_cell_length_a 16.496518
_cell_length_b 18.789824
_cell_length_c 9.046688
_cell_angle_alpha 90.000000
_cell_angle_beta 90.000000
_cell_angle_gamma 90.000000
_cell_volume 2804.171752
_symmetry_space_group_name_H-M "P M M M"
_symmetry_group_IT_number 47
_symmetry_cell_setting 'orthorhombic'
loop_
_space_group_symop_operation_xyz
x,y,z
-x,-y,z
x,-y,-z
-x,y,-z
-x,-y,-z
x,y,-z
-x,y,z
x,-y,z
loop_
_atom_site_type_symbol
_atom_site_label
_atom_site_fract_x
_atom_site_fract_y
_atom_site_fract_z
Si Si1 0.500000 0.916116 0.677252
Si Si2 0.757054 0.708967 0.823021
Si Si3 0.906836 0.785312 0.675788
Si Si4 0.831607 0.082425 0.175201
Si Si5 0.332539 0.583808 0.676275
Si Si6 0.341522 0.849304 0.823977
Si Si7 0.500000 0.413789 0.168197
O O1 0.500000 0.912714 0.500000
O O2 0.419909 0.877461 0.739695
O O3 0.500000 0.000000 0.720860
O O4 0.842193 0.736680 0.760520
O O5 0.732694 0.634851 0.750285
O O6 0.689977 0.769891 0.785297
O O7 0.759797 0.704059 0.000000
O O8 0.894371 0.779753 0.500000
O O9 0.886462 0.864964 0.730112
O O10 0.000000 0.767774 0.709320
O O11 0.737343 0.101405 0.204937
O O12 0.847217 0.000000 0.203876
O O13 0.844509 0.096774 0.000000
O O14 0.333795 0.592075 0.500000
O O15 0.319749 0.500000 0.709095
O O16 0.419037 0.605860 0.745146
O O17 0.357631 0.851077 0.000000
O O18 0.500000 0.500000 0.161653
O O19 0.500000 0.386503 0.000000
#
# Coordination Sequence:
#
# PCOD9386043 Si02
#       7
#     4   8   8   8   8   8   4
#     4  11  23  34  47  72 102 134 176 221 261 301
#     4  10  21  37  57  79 103 134 174 217 260 311
#     4  10  21  36  54  77 105 136 169 207 257 317
#     4   9  18  33  53  76 101 131 170 215 261 309
#     4  10  20  34  54  81 112 144 177 214 260 312
#     4   9  19  35  52  70  95 132 175 214 255 302
#     4   9  17  30  49  74 105 140 176 211 246 288
#
# _framework density 17.117353999999999
#
# number of rings (size 3 to 8) (size 9 to 14) (size 15 to 20)
#    0.000    2.333    0.000    3.500    0.000    9.333 
#    0.000    2.500    0.000    0.500    0.000    3.500 
#    0.000    0.000    0.000    0.000    0.000    0.000 
#
# Total GULP energy -267863.717360 kJ/mol
# GULP energy per Si atom -5580.494112 kJ/mol
# Density = 1.707839 g / cm^3
# Si number density = 17.117354 Si / 1000 Ang^3
#
#
#
# Elastic Constant Matrix: (Units=GPa)
#
#
# Indices 1 2 3 4 5 6 
#
# 1 106.2438 60.7164 62.6251 0.0000 0.0000 0.0000
# 2 60.7164 93.1276 61.5248 0.0000 0.0000 0.0000
# 3 62.6251 61.5248 77.4213 0.0000 0.0000 0.0000
# 4 0.0000 0.0000 0.0000 29.0865 0.0000 0.0000
# 5 0.0000 0.0000 0.0000 0.0000 20.5273 0.0000
# 6 0.0000 0.0000 0.0000 0.0000 0.0000 9.2180
#
#
#
# Elastic Compliance Matrix: (Units=1/GPa)
#
#
# Indices 1 2 3 4 5 6 
#
# 1 0.018912 -0.004681 -0.011577 0.000000 0.000000 0.000000
# 2 -0.004681 0.023765 -0.015099 0.000000 0.000000 0.000000
# 3 -0.011577 -0.015099 0.034280 0.000000 0.000000 0.000000
# 4 0.000000 0.000000 0.000000 0.034380 0.000000 0.000000
# 5 0.000000 0.000000 0.000000 0.000000 0.048716 0.000000
# 6 0.000000 0.000000 0.000000 0.000000 0.000000 0.108484
#
#
# Mechanical properties :
#
#
# Convention : Reuss Voigt Hill
#
# Bulk Modulus (GPa) = 70.21690 71.83612 71.02651
# Shear Modulus (GPa) = 14.88100 17.89477 16.38788
#
# Velocity S-wave (km/s) = 2.95168 3.23680 3.09752
# Velocity P-wave (km/s) = 7.26130 7.48513 7.37406
#
# Compressibility (1/GPa) = 0.01424159
#
# Stress axis : x y z
#
# Youngs Moduli (GPa) = 52.87671 42.07844 29.17162
#
# Poissons Ratio (x) = 0.19698 0.33773
# Poissons Ratio (y) = 0.24753 0.44046
# Poissons Ratio (z) = 0.61218 0.63534
#
# Static dielectric constant tensor:
#      x y z
#    x 1.560730 0.000000 0.000000 
#    y 0.000000 1.581640 0.000000 
#    z 0.000000 0.000000 1.569200 
# 
# From -- ./inp_files/6385.got.cif
#   From: 2010.05.17/outbox.cif.g08.bks.cpg/sg47_4_cif.got.tgz:6385.got - 2010.06.03 20:15:42.
