data_PCOD9386960
_publ_section_title
;
Structure prediction by ZEFSAII (Michael W. Deem and Ramdas Pophale) SiO2 
 PCOD9386960
Probable space group: P M M M
;
_chemical_formula_sum "Si O2"
_cell_formula_units_Z 44
_cell_length_a 10.049730
_cell_length_b 7.894785
_cell_length_c 31.124085
_cell_angle_alpha 90.000000
_cell_angle_beta 90.000000
_cell_angle_gamma 90.000000
_cell_volume 2469.399148
_symmetry_space_group_name_H-M "P M M M"
_symmetry_group_IT_number 47
_symmetry_cell_setting 'orthorhombic'
loop_
_space_group_symop_operation_xyz
x,y,z
-x,-y,z
x,-y,-z
-x,y,-z
-x,-y,-z
x,y,-z
-x,y,z
x,-y,z
loop_
_atom_site_type_symbol
_atom_site_label
_atom_site_fract_x
_atom_site_fract_y
_atom_site_fract_z
Si Si1 0.661975 0.305779 0.389828
Si Si2 0.150774 0.798586 0.124045
Si Si3 0.347675 0.293205 0.706976
Si Si4 0.348525 0.704064 0.951784
Si Si5 0.337553 0.000000 0.549464
Si Si6 0.848746 0.297420 0.219149
O O1 0.500000 0.309282 0.389990
O O2 0.705997 0.500000 0.397680
O O3 0.698492 0.251137 0.341330
O O4 0.704834 0.168123 0.424715
O O5 0.246991 0.754236 0.085083
O O6 0.198463 0.735326 0.170582
O O7 0.000000 0.731376 0.117325
O O8 0.143460 0.000000 0.126691
O O9 0.500000 0.235327 0.713059
O O10 0.350859 0.500000 0.708116
O O11 0.250185 0.231841 0.744310
O O12 0.500000 0.762569 0.943145
O O13 0.351656 0.500000 0.952805
O O14 0.310890 0.762383 0.000000
O O15 0.500000 0.000000 0.549613
O O16 0.294612 0.000000 0.500000
O O17 0.855377 0.500000 0.224676
O O18 0.000000 0.230094 0.222769
#
# Coordination Sequence:
#
# PCOD9386960 Si02
#       6
#     8   8   8   8   4   8
#     4   8  14  25  39  56  83 117 151 191 236 280
#     4  10  21  35  49  69 100 132 159 191 234 285
#     4   8  14  26  44  64  87 117 151 187 232 283
#     4   9  19  36  56  76  96 120 155 199 242 283
#     4   9  16  24  36  58  87 119 155 191 232 285
#     4   9  17  30  48  68  91 121 157 197 237 276
#
# _framework density 17.818100000000001
#
# number of rings (size 3 to 8) (size 9 to 14) (size 15 to 20)
#    0.000    3.182    0.000    2.182    0.000    3.273 
#    1.636    6.364    0.000    0.000    0.000    0.000 
#    0.000    1.455    0.000    7.091    0.000    7.273 
#
# Total GULP energy -245103.411978 kJ/mol
# GULP energy per Si atom -5570.532090 kJ/mol
# Density = 1.777755 g / cm^3
# Si number density = 17.818100 Si / 1000 Ang^3
#
#
#
# Elastic Constant Matrix: (Units=GPa)
#
#
# Indices 1 2 3 4 5 6 
#
# 1 49.0375 19.7788 78.5331 0.0000 0.0000 0.0000
# 2 19.7788 45.3085 44.8523 0.0000 0.0000 0.0000
# 3 78.5331 44.8523 190.2818 0.0000 0.0000 0.0000
# 4 0.0000 0.0000 0.0000 82.3294 0.0000 0.0000
# 5 0.0000 0.0000 0.0000 0.0000 -16.4666 0.0000
# 6 0.0000 0.0000 0.0000 0.0000 0.0000 9.4789
#
#
#
# Elastic Compliance Matrix: (Units=1/GPa)
#
#
# Indices 1 2 3 4 5 6 
#
# 1 0.060317 -0.002201 -0.024375 0.000000 0.000000 0.000000
# 2 -0.002201 0.028869 -0.005897 0.000000 0.000000 0.000000
# 3 -0.024375 -0.005897 0.016705 0.000000 0.000000 0.000000
# 4 0.000000 0.000000 0.000000 0.012146 0.000000 0.000000
# 5 0.000000 0.000000 0.000000 0.000000 -0.060729 0.000000
# 6 0.000000 0.000000 0.000000 0.000000 0.000000 0.105497
#
#
# Mechanical properties :
#
#
# Convention : Reuss Voigt Hill
#
# Bulk Modulus (GPa) = 24.42234 63.43956 43.93095
# Shear Modulus (GPa) = 20.71256 24.49925 22.60590
#
# Velocity S-wave (km/s) = 3.41316 3.71207 3.56575
# Velocity P-wave (km/s) = 5.41010 7.35214 6.45458
#
# Compressibility (1/GPa) = 0.04094611
#
# Stress axis : x y z
#
# Youngs Moduli (GPa) = 16.57910 34.63952 59.86085
#
# Poissons Ratio (x) = 0.07623 1.45912
# Poissons Ratio (y) = 0.03649 0.35297
# Poissons Ratio (z) = 0.40412 0.20425
#
# Static dielectric constant tensor:
#      x y z
#    x 1.604430 0.000000 0.000000 
#    y 0.000000 1.634200 0.000000 
#    z 0.000000 0.000000 1.602900 
# 
# From -- ./inp_files/1956.got.cif
#   From: 2010.05.17/outbox.cif.g08.bks.cpg/sg47_1_cif.got.tgz:1956.got - 2010.06.03 20:15:42.
