data_PCOD9386451
_publ_section_title
;
Structure prediction by ZEFSAII (Michael W. Deem and Ramdas Pophale) SiO2 
 PCOD9386451
Probable space group: P M M M
;
_chemical_formula_sum "Si O2"
_cell_formula_units_Z 48
_cell_length_a 31.795591
_cell_length_b 9.196406
_cell_length_c 8.480714
_cell_angle_alpha 90.000000
_cell_angle_beta 90.000000
_cell_angle_gamma 90.000000
_cell_volume 2479.804567
_symmetry_space_group_name_H-M "P M M M"
_symmetry_group_IT_number 47
_symmetry_cell_setting 'orthorhombic'
loop_
_space_group_symop_operation_xyz
x,y,z
-x,-y,z
x,-y,-z
-x,y,-z
-x,-y,-z
x,y,-z
-x,y,z
x,-y,z
loop_
_atom_site_type_symbol
_atom_site_label
_atom_site_fract_x
_atom_site_fract_y
_atom_site_fract_z
Si Si1 0.165203 0.668283 0.189099
Si Si2 0.582542 0.831761 0.309098
Si Si3 0.500000 0.667850 0.188972
Si Si4 0.000000 0.668237 0.810829
Si Si5 0.667253 0.667705 0.692458
Si Si6 0.917402 0.168270 0.310830
Si Si7 0.752122 0.168581 0.690967
O O1 0.165060 0.500000 0.241784
O O2 0.124348 0.751060 0.252605
O O3 0.207172 0.747993 0.247013
O O4 0.164061 0.670509 0.000000
O O5 0.581976 0.829904 0.500000
O O6 0.541443 0.749253 0.249396
O O7 0.625029 0.750368 0.256895
O O8 0.582553 0.000000 0.258543
O O9 0.500000 0.500000 0.243095
O O10 0.500000 0.669472 0.000000
O O11 0.958549 0.749655 0.750897
O O12 0.000000 0.500000 0.757927
O O13 0.000000 0.669710 0.000000
O O14 0.667197 0.668041 0.500000
O O15 0.667456 0.500000 0.743763
O O16 0.709331 0.751546 0.742480
O O17 0.917981 0.169828 0.500000
O O18 0.917423 0.000000 0.258040
O O19 0.753128 0.171568 0.500000
O O20 0.752342 0.000000 0.740268
#
# Coordination Sequence:
#
# PCOD9386451 Si02
#       7
#     8   8   4   4   8   8   8
#     4  11  24  40  58  83 115 151 192 236 282 334
#     4  10  20  35  57  84 111 141 181 228 276 329
#     4  11  24  39  54  76 108 145 184 227 276 330
#     4  11  24  41  62  90 122 155 192 233 280 336
#     4   9  17  31  54  83 113 145 181 224 275 328
#     4  11  24  41  62  89 118 150 192 238 283 335
#     4  10  20  35  57  85 115 147 185 229 277 331
#
# _framework density 19.356363999999999
#
# number of rings (size 3 to 8) (size 9 to 14) (size 15 to 20)
#    0.000    1.667    0.000    4.500    0.000   14.000 
#    0.000    0.833    0.000    5.000    0.000    0.000 
#    0.000    0.000    0.000    0.000    0.000    0.000 
#
# Total GULP energy -268382.143392 kJ/mol
# GULP energy per Si atom -5591.294654 kJ/mol
# Density = 1.931231 g / cm^3
# Si number density = 19.356364 Si / 1000 Ang^3
#
#
#
# Elastic Constant Matrix: (Units=GPa)
#
#
# Indices 1 2 3 4 5 6 
#
# 1 243.7370 151.0996 32.9394 0.0000 0.0000 0.0000
# 2 151.0996 247.7053 40.2297 0.0000 0.0000 0.0000
# 3 32.9394 40.2297 21.0630 0.0000 0.0000 0.0000
# 4 0.0000 0.0000 0.0000 37.2397 0.0000 0.0000
# 5 0.0000 0.0000 0.0000 0.0000 -393.8784 0.0000
# 6 0.0000 0.0000 0.0000 0.0000 0.0000 46.7710
#
#
#
# Elastic Compliance Matrix: (Units=1/GPa)
#
#
# Indices 1 2 3 4 5 6 
#
# 1 0.006816 -0.003518 -0.003940 0.000000 0.000000 0.000000
# 2 -0.003518 0.007668 -0.009144 0.000000 0.000000 0.000000
# 3 -0.003940 -0.009144 0.071104 0.000000 0.000000 0.000000
# 4 0.000000 0.000000 0.000000 0.026853 0.000000 0.000000
# 5 0.000000 0.000000 0.000000 0.000000 -0.002539 0.000000
# 6 0.000000 0.000000 0.000000 0.000000 0.000000 0.021381
#
#
# Mechanical properties :
#
#
# Convention : Reuss Voigt Hill
#
# Bulk Modulus (GPa) = 19.09012 106.78253 62.93633
# Shear Modulus (GPa) = 27.48014 -42.75775 -7.63881
#
# Velocity S-wave (km/s) = 3.77197 -4.70507 -1.98871
# Velocity P-wave (km/s) = 5.37161 5.07636 5.22607
#
# Compressibility (1/GPa) = 0.05238311
#
# Stress axis : x y z
#
# Youngs Moduli (GPa) = 146.71091 130.41095 14.06388
#
# Poissons Ratio (x) = 0.45877 0.05542
# Poissons Ratio (y) = 0.51611 0.12860
# Poissons Ratio (z) = 0.57810 1.19252
#
# Static dielectric constant tensor:
#      x y z
#    x 1.621220 0.000000 0.000000 
#    y 0.000000 1.661140 0.000000 
#    z 0.000000 0.000000 1.664130 
# 
# From -- ./inp_files/13886.got.cif
#   From: 2010.05.17/outbox.cif.g08.bks.cpg/sg47_7_cif.got.tgz:13886.got - 2010.06.03 20:15:42.
