data_PCOD9386935
_publ_section_title
;
Structure prediction by ZEFSAII (Michael W. Deem and Ramdas Pophale) SiO2 
 PCOD9386935
Probable space group: P M M M
;
_chemical_formula_sum "Si O2"
_cell_formula_units_Z 52
_cell_length_a 7.367085
_cell_length_b 14.341756
_cell_length_c 22.559751
_cell_angle_alpha 90.000000
_cell_angle_beta 90.000000
_cell_angle_gamma 90.000000
_cell_volume 2383.594156
_symmetry_space_group_name_H-M "P M M M"
_symmetry_group_IT_number 47
_symmetry_cell_setting 'orthorhombic'
loop_
_space_group_symop_operation_xyz
x,y,z
-x,-y,z
x,-y,-z
-x,y,-z
-x,-y,-z
x,y,-z
-x,y,z
x,-y,z
loop_
_atom_site_type_symbol
_atom_site_label
_atom_site_fract_x
_atom_site_fract_y
_atom_site_fract_z
Si Si1 0.291651 0.706778 0.122685
Si Si2 0.218188 0.607303 0.000000
Si Si3 0.220026 0.604987 0.564458
Si Si4 0.779434 0.108970 0.433326
Si Si5 0.278677 0.105673 0.931253
Si Si6 0.791405 0.393609 0.760453
Si Si7 0.219461 0.748568 0.664465
O O1 0.500000 0.717107 0.141124
O O2 0.283760 0.658430 0.058781
O O3 0.215515 0.810864 0.111178
O O4 0.207256 0.638988 0.171420
O O5 0.276042 0.500000 0.000000
O O6 0.000000 0.610396 0.000000
O O7 0.280426 0.637213 0.500000
O O8 0.281328 0.500000 0.573382
O O9 0.270187 0.669824 0.617164
O O10 0.000000 0.604187 0.563497
O O11 0.721036 0.141484 0.500000
O O12 0.717748 0.160886 0.373073
O O13 0.000000 0.118577 0.434178
O O14 0.735324 0.000000 0.429757
O O15 0.500000 0.108270 0.931049
O O16 0.224850 0.000000 0.915161
O O17 0.224082 0.122214 0.000000
O O18 0.715254 0.500000 0.754023
O O19 0.716775 0.302908 0.724694
O O20 0.000000 0.401799 0.739567
O O21 0.000000 0.760745 0.670477
#
# Coordination Sequence:
#
# PCOD9386935 Si02
#       7
#     8   4   8   8   8   8   8
#     4  11  21  35  56  80 101 128 169 211 248 293
#     4  11  23  37  54  77 106 136 163 201 258 313
#     4   8  12  17  28  49  74  99 134 183 232 274
#     4   8  13  21  35  58  88 122 161 205 255 310
#     4   8  14  28  52  79 102 122 148 187 237 289
#     4  10  21  35  48  65  96 137 174 208 254 308
#     4   9  15  24  38  54  79 121 163 194 234 295
#
# _framework density 21.815794
#
# number of rings (size 3 to 8) (size 9 to 14) (size 15 to 20)
#    0.000    2.846    0.769    3.462    0.000    6.462 
#    0.000    0.769    0.000    3.231    0.000    0.000 
#    0.000    2.462    0.000    9.231    0.000    9.231 
#
# Total GULP energy -289661.214370 kJ/mol
# GULP energy per Si atom -5570.407969 kJ/mol
# Density = 2.176614 g / cm^3
# Si number density = 21.815794 Si / 1000 Ang^3
#
#
#
# Elastic Constant Matrix: (Units=GPa)
#
#
# Indices 1 2 3 4 5 6 
#
# 1 76.1808 3.2776 -4.9645 0.0000 0.0000 0.0000
# 2 3.2776 139.6468 53.6022 0.0000 0.0000 0.0000
# 3 -4.9645 53.6022 73.7996 0.0000 0.0000 0.0000
# 4 0.0000 0.0000 0.0000 37.9671 0.0000 0.0000
# 5 0.0000 0.0000 0.0000 0.0000 33.5424 0.0000
# 6 0.0000 0.0000 0.0000 0.0000 0.0000 -1.0188
#
#
#
# Elastic Compliance Matrix: (Units=1/GPa)
#
#
# Indices 1 2 3 4 5 6 
#
# 1 0.013267 -0.000907 0.001551 0.000000 0.000000 0.000000
# 2 -0.000907 0.009991 -0.007318 0.000000 0.000000 0.000000
# 3 0.001551 -0.007318 0.018970 0.000000 0.000000 0.000000
# 4 0.000000 0.000000 0.000000 0.026339 0.000000 0.000000
# 5 0.000000 0.000000 0.000000 0.000000 0.029813 0.000000
# 6 0.000000 0.000000 0.000000 0.000000 0.000000 -0.981574
#
#
# Mechanical properties :
#
#
# Convention : Reuss Voigt Hill
#
# Bulk Modulus (GPa) = 34.62539 43.71753 39.17146
# Shear Modulus (GPa) = -5.81246 29.94561 12.06658
#
# Velocity S-wave (km/s) = -1.63405 3.70896 2.35438
# Velocity P-wave (km/s) = 3.51369 6.19877 5.03839
#
# Compressibility (1/GPa) = 0.02888054
#
# Stress axis : x y z
#
# Youngs Moduli (GPa) = 75.37642 100.08977 52.71614
#
# Poissons Ratio (x) = 0.09075 -0.08176
# Poissons Ratio (y) = 0.06835 0.38576
# Poissons Ratio (z) = -0.11691 0.73243
#
# Static dielectric constant tensor:
#      x y z
#    x 1.900140 0.000000 0.000000 
#    y 0.000000 1.816890 0.000000 
#    z 0.000000 0.000000 1.801610 
# 
# From -- ./inp_files/29563.got.cif
#   From: 2010.05.17/outbox.cif.g08.bks.cpg/sg47_15_cif.got.tgz:29563.got - 2010.06.03 20:15:42.
