data_PCOD9386201
_publ_section_title
;
Structure prediction by ZEFSAII (Michael W. Deem and Ramdas Pophale) SiO2 
 PCOD9386201
Probable space group: P M M M
;
_chemical_formula_sum "Si O2"
_cell_formula_units_Z 49
_cell_length_a 7.987104
_cell_length_b 31.590315
_cell_length_c 9.616799
_cell_angle_alpha 90.000000
_cell_angle_beta 90.000000
_cell_angle_gamma 90.000000
_cell_volume 2426.463902
_symmetry_space_group_name_H-M "P M M M"
_symmetry_group_IT_number 47
_symmetry_cell_setting 'orthorhombic'
loop_
_space_group_symop_operation_xyz
x,y,z
-x,-y,z
x,-y,-z
-x,y,-z
-x,-y,-z
x,y,-z
-x,y,z
x,-y,z
loop_
_atom_site_type_symbol
_atom_site_label
_atom_site_fract_x
_atom_site_fract_y
_atom_site_fract_z
Si Si1 0.304128 0.415561 0.845066
Si Si2 0.199910 0.000000 0.160295
Si Si3 0.699882 0.081730 0.340003
Si Si4 0.201150 0.662933 0.663016
Si Si5 0.201684 0.837057 0.159105
Si Si6 0.500000 0.500000 0.500000
Si Si7 0.204621 0.242278 0.661092
Si Si8 0.186198 0.500000 0.284941
O O1 0.500000 0.426980 0.842548
O O2 0.276754 0.376054 0.744582
O O3 0.202836 0.456924 0.802006
O O4 0.257284 0.402182 0.000000
O O5 0.251610 0.041056 0.248490
O O6 0.000000 0.000000 0.151065
O O7 0.265043 0.000000 0.000000
O O8 0.764947 0.080133 0.500000
O O9 0.500000 0.082695 0.348379
O O10 0.756979 0.123148 0.256290
O O11 0.239362 0.658502 0.500000
O O12 0.256572 0.710320 0.704357
O O13 0.000000 0.661126 0.678728
O O14 0.262580 0.794517 0.236139
O O15 0.000000 0.834361 0.151858
O O16 0.263561 0.841590 0.000000
O O17 0.349165 0.500000 0.382591
O O18 0.255312 0.234835 0.500000
O O19 0.000000 0.242090 0.660787
O O20 0.000000 0.500000 0.348878
#
# Coordination Sequence:
#
# PCOD9386201 Si02
#       8
#     8   4   8   8   8   1   8   4
#     4  11  24  42  61  86 125 167 207 258 313 368
#     4  11  24  41  62  88 116 145 184 231 280 340
#     4  11  24  40  58  83 114 151 192 235 282 341
#     4   9  19  35  58  88 118 151 199 252 304 366
#     4  10  20  34  56  86 116 149 193 243 296 353
#     4  12  26  48  66 102 136 160 200 272 308 370
#     4   8  15  31  54  81 114 151 192 244 299 353
#     4  12  26  44  70  97 126 169 211 254 315 375
#
# _framework density 20.193995000000001
#
# number of rings (size 3 to 8) (size 9 to 14) (size 15 to 20)
#    0.000    1.878    0.816    3.796    1.143    9.143 
#    0.000    2.449    0.000    0.980    0.000    0.000 
#    0.000    0.000    0.000    0.000    0.000    0.000 
#
# Total GULP energy -273330.862717 kJ/mol
# GULP energy per Si atom -5578.180872 kJ/mol
# Density = 2.014803 g / cm^3
# Si number density = 20.193995 Si / 1000 Ang^3
#
#
#
# Elastic Constant Matrix: (Units=GPa)
#
#
# Indices 1 2 3 4 5 6 
#
# 1 54.9960 27.3549 37.1621 0.0000 0.0000 0.0000
# 2 27.3549 162.8643 80.0744 0.0000 0.0000 0.0000
# 3 37.1621 80.0744 119.9976 0.0000 0.0000 0.0000
# 4 0.0000 0.0000 0.0000 -160.9566 0.0000 0.0000
# 5 0.0000 0.0000 0.0000 0.0000 13.7428 0.0000
# 6 0.0000 0.0000 0.0000 0.0000 0.0000 49.3723
#
#
#
# Elastic Compliance Matrix: (Units=1/GPa)
#
#
# Indices 1 2 3 4 5 6 
#
# 1 0.023027 -0.000538 -0.006772 0.000000 0.000000 0.000000
# 2 -0.000538 0.009151 -0.005940 0.000000 0.000000 0.000000
# 3 -0.006772 -0.005940 0.014394 0.000000 0.000000 0.000000
# 4 0.000000 0.000000 0.000000 -0.006213 0.000000 0.000000
# 5 0.000000 0.000000 0.000000 0.000000 0.072765 0.000000
# 6 0.000000 0.000000 0.000000 0.000000 0.000000 0.020254
#
#
# Mechanical properties :
#
#
# Convention : Reuss Voigt Hill
#
# Bulk Modulus (GPa) = 49.82007 69.67117 59.74562
# Shear Modulus (GPa) = 30.01755 -6.68387 11.66684
#
# Velocity S-wave (km/s) = 3.85965 -1.82127 2.40623
# Velocity P-wave (km/s) = 6.67733 5.49119 6.11310
#
# Compressibility (1/GPa) = 0.02007223
#
# Stress axis : x y z
#
# Youngs Moduli (GPa) = 43.42752 109.28024 69.47165
#
# Poissons Ratio (x) = 0.05879 0.47048
# Poissons Ratio (y) = 0.02336 0.41264
# Poissons Ratio (z) = 0.29410 0.64909
#
# Static dielectric constant tensor:
#      x y z
#    x 1.727720 0.000000 0.000000 
#    y 0.000000 1.781450 0.000000 
#    z 0.000000 0.000000 1.710070 
# 
# From -- ./inp_files/2864.got.cif
#   From: 2010.05.17/outbox.cif.g08.bks.cpg/sg47_2_cif.got.tgz:2864.got - 2010.06.03 20:15:42.
