data_PCOD9386934
_publ_section_title
;
Structure prediction by ZEFSAII (Michael W. Deem and Ramdas Pophale) SiO2 
 PCOD9386934
Probable space group: P M M M
;
_chemical_formula_sum "Si O2"
_cell_formula_units_Z 36
_cell_length_a 7.829964
_cell_length_b 24.077831
_cell_length_c 10.102321
_cell_angle_alpha 90.000000
_cell_angle_beta 90.000000
_cell_angle_gamma 90.000000
_cell_volume 1904.575929
_symmetry_space_group_name_H-M "P M M M"
_symmetry_group_IT_number 47
_symmetry_cell_setting 'orthorhombic'
loop_
_space_group_symop_operation_xyz
x,y,z
-x,-y,z
x,-y,-z
-x,y,-z
-x,-y,-z
x,y,-z
-x,y,z
x,-y,z
loop_
_atom_site_type_symbol
_atom_site_label
_atom_site_fract_x
_atom_site_fract_y
_atom_site_fract_z
Si Si1 0.196924 0.000000 0.161058
Si Si2 0.794390 0.879503 0.150764
Si Si3 0.795170 0.657538 0.349649
Si Si4 0.296481 0.781719 0.650313
Si Si5 0.791290 0.437204 0.151958
O O1 0.273210 0.059904 0.197165
O O2 0.000000 0.000000 0.208325
O O3 0.193554 0.000000 0.000000
O O4 0.755728 0.830060 0.250226
O O5 0.000000 0.884855 0.143641
O O6 0.733799 0.868689 0.000000
O O7 0.728392 0.651842 0.500000
O O8 0.759063 0.720332 0.304607
O O9 0.729751 0.610219 0.251241
O O10 0.000000 0.651410 0.355338
O O11 0.228777 0.790077 0.500000
O O12 0.500000 0.781653 0.643576
O O13 0.740004 0.500000 0.189245
O O14 0.000000 0.436396 0.153019
O O15 0.739076 0.427097 0.000000
#
# Coordination Sequence:
#
# PCOD9386934 Si02
#       5
#     4   8   8   8   8
#     4   7  12  26  48  73  98 120 146 187 236 281
#     4   9  17  31  53  77  97 120 154 195 237 282
#     4   9  17  29  46  67  89 116 153 194 232 272
#     4  10  21  35  48  65  95 132 164 196 236 279
#     4   8  14  25  42  66  94 118 141 178 230 281
#
# _framework density 18.901845000000002
#
# number of rings (size 3 to 8) (size 9 to 14) (size 15 to 20)
#    0.000    3.222    0.000    2.667    0.000    3.111 
#    0.000    5.556    0.000    6.000    0.000    4.667 
#    0.000    0.000    0.000    0.000    0.000    0.000 
#
# Total GULP energy -200546.801427 kJ/mol
# GULP energy per Si atom -5570.744484 kJ/mol
# Density = 1.885882 g / cm^3
# Si number density = 18.901845 Si / 1000 Ang^3
#
#
#
# Elastic Constant Matrix: (Units=GPa)
#
#
# Indices 1 2 3 4 5 6 
#
# 1 22.7759 4.7102 5.5935 0.0000 0.0000 0.0000
# 2 4.7102 222.7491 121.1365 0.0000 0.0000 0.0000
# 3 5.5935 121.1365 89.4468 0.0000 0.0000 0.0000
# 4 0.0000 0.0000 0.0000 211.4562 0.0000 0.0000
# 5 0.0000 0.0000 0.0000 0.0000 -1.7906 0.0000
# 6 0.0000 0.0000 0.0000 0.0000 0.0000 -40.4370
#
#
#
# Elastic Compliance Matrix: (Units=1/GPa)
#
#
# Indices 1 2 3 4 5 6 
#
# 1 0.044871 0.002190 -0.005772 0.000000 0.000000 0.000000
# 2 0.002190 0.017144 -0.023355 0.000000 0.000000 0.000000
# 3 -0.005772 -0.023355 0.043170 0.000000 0.000000 0.000000
# 4 0.000000 0.000000 0.000000 0.004729 0.000000 0.000000
# 5 0.000000 0.000000 0.000000 0.000000 -0.558484 0.000000
# 6 0.000000 0.000000 0.000000 0.000000 0.000000 -0.024730
#
#
# Mechanical properties :
#
#
# Convention : Reuss Voigt Hill
#
# Bulk Modulus (GPa) = 19.48896 66.42802 42.95849
# Shear Modulus (GPa) = -12.42783 47.41450 17.49334
#
# Velocity S-wave (km/s) = -2.56694 5.01389 3.04548
# Velocity P-wave (km/s) = 1.24394 8.29088 5.92816
#
# Compressibility (1/GPa) = 0.05131111
#
# Stress axis : x y z
#
# Youngs Moduli (GPa) = 22.28627 58.32956 23.16430
#
# Poissons Ratio (x) = -0.12775 0.13371
# Poissons Ratio (y) = -0.04881 0.54100
# Poissons Ratio (z) = 0.12864 1.36228
#
# Static dielectric constant tensor:
#      x y z
#    x 1.681170 0.000000 0.000000 
#    y 0.000000 1.663960 0.000000 
#    z 0.000000 0.000000 1.662870 
# 
# From -- ./inp_files/1440.got.cif
#   From: 2010.05.17/outbox.cif.g08.bks.cpg/sg47_1_cif.got.tgz:1440.got - 2010.06.03 20:15:42.
