data_PCOD9386858
_publ_section_title
;
Structure prediction by ZEFSAII (Michael W. Deem and Ramdas Pophale) SiO2 
 PCOD9386858
Probable space group: P M M M
;
_chemical_formula_sum "Si O2"
_cell_formula_units_Z 64
_cell_length_a 14.074009
_cell_length_b 25.075271
_cell_length_c 8.942038
_cell_angle_alpha 90.000000
_cell_angle_beta 90.000000
_cell_angle_gamma 90.000000
_cell_volume 3155.730962
_symmetry_space_group_name_H-M "P M M M"
_symmetry_group_IT_number 47
_symmetry_cell_setting 'orthorhombic'
loop_
_space_group_symop_operation_xyz
x,y,z
-x,-y,z
x,-y,-z
-x,y,-z
-x,-y,-z
x,y,-z
-x,y,z
x,-y,z
loop_
_atom_site_type_symbol
_atom_site_label
_atom_site_fract_x
_atom_site_fract_y
_atom_site_fract_z
Si Si1 0.793869 0.058667 0.319876
Si Si2 0.616119 0.232521 0.327761
Si Si3 0.614739 0.341033 0.170891
Si Si4 0.884649 0.724011 0.176136
Si Si5 0.889421 0.393814 0.818896
Si Si6 0.114467 0.160990 0.825560
Si Si7 0.711487 0.558696 0.321639
Si Si8 0.607297 0.885675 0.317881
O O1 0.799785 0.059149 0.500000
O O2 0.850763 0.108873 0.258524
O O3 0.684434 0.070502 0.277351
O O4 0.824453 0.000000 0.267341
O O5 0.647371 0.237591 0.500000
O O6 0.500000 0.232750 0.329190
O O7 0.647604 0.284026 0.235904
O O8 0.639984 0.173518 0.267997
O O9 0.500000 0.340339 0.174448
O O10 0.650667 0.392111 0.260308
O O11 0.646792 0.345961 0.000000
O O12 0.857452 0.665715 0.234048
O O13 0.853231 0.781257 0.239570
O O14 0.000000 0.723304 0.183591
O O15 0.860595 0.725204 0.000000
O O16 0.816320 0.434398 0.747293
O O17 0.000000 0.402245 0.779535
O O18 0.883920 0.394992 0.000000
O O19 0.000000 0.161593 0.822360
O O20 0.143275 0.157907 0.000000
O O21 0.716151 0.561939 0.500000
O O22 0.673325 0.500000 0.280165
O O23 0.604597 0.882821 0.500000
O O24 0.500000 0.896006 0.266617
#
# Coordination Sequence:
#
# PCOD9386858 Si02
#       8
#     8   8   8   8   8   8   8   8
#     4  10  21  34  48  71 102 134 172 218 261 298
#     4   8  14  28  52  79 106 135 166 203 252 312
#     4  10  21  37  58  83 109 136 169 215 268 318
#     4   7  12  27  52  80 105 128 160 204 255 309
#     4   9  18  35  60  86 111 139 171 213 265 316
#     4   9  18  34  55  75  98 132 170 207 251 307
#     4  11  25  41  55  75 106 145 186 222 256 302
#     4   8  15  30  52  76 102 134 171 209 251 304
#
# _framework density 20.280562
#
# number of rings (size 3 to 8) (size 9 to 14) (size 15 to 20)
#    0.000    3.000    0.000    3.000    0.000    4.500 
#    0.000    8.750    0.000    3.375    0.000    0.875 
#    0.000    0.000    0.000    0.000    0.000    0.000 
#
# Total GULP energy -356916.664760 kJ/mol
# GULP energy per Si atom -5576.822887 kJ/mol
# Density = 2.023440 g / cm^3
# Si number density = 20.280562 Si / 1000 Ang^3
#
#
#
# Elastic Constant Matrix: (Units=GPa)
#
#
# Indices 1 2 3 4 5 6 
#
# 1 20.9096 0.5393 3.5910 0.0000 0.0000 0.0000
# 2 0.5393 116.8991 28.5560 0.0000 0.0000 0.0000
# 3 3.5910 28.5560 31.5780 0.0000 0.0000 0.0000
# 4 0.0000 0.0000 0.0000 22.9375 0.0000 0.0000
# 5 0.0000 0.0000 0.0000 0.0000 18.6172 0.0000
# 6 0.0000 0.0000 0.0000 0.0000 0.0000 24.9292
#
#
#
# Elastic Compliance Matrix: (Units=1/GPa)
#
#
# Indices 1 2 3 4 5 6 
#
# 1 0.048970 0.001456 -0.006886 0.000000 0.000000 0.000000
# 2 0.001456 0.011023 -0.010134 0.000000 0.000000 0.000000
# 3 -0.006886 -0.010134 0.041615 0.000000 0.000000 0.000000
# 4 0.000000 0.000000 0.000000 0.043597 0.000000 0.000000
# 5 0.000000 0.000000 0.000000 0.000000 0.053714 0.000000
# 6 0.000000 0.000000 0.000000 0.000000 0.000000 0.040114
#
#
# Mechanical properties :
#
#
# Convention : Reuss Voigt Hill
#
# Bulk Modulus (GPa) = 14.18820 26.08435 20.13628
# Shear Modulus (GPa) = 17.02694 22.41013 19.71854
#
# Velocity S-wave (km/s) = 2.90068 3.32777 3.12154
# Velocity P-wave (km/s) = 4.26963 5.25881 4.78982
#
# Compressibility (1/GPa) = 0.07048112
#
# Stress axis : x y z
#
# Youngs Moduli (GPa) = 20.42071 90.71819 24.02997
#
# Poissons Ratio (x) = -0.13209 0.16546
# Poissons Ratio (y) = -0.02973 0.24352
# Poissons Ratio (z) = 0.14061 0.91932
#
# Static dielectric constant tensor:
#      x y z
#    x 1.760770 0.000000 0.000000 
#    y 0.000000 1.734550 0.000000 
#    z 0.000000 0.000000 1.686760 
# 
# From -- ./inp_files/7869.got.cif
#   From: 2010.05.17/outbox.cif.g08.bks.cpg/sg47_4_cif.got.tgz:7869.got - 2010.06.03 20:15:42.
