data_PCOD9386829
_publ_section_title
;
Structure prediction by ZEFSAII (Michael W. Deem and Ramdas Pophale) SiO2 
 PCOD9386829
Probable space group: P M M M
;
_chemical_formula_sum "Si O2"
_cell_formula_units_Z 52
_cell_length_a 27.021036
_cell_length_b 13.976230
_cell_length_c 9.481859
_cell_angle_alpha 90.000000
_cell_angle_beta 90.000000
_cell_angle_gamma 90.000000
_cell_volume 3580.845044
_symmetry_space_group_name_H-M "P M M M"
_symmetry_group_IT_number 47
_symmetry_cell_setting 'orthorhombic'
loop_
_space_group_symop_operation_xyz
x,y,z
-x,-y,z
x,-y,-z
-x,y,-z
-x,-y,-z
x,y,-z
-x,y,z
x,-y,z
loop_
_atom_site_type_symbol
_atom_site_label
_atom_site_fract_x
_atom_site_fract_y
_atom_site_fract_z
Si Si1 0.795109 0.793311 0.833907
Si Si2 0.706350 0.887632 0.669844
Si Si3 0.057189 0.713318 0.332676
Si Si4 0.500000 0.883247 0.162003
Si Si5 0.099181 0.111159 0.166921
Si Si6 0.857474 0.609930 0.832405
Si Si7 0.595289 0.883616 0.337527
O O1 0.749134 0.827770 0.743135
O O2 0.843173 0.860903 0.810833
O O3 0.814624 0.686697 0.799753
O O4 0.782977 0.797712 0.000000
O O5 0.709538 0.881400 0.500000
O O6 0.650571 0.856021 0.709646
O O7 0.712072 0.000000 0.707619
O O8 0.066921 0.717396 0.500000
O O9 0.067882 0.816155 0.261179
O O10 0.094711 0.641066 0.256393
O O11 0.000000 0.686818 0.311256
O O12 0.549742 0.851856 0.241840
O O13 0.500000 0.000000 0.165011
O O14 0.500000 0.853393 0.000000
O O15 0.090694 0.000000 0.198772
O O16 0.088961 0.127071 0.000000
O O17 0.844129 0.500000 0.806275
O O18 0.868303 0.621197 0.000000
O O19 0.587850 0.854001 0.500000
O O20 0.595383 0.000000 0.337575
#
# Coordination Sequence:
#
# PCOD9386829 Si02
#       7
#     8   8   8   4   8   8   8
#     4   9  17  29  45  64  84 105 132 170 212 247
#     4   9  17  27  39  58  84 114 146 174 202 242
#     4  10  21  34  47  67  93 114 134 167 210 252
#     4   9  15  21  31  49  71  97 136 183 220 243
#     4   9  18  32  48  65  86 115 149 177 202 240
#     4   9  19  36  54  68  83 107 139 171 206 254
#     4   8  14  24  35  47  69 105 144 175 203 238
#
# _framework density 14.521713
#
# number of rings (size 3 to 8) (size 9 to 14) (size 15 to 20)
#    0.000    3.000    0.000    3.000    0.000    7.385 
#    0.000    4.615    0.000    0.000    0.000    0.000 
#    0.000    0.000    0.000    0.692    0.000   14.077 
#
# Total GULP energy -289655.552760 kJ/mol
# GULP energy per Si atom -5570.299092 kJ/mol
# Density = 1.448866 g / cm^3
# Si number density = 14.521713 Si / 1000 Ang^3
#
#
#
# Elastic Constant Matrix: (Units=GPa)
#
#
# Indices 1 2 3 4 5 6 
#
# 1 110.1550 32.8300 61.8174 0.0000 0.0000 0.0000
# 2 32.8300 61.5499 26.7541 0.0000 0.0000 0.0000
# 3 61.8174 26.7541 55.2963 0.0000 0.0000 0.0000
# 4 0.0000 0.0000 0.0000 11.4322 0.0000 0.0000
# 5 0.0000 0.0000 0.0000 0.0000 114.8160 0.0000
# 6 0.0000 0.0000 0.0000 0.0000 0.0000 8.9755
#
#
#
# Elastic Compliance Matrix: (Units=1/GPa)
#
#
# Indices 1 2 3 4 5 6 
#
# 1 0.024467 -0.001470 -0.026641 0.000000 0.000000 0.000000
# 2 -0.001470 0.020662 -0.008353 0.000000 0.000000 0.000000
# 3 -0.026641 -0.008353 0.051909 0.000000 0.000000 0.000000
# 4 0.000000 0.000000 0.000000 0.087472 0.000000 0.000000
# 5 0.000000 0.000000 0.000000 0.000000 0.008710 0.000000
# 6 0.000000 0.000000 0.000000 0.000000 0.000000 0.111414
#
#
# Mechanical properties :
#
#
# Convention : Reuss Voigt Hill
#
# Bulk Modulus (GPa) = 41.47881 52.20047 46.83964
# Shear Modulus (GPa) = 12.96687 34.08473 23.52580
#
# Velocity S-wave (km/s) = 2.99143 4.85000 4.02934
# Velocity P-wave (km/s) = 6.36843 8.20901 7.34659
#
# Compressibility (1/GPa) = 0.02410870
#
# Stress axis : x y z
#
# Youngs Moduli (GPa) = 40.87190 48.39759 19.26465
#
# Poissons Ratio (x) = 0.07116 0.51322
# Poissons Ratio (y) = 0.06009 0.16093
# Poissons Ratio (z) = 1.08886 0.40428
#
# Static dielectric constant tensor:
#      x y z
#    x 1.474160 0.000000 0.000000 
#    y 0.000000 1.465170 0.000000 
#    z 0.000000 0.000000 1.482450 
# 
# From -- ./inp_files/13399.got.cif
#   From: 2010.05.17/outbox.cif.g08.bks.cpg/sg47_7_cif.got.tgz:13399.got - 2010.06.03 20:15:42.
