data_PCOD9386143
_publ_section_title
;
Structure prediction by ZEFSAII (Michael W. Deem and Ramdas Pophale) SiO2 
 PCOD9386143
Probable space group: P M M M
;
_chemical_formula_sum "Si O2"
_cell_formula_units_Z 48
_cell_length_a 32.761557
_cell_length_b 7.654438
_cell_length_c 8.703840
_cell_angle_alpha 90.000000
_cell_angle_beta 90.000000
_cell_angle_gamma 90.000000
_cell_volume 2182.673331
_symmetry_space_group_name_H-M "P M M M"
_symmetry_group_IT_number 47
_symmetry_cell_setting 'orthorhombic'
loop_
_space_group_symop_operation_xyz
x,y,z
-x,-y,z
x,-y,-z
-x,y,-z
-x,-y,-z
x,y,-z
-x,y,z
x,-y,z
loop_
_atom_site_type_symbol
_atom_site_label
_atom_site_fract_x
_atom_site_fract_y
_atom_site_fract_z
Si Si1 0.414401 0.709183 0.327947
Si Si2 0.915645 0.705137 0.673050
Si Si3 0.951678 0.289894 0.000000
Si Si4 0.667855 0.289991 0.828866
Si Si5 0.165818 0.788018 0.173040
Si Si6 0.247617 0.209708 0.328392
Si Si7 0.500000 0.208038 0.171692
O O1 0.413622 0.780252 0.500000
O O2 0.409640 0.500000 0.335912
O O3 0.375332 0.776801 0.234958
O O4 0.458332 0.740766 0.254624
O O5 0.925360 0.775230 0.500000
O O6 0.926804 0.500000 0.668834
O O7 0.934703 0.777442 0.834254
O O8 0.867395 0.723793 0.705350
O O9 0.943531 0.500000 0.000000
O O10 0.000000 0.262357 0.000000
O O11 0.664725 0.500000 0.836480
O O12 0.706961 0.250754 0.726302
O O13 0.675119 0.222024 0.000000
O O14 0.211362 0.729487 0.217368
O O15 0.164688 0.000000 0.174353
O O16 0.155207 0.729857 0.000000
O O17 0.240906 0.277398 0.500000
O O18 0.244367 0.000000 0.332360
O O19 0.500000 0.000000 0.163538
O O20 0.500000 0.282133 0.000000
#
# Coordination Sequence:
#
# PCOD9386143 Si02
#       7
#     8   8   4   8   8   8   4
#     4  10  21  38  60  83 107 138 176 218 266 320
#     4  10  20  34  55  83 112 145 186 231 281 335
#     4   9  18  34  55  81 115 149 183 231 285 336
#     4  10  21  37  57  81 108 141 180 221 268 321
#     4  10  20  35  56  80 108 146 188 230 279 332
#     4  10  21  36  54  78 108 143 183 225 271 325
#     4  11  24  39  56  82 112 141 176 217 262 314
#
# _framework density 21.991381000000001
#
# number of rings (size 3 to 8) (size 9 to 14) (size 15 to 20)
#    0.000    2.000    0.833    2.500    0.000    7.333 
#    0.000    1.667    0.000    1.000    0.000    1.167 
#    0.000    0.000    0.000    0.000    0.000    0.000 
#
# Total GULP energy -268001.549461 kJ/mol
# GULP energy per Si atom -5583.365614 kJ/mol
# Density = 2.194133 g / cm^3
# Si number density = 21.991381 Si / 1000 Ang^3
#
#
#
# Elastic Constant Matrix: (Units=GPa)
#
#
# Indices 1 2 3 4 5 6 
#
# 1 98.3416 -5.1481 44.9339 0.0000 0.0000 0.0000
# 2 -5.1481 40.8863 8.3228 0.0000 0.0000 0.0000
# 3 44.9339 8.3228 163.7202 0.0000 0.0000 0.0000
# 4 0.0000 0.0000 0.0000 12.6603 0.0000 0.0000
# 5 0.0000 0.0000 0.0000 0.0000 30.2905 0.0000
# 6 0.0000 0.0000 0.0000 0.0000 0.0000 26.9206
#
#
#
# Elastic Compliance Matrix: (Units=1/GPa)
#
#
# Indices 1 2 3 4 5 6 
#
# 1 0.011814 0.002170 -0.003353 0.000000 0.000000 0.000000
# 2 0.002170 0.025112 -0.001872 0.000000 0.000000 0.000000
# 3 -0.003353 -0.001872 0.007123 0.000000 0.000000 0.000000
# 4 0.000000 0.000000 0.000000 0.078987 0.000000 0.000000
# 5 0.000000 0.000000 0.000000 0.000000 0.033014 0.000000
# 6 0.000000 0.000000 0.000000 0.000000 0.000000 0.037146
#
#
# Mechanical properties :
#
#
# Convention : Reuss Voigt Hill
#
# Bulk Modulus (GPa) = 26.35732 44.35170 35.35451
# Shear Modulus (GPa) = 23.59010 30.96358 27.27684
#
# Velocity S-wave (km/s) = 3.27876 3.75639 3.52567
# Velocity P-wave (km/s) = 5.13274 6.24704 5.71710
#
# Compressibility (1/GPa) = 0.03794012
#
# Stress axis : x y z
#
# Youngs Moduli (GPa) = 84.64409 39.82091 140.38347
#
# Poissons Ratio (x) = -0.08641 0.47068
# Poissons Ratio (y) = -0.18368 0.26282
# Poissons Ratio (z) = 0.28379 0.07455
#
# Static dielectric constant tensor:
#      x y z
#    x 1.849270 0.000000 0.000000 
#    y 0.000000 1.824480 0.000000 
#    z 0.000000 0.000000 1.828910 
# 
# From -- ./inp_files/13889.got.cif
#   From: 2010.05.17/outbox.cif.g08.bks.cpg/sg47_7_cif.got.tgz:13889.got - 2010.06.03 20:15:42.
