data_PCOD9386629
_publ_section_title
;
Structure prediction by ZEFSAII (Michael W. Deem and Ramdas Pophale) SiO2 
 PCOD9386629
Probable space group: P M M M
;
_chemical_formula_sum "Si O2"
_cell_formula_units_Z 44
_cell_length_a 8.496278
_cell_length_b 14.986522
_cell_length_c 18.022905
_cell_angle_alpha 90.000000
_cell_angle_beta 90.000000
_cell_angle_gamma 90.000000
_cell_volume 2294.850315
_symmetry_space_group_name_H-M "P M M M"
_symmetry_group_IT_number 47
_symmetry_cell_setting 'orthorhombic'
loop_
_space_group_symop_operation_xyz
x,y,z
-x,-y,z
x,-y,-z
-x,y,-z
-x,-y,-z
x,y,-z
-x,y,z
x,-y,z
loop_
_atom_site_type_symbol
_atom_site_label
_atom_site_fract_x
_atom_site_fract_y
_atom_site_fract_z
Si Si1 0.192349 0.897223 0.000000
Si Si2 0.309021 0.598158 0.182924
Si Si3 0.679165 0.394546 0.500000
Si Si4 0.680080 0.854299 0.698181
Si Si5 0.317866 0.352494 0.343448
Si Si6 0.187877 0.000000 0.413796
Si Si7 0.811733 0.792683 0.146848
O O1 0.242850 0.845111 0.073838
O O2 0.000000 0.897523 0.000000
O O3 0.243804 0.000000 0.000000
O O4 0.500000 0.602570 0.183256
O O5 0.264326 0.500000 0.152475
O O6 0.252932 0.603924 0.268795
O O7 0.250162 0.690466 0.147409
O O8 0.663924 0.500000 0.500000
O O9 0.500000 0.353908 0.500000
O O10 0.758753 0.369627 0.577337
O O11 0.500000 0.883649 0.707951
O O12 0.680087 0.752718 0.669896
O O13 0.758061 0.915969 0.635927
O O14 0.759298 0.845772 0.779044
O O15 0.500000 0.384950 0.349006
O O16 0.246841 0.000000 0.500000
O O17 0.000000 0.000000 0.417425
O O18 0.000000 0.788767 0.146944
#
# Coordination Sequence:
#
# PCOD9386629 Si02
#       7
#     4   8   4   8   8   4   8
#     4   9  20  38  60  85 112 148 188 232 289 354
#     4   9  17  32  53  77 111 152 190 232 283 340
#     4   9  14  20  36  65  97 128 168 215 259 307
#     4  10  21  37  57  81 112 147 187 233 285 343
#     4   8  15  26  43  69 101 136 175 220 271 324
#     4  11  25  41  57  80 111 150 197 241 288 339
#     4  10  20  36  60  87 115 147 189 237 287 347
#
# _framework density 19.173363999999999
#
# number of rings (size 3 to 8) (size 9 to 14) (size 15 to 20)
#    0.000    2.636    0.000    3.000    2.545    3.273 
#    0.000    2.273    0.000    4.909    0.000    0.000 
#    0.000    7.636    0.000    0.000    0.000    0.000 
#
# Total GULP energy -245097.930640 kJ/mol
# GULP energy per Si atom -5570.407515 kJ/mol
# Density = 1.912972 g / cm^3
# Si number density = 19.173364 Si / 1000 Ang^3
#
#
#
# Elastic Constant Matrix: (Units=GPa)
#
#
# Indices 1 2 3 4 5 6 
#
# 1 40.9097 28.1339 28.2608 0.0000 0.0000 0.0000
# 2 28.1339 131.9911 83.5292 0.0000 0.0000 0.0000
# 3 28.2608 83.5292 156.1998 0.0000 0.0000 0.0000
# 4 0.0000 0.0000 0.0000 14.7017 0.0000 0.0000
# 5 0.0000 0.0000 0.0000 0.0000 -21.3869 0.0000
# 6 0.0000 0.0000 0.0000 0.0000 0.0000 20.6538
#
#
#
# Elastic Compliance Matrix: (Units=1/GPa)
#
#
# Indices 1 2 3 4 5 6 
#
# 1 0.029538 -0.004405 -0.002989 0.000000 0.000000 0.000000
# 2 -0.004405 0.012108 -0.005678 0.000000 0.000000 0.000000
# 3 -0.002989 -0.005678 0.009979 0.000000 0.000000 0.000000
# 4 0.000000 0.000000 0.000000 0.068020 0.000000 0.000000
# 5 0.000000 0.000000 0.000000 0.000000 -0.046758 0.000000
# 6 0.000000 0.000000 0.000000 0.000000 0.000000 0.048417
#
#
# Mechanical properties :
#
#
# Convention : Reuss Voigt Hill
#
# Bulk Modulus (GPa) = 39.24272 67.66094 53.45183
# Shear Modulus (GPa) = 32.06317 15.40549 23.73433
#
# Velocity S-wave (km/s) = 4.09378 2.83765 3.52217
# Velocity P-wave (km/s) = 6.54654 6.78985 6.66930
#
# Compressibility (1/GPa) = 0.02548243
#
# Stress axis : x y z
#
# Youngs Moduli (GPa) = 33.85492 82.58662 100.20736
#
# Poissons Ratio (x) = 0.36375 0.29950
# Poissons Ratio (y) = 0.14911 0.56900
# Poissons Ratio (z) = 0.10119 0.46895
#
# Static dielectric constant tensor:
#      x y z
#    x 1.681590 0.000000 0.000000 
#    y 0.000000 1.669130 0.000000 
#    z 0.000000 0.000000 1.696190 
# 
# From -- ./inp_files/26423.got.cif
#   From: 2010.05.17/outbox.cif.g08.bks.cpg/sg47_14_cif.got.tgz:26423.got - 2010.06.03 20:15:42.
