data_PCOD9386866
_publ_section_title
;
Structure prediction by ZEFSAII (Michael W. Deem and Ramdas Pophale) SiO2 
 PCOD9386866
Probable space group: P M M M
;
_chemical_formula_sum "Si O2"
_cell_formula_units_Z 40
_cell_length_a 7.653073
_cell_length_b 27.999162
_cell_length_c 9.640620
_cell_angle_alpha 90.000000
_cell_angle_beta 90.000000
_cell_angle_gamma 90.000000
_cell_volume 2065.788494
_symmetry_space_group_name_H-M "P M M M"
_symmetry_group_IT_number 47
_symmetry_cell_setting 'orthorhombic'
loop_
_space_group_symop_operation_xyz
x,y,z
-x,-y,z
x,-y,-z
-x,y,-z
-x,-y,-z
x,y,-z
-x,y,z
x,-y,z
loop_
_atom_site_type_symbol
_atom_site_label
_atom_site_fract_x
_atom_site_fract_y
_atom_site_fract_z
Si Si1 0.201024 0.392339 0.336624
Si Si2 0.500000 0.557129 0.162843
Si Si3 0.210841 0.103709 0.341663
Si Si4 0.711935 0.283148 0.659132
Si Si5 0.709579 0.195011 0.843422
Si Si6 0.201859 0.000000 0.668883
O O1 0.247121 0.398416 0.500000
O O2 0.332200 0.421093 0.240149
O O3 0.219345 0.335784 0.306908
O O4 0.000000 0.406804 0.317844
O O5 0.500000 0.500000 0.174775
O O6 0.500000 0.569847 0.000000
O O7 0.271897 0.112627 0.500000
O O8 0.254571 0.147131 0.242237
O O9 0.278413 0.051585 0.292780
O O10 0.000000 0.099870 0.347617
O O11 0.760815 0.271888 0.500000
O O12 0.500000 0.285600 0.664664
O O13 0.774184 0.241386 0.760138
O O14 0.500000 0.199914 0.850456
O O15 0.777842 0.192488 0.000000
O O16 0.199954 0.000000 0.500000
O O17 0.000000 0.000000 0.716907
#
# Coordination Sequence:
#
# PCOD9386866 Si02
#       6
#     8   4   8   8   8   4
#     4  10  21  39  65  95 123 154 200 255 304 352
#     4  11  25  43  63  89 127 171 207 244 293 350
#     4   9  17  31  52  74  95 124 168 221 273 325
#     4   9  17  33  56  80 109 145 185 230 282 338
#     4  10  21  34  48  72 108 145 178 214 262 323
#     4   7  12  26  48  71  92 118 160 217 274 323
#
# _framework density 19.363066
#
# number of rings (size 3 to 8) (size 9 to 14) (size 15 to 20)
#    0.000    2.600    1.000    2.100    0.000    4.800 
#    0.000    5.000    0.000    4.800    0.000    0.000 
#    0.000    0.000    0.000    0.000    0.000    0.000 
#
# Total GULP energy -223203.355397 kJ/mol
# GULP energy per Si atom -5580.083885 kJ/mol
# Density = 1.931899 g / cm^3
# Si number density = 19.363066 Si / 1000 Ang^3
#
#
#
# Elastic Constant Matrix: (Units=GPa)
#
#
# Indices 1 2 3 4 5 6 
#
# 1 65.1947 43.6372 46.9983 0.0000 0.0000 0.0000
# 2 43.6372 132.1139 106.2494 0.0000 0.0000 0.0000
# 3 46.9983 106.2494 130.2918 0.0000 0.0000 0.0000
# 4 0.0000 0.0000 0.0000 -54.3534 0.0000 0.0000
# 5 0.0000 0.0000 0.0000 0.0000 11.0732 0.0000
# 6 0.0000 0.0000 0.0000 0.0000 0.0000 21.8750
#
#
#
# Elastic Compliance Matrix: (Units=1/GPa)
#
#
# Indices 1 2 3 4 5 6 
#
# 1 0.020999 -0.002453 -0.005574 0.000000 0.000000 0.000000
# 2 -0.002453 0.022279 -0.017283 0.000000 0.000000 0.000000
# 3 -0.005574 -0.017283 0.023780 0.000000 0.000000 0.000000
# 4 0.000000 0.000000 0.000000 -0.018398 0.000000 0.000000
# 5 0.000000 0.000000 0.000000 0.000000 0.090308 0.000000
# 6 0.000000 0.000000 0.000000 0.000000 0.000000 0.045714
#
#
# Mechanical properties :
#
#
# Convention : Reuss Voigt Hill
#
# Bulk Modulus (GPa) = 60.83854 80.15224 70.49539
# Shear Modulus (GPa) = 20.76571 4.43332 12.59951
#
# Velocity S-wave (km/s) = 3.27836 1.51478 2.55365
# Velocity P-wave (km/s) = 6.76892 6.67410 6.72168
#
# Compressibility (1/GPa) = 0.01643695
#
# Stress axis : x y z
#
# Youngs Moduli (GPa) = 47.62125 44.88570 42.05279
#
# Poissons Ratio (x) = 0.11010 0.23442
# Poissons Ratio (y) = 0.11681 0.72680
# Poissons Ratio (z) = 0.26546 0.77576
#
# Static dielectric constant tensor:
#      x y z
#    x 1.717650 0.000000 0.000000 
#    y 0.000000 1.668340 0.000000 
#    z 0.000000 0.000000 1.653010 
# 
# From -- ./inp_files/1756.got.cif
#   From: 2010.05.17/outbox.cif.g08.bks.cpg/sg47_1_cif.got.tgz:1756.got - 2010.06.03 20:15:42.
