data_PCOD9386536
_publ_section_title
;
Structure prediction by ZEFSAII (Michael W. Deem and Ramdas Pophale) SiO2 
 PCOD9386536
Probable space group: P M M M
;
_chemical_formula_sum "Si O2"
_cell_formula_units_Z 64
_cell_length_a 14.893011
_cell_length_b 8.809253
_cell_length_c 25.337550
_cell_angle_alpha 90.000000
_cell_angle_beta 90.000000
_cell_angle_gamma 90.000000
_cell_volume 3324.192857
_symmetry_space_group_name_H-M "P M M M"
_symmetry_group_IT_number 47
_symmetry_cell_setting 'orthorhombic'
loop_
_space_group_symop_operation_xyz
x,y,z
-x,-y,z
x,-y,-z
-x,y,-z
-x,-y,-z
x,y,-z
-x,y,z
x,-y,z
loop_
_atom_site_type_symbol
_atom_site_label
_atom_site_fract_x
_atom_site_fract_y
_atom_site_fract_z
Si Si1 0.395105 0.328224 0.562964
Si Si2 0.744029 0.823910 0.367021
Si Si3 0.395863 0.316772 0.157492
Si Si4 0.268971 0.681703 0.254825
Si Si5 0.105518 0.317456 0.560440
Si Si6 0.100607 0.821827 0.800916
Si Si7 0.899652 0.318958 0.916501
Si Si8 0.289460 0.818684 0.058031
O O1 0.386754 0.316837 0.500000
O O2 0.500000 0.314440 0.576255
O O3 0.365198 0.500000 0.577813
O O4 0.335241 0.205803 0.591557
O O5 0.715812 0.736864 0.313995
O O6 0.832469 0.757851 0.395572
O O7 0.756734 0.000000 0.355094
O O8 0.500000 0.268467 0.157898
O O9 0.393517 0.500000 0.154350
O O10 0.344029 0.273476 0.211418
O O11 0.343198 0.252582 0.106850
O O12 0.261238 0.500000 0.253318
O O13 0.176379 0.758167 0.236661
O O14 0.131321 0.273549 0.500000
O O15 0.114799 0.500000 0.563653
O O16 0.000000 0.281347 0.567177
O O17 0.103884 0.726609 0.854911
O O18 0.000000 0.807349 0.778710
O O19 0.115814 0.000000 0.813010
O O20 0.891097 0.500000 0.922928
O O21 0.813490 0.237902 0.940588
O O22 0.000000 0.274521 0.935432
O O23 0.290767 0.000000 0.063364
O O24 0.327225 0.778064 0.000000
#
# Coordination Sequence:
#
# PCOD9386536 Si02
#       8
#     8   8   8   8   8   8   8   8
#     4   9  19  38  63  87 113 150 195 242 293 350
#     4  12  25  37  55  87 125 160 195 243 302 358
#     4  10  23  44  68  91 114 147 196 252 307 362
#     4  11  23  40  62  86 115 156 202 247 295 351
#     4   9  19  38  63  88 117 159 210 258 302 353
#     4  10  20  35  58  87 119 153 188 233 289 346
#     4  10  20  35  58  88 121 159 200 239 283 339
#     4  11  24  40  61  91 126 161 197 243 299 357
#
# _framework density 19.252794000000002
#
# number of rings (size 3 to 8) (size 9 to 14) (size 15 to 20)
#    0.000    1.750    1.250    3.750    0.000    7.250 
#    0.000    5.000    0.000    0.000    0.000    0.000 
#    0.000    0.000    0.000    0.000    0.000    0.000 
#
# Total GULP energy -357449.037931 kJ/mol
# GULP energy per Si atom -5585.141218 kJ/mol
# Density = 1.920897 g / cm^3
# Si number density = 19.252794 Si / 1000 Ang^3
#
#
#
# Elastic Constant Matrix: (Units=GPa)
#
#
# Indices 1 2 3 4 5 6 
#
# 1 101.2101 31.3938 52.7258 0.0000 0.0000 0.0000
# 2 31.3938 37.3994 27.4400 0.0000 0.0000 0.0000
# 3 52.7258 27.4400 85.1966 0.0000 0.0000 0.0000
# 4 0.0000 0.0000 0.0000 29.6270 0.0000 0.0000
# 5 0.0000 0.0000 0.0000 0.0000 100.1061 0.0000
# 6 0.0000 0.0000 0.0000 0.0000 0.0000 -1.1985
#
#
#
# Elastic Compliance Matrix: (Units=1/GPa)
#
#
# Indices 1 2 3 4 5 6 
#
# 1 0.016311 -0.008231 -0.007444 0.000000 0.000000 0.000000
# 2 -0.008231 0.039165 -0.007521 0.000000 0.000000 0.000000
# 3 -0.007444 -0.007521 0.018766 0.000000 0.000000 0.000000
# 4 0.000000 0.000000 0.000000 0.033753 0.000000 0.000000
# 5 0.000000 0.000000 0.000000 0.000000 0.009989 0.000000
# 6 0.000000 0.000000 0.000000 0.000000 0.000000 -0.834363
#
#
# Mechanical properties :
#
#
# Convention : Reuss Voigt Hill
#
# Bulk Modulus (GPa) = 35.90249 49.65837 42.78043
# Shear Modulus (GPa) = -7.56769 33.19000 12.81115
#
# Velocity S-wave (km/s) = -1.98475 4.15650 2.58237
# Velocity P-wave (km/s) = 3.66553 6.99172 5.58212
#
# Compressibility (1/GPa) = 0.02785322
#
# Stress axis : x y z
#
# Youngs Moduli (GPa) = 61.30731 25.53287 53.28651
#
# Poissons Ratio (x) = 0.21015 0.39665
# Poissons Ratio (y) = 0.50459 0.40075
# Poissons Ratio (z) = 0.45635 0.19202
#
# Static dielectric constant tensor:
#      x y z
#    x 1.668010 0.000000 0.000000 
#    y 0.000000 1.652080 0.000000 
#    z 0.000000 0.000000 1.676770 
# 
# From -- ./inp_files/7820.got.cif
#   From: 2010.05.17/outbox.cif.g08.bks.cpg/sg47_4_cif.got.tgz:7820.got - 2010.06.03 20:15:42.
