data_PCOD9386864
_publ_section_title
;
Structure prediction by ZEFSAII (Michael W. Deem and Ramdas Pophale) SiO2 
 PCOD9386864
Probable space group: P M M M
;
_chemical_formula_sum "Si O2"
_cell_formula_units_Z 56
_cell_length_a 19.706735
_cell_length_b 18.781283
_cell_length_c 9.088616
_cell_angle_alpha 90.000000
_cell_angle_beta 90.000000
_cell_angle_gamma 90.000000
_cell_volume 3363.858259
_symmetry_space_group_name_H-M "P M M M"
_symmetry_group_IT_number 47
_symmetry_cell_setting 'orthorhombic'
loop_
_space_group_symop_operation_xyz
x,y,z
-x,-y,z
x,-y,-z
-x,y,-z
-x,-y,-z
x,y,-z
-x,y,z
x,-y,z
loop_
_atom_site_type_symbol
_atom_site_label
_atom_site_fract_x
_atom_site_fract_y
_atom_site_fract_z
Si Si1 0.719872 0.145367 0.674674
Si Si2 0.922333 0.211681 0.322950
Si Si3 0.707635 0.581278 0.824388
Si Si4 0.151971 0.918964 0.824394
Si Si5 0.574882 0.814015 0.321235
Si Si6 0.422829 0.646411 0.323562
Si Si7 0.792645 0.702327 0.673370
O O1 0.723363 0.128694 0.500000
O O2 0.772967 0.097461 0.761972
O O3 0.641894 0.143962 0.726436
O O4 0.746183 0.226922 0.690798
O O5 0.916889 0.203225 0.500000
O O6 0.897360 0.138831 0.248740
O O7 0.867931 0.272395 0.281842
O O8 0.000000 0.227860 0.285643
O O9 0.724102 0.500000 0.783456
O O10 0.634877 0.602750 0.757365
O O11 0.761532 0.637518 0.762230
O O12 0.704685 0.586451 0.000000
O O13 0.132654 0.000000 0.788848
O O14 0.151670 0.910212 0.000000
O O15 0.575072 0.816631 0.500000
O O16 0.500000 0.838020 0.271400
O O17 0.582422 0.730309 0.283869
O O18 0.413009 0.641588 0.500000
O O19 0.500000 0.623453 0.290739
O O20 0.792413 0.684774 0.500000
#
# Coordination Sequence:
#
# PCOD9386864 Si02
#       7
#     8   8   8   8   8   8   8
#     4   9  16  29  51  74  95 124 165 209 250 290
#     4   9  19  36  58  82 104 126 155 194 240 288
#     4  11  23  34  45  66  99 136 169 205 248 291
#     4  10  21  34  48  72 107 141 168 194 228 277
#     4   8  13  24  45  71  95 118 152 205 259 296
#     4   9  17  31  50  69  92 125 165 208 254 301
#     4   9  17  32  53  75  96 121 160 203 242 289
#
# _framework density 16.647551
#
# number of rings (size 3 to 8) (size 9 to 14) (size 15 to 20)
#    0.000    2.714    1.429    2.571    0.000    5.714 
#    0.000    2.857    0.000    1.286    0.000    6.000 
#    0.000    0.000    0.000    0.000    0.000    0.000 
#
# Total GULP energy -312128.079264 kJ/mol
# GULP energy per Si atom -5573.715701 kJ/mol
# Density = 1.660966 g / cm^3
# Si number density = 16.647551 Si / 1000 Ang^3
#
#
#
# Elastic Constant Matrix: (Units=GPa)
#
#
# Indices 1 2 3 4 5 6 
#
# 1 132.5454 39.2652 32.6654 0.0000 0.0000 0.0000
# 2 39.2652 54.6648 28.5964 0.0000 0.0000 0.0000
# 3 32.6654 28.5964 24.0402 0.0000 0.0000 0.0000
# 4 0.0000 0.0000 0.0000 24.4731 0.0000 0.0000
# 5 0.0000 0.0000 0.0000 0.0000 7.1491 0.0000
# 6 0.0000 0.0000 0.0000 0.0000 0.0000 12.5499
#
#
#
# Elastic Compliance Matrix: (Units=1/GPa)
#
#
# Indices 1 2 3 4 5 6 
#
# 1 0.011344 -0.000225 -0.015147 0.000000 0.000000 0.000000
# 2 -0.000225 0.048433 -0.057307 0.000000 0.000000 0.000000
# 3 -0.015147 -0.057307 0.130346 0.000000 0.000000 0.000000
# 4 0.000000 0.000000 0.000000 0.040861 0.000000 0.000000
# 5 0.000000 0.000000 0.000000 0.000000 0.139877 0.000000
# 6 0.000000 0.000000 0.000000 0.000000 0.000000 0.079682
#
#
# Mechanical properties :
#
#
# Convention : Reuss Voigt Hill
#
# Bulk Modulus (GPa) = 22.33825 45.81159 34.07492
# Shear Modulus (GPa) = 8.18568 16.21600 12.20084
#
# Velocity S-wave (km/s) = 2.21985 3.12441 2.71013
# Velocity P-wave (km/s) = 4.47412 6.37135 5.50508
#
# Compressibility (1/GPa) = 0.04476627
#
# Stress axis : x y z
#
# Youngs Moduli (GPa) = 88.15212 20.64691 7.67187
#
# Poissons Ratio (x) = 0.00464 0.11620
# Poissons Ratio (y) = 0.01981 0.43965
# Poissons Ratio (z) = 1.33522 1.18322
#
# Static dielectric constant tensor:
#      x y z
#    x 1.583240 0.000000 0.000000 
#    y 0.000000 1.540020 0.000000 
#    z 0.000000 0.000000 1.549480 
# 
# From -- ./inp_files/9795.got.cif
#   From: 2010.05.17/outbox.cif.g08.bks.cpg/sg47_5_cif.got.tgz:9795.got - 2010.06.03 20:15:42.
