data_PCOD9386210
_publ_section_title
;
Structure prediction by ZEFSAII (Michael W. Deem and Ramdas Pophale) SiO2 
 PCOD9386210
Probable space group: P M M M
;
_chemical_formula_sum "Si O2"
_cell_formula_units_Z 64
_cell_length_a 25.891112
_cell_length_b 14.862611
_cell_length_c 8.641865
_cell_angle_alpha 90.000000
_cell_angle_beta 90.000000
_cell_angle_gamma 90.000000
_cell_volume 3325.471975
_symmetry_space_group_name_H-M "P M M M"
_symmetry_group_IT_number 47
_symmetry_cell_setting 'orthorhombic'
loop_
_space_group_symop_operation_xyz
x,y,z
-x,-y,z
x,-y,-z
-x,y,-z
-x,-y,-z
x,y,-z
-x,y,z
x,-y,z
loop_
_atom_site_type_symbol
_atom_site_label
_atom_site_fract_x
_atom_site_fract_y
_atom_site_fract_z
Si Si1 0.846803 0.898527 0.184725
Si Si2 0.940137 0.206691 0.312511
Si Si3 0.557871 0.788229 0.315655
Si Si4 0.062706 0.596404 0.317489
Si Si5 0.247216 0.213054 0.315350
Si Si6 0.344973 0.894607 0.184876
Si Si7 0.292978 0.600257 0.314296
Si Si8 0.408473 0.398708 0.815339
O O1 0.901827 0.867544 0.249410
O O2 0.803051 0.830952 0.242437
O O3 0.834236 0.000000 0.236642
O O4 0.848129 0.897417 0.000000
O O5 0.938526 0.207777 0.500000
O O6 0.921686 0.306028 0.255704
O O7 0.000000 0.193560 0.267779
O O8 0.564785 0.795040 0.500000
O O9 0.500000 0.819001 0.275414
O O10 0.602248 0.845774 0.233982
O O11 0.563792 0.684088 0.266551
O O12 0.076403 0.595375 0.500000
O O13 0.080005 0.500000 0.250058
O O14 0.000000 0.597261 0.311248
O O15 0.242410 0.209753 0.500000
O O16 0.297423 0.156764 0.263937
O O17 0.256984 0.316765 0.269358
O O18 0.345611 0.000000 0.227901
O O19 0.338715 0.888301 0.000000
O O20 0.302382 0.606946 0.500000
O O21 0.272196 0.500000 0.283187
O O22 0.348031 0.608624 0.229949
O O23 0.425419 0.500000 0.770096
O O24 0.414333 0.390329 0.000000
#
# Coordination Sequence:
#
# PCOD9386210 Si02
#       8
#     8   8   8   8   8   8   8   8
#     4  11  25  42  58  79 111 152 195 240 291 343
#     4   9  18  34  58  87 116 148 189 236 285 338
#     4  11  24  40  58  83 116 155 199 246 293 342
#     4   7  10  20  43  76 110 141 175 217 265 319
#     4  11  22  38  64  92 116 147 188 235 285 338
#     4  11  24  41  62  87 115 149 189 237 297 359
#     4   9  18  34  58  88 120 151 184 225 278 343
#     4  10  20  34  56  86 118 154 194 236 286 345
#
# _framework density 19.245387999999998
#
# number of rings (size 3 to 8) (size 9 to 14) (size 15 to 20)
#    0.000    2.125    1.250    3.375    0.000    6.750 
#    0.000    4.375    0.000    4.125    0.000    1.750 
#    0.000    0.000    0.000    0.000    0.000    0.000 
#
# Total GULP energy -357179.208413 kJ/mol
# GULP energy per Si atom -5580.925131 kJ/mol
# Density = 1.920158 g / cm^3
# Si number density = 19.245388 Si / 1000 Ang^3
#
#
#
# Elastic Constant Matrix: (Units=GPa)
#
#
# Indices 1 2 3 4 5 6 
#
# 1 76.8749 39.1276 15.7182 0.0000 0.0000 0.0000
# 2 39.1276 98.3498 18.7648 0.0000 0.0000 0.0000
# 3 15.7182 18.7648 19.1315 0.0000 0.0000 0.0000
# 4 0.0000 0.0000 0.0000 21.8507 0.0000 0.0000
# 5 0.0000 0.0000 0.0000 0.0000 42.7833 0.0000
# 6 0.0000 0.0000 0.0000 0.0000 0.0000 -4.6680
#
#
#
# Elastic Compliance Matrix: (Units=1/GPa)
#
#
# Indices 1 2 3 4 5 6 
#
# 1 0.017566 -0.005210 -0.009322 0.000000 0.000000 0.000000
# 2 -0.005210 0.014054 -0.009504 0.000000 0.000000 0.000000
# 3 -0.009322 -0.009504 0.069251 0.000000 0.000000 0.000000
# 4 0.000000 0.000000 0.000000 0.045765 0.000000 0.000000
# 5 0.000000 0.000000 0.000000 0.000000 0.023374 0.000000
# 6 0.000000 0.000000 0.000000 0.000000 0.000000 -0.214225
#
#
# Mechanical properties :
#
#
# Convention : Reuss Voigt Hill
#
# Bulk Modulus (GPa) = 18.93992 37.95304 28.44648
# Shear Modulus (GPa) = 233.03661 20.04290 126.53976
#
# Velocity S-wave (km/s) = 11.01589 3.23063 8.11748
# Velocity P-wave (km/s) = 13.10200 5.80340 10.13267
#
# Compressibility (1/GPa) = 0.05279852
#
# Stress axis : x y z
#
# Youngs Moduli (GPa) = 56.92873 71.15496 14.44030
#
# Poissons Ratio (x) = 0.37070 0.13461
# Poissons Ratio (y) = 0.29659 0.13724
# Poissons Ratio (z) = 0.53068 0.67627
#
# Static dielectric constant tensor:
#      x y z
#    x 1.646420 0.000000 0.000000 
#    y 0.000000 1.704600 0.000000 
#    z 0.000000 0.000000 1.650660 
# 
# From -- ./inp_files/7855.got.cif
#   From: 2010.05.17/outbox.cif.g08.bks.cpg/sg47_4_cif.got.tgz:7855.got - 2010.06.03 20:15:42.
