data_PCOD9386665
_publ_section_title
;
Structure prediction by ZEFSAII (Michael W. Deem and Ramdas Pophale) SiO2 
 PCOD9386665
Probable space group: P M M M
;
_chemical_formula_sum "Si O2"
_cell_formula_units_Z 37
_cell_length_a 7.707592
_cell_length_b 14.538402
_cell_length_c 17.165720
_cell_angle_alpha 90.000000
_cell_angle_beta 90.000000
_cell_angle_gamma 90.000000
_cell_volume 1923.523138
_symmetry_space_group_name_H-M "P M M M"
_symmetry_group_IT_number 47
_symmetry_cell_setting 'orthorhombic'
loop_
_space_group_symop_operation_xyz
x,y,z
-x,-y,z
x,-y,-z
-x,y,-z
-x,-y,-z
x,y,-z
-x,y,z
x,-y,z
loop_
_atom_site_type_symbol
_atom_site_label
_atom_site_fract_x
_atom_site_fract_y
_atom_site_fract_z
Si Si1 0.808710 0.846830 0.500000
Si Si2 0.704715 0.762869 0.341148
Si Si3 0.791114 0.735286 0.911917
Si Si4 0.789588 0.104890 0.202471
Si Si5 0.500000 0.000000 0.500000
Si Si6 0.291531 0.396222 0.773018
O O1 0.791183 0.785264 0.422647
O O2 0.653042 0.919854 0.500000
O O3 0.000000 0.889931 0.500000
O O4 0.500000 0.750315 0.354520
O O5 0.729428 0.849278 0.282954
O O6 0.773059 0.674716 0.292992
O O7 0.730541 0.827069 0.866574
O O8 0.746647 0.649987 0.856328
O O9 0.000000 0.740496 0.915362
O O10 0.725184 0.728136 0.000000
O O11 0.000000 0.105128 0.202768
O O12 0.731040 0.000000 0.194096
O O13 0.500000 0.398940 0.765370
O O14 0.224808 0.500000 0.766827
#
# Coordination Sequence:
#
# PCOD9386665 Si02
#       6
#     4   8   8   8   1   8
#     4  12  25  41  62  89 124 158 194 240 284 336
#     4  10  20  37  56  79 113 147 185 235 290 344
#     4   9  18  32  49  73 106 140 177 228 288 345
#     4   9  18  31  49  73 101 140 187 229 276 339
#     4  12  26  44  60  94 122 160 200 236 284 330
#     4   9  19  36  58  80 104 142 188 234 286 343
#
# _framework density 19.235536
#
# number of rings (size 3 to 8) (size 9 to 14) (size 15 to 20)
#    0.000    2.378    1.081    0.811    1.514    3.027 
#    0.000    4.865    0.000    3.243    0.000    6.054 
#    0.000    0.000    0.000    0.000    0.000    0.000 
#
# Total GULP energy -206221.677940 kJ/mol
# GULP energy per Si atom -5573.558863 kJ/mol
# Density = 1.919176 g / cm^3
# Si number density = 19.235536 Si / 1000 Ang^3
#
#
#
# Elastic Constant Matrix: (Units=GPa)
#
#
# Indices 1 2 3 4 5 6 
#
# 1 71.3566 19.6334 23.3380 0.0000 0.0000 0.0000
# 2 19.6334 161.3966 78.4563 0.0000 0.0000 0.0000
# 3 23.3380 78.4563 165.2452 0.0000 0.0000 0.0000
# 4 0.0000 0.0000 0.0000 -9.0516 0.0000 0.0000
# 5 0.0000 0.0000 0.0000 0.0000 30.1439 0.0000
# 6 0.0000 0.0000 0.0000 0.0000 0.0000 14.7170
#
#
#
# Elastic Compliance Matrix: (Units=1/GPa)
#
#
# Indices 1 2 3 4 5 6 
#
# 1 0.014821 -0.001021 -0.001608 0.000000 0.000000 0.000000
# 2 -0.001021 0.008125 -0.003714 0.000000 0.000000 0.000000
# 3 -0.001608 -0.003714 0.008042 0.000000 0.000000 0.000000
# 4 0.000000 0.000000 0.000000 -0.110478 0.000000 0.000000
# 5 0.000000 0.000000 0.000000 0.000000 0.033174 0.000000
# 6 0.000000 0.000000 0.000000 0.000000 0.000000 0.067948
#
#
# Mechanical properties :
#
#
# Convention : Reuss Voigt Hill
#
# Bulk Modulus (GPa) = 54.63822 71.20597 62.92209
# Shear Modulus (GPa) = 123.70192 25.59993 74.65093
#
# Velocity S-wave (km/s) = 8.02799 3.65206 6.23643
# Velocity P-wave (km/s) = 10.69570 7.40822 9.19999
#
# Compressibility (1/GPa) = 0.01830221
#
# Stress axis : x y z
#
# Youngs Moduli (GPa) = 67.47125 123.07178 124.34808
#
# Poissons Ratio (x) = 0.12567 0.20000
# Poissons Ratio (y) = 0.06889 0.46178
# Poissons Ratio (z) = 0.10852 0.45704
#
# Static dielectric constant tensor:
#      x y z
#    x 1.716780 0.000000 0.000000 
#    y 0.000000 1.659820 0.000000 
#    z 0.000000 0.000000 1.649780 
# 
# From -- ./inp_files/20619.got.cif
#   From: 2010.05.17/outbox.cif.g08.bks.cpg/sg47_11_cif.got.tgz:20619.got - 2010.06.03 20:15:42.
