data_PCOD9386214
_publ_section_title
;
Structure prediction by ZEFSAII (Michael W. Deem and Ramdas Pophale) SiO2 
 PCOD9386214
Probable space group: P M M M
;
_chemical_formula_sum "Si O2"
_cell_formula_units_Z 56
_cell_length_a 14.322481
_cell_length_b 9.731606
_cell_length_c 20.761287
_cell_angle_alpha 90.000000
_cell_angle_beta 90.000000
_cell_angle_gamma 90.000000
_cell_volume 2893.723588
_symmetry_space_group_name_H-M "P M M M"
_symmetry_group_IT_number 47
_symmetry_cell_setting 'orthorhombic'
loop_
_space_group_symop_operation_xyz
x,y,z
-x,-y,z
x,-y,-z
-x,y,-z
-x,-y,-z
x,y,-z
-x,y,z
x,-y,z
loop_
_atom_site_type_symbol
_atom_site_label
_atom_site_fract_x
_atom_site_fract_y
_atom_site_fract_z
Si Si1 0.388543 0.340657 0.674845
Si Si2 0.895209 0.344831 0.903857
Si Si3 0.689331 0.155548 0.212858
Si Si4 0.895300 0.755810 0.762549
Si Si5 0.891619 0.656287 0.617471
Si Si6 0.719367 0.836544 0.069406
Si Si7 0.725337 0.159900 0.424794
O O1 0.500000 0.337994 0.670738
O O2 0.357481 0.500000 0.672707
O O3 0.355431 0.265905 0.739880
O O4 0.343887 0.251405 0.617717
O O5 0.875388 0.500000 0.924210
O O6 0.894407 0.338543 0.825944
O O7 0.817532 0.241685 0.928145
O O8 0.000000 0.307207 0.923867
O O9 0.801333 0.156182 0.227233
O O10 0.672238 0.195167 0.138100
O O11 0.654808 0.000000 0.224017
O O12 0.885421 0.677786 0.694817
O O13 0.000000 0.821788 0.761561
O O14 0.863445 0.500000 0.601225
O O15 0.825831 0.769366 0.585765
O O16 0.000000 0.673559 0.599506
O O17 0.735152 0.000000 0.071488
O O18 0.673383 0.804551 0.000000
O O19 0.700911 0.164637 0.500000
O O20 0.726105 0.000000 0.403991
#
# Coordination Sequence:
#
# PCOD9386214 Si02
#       7
#     8   8   8   8   8   8   8
#     4  11  25  44  67  93 118 147 186 236 296 358
#     4   9  17  28  43  67 102 144 192 242 286 331
#     4  10  20  35  59  88 117 153 195 240 290 343
#     4   9  17  29  50  82 117 151 191 238 288 339
#     4  10  20  34  56  86 121 163 206 244 284 333
#     4   9  19  34  50  73 109 150 189 230 280 339
#     4  11  25  43  63  90 124 160 196 237 288 343
#
# _framework density 19.352228
#
# number of rings (size 3 to 8) (size 9 to 14) (size 15 to 20)
#    0.000    2.143    1.429    1.286    0.000    8.286 
#    0.000    8.571    0.000    0.429    0.000    3.000 
#    0.000    0.000    0.000    0.000    0.000    0.000 
#
# Total GULP energy -312307.037927 kJ/mol
# GULP energy per Si atom -5576.911392 kJ/mol
# Density = 1.930818 g / cm^3
# Si number density = 19.352228 Si / 1000 Ang^3
#
#
#
# Elastic Constant Matrix: (Units=GPa)
#
#
# Indices 1 2 3 4 5 6 
#
# 1 53.8078 44.8041 29.8522 0.0000 0.0000 0.0000
# 2 44.8041 122.6499 67.2419 0.0000 0.0000 0.0000
# 3 29.8522 67.2419 116.1933 0.0000 0.0000 0.0000
# 4 0.0000 0.0000 0.0000 -4.8266 0.0000 0.0000
# 5 0.0000 0.0000 0.0000 0.0000 -0.4588 0.0000
# 6 0.0000 0.0000 0.0000 0.0000 0.0000 104.8010
#
#
#
# Elastic Compliance Matrix: (Units=1/GPa)
#
#
# Indices 1 2 3 4 5 6 
#
# 1 0.026963 -0.008864 -0.001798 0.000000 0.000000 0.000000
# 2 -0.008864 0.014856 -0.006320 0.000000 0.000000 0.000000
# 3 -0.001798 -0.006320 0.012726 0.000000 0.000000 0.000000
# 4 0.000000 0.000000 0.000000 -0.207187 0.000000 0.000000
# 5 0.000000 0.000000 0.000000 0.000000 -2.179749 0.000000
# 6 0.000000 0.000000 0.000000 0.000000 0.000000 0.009542
#
#
# Mechanical properties :
#
#
# Convention : Reuss Voigt Hill
#
# Bulk Modulus (GPa) = 48.58772 64.04970 56.31871
# Shear Modulus (GPa) = -2.19104 29.95331 13.88114
#
# Velocity S-wave (km/s) = -1.06520 3.93847 2.68113
# Velocity P-wave (km/s) = 4.86299 7.33831 6.22493
#
# Compressibility (1/GPa) = 0.02058133
#
# Stress axis : x y z
#
# Youngs Moduli (GPa) = 37.08822 67.31170 78.58139
#
# Poissons Ratio (x) = 0.59665 0.14125
# Poissons Ratio (y) = 0.32875 0.49664
# Poissons Ratio (z) = 0.06667 0.42542
#
# Static dielectric constant tensor:
#      x y z
#    x 1.670440 0.000000 0.000000 
#    y 0.000000 1.653660 0.000000 
#    z 0.000000 0.000000 1.717170 
# 
# From -- ./inp_files/25127.got.cif
#   From: 2010.05.17/outbox.cif.g08.bks.cpg/sg47_13_cif.got.tgz:25127.got - 2010.06.03 20:15:42.
