data_PCOD9386757
_publ_section_title
;
Structure prediction by ZEFSAII (Michael W. Deem and Ramdas Pophale) SiO2 
 PCOD9386757
Probable space group: P M M M
;
_chemical_formula_sum "Si O2"
_cell_formula_units_Z 29
_cell_length_a 10.749835
_cell_length_b 17.790265
_cell_length_c 8.019047
_cell_angle_alpha 90.000000
_cell_angle_beta 90.000000
_cell_angle_gamma 90.000000
_cell_volume 1533.581901
_symmetry_space_group_name_H-M "P M M M"
_symmetry_group_IT_number 47
_symmetry_cell_setting 'orthorhombic'
loop_
_space_group_symop_operation_xyz
x,y,z
-x,-y,z
x,-y,-z
-x,y,-z
-x,-y,-z
x,y,-z
-x,y,z
x,-y,z
loop_
_atom_site_type_symbol
_atom_site_label
_atom_site_fract_x
_atom_site_fract_y
_atom_site_fract_z
Si Si1 0.857665 0.800402 0.198638
Si Si2 0.855998 0.367246 0.303683
Si Si3 0.309542 0.500000 0.814086
Si Si4 0.500000 0.500000 0.500000
Si Si5 0.639957 0.086879 0.298587
O O1 0.822518 0.719924 0.276279
O O2 0.753237 0.861559 0.240559
O O3 0.000000 0.819626 0.254071
O O4 0.861262 0.791287 0.000000
O O5 0.846022 0.384574 0.500000
O O6 0.773645 0.425324 0.203378
O O7 0.000000 0.374816 0.253754
O O8 0.394934 0.500000 0.650332
O O9 0.365276 0.500000 0.000000
O O10 0.639883 0.087959 0.500000
O O11 0.500000 0.110944 0.244383
O O12 0.656846 0.000000 0.245733
#
# Coordination Sequence:
#
# PCOD9386757 Si02
#       5
#     8   8   4   1   8
#     4  10  21  36  55  85 120 151 191 243 297 354
#     4  10  20  38  64  91 118 151 196 249 304 360
#     4  12  24  42  66  89 121 164 204 250 303 355
#     4  12  26  48  58  86 128 164 208 254 292 354
#     4   9  19  37  58  80 108 147 195 242 293 358
#
# _framework density 18.909977999999999
#
# number of rings (size 3 to 8) (size 9 to 14) (size 15 to 20)
#    0.000    1.931    1.379    3.103    0.000    6.621 
#    2.483    4.138    0.000    0.000    0.000    0.000 
#    0.000    0.000    0.000    0.000    0.000    0.000 
#
# Total GULP energy -161540.069913 kJ/mol
# GULP energy per Si atom -5570.347238 kJ/mol
# Density = 1.886694 g / cm^3
# Si number density = 18.909978 Si / 1000 Ang^3
#
#
#
# Elastic Constant Matrix: (Units=GPa)
#
#
# Indices 1 2 3 4 5 6 
#
# 1 120.8969 86.9751 34.3752 0.0000 0.0000 0.0000
# 2 86.9751 93.1973 23.9792 0.0000 0.0000 0.0000
# 3 34.3752 23.9792 85.3088 0.0000 0.0000 0.0000
# 4 0.0000 0.0000 0.0000 61.6442 0.0000 0.0000
# 5 0.0000 0.0000 0.0000 0.0000 7.5158 0.0000
# 6 0.0000 0.0000 0.0000 0.0000 0.0000 -56.9720
#
#
#
# Elastic Compliance Matrix: (Units=1/GPa)
#
#
# Indices 1 2 3 4 5 6 
#
# 1 0.026378 -0.023588 -0.003999 0.000000 0.000000 0.000000
# 2 -0.023588 0.032660 0.000325 0.000000 0.000000 0.000000
# 3 -0.003999 0.000325 0.013242 0.000000 0.000000 0.000000
# 4 0.000000 0.000000 0.000000 0.016222 0.000000 0.000000
# 5 0.000000 0.000000 0.000000 0.000000 0.133053 0.000000
# 6 0.000000 0.000000 0.000000 0.000000 0.000000 -0.017552
#
#
# Mechanical properties :
#
#
# Convention : Reuss Voigt Hill
#
# Bulk Modulus (GPa) = 56.32072 65.56246 60.94159
# Shear Modulus (GPa) = 18.90741 12.70917 15.80829
#
# Velocity S-wave (km/s) = 3.16549 2.59528 2.89446
# Velocity P-wave (km/s) = 6.57333 6.61262 6.59301
#
# Compressibility (1/GPa) = 0.01775545
#
# Stress axis : x y z
#
# Youngs Moduli (GPa) = 37.91001 30.61868 75.51637
#
# Poissons Ratio (x) = 0.72224 0.30197
# Poissons Ratio (y) = 0.89423 -0.02452
# Poissons Ratio (z) = 0.15159 -0.00994
#
# Static dielectric constant tensor:
#      x y z
#    x 1.654540 0.000000 0.000000 
#    y 0.000000 1.639150 0.000000 
#    z 0.000000 0.000000 1.664770 
# 
# From -- ./inp_files/3273.got.cif
#   From: 2010.05.17/outbox.cif.g08.bks.cpg/sg47_2_cif.got.tgz:3273.got - 2010.06.03 20:15:42.
