data_PCOD9386407
_publ_section_title
;
Structure prediction by ZEFSAII (Michael W. Deem and Ramdas Pophale) SiO2 
 PCOD9386407
Probable space group: P M M M
;
_chemical_formula_sum "Si O2"
_cell_formula_units_Z 44
_cell_length_a 9.346629
_cell_length_b 8.837052
_cell_length_c 29.208695
_cell_angle_alpha 90.000000
_cell_angle_beta 90.000000
_cell_angle_gamma 90.000000
_cell_volume 2412.540256
_symmetry_space_group_name_H-M "P M M M"
_symmetry_group_IT_number 47
_symmetry_cell_setting 'orthorhombic'
loop_
_space_group_symop_operation_xyz
x,y,z
-x,-y,z
x,-y,-z
-x,y,-z
-x,-y,-z
x,y,-z
-x,y,z
x,-y,z
loop_
_atom_site_type_symbol
_atom_site_label
_atom_site_fract_x
_atom_site_fract_y
_atom_site_fract_z
Si Si1 0.833457 0.183038 0.777100
Si Si2 0.664588 0.184580 0.314078
Si Si3 0.832411 0.818117 0.947372
Si Si4 0.167214 0.817660 0.404507
Si Si5 0.333919 0.681085 0.136991
Si Si6 0.826157 0.675282 0.500000
O O1 0.753207 0.231303 0.730657
O O2 0.754571 0.249544 0.821064
O O3 0.000000 0.226812 0.776076
O O4 0.827278 0.000000 0.779461
O O5 0.500000 0.233903 0.311662
O O6 0.741280 0.233311 0.360911
O O7 0.665325 0.000000 0.314408
O O8 0.734322 0.738683 0.910244
O O9 0.000000 0.781593 0.939284
O O10 0.818538 0.000000 0.943195
O O11 0.798230 0.777481 0.000000
O O12 0.220521 0.753270 0.452881
O O13 0.000000 0.774758 0.398274
O O14 0.172232 0.000000 0.406691
O O15 0.500000 0.727198 0.140252
O O16 0.326172 0.500000 0.138898
O O17 0.786593 0.500000 0.500000
O O18 0.000000 0.686437 0.500000
#
# Coordination Sequence:
#
# PCOD9386407 Si02
#       6
#     8   8   8   8   8   4
#     4  10  20  35  57  82 105 133 173 218 261 308
#     4   9  17  30  50  76 103 130 163 206 255 304
#     4   9  19  37  60  84 108 136 175 221 264 308
#     4   9  16  28  48  72  96 124 162 206 248 292
#     4  11  24  38  52  76 111 146 178 214 258 309
#     4   9  17  29  46  69  96 126 162 203 246 294
#
# _framework density 18.238036999999998
#
# number of rings (size 3 to 8) (size 9 to 14) (size 15 to 20)
#    0.000    2.455    0.000    3.000    0.000    9.091 
#    0.000    4.091    0.000    6.545    0.000    0.000 
#    0.000    0.000    0.000    0.000    0.000    0.000 
#
# Total GULP energy -245564.911125 kJ/mol
# GULP energy per Si atom -5581.020707 kJ/mol
# Density = 1.819653 g / cm^3
# Si number density = 18.238037 Si / 1000 Ang^3
#
#
#
# Elastic Constant Matrix: (Units=GPa)
#
#
# Indices 1 2 3 4 5 6 
#
# 1 149.3907 37.7645 119.7541 0.0000 0.0000 0.0000
# 2 37.7645 13.7624 39.8377 0.0000 0.0000 0.0000
# 3 119.7541 39.8377 184.9529 0.0000 0.0000 0.0000
# 4 0.0000 0.0000 0.0000 -17.3894 0.0000 0.0000
# 5 0.0000 0.0000 0.0000 0.0000 -14.7592 0.0000
# 6 0.0000 0.0000 0.0000 0.0000 0.0000 18.5594
#
#
#
# Elastic Compliance Matrix: (Units=1/GPa)
#
#
# Indices 1 2 3 4 5 6 
#
# 1 0.022625 -0.052267 -0.003391 0.000000 0.000000 0.000000
# 2 -0.052267 0.313734 -0.033734 0.000000 0.000000 0.000000
# 3 -0.003391 -0.033734 0.014869 0.000000 0.000000 0.000000
# 4 0.000000 0.000000 0.000000 -0.057506 0.000000 0.000000
# 5 0.000000 0.000000 0.000000 0.000000 -0.067754 0.000000
# 6 0.000000 0.000000 0.000000 0.000000 0.000000 0.053881
#
#
# Mechanical properties :
#
#
# Convention : Reuss Voigt Hill
#
# Bulk Modulus (GPa) = 5.79902 82.53539 44.16720
# Shear Modulus (GPa) = 9.68776 7.33212 8.50994
#
# Velocity S-wave (km/s) = 2.30724 2.00723 2.16244
# Velocity P-wave (km/s) = 3.20692 7.12213 5.52309
#
# Compressibility (1/GPa) = 0.17244286
#
# Stress axis : x y z
#
# Youngs Moduli (GPa) = 44.19876 3.18741 67.25495
#
# Poissons Ratio (x) = 0.16660 0.22809
# Poissons Ratio (y) = 2.31014 2.26880
# Poissons Ratio (z) = 0.14990 0.10752
#
# Static dielectric constant tensor:
#      x y z
#    x 1.612450 0.000000 0.000000 
#    y 0.000000 1.608420 0.000000 
#    z 0.000000 0.000000 1.603170 
# 
# From -- ./inp_files/33878.got.cif
#   From: 2010.05.17/outbox.cif.g08.bks.cpg/sg47_17_cif.got.tgz:33878.got - 2010.06.03 20:15:42.
