data_PCOD9386060
_publ_section_title
;
Structure prediction by ZEFSAII (Michael W. Deem and Ramdas Pophale) SiO2 
 PCOD9386060
Probable space group: P M M M
;
_chemical_formula_sum "Si O2"
_cell_formula_units_Z 44
_cell_length_a 14.869325
_cell_length_b 8.187877
_cell_length_c 18.447277
_cell_angle_alpha 90.000000
_cell_angle_beta 90.000000
_cell_angle_gamma 90.000000
_cell_volume 2245.922847
_symmetry_space_group_name_H-M "P M M M"
_symmetry_group_IT_number 47
_symmetry_cell_setting 'orthorhombic'
loop_
_space_group_symop_operation_xyz
x,y,z
-x,-y,z
x,-y,-z
-x,y,-z
-x,-y,-z
x,y,-z
-x,y,z
x,-y,z
loop_
_atom_site_type_symbol
_atom_site_label
_atom_site_fract_x
_atom_site_fract_y
_atom_site_fract_z
Si Si1 0.599228 0.801320 0.639252
Si Si2 0.209944 0.198081 0.580760
Si Si3 0.212249 0.806768 0.861462
Si Si4 0.898703 0.306588 0.000000
Si Si5 0.400569 0.199244 0.809052
Si Si6 0.103518 0.694832 0.278319
O O1 0.500000 0.745962 0.614548
O O2 0.687163 0.747818 0.596135
O O3 0.609794 0.756590 0.724080
O O4 0.598319 0.000000 0.636280
O O5 0.182151 0.248295 0.500000
O O6 0.147408 0.262004 0.644764
O O7 0.208744 0.000000 0.583845
O O8 0.155926 0.740300 0.928401
O O9 0.314175 0.741334 0.853065
O O10 0.161135 0.771907 0.786355
O O11 0.218685 0.000000 0.871399
O O12 0.907103 0.500000 0.000000
O O13 0.000000 0.235017 0.000000
O O14 0.500000 0.252683 0.833293
O O15 0.399995 0.000000 0.810943
O O16 0.105125 0.500000 0.268558
O O17 0.000000 0.750530 0.275048
#
# Coordination Sequence:
#
# PCOD9386060 Si02
#       6
#     8   8   8   4   8   8
#     4   8  13  25  48  79 113 144 176 220 275 331
#     4  10  20  34  54  82 112 142 185 240 286 324
#     4  11  21  37  64  92 115 143 185 234 276 320
#     4  11  25  43  60  83 120 158 187 223 278 337
#     4   8  14  27  52  85 116 144 177 221 273 327
#     4  11  24  40  57  77 106 148 191 230 283 347
#
# _framework density 19.591056999999999
#
# number of rings (size 3 to 8) (size 9 to 14) (size 15 to 20)
#    0.000    2.273    1.818    3.000    0.000    5.455 
#    0.000    4.091    0.000    6.545    0.000    1.273 
#    0.000    0.000    0.000    0.000    0.000    0.000 
#
# Total GULP energy -245549.829843 kJ/mol
# GULP energy per Si atom -5580.677951 kJ/mol
# Density = 1.954647 g / cm^3
# Si number density = 19.591057 Si / 1000 Ang^3
#
#
#
# Elastic Constant Matrix: (Units=GPa)
#
#
# Indices 1 2 3 4 5 6 
#
# 1 137.2515 5.9702 53.8955 0.0000 0.0000 0.0000
# 2 5.9702 15.7431 3.9574 0.0000 0.0000 0.0000
# 3 53.8955 3.9574 98.0669 0.0000 0.0000 0.0000
# 4 0.0000 0.0000 0.0000 45.8252 0.0000 0.0000
# 5 0.0000 0.0000 0.0000 0.0000 3.4290 0.0000
# 6 0.0000 0.0000 0.0000 0.0000 0.0000 62.8035
#
#
#
# Elastic Compliance Matrix: (Units=1/GPa)
#
#
# Indices 1 2 3 4 5 6 
#
# 1 0.009371 -0.002282 -0.005058 0.000000 0.000000 0.000000
# 2 -0.002282 0.064727 -0.001358 0.000000 0.000000 0.000000
# 3 -0.005058 -0.001358 0.013032 0.000000 0.000000 0.000000
# 4 0.000000 0.000000 0.000000 0.021822 0.000000 0.000000
# 5 0.000000 0.000000 0.000000 0.000000 0.291630 0.000000
# 6 0.000000 0.000000 0.000000 0.000000 0.000000 0.015923
#
#
# Mechanical properties :
#
#
# Convention : Reuss Voigt Hill
#
# Bulk Modulus (GPa) = 14.34036 42.07864 28.20950
# Shear Modulus (GPa) = 10.93743 34.89410 22.91576
#
# Velocity S-wave (km/s) = 2.36537 4.22491 3.42381
# Velocity P-wave (km/s) = 3.84652 6.73238 5.48273
#
# Compressibility (1/GPa) = 0.06973327
#
# Stress axis : x y z
#
# Youngs Moduli (GPa) = 106.70732 15.44962 76.73526
#
# Poissons Ratio (x) = 0.03526 0.38815
# Poissons Ratio (y) = 0.24354 0.10418
# Poissons Ratio (z) = 0.53975 0.02098
#
# Static dielectric constant tensor:
#      x y z
#    x 1.717090 0.000000 0.000000 
#    y 0.000000 1.696370 0.000000 
#    z 0.000000 0.000000 1.653240 
# 
# From -- ./inp_files/27865.got.cif
#   From: 2010.05.17/outbox.cif.g08.bks.cpg/sg47_14_cif.got.tgz:27865.got - 2010.06.03 20:15:42.
