data_PCOD9386639
_publ_section_title
;
Structure prediction by ZEFSAII (Michael W. Deem and Ramdas Pophale) SiO2 
 PCOD9386639
Probable space group: P M M M
;
_chemical_formula_sum "Si O2"
_cell_formula_units_Z 48
_cell_length_a 8.716521
_cell_length_b 29.565091
_cell_length_c 10.119666
_cell_angle_alpha 90.000000
_cell_angle_beta 90.000000
_cell_angle_gamma 90.000000
_cell_volume 2607.885861
_symmetry_space_group_name_H-M "P M M M"
_symmetry_group_IT_number 47
_symmetry_cell_setting 'orthorhombic'
loop_
_space_group_symop_operation_xyz
x,y,z
-x,-y,z
x,-y,-z
-x,y,-z
-x,-y,-z
x,y,-z
-x,y,z
x,-y,z
loop_
_atom_site_type_symbol
_atom_site_label
_atom_site_fract_x
_atom_site_fract_y
_atom_site_fract_z
Si Si1 0.183850 0.873733 0.654160
Si Si2 0.684044 0.797714 0.152884
Si Si3 0.816942 0.698406 0.845504
Si Si4 0.815953 0.447361 0.500000
Si Si5 0.684312 0.392134 0.743809
Si Si6 0.686357 0.448499 0.000000
Si Si7 0.315994 0.053583 0.149940
O O1 0.234564 0.873634 0.500000
O O2 0.249443 0.832231 0.740200
O O3 0.237699 0.917859 0.735235
O O4 0.000000 0.871474 0.654806
O O5 0.500000 0.799021 0.157638
O O6 0.743157 0.747152 0.181469
O O7 0.730053 0.808729 0.000000
O O8 0.749322 0.658314 0.757549
O O9 0.000000 0.701095 0.830595
O O10 0.782291 0.687828 0.000000
O O11 0.767228 0.500000 0.500000
O O12 0.750512 0.420426 0.623833
O O13 0.000000 0.446225 0.500000
O O14 0.500000 0.390233 0.737581
O O15 0.732743 0.420336 0.872742
O O16 0.742873 0.500000 0.000000
O O17 0.500000 0.450335 0.000000
O O18 0.500000 0.060394 0.157335
O O19 0.286678 0.000000 0.163084
O O20 0.268478 0.067236 0.000000
#
# Coordination Sequence:
#
# PCOD9386639 Si02
#       7
#     8   8   8   4   8   4   8
#     4  11  24  39  55  82 121 159 196 240 293 349
#     4  10  21  38  62  88 113 146 193 243 290 344
#     4  10  20  36  60  89 121 152 186 232 291 351
#     4  11  25  43  59  81 117 157 195 237 288 345
#     4  11  21  37  61  87 117 151 193 239 285 342
#     4   9  18  32  55  87 117 145 183 235 286 331
#     4   9  19  37  61  88 117 152 198 248 294 344
#
# _framework density 18.405714
#
# number of rings (size 3 to 8) (size 9 to 14) (size 15 to 20)
#    0.000    1.833    0.833    3.750    0.000    7.333 
#    1.500    2.500    0.000    2.000    0.000    0.000 
#    0.000    0.000    0.000    0.000    0.000    0.000 
#
# Total GULP energy -268073.962780 kJ/mol
# GULP energy per Si atom -5584.874225 kJ/mol
# Density = 1.836382 g / cm^3
# Si number density = 18.405714 Si / 1000 Ang^3
#
#
#
# Elastic Constant Matrix: (Units=GPa)
#
#
# Indices 1 2 3 4 5 6 
#
# 1 55.1870 49.8624 53.7673 0.0000 0.0000 0.0000
# 2 49.8624 132.3509 97.1408 0.0000 0.0000 0.0000
# 3 53.7673 97.1408 173.7714 0.0000 0.0000 0.0000
# 4 0.0000 0.0000 0.0000 32.6270 0.0000 0.0000
# 5 0.0000 0.0000 0.0000 0.0000 34.6983 0.0000
# 6 0.0000 0.0000 0.0000 0.0000 0.0000 289.9999
#
#
#
# Elastic Compliance Matrix: (Units=1/GPa)
#
#
# Indices 1 2 3 4 5 6 
#
# 1 0.029829 -0.007569 -0.004998 0.000000 0.000000 0.000000
# 2 -0.007569 0.014734 -0.005894 0.000000 0.000000 0.000000
# 3 -0.004998 -0.005894 0.010596 0.000000 0.000000 0.000000
# 4 0.000000 0.000000 0.000000 0.030649 0.000000 0.000000
# 5 0.000000 0.000000 0.000000 0.000000 0.028820 0.000000
# 6 0.000000 0.000000 0.000000 0.000000 0.000000 0.003448
#
#
# Mechanical properties :
#
#
# Convention : Reuss Voigt Hill
#
# Bulk Modulus (GPa) = 54.83926 84.76113 69.80020
# Shear Modulus (GPa) = 31.04097 82.16764 56.60430
#
# Velocity S-wave (km/s) = 4.11114 6.68875 5.55161
# Velocity P-wave (km/s) = 7.23842 10.28611 8.89378
#
# Compressibility (1/GPa) = 0.01823511
#
# Stress axis : x y z
#
# Youngs Moduli (GPa) = 33.52470 67.87245 94.37467
#
# Poissons Ratio (x) = 0.51376 0.47168
# Poissons Ratio (y) = 0.25376 0.55626
# Poissons Ratio (z) = 0.16756 0.40005
#
# Static dielectric constant tensor:
#      x y z
#    x 1.614680 0.000000 0.000000 
#    y 0.000000 1.618240 0.000000 
#    z 0.000000 0.000000 1.599330 
# 
# From -- ./inp_files/2565.got.cif
#   From: 2010.05.17/outbox.cif.g08.bks.cpg/sg47_2_cif.got.tgz:2565.got - 2010.06.03 20:15:42.
