data_PCOD9386559
_publ_section_title
;
Structure prediction by ZEFSAII (Michael W. Deem and Ramdas Pophale) SiO2 
 PCOD9386559
Probable space group: P M M M
;
_chemical_formula_sum "Si O2"
_cell_formula_units_Z 44
_cell_length_a 14.491588
_cell_length_b 8.842631
_cell_length_c 18.313319
_cell_angle_alpha 90.000000
_cell_angle_beta 90.000000
_cell_angle_gamma 90.000000
_cell_volume 2346.737652
_symmetry_space_group_name_H-M "P M M M"
_symmetry_group_IT_number 47
_symmetry_cell_setting 'orthorhombic'
loop_
_space_group_symop_operation_xyz
x,y,z
-x,-y,z
x,-y,-z
-x,y,-z
-x,-y,-z
x,y,-z
-x,y,z
x,-y,z
loop_
_atom_site_type_symbol
_atom_site_label
_atom_site_fract_x
_atom_site_fract_y
_atom_site_fract_z
Si Si1 0.396702 0.680500 0.652394
Si Si2 0.204149 0.681997 0.582519
Si Si3 0.211095 0.679835 0.861232
Si Si4 0.108361 0.181222 0.000000
Si Si5 0.394758 0.180132 0.813014
Si Si6 0.890691 0.820883 0.277538
O O1 0.500000 0.713510 0.623941
O O2 0.392527 0.500000 0.667434
O O3 0.311747 0.716044 0.599705
O O4 0.384708 0.766586 0.728909
O O5 0.180607 0.726987 0.500000
O O6 0.192890 0.500000 0.588534
O O7 0.144225 0.761618 0.644485
O O8 0.208008 0.500000 0.865415
O O9 0.316262 0.737410 0.858818
O O10 0.163816 0.735357 0.786222
O O11 0.156709 0.752339 0.928463
O O12 0.000000 0.219891 0.000000
O O13 0.116676 0.000000 0.000000
O O14 0.500000 0.216515 0.835020
O O15 0.382110 0.000000 0.817018
O O16 0.000000 0.795481 0.269687
O O17 0.872758 0.000000 0.271012
#
# Coordination Sequence:
#
# PCOD9386559 Si02
#       6
#     8   8   8   4   8   8
#     4   9  17  31  53  82 116 154 196 242 294 354
#     4  10  21  36  55  83 118 156 199 249 305 361
#     4  12  24  40  65  95 126 159 197 244 298 356
#     4  11  25  45  68  95 128 163 199 244 298 353
#     4  10  20  35  59  90 123 160 201 244 291 348
#     4  11  24  41  61  84 112 153 204 252 303 363
#
# _framework density 18.749431000000001
#
# number of rings (size 3 to 8) (size 9 to 14) (size 15 to 20)
#    0.000    1.545    1.818    3.545    0.000    6.545 
#    0.000    4.091    0.000    2.727    0.000    3.818 
#    0.000    0.000    0.000    0.000    0.000    0.000 
#
# Total GULP energy -245894.022546 kJ/mol
# GULP energy per Si atom -5588.500512 kJ/mol
# Density = 1.870676 g / cm^3
# Si number density = 18.749431 Si / 1000 Ang^3
#
#
#
# Elastic Constant Matrix: (Units=GPa)
#
#
# Indices 1 2 3 4 5 6 
#
# 1 110.2344 64.8016 64.2190 0.0000 0.0000 0.0000
# 2 64.8016 74.5430 49.3242 0.0000 0.0000 0.0000
# 3 64.2190 49.3242 108.0095 0.0000 0.0000 0.0000
# 4 0.0000 0.0000 0.0000 40.4499 0.0000 0.0000
# 5 0.0000 0.0000 0.0000 0.0000 6.8335 0.0000
# 6 0.0000 0.0000 0.0000 0.0000 0.0000 27.5241
#
#
#
# Elastic Compliance Matrix: (Units=1/GPa)
#
#
# Indices 1 2 3 4 5 6 
#
# 1 0.020895 -0.014250 -0.005916 0.000000 0.000000 0.000000
# 2 -0.014250 0.028942 -0.004744 0.000000 0.000000 0.000000
# 3 -0.005916 -0.004744 0.014943 0.000000 0.000000 0.000000
# 4 0.000000 0.000000 0.000000 0.024722 0.000000 0.000000
# 5 0.000000 0.000000 0.000000 0.000000 0.146337 0.000000
# 6 0.000000 0.000000 0.000000 0.000000 0.000000 0.036332
#
#
# Mechanical properties :
#
#
# Convention : Reuss Voigt Hill
#
# Bulk Modulus (GPa) = 66.84918 72.16407 69.50663
# Shear Modulus (GPa) = 15.29164 22.59098 18.94131
#
# Velocity S-wave (km/s) = 2.85893 3.47492 3.18187
# Velocity P-wave (km/s) = 6.82857 7.39407 7.11694
#
# Compressibility (1/GPa) = 0.01495905
#
# Stress axis : x y z
#
# Youngs Moduli (GPa) = 47.85889 34.55213 66.92312
#
# Poissons Ratio (x) = 0.49235 0.39592
# Poissons Ratio (y) = 0.68197 0.31751
# Poissons Ratio (z) = 0.28314 0.16393
#
# Static dielectric constant tensor:
#      x y z
#    x 1.658910 0.000000 0.000000 
#    y 0.000000 1.626480 0.000000 
#    z 0.000000 0.000000 1.611720 
# 
# From -- ./inp_files/27866.got.cif
#   From: 2010.05.17/outbox.cif.g08.bks.cpg/sg47_14_cif.got.tgz:27866.got - 2010.06.03 20:15:42.
