data_PCOD9386282
_publ_section_title
;
Structure prediction by ZEFSAII (Michael W. Deem and Ramdas Pophale) SiO2 
 PCOD9386282
Probable space group: P M M M
;
_chemical_formula_sum "Si O2"
_cell_formula_units_Z 49
_cell_length_a 8.576363
_cell_length_b 32.161123
_cell_length_c 9.231962
_cell_angle_alpha 90.000000
_cell_angle_beta 90.000000
_cell_angle_gamma 90.000000
_cell_volume 2546.410215
_symmetry_space_group_name_H-M "P M M M"
_symmetry_group_IT_number 47
_symmetry_cell_setting 'orthorhombic'
loop_
_space_group_symop_operation_xyz
x,y,z
-x,-y,z
x,-y,-z
-x,y,-z
-x,-y,-z
x,y,-z
-x,y,z
x,-y,z
loop_
_atom_site_type_symbol
_atom_site_label
_atom_site_fract_x
_atom_site_fract_y
_atom_site_fract_z
Si Si1 0.186848 0.500000 0.332914
Si Si2 0.686653 0.419629 0.167177
Si Si3 0.181323 0.909977 0.331109
Si Si4 0.500000 0.000000 0.500000
Si Si5 0.189704 0.000000 0.705797
Si Si6 0.686850 0.166947 0.164404
Si Si7 0.814014 0.660335 0.332465
Si Si8 0.686804 0.740253 0.827435
O O1 0.240081 0.500000 0.500000
O O2 0.246132 0.540997 0.252102
O O3 0.000000 0.500000 0.331836
O O4 0.500000 0.422201 0.168767
O O5 0.738313 0.377178 0.243477
O O6 0.739449 0.420127 0.000000
O O7 0.226483 0.918946 0.500000
O O8 0.197058 0.952514 0.238392
O O9 0.270158 0.871034 0.266562
O O10 0.000000 0.898914 0.332715
O O11 0.643325 0.000000 0.621294
O O12 0.000000 0.000000 0.652682
O O13 0.500000 0.169532 0.157144
O O14 0.739788 0.212949 0.212734
O O15 0.744964 0.159609 0.000000
O O16 0.763287 0.658878 0.500000
O O17 0.767929 0.704070 0.261380
O O18 0.000000 0.655332 0.327926
O O19 0.500000 0.737197 0.805208
O O20 0.714344 0.735364 0.000000
#
# Coordination Sequence:
#
# PCOD9386282 Si02
#       8
#     4   8   8   1   4   8   8   8
#     4  11  24  41  62  90 124 157 194 239 286 334
#     4  11  24  41  62  89 118 153 197 240 282 337
#     4  10  20  35  54  77 110 144 180 233 282 331
#     4  12  18  28  60  78 102 160 186 224 302 350
#     4  10  21  35  50  81 116 142 190 243 281 345
#     4   9  20  37  56  80 111 143 183 232 279 338
#     4  11  24  39  57  85 119 150 187 235 285 339
#     4   9  19  38  60  81 108 145 186 232 282 335
#
# _framework density 19.242775000000002
#
# number of rings (size 3 to 8) (size 9 to 14) (size 15 to 20)
#    0.000    1.878    0.816    3.551    1.143   10.449 
#    0.000    5.306    0.000    2.449    0.000    0.000 
#    0.000    0.000    0.000    0.000    0.000    0.000 
#
# Total GULP energy -272794.946987 kJ/mol
# GULP energy per Si atom -5567.243816 kJ/mol
# Density = 1.919898 g / cm^3
# Si number density = 19.242775 Si / 1000 Ang^3
#
#
#
# Elastic Constant Matrix: (Units=GPa)
#
#
# Indices 1 2 3 4 5 6 
#
# 1 54.5352 30.6083 28.1361 0.0000 0.0000 0.0000
# 2 30.6083 167.7104 70.4844 0.0000 0.0000 0.0000
# 3 28.1361 70.4844 84.2555 0.0000 0.0000 0.0000
# 4 0.0000 0.0000 0.0000 26.3340 0.0000 0.0000
# 5 0.0000 0.0000 0.0000 0.0000 28.2192 0.0000
# 6 0.0000 0.0000 0.0000 0.0000 0.0000 37.8767
#
#
#
# Elastic Compliance Matrix: (Units=1/GPa)
#
#
# Indices 1 2 3 4 5 6 
#
# 1 0.022382 -0.001455 -0.006257 0.000000 0.000000 0.000000
# 2 -0.001455 0.009290 -0.007286 0.000000 0.000000 0.000000
# 3 -0.006257 -0.007286 0.020053 0.000000 0.000000 0.000000
# 4 0.000000 0.000000 0.000000 0.037974 0.000000 0.000000
# 5 0.000000 0.000000 0.000000 0.000000 0.035437 0.000000
# 6 0.000000 0.000000 0.000000 0.000000 0.000000 0.026401
#
#
# Mechanical properties :
#
#
# Convention : Reuss Voigt Hill
#
# Bulk Modulus (GPa) = 46.02081 62.77319 54.39700
# Shear Modulus (GPa) = 26.48645 30.30411 28.39528
#
# Velocity S-wave (km/s) = 3.71406 3.97272 3.84556
# Velocity P-wave (km/s) = 6.50847 7.33047 6.93167
#
# Compressibility (1/GPa) = 0.02172930
#
# Stress axis : x y z
#
# Youngs Moduli (GPa) = 44.67971 107.63859 49.86769
#
# Poissons Ratio (x) = 0.15665 0.31200
# Poissons Ratio (y) = 0.06502 0.36333
# Poissons Ratio (z) = 0.27954 0.78425
#
# Static dielectric constant tensor:
#      x y z
#    x 1.666560 0.000000 0.000000 
#    y 0.000000 1.661750 0.000000 
#    z 0.000000 0.000000 1.688950 
# 
# From -- ./inp_files/2828.got.cif
#   From: 2010.05.17/outbox.cif.g08.bks.cpg/sg47_2_cif.got.tgz:2828.got - 2010.06.03 20:15:42.
