data_PCOD9386849
_publ_section_title
;
Structure prediction by ZEFSAII (Michael W. Deem and Ramdas Pophale) SiO2 
 PCOD9386849
Probable space group: P M M M
;
_chemical_formula_sum "Si O2"
_cell_formula_units_Z 56
_cell_length_a 24.020021
_cell_length_b 15.066854
_cell_length_c 8.450870
_cell_angle_alpha 90.000000
_cell_angle_beta 90.000000
_cell_angle_gamma 90.000000
_cell_volume 3058.421821
_symmetry_space_group_name_H-M "P M M M"
_symmetry_group_IT_number 47
_symmetry_cell_setting 'orthorhombic'
loop_
_space_group_symop_operation_xyz
x,y,z
-x,-y,z
x,-y,-z
-x,y,-z
-x,-y,-z
x,y,-z
-x,y,z
x,-y,z
loop_
_atom_site_type_symbol
_atom_site_label
_atom_site_fract_x
_atom_site_fract_y
_atom_site_fract_z
Si Si1 0.214106 0.601029 0.311324
Si Si2 0.387998 0.898963 0.691019
Si Si3 0.259239 0.897561 0.690611
Si Si4 0.438652 0.277189 0.809669
Si Si5 0.838045 0.227215 0.811678
Si Si6 0.663549 0.603186 0.809180
Si Si7 0.063829 0.100855 0.193006
O O1 0.213491 0.599309 0.500000
O O2 0.204584 0.500000 0.252399
O O3 0.170875 0.674241 0.253257
O O4 0.276124 0.628790 0.256816
O O5 0.390897 0.894951 0.500000
O O6 0.323497 0.880944 0.736435
O O7 0.426455 0.823926 0.763350
O O8 0.401586 0.000000 0.738212
O O9 0.256106 0.889935 0.500000
O O10 0.215877 0.830835 0.766425
O O11 0.246192 0.000000 0.732521
O O12 0.500000 0.304501 0.752394
O O13 0.387302 0.336752 0.750388
O O14 0.438665 0.284698 0.000000
O O15 0.891837 0.173173 0.751083
O O16 0.841853 0.232516 0.000000
O O17 0.654007 0.500000 0.767780
O O18 0.666204 0.609519 0.000000
O O19 0.000000 0.118186 0.241023
O O20 0.078796 0.000000 0.241814
O O21 0.064714 0.101323 0.000000
#
# Coordination Sequence:
#
# PCOD9386849 Si02
#       7
#     8   8   8   8   8   8   8
#     4  10  21  36  53  73  99 131 164 200 247 301
#     4   9  19  35  51  66  88 123 164 200 237 284
#     4   9  18  32  49  71 101 133 162 197 245 298
#     4  10  21  34  48  70  97 123 154 193 239 290
#     4  11  20  29  49  79 105 130 165 208 249 290
#     4   9  18  34  55  76  98 124 155 194 241 293
#     4   8  15  29  48  72 105 141 172 202 238 281
#
# _framework density 18.310096000000001
#
# number of rings (size 3 to 8) (size 9 to 14) (size 15 to 20)
#    0.000    2.571    0.000    3.429    0.000    6.286 
#    0.000    4.286    0.000    2.143    0.000   11.000 
#    0.000    0.000    0.000    0.000    0.000    0.000 
#
# Total GULP energy -312465.360654 kJ/mol
# GULP energy per Si atom -5579.738583 kJ/mol
# Density = 1.826842 g / cm^3
# Si number density = 18.310096 Si / 1000 Ang^3
#
#
#
# Elastic Constant Matrix: (Units=GPa)
#
#
# Indices 1 2 3 4 5 6 
#
# 1 92.2682 80.4783 16.1224 0.0000 0.0000 0.0000
# 2 80.4783 105.9706 16.5381 0.0000 0.0000 0.0000
# 3 16.1224 16.5381 8.3057 0.0000 0.0000 0.0000
# 4 0.0000 0.0000 0.0000 25.6638 0.0000 0.0000
# 5 0.0000 0.0000 0.0000 0.0000 -39.8984 0.0000
# 6 0.0000 0.0000 0.0000 0.0000 0.0000 21.4306
#
#
#
# Elastic Compliance Matrix: (Units=1/GPa)
#
#
# Indices 1 2 3 4 5 6 
#
# 1 0.034563 -0.022892 -0.021510 0.000000 0.000000 0.000000
# 2 -0.022892 0.028853 -0.013015 0.000000 0.000000 0.000000
# 3 -0.021510 -0.013015 0.188069 0.000000 0.000000 0.000000
# 4 0.000000 0.000000 0.000000 0.038965 0.000000 0.000000
# 5 0.000000 0.000000 0.000000 0.000000 -0.025064 0.000000
# 6 0.000000 0.000000 0.000000 0.000000 0.000000 0.046662
#
#
# Mechanical properties :
#
#
# Convention : Reuss Voigt Hill
#
# Bulk Modulus (GPa) = 7.31790 48.09135 27.70463
# Shear Modulus (GPa) = 10.58350 7.66623 9.12487
#
# Velocity S-wave (km/s) = 2.40680 2.04841 2.23480
# Velocity P-wave (km/s) = 3.42475 5.64948 4.67148
#
# Compressibility (1/GPa) = 0.13665115
#
# Stress axis : x y z
#
# Youngs Moduli (GPa) = 28.93252 34.65886 5.31719
#
# Poissons Ratio (x) = 0.79340 0.11437
# Poissons Ratio (y) = 0.66232 0.06920
# Poissons Ratio (z) = 0.62234 0.45109
#
# Static dielectric constant tensor:
#      x y z
#    x 1.626110 0.000000 0.000000 
#    y 0.000000 1.636840 0.000000 
#    z 0.000000 0.000000 1.626400 
# 
# From -- ./inp_files/11249.got.cif
#   From: 2010.05.17/outbox.cif.g08.bks.cpg/sg47_6_cif.got.tgz:11249.got - 2010.06.03 20:15:42.
