data_PCOD9386902
_publ_section_title
;
Structure prediction by ZEFSAII (Michael W. Deem and Ramdas Pophale) SiO2 
 PCOD9386902
Probable space group: P M M M
;
_chemical_formula_sum "Si O2"
_cell_formula_units_Z 48
_cell_length_a 8.858012
_cell_length_b 10.153686
_cell_length_c 30.662746
_cell_angle_alpha 90.000000
_cell_angle_beta 90.000000
_cell_angle_gamma 90.000000
_cell_volume 2757.852524
_symmetry_space_group_name_H-M "P M M M"
_symmetry_group_IT_number 47
_symmetry_cell_setting 'orthorhombic'
loop_
_space_group_symop_operation_xyz
x,y,z
-x,-y,z
x,-y,-z
-x,y,-z
-x,-y,-z
x,y,-z
-x,y,z
x,-y,z
loop_
_atom_site_type_symbol
_atom_site_label
_atom_site_fract_x
_atom_site_fract_y
_atom_site_fract_z
Si Si1 0.674845 0.159986 0.358506
Si Si2 0.180207 0.153566 0.266936
Si Si3 0.680745 0.252319 0.902111
Si Si4 0.181180 0.000000 0.051147
Si Si5 0.682162 0.345934 0.805114
Si Si6 0.825286 0.500000 0.051980
Si Si7 0.683615 0.155297 0.452989
O O1 0.500000 0.200728 0.352747
O O2 0.768638 0.193201 0.315699
O O3 0.733003 0.208779 0.405810
O O4 0.674725 0.000000 0.361285
O O5 0.250732 0.253857 0.232409
O O6 0.000000 0.156620 0.263810
O O7 0.229115 0.000000 0.259753
O O8 0.500000 0.240660 0.904148
O O9 0.756439 0.125236 0.923071
O O10 0.722983 0.283787 0.852045
O O11 0.738773 0.374365 0.930078
O O12 0.000000 0.000000 0.051763
O O13 0.228450 0.000000 0.000000
O O14 0.500000 0.344669 0.801987
O O15 0.729855 0.500000 0.802900
O O16 0.000000 0.500000 0.066778
O O17 0.825071 0.500000 0.000000
O O18 0.732695 0.212156 0.500000
O O19 0.500000 0.160958 0.451997
O O20 0.723365 0.000000 0.453881
#
# Coordination Sequence:
#
# PCOD9386902 Si02
#       7
#     8   8   8   4   8   4   8
#     4   8  13  23  40  62  90 128 170 211 258 306
#     4  10  21  34  50  76 106 138 176 216 260 313
#     4  11  23  41  63  88 114 145 185 227 269 315
#     4  11  25  43  61  87 123 155 183 219 264 315
#     4  10  22  41  60  80 106 135 172 220 270 316
#     4  11  23  39  61  89 119 151 183 217 264 319
#     4   7   9  14  28  53  84 118 160 208 253 299
#
# _framework density 17.404847
#
# number of rings (size 3 to 8) (size 9 to 14) (size 15 to 20)
#    0.000    2.500    0.833    3.500    1.167    6.000 
#    0.000    0.000    0.000    0.500    0.000    3.500 
#    0.000    0.667    0.000    7.667    0.000    8.833 
#
# Total GULP energy -267434.740708 kJ/mol
# GULP energy per Si atom -5571.557098 kJ/mol
# Density = 1.736523 g / cm^3
# Si number density = 17.404847 Si / 1000 Ang^3
#
#
#
# Elastic Constant Matrix: (Units=GPa)
#
#
# Indices 1 2 3 4 5 6 
#
# 1 30.4342 30.0517 48.1718 0.0000 0.0000 0.0000
# 2 30.0517 107.3984 78.3590 0.0000 0.0000 0.0000
# 3 48.1718 78.3590 180.6143 0.0000 0.0000 0.0000
# 4 0.0000 0.0000 0.0000 16.6025 0.0000 0.0000
# 5 0.0000 0.0000 0.0000 0.0000 -77.7724 0.0000
# 6 0.0000 0.0000 0.0000 0.0000 0.0000 11.6131
#
#
#
# Elastic Compliance Matrix: (Units=1/GPa)
#
#
# Indices 1 2 3 4 5 6 
#
# 1 0.060809 -0.007582 -0.012929 0.000000 0.000000 0.000000
# 2 -0.007582 0.014569 -0.004298 0.000000 0.000000 0.000000
# 3 -0.012929 -0.004298 0.010850 0.000000 0.000000 0.000000
# 4 0.000000 0.000000 0.000000 0.060232 0.000000 0.000000
# 5 0.000000 0.000000 0.000000 0.000000 -0.012858 0.000000
# 6 0.000000 0.000000 0.000000 0.000000 0.000000 0.086110
#
#
# Mechanical properties :
#
#
# Convention : Reuss Voigt Hill
#
# Bulk Modulus (GPa) = 27.31605 70.17908 48.74756
# Shear Modulus (GPa) = 17.75994 0.87961 9.31978
#
# Velocity S-wave (km/s) = 3.19784 0.71168 2.31653
# Velocity P-wave (km/s) = 5.41881 6.40971 5.93498
#
# Compressibility (1/GPa) = 0.03660852
#
# Stress axis : x y z
#
# Youngs Moduli (GPa) = 16.44502 68.63933 92.16780
#
# Poissons Ratio (x) = 0.52044 1.19162
# Poissons Ratio (y) = 0.12469 0.39618
# Poissons Ratio (z) = 0.21261 0.29504
#
# Static dielectric constant tensor:
#      x y z
#    x 1.580460 0.000000 0.000000 
#    y 0.000000 1.546580 0.000000 
#    z 0.000000 0.000000 1.624680 
# 
# From -- ./inp_files/34185.got.cif
#   From: 2010.05.17/outbox.cif.g08.bks.cpg/sg47_18_cif.got.tgz:34185.got - 2010.06.03 20:15:42.
