data_PCOD9386396
_publ_section_title
;
Structure prediction by ZEFSAII (Michael W. Deem and Ramdas Pophale) SiO2 
 PCOD9386396
Probable space group: P M M M
;
_chemical_formula_sum "Si O2"
_cell_formula_units_Z 48
_cell_length_a 7.609001
_cell_length_b 35.883468
_cell_length_c 8.222832
_cell_angle_alpha 90.000000
_cell_angle_beta 90.000000
_cell_angle_gamma 90.000000
_cell_volume 2245.140209
_symmetry_space_group_name_H-M "P M M M"
_symmetry_group_IT_number 47
_symmetry_cell_setting 'orthorhombic'
loop_
_space_group_symop_operation_xyz
x,y,z
-x,-y,z
x,-y,-z
-x,y,-z
-x,-y,-z
x,y,-z
-x,y,z
x,-y,z
loop_
_atom_site_type_symbol
_atom_site_label
_atom_site_fract_x
_atom_site_fract_y
_atom_site_fract_z
Si Si1 0.284596 0.805243 0.500000
Si Si2 0.211099 0.587426 0.818455
Si Si3 0.215291 0.543130 0.500000
Si Si4 0.295489 0.155621 0.174773
Si Si5 0.289079 0.325171 0.181362
Si Si6 0.714980 0.718758 0.500000
Si Si7 0.710192 0.000000 0.815295
Si Si8 0.792838 0.080742 0.681407
O O1 0.500000 0.807703 0.500000
O O2 0.220408 0.825543 0.663464
O O3 0.236403 0.762005 0.500000
O O4 0.275522 0.563856 0.664446
O O5 0.250856 0.631095 0.794216
O O6 0.000000 0.583266 0.821900
O O7 0.276697 0.576941 0.000000
O O8 0.266722 0.500000 0.500000
O O9 0.000000 0.544453 0.500000
O O10 0.500000 0.166702 0.169539
O O11 0.288204 0.111115 0.199634
O O12 0.215846 0.165446 0.000000
O O13 0.500000 0.320691 0.177702
O O14 0.223824 0.301762 0.335487
O O15 0.222775 0.314810 0.000000
O O16 0.500000 0.717081 0.500000
O O17 0.766684 0.038001 0.729706
O O18 0.500000 0.000000 0.818306
O O19 0.777162 0.000000 0.000000
O O20 0.721075 0.086837 0.500000
O O21 0.000000 0.088004 0.680504
#
# Coordination Sequence:
#
# PCOD9386396 Si02
#       8
#     4   8   4   8   8   4   4   8
#     4   9  18  33  52  77 107 133 165 213 253 290
#     4   9  17  29  46  67  91 121 157 197 243 294
#     4   9  17  28  43  65  91 119 157 204 247 288
#     4  10  20  35  57  81 104 137 177 212 253 302
#     4   9  17  29  47  71  97 126 161 200 243 295
#     4   9  17  29  48  74 102 130 160 199 248 293
#     4  11  24  39  56  82 112 141 176 216 261 309
#     4  11  23  38  57  81 109 141 177 215 258 306
#
# _framework density 21.379512999999999
#
# number of rings (size 3 to 8) (size 9 to 14) (size 15 to 20)
#    0.000    2.333    0.833    2.000    0.000    6.000 
#    0.000    5.000    0.000    3.000    0.000    4.667 
#    0.000    0.000    0.000    0.000    0.000    0.000 
#
# Total GULP energy -268021.058839 kJ/mol
# GULP energy per Si atom -5583.772059 kJ/mol
# Density = 2.133085 g / cm^3
# Si number density = 21.379513 Si / 1000 Ang^3
#
#
#
# Elastic Constant Matrix: (Units=GPa)
#
#
# Indices 1 2 3 4 5 6 
#
# 1 49.2170 -6.3888 9.9154 0.0000 0.0000 0.0000
# 2 -6.3888 121.4473 111.9673 0.0000 0.0000 0.0000
# 3 9.9154 111.9673 234.2005 0.0000 0.0000 0.0000
# 4 0.0000 0.0000 0.0000 -5.6181 0.0000 0.0000
# 5 0.0000 0.0000 0.0000 0.0000 -20.9508 0.0000
# 6 0.0000 0.0000 0.0000 0.0000 0.0000 18.2733
#
#
#
# Elastic Compliance Matrix: (Units=1/GPa)
#
#
# Indices 1 2 3 4 5 6 
#
# 1 0.021289 0.003488 -0.002569 0.000000 0.000000 0.000000
# 2 0.003488 0.015295 -0.007460 0.000000 0.000000 0.000000
# 3 -0.002569 -0.007460 0.007945 0.000000 0.000000 0.000000
# 4 0.000000 0.000000 0.000000 -0.177995 0.000000 0.000000
# 5 0.000000 0.000000 0.000000 0.000000 -0.047731 0.000000
# 6 0.000000 0.000000 0.000000 0.000000 0.000000 0.054725
#
#
# Mechanical properties :
#
#
# Convention : Reuss Voigt Hill
#
# Bulk Modulus (GPa) = 31.79896 70.65027 51.22462
# Shear Modulus (GPa) = -48.58708 17.63227 -15.47740
#
# Velocity S-wave (km/s) = -4.77235 2.87492 -2.69353
# Velocity P-wave (km/s) = 3.93208 6.64363 3.78659
#
# Compressibility (1/GPa) = 0.03144757
#
# Stress axis : x y z
#
# Youngs Moduli (GPa) = 46.97352 65.37943 125.86259
#
# Poissons Ratio (x) = -0.22807 0.32335
# Poissons Ratio (y) = -0.16386 0.93895
# Poissons Ratio (z) = 0.12068 0.48774
#
# Static dielectric constant tensor:
#      x y z
#    x 1.791950 0.000000 0.000000 
#    y 0.000000 1.720670 0.000000 
#    z 0.000000 0.000000 1.799730 
# 
# From -- ./inp_files/2858.got.cif
#   From: 2010.05.17/outbox.cif.g08.bks.cpg/sg47_2_cif.got.tgz:2858.got - 2010.06.03 20:15:42.
