data_PCOD9386476
_publ_section_title
;
Structure prediction by ZEFSAII (Michael W. Deem and Ramdas Pophale) SiO2 
 PCOD9386476
Probable space group: P M M M
;
_chemical_formula_sum "Si O2"
_cell_formula_units_Z 52
_cell_length_a 18.292046
_cell_length_b 15.672238
_cell_length_c 9.267145
_cell_angle_alpha 90.000000
_cell_angle_beta 90.000000
_cell_angle_gamma 90.000000
_cell_volume 2656.680093
_symmetry_space_group_name_H-M "P M M M"
_symmetry_group_IT_number 47
_symmetry_cell_setting 'orthorhombic'
loop_
_space_group_symop_operation_xyz
x,y,z
-x,-y,z
x,-y,-z
-x,y,-z
-x,-y,-z
x,y,-z
-x,y,z
x,-y,z
loop_
_atom_site_type_symbol
_atom_site_label
_atom_site_fract_x
_atom_site_fract_y
_atom_site_fract_z
Si Si1 0.220748 0.352285 0.838816
Si Si2 0.920639 0.602247 0.328914
Si Si3 0.000000 0.104824 0.166677
Si Si4 0.621094 0.594639 0.174044
Si Si5 0.143287 0.898896 0.662376
Si Si6 0.416572 0.769527 0.670617
Si Si7 0.281639 0.160149 0.164387
O O1 0.150098 0.357869 0.741740
O O2 0.292229 0.404211 0.791078
O O3 0.250138 0.256159 0.844267
O O4 0.201118 0.380973 0.000000
O O5 0.918972 0.616575 0.500000
O O6 0.916882 0.500000 0.305938
O O7 0.000000 0.632147 0.273487
O O8 0.073467 0.134365 0.248152
O O9 0.000000 0.000000 0.166295
O O10 0.000000 0.131688 0.000000
O O11 0.591651 0.500000 0.206409
O O12 0.588406 0.674834 0.258734
O O13 0.614302 0.608689 0.000000
O O14 0.146587 0.862511 0.500000
O O15 0.219329 0.887607 0.745916
O O16 0.130778 0.000000 0.649818
O O17 0.399067 0.764480 0.500000
O O18 0.500000 0.799613 0.686495
O O19 0.358214 0.829125 0.752457
O O20 0.290052 0.128228 0.000000
#
# Coordination Sequence:
#
# PCOD9386476 Si02
#       7
#     8   8   4   8   8   8   8
#     4   9  18  32  48  68  94 125 165 211 256 303
#     4   9  18  31  45  63  89 123 165 211 257 305
#     4   9  17  31  53  81 113 147 180 213 252 301
#     4   9  18  32  50  73 101 133 171 216 265 319
#     4  10  20  35  57  85 115 145 179 219 263 313
#     4  10  21  36  54  77 106 139 175 219 270 323
#     4  10  21  37  56  78 105 139 177 216 261 318
#
# _framework density 19.573301000000001
#
# number of rings (size 3 to 8) (size 9 to 14) (size 15 to 20)
#    0.000    2.538    0.000    3.462    0.000    8.000 
#    1.385    2.308    0.000    0.462    0.000    3.231 
#    0.000    0.000    0.000    0.000    0.000    0.000 
#
# Total GULP energy -290034.544626 kJ/mol
# GULP energy per Si atom -5577.587397 kJ/mol
# Density = 1.952875 g / cm^3
# Si number density = 19.573301 Si / 1000 Ang^3
#
#
#
# Elastic Constant Matrix: (Units=GPa)
#
#
# Indices 1 2 3 4 5 6 
#
# 1 136.7579 5.5044 77.3712 0.0000 0.0000 0.0000
# 2 5.5044 7.4423 8.1433 0.0000 0.0000 0.0000
# 3 77.3712 8.1433 120.8552 0.0000 0.0000 0.0000
# 4 0.0000 0.0000 0.0000 21.4557 0.0000 0.0000
# 5 0.0000 0.0000 0.0000 0.0000 44.1852 0.0000
# 6 0.0000 0.0000 0.0000 0.0000 0.0000 1.5697
#
#
#
# Elastic Compliance Matrix: (Units=1/GPa)
#
#
# Indices 1 2 3 4 5 6 
#
# 1 0.011466 -0.000484 -0.007308 0.000000 0.000000 0.000000
# 2 -0.000484 0.145084 -0.009466 0.000000 0.000000 0.000000
# 3 -0.007308 -0.009466 0.013591 0.000000 0.000000 0.000000
# 4 0.000000 0.000000 0.000000 0.046608 0.000000 0.000000
# 5 0.000000 0.000000 0.000000 0.000000 0.022632 0.000000
# 6 0.000000 0.000000 0.000000 0.000000 0.000000 0.637078
#
#
# Mechanical properties :
#
#
# Convention : Reuss Voigt Hill
#
# Bulk Modulus (GPa) = 7.37330 49.67701 28.52516
# Shear Modulus (GPa) = 5.22913 25.04453 15.13683
#
# Velocity S-wave (km/s) = 1.63626 3.58093 2.78392
# Velocity P-wave (km/s) = 2.71017 6.52169 4.99387
#
# Compressibility (1/GPa) = 0.13562446
#
# Stress axis : x y z
#
# Youngs Moduli (GPa) = 87.21275 6.89258 73.57941
#
# Poissons Ratio (x) = 0.00334 0.53772
# Poissons Ratio (y) = 0.04223 0.69649
# Poissons Ratio (z) = 0.63735 0.06524
#
# Static dielectric constant tensor:
#      x y z
#    x 1.688950 0.000000 0.000000 
#    y 0.000000 1.717470 0.000000 
#    z 0.000000 0.000000 1.684830 
# 
# From -- ./inp_files/9551.got.cif
#   From: 2010.05.17/outbox.cif.g08.bks.cpg/sg47_5_cif.got.tgz:9551.got - 2010.06.03 20:15:42.
