data_PCOD9386354
_publ_section_title
;
Structure prediction by ZEFSAII (Michael W. Deem and Ramdas Pophale) SiO2 
 PCOD9386354
Probable space group: P M M M
;
_chemical_formula_sum "Si O2"
_cell_formula_units_Z 56
_cell_length_a 9.104822
_cell_length_b 14.755130
_cell_length_c 23.156826
_cell_angle_alpha 90.000000
_cell_angle_beta 90.000000
_cell_angle_gamma 90.000000
_cell_volume 3110.953590
_symmetry_space_group_name_H-M "P M M M"
_symmetry_group_IT_number 47
_symmetry_cell_setting 'orthorhombic'
loop_
_space_group_symop_operation_xyz
x,y,z
-x,-y,z
x,-y,-z
-x,y,-z
-x,-y,-z
x,y,-z
-x,y,z
x,-y,z
loop_
_atom_site_type_symbol
_atom_site_label
_atom_site_fract_x
_atom_site_fract_y
_atom_site_fract_z
Si Si1 0.676958 0.106219 0.135544
Si Si2 0.331566 0.162797 0.648141
Si Si3 0.677383 0.280916 0.064266
Si Si4 0.175912 0.222503 0.236191
Si Si5 0.321898 0.392855 0.177539
Si Si6 0.663898 0.333709 0.566042
Si Si7 0.171597 0.500000 0.432934
Si Si8 0.320600 0.000000 0.433371
O O1 0.500000 0.111302 0.145149
O O2 0.711651 0.177915 0.084373
O O3 0.760368 0.150561 0.189709
O O4 0.712996 0.000000 0.125971
O O5 0.500000 0.141192 0.667399
O O6 0.231885 0.186608 0.702280
O O7 0.338822 0.248331 0.606335
O O8 0.276287 0.084642 0.605651
O O9 0.500000 0.286210 0.062163
O O10 0.720645 0.351975 0.114346
O O11 0.734396 0.299945 0.000000
O O12 0.246607 0.321211 0.221241
O O13 0.000000 0.227529 0.233043
O O14 0.500000 0.385299 0.183191
O O15 0.284831 0.500000 0.183572
O O16 0.706339 0.309361 0.500000
O O17 0.500000 0.372874 0.563580
O O18 0.768453 0.408551 0.592709
O O19 0.225652 0.500000 0.500000
O O20 0.000000 0.500000 0.433722
O O21 0.500000 0.000000 0.436226
O O22 0.269734 0.000000 0.500000
#
# Coordination Sequence:
#
# PCOD9386354 Si02
#       8
#     8   8   8   8   8   8   4   4
#     4   9  18  33  54  77 105 144 186 226 269 317
#     4  10  20  35  56  81 107 137 173 216 266 318
#     4   8  14  26  48  83 119 142 170 219 276 329
#     4  11  23  37  53  76 107 141 182 228 272 321
#     4   9  18  35  58  81 108 144 184 226 272 323
#     4   9  17  31  52  76 102 132 167 208 255 311
#     4   9  17  29  47  71  99 131 165 201 244 299
#     4   9  18  34  59  89 113 135 170 217 266 319
#
# _framework density 18.000912
#
# number of rings (size 3 to 8) (size 9 to 14) (size 15 to 20)
#    0.000    2.714    0.000    2.786    1.000    4.286 
#    1.286    2.857    0.000    8.571    0.000    8.000 
#    0.000    0.000    0.000    0.000    0.000    0.000 
#
# Total GULP energy -311792.417277 kJ/mol
# GULP energy per Si atom -5567.721737 kJ/mol
# Density = 1.795994 g / cm^3
# Si number density = 18.000912 Si / 1000 Ang^3
#
#
#
# Elastic Constant Matrix: (Units=GPa)
#
#
# Indices 1 2 3 4 5 6 
#
# 1 43.1289 37.5435 27.8575 0.0000 0.0000 0.0000
# 2 37.5435 123.8316 41.0041 0.0000 0.0000 0.0000
# 3 27.8575 41.0041 101.6390 0.0000 0.0000 0.0000
# 4 0.0000 0.0000 0.0000 15.3530 0.0000 0.0000
# 5 0.0000 0.0000 0.0000 0.0000 2.5524 0.0000
# 6 0.0000 0.0000 0.0000 0.0000 0.0000 10.9758
#
#
#
# Elastic Compliance Matrix: (Units=1/GPa)
#
#
# Indices 1 2 3 4 5 6 
#
# 1 0.034430 -0.008442 -0.006031 0.000000 0.000000 0.000000
# 2 -0.008442 0.011390 -0.002281 0.000000 0.000000 0.000000
# 3 -0.006031 -0.002281 0.012412 0.000000 0.000000 0.000000
# 4 0.000000 0.000000 0.000000 0.065134 0.000000 0.000000
# 5 0.000000 0.000000 0.000000 0.000000 0.391792 0.000000
# 6 0.000000 0.000000 0.000000 0.000000 0.000000 0.091110
#
#
# Mechanical properties :
#
#
# Convention : Reuss Voigt Hill
#
# Bulk Modulus (GPa) = 40.44600 53.48997 46.96799
# Shear Modulus (GPa) = 7.71583 16.58918 12.15250
#
# Velocity S-wave (km/s) = 2.07260 3.03904 2.60110
# Velocity P-wave (km/s) = 5.31462 6.48799 5.93040
#
# Compressibility (1/GPa) = 0.02472432
#
# Stress axis : x y z
#
# Youngs Moduli (GPa) = 29.04418 87.79424 80.56588
#
# Poissons Ratio (x) = 0.74112 0.48591
# Poissons Ratio (y) = 0.24518 0.18381
# Poissons Ratio (z) = 0.17517 0.20030
#
# Static dielectric constant tensor:
#      x y z
#    x 1.606090 0.000000 0.000000 
#    y 0.000000 1.606590 0.000000 
#    z 0.000000 0.000000 1.638520 
# 
# From -- ./inp_files/29773.got.cif
#   From: 2010.05.17/outbox.cif.g08.bks.cpg/sg47_15_cif.got.tgz:29773.got - 2010.06.03 20:15:42.
