data_PCOD9386217
_publ_section_title
;
Structure prediction by ZEFSAII (Michael W. Deem and Ramdas Pophale) SiO2 
 PCOD9386217
Probable space group: P M M M
;
_chemical_formula_sum "Si O2"
_cell_formula_units_Z 64
_cell_length_a 7.756090
_cell_length_b 15.268794
_cell_length_c 25.068612
_cell_angle_alpha 90.000000
_cell_angle_beta 90.000000
_cell_angle_gamma 90.000000
_cell_volume 2968.778966
_symmetry_space_group_name_H-M "P M M M"
_symmetry_group_IT_number 47
_symmetry_cell_setting 'orthorhombic'
loop_
_space_group_symop_operation_xyz
x,y,z
-x,-y,z
x,-y,-z
-x,y,-z
-x,-y,-z
x,y,-z
-x,y,z
x,-y,z
loop_
_atom_site_type_symbol
_atom_site_label
_atom_site_fract_x
_atom_site_fract_y
_atom_site_fract_z
Si Si1 0.293472 0.237328 0.560717
Si Si2 0.203696 0.099829 0.351927
Si Si3 0.791055 0.100183 0.852587
Si Si4 0.789641 0.238643 0.939188
Si Si5 0.303844 0.211886 0.749293
Si Si6 0.796456 0.403355 0.632238
Si Si7 0.758197 0.398807 0.748791
Si Si8 0.791690 0.402772 0.867157
O O1 0.229060 0.238424 0.500000
O O2 0.500000 0.235195 0.559760
O O3 0.232341 0.153338 0.593909
O O4 0.240278 0.324476 0.592679
O O5 0.284956 0.154755 0.303810
O O6 0.000000 0.097051 0.341008
O O7 0.268100 0.000000 0.354436
O O8 0.735526 0.155129 0.904325
O O9 0.732165 0.151534 0.800075
O O10 0.000000 0.099592 0.851900
O O11 0.731334 0.000000 0.852664
O O12 0.740196 0.325823 0.906741
O O13 0.000000 0.238536 0.940482
O O14 0.728891 0.237805 0.000000
O O15 0.500000 0.245804 0.752059
O O16 0.182027 0.296855 0.748687
O O17 0.766468 0.500000 0.608458
O O18 0.691713 0.397544 0.687576
O O19 0.000000 0.398576 0.647776
O O20 0.828617 0.500000 0.748446
O O21 0.696204 0.398404 0.810344
O O22 0.767564 0.500000 0.890057
O O23 0.000000 0.393563 0.855423
#
# Coordination Sequence:
#
# PCOD9386217 Si02
#       8
#     8   8   8   8   8   8   8   8
#     4  11  25  43  63  90 124 163 204 247 298 352
#     4  11  25  44  67  93 120 154 197 246 299 355
#     4  10  21  37  57  81 112 152 196 243 296 352
#     4   9  17  29  48  77 111 147 191 243 295 347
#     4  12  24  38  61  91 122 155 189 235 295 357
#     4  10  21  37  61  92 123 159 204 252 299 351
#     4  10  20  34  56  87 120 153 191 235 290 354
#     4   9  16  27  47  77 113 150 186 232 291 350
#
# _framework density 21.557683000000001
#
# number of rings (size 3 to 8) (size 9 to 14) (size 15 to 20)
#    0.000    1.750    2.500    1.875    0.000    7.750 
#    0.000    6.250    0.000    0.375    0.000    0.875 
#    0.000    2.000    0.000    0.000    0.000    0.000 
#
# Total GULP energy -356605.329284 kJ/mol
# GULP energy per Si atom -5571.958270 kJ/mol
# Density = 2.150862 g / cm^3
# Si number density = 21.557683 Si / 1000 Ang^3
#
#
#
# Elastic Constant Matrix: (Units=GPa)
#
#
# Indices 1 2 3 4 5 6 
#
# 1 71.2449 21.3421 11.7907 0.0000 0.0000 0.0000
# 2 21.3421 230.8793 97.3479 0.0000 0.0000 0.0000
# 3 11.7907 97.3479 171.9021 0.0000 0.0000 0.0000
# 4 0.0000 0.0000 0.0000 5.1840 0.0000 0.0000
# 5 0.0000 0.0000 0.0000 0.0000 5.8904 0.0000
# 6 0.0000 0.0000 0.0000 0.0000 0.0000 9.9295
#
#
#
# Elastic Compliance Matrix: (Units=1/GPa)
#
#
# Indices 1 2 3 4 5 6 
#
# 1 0.014448 -0.001206 -0.000308 0.000000 0.000000 0.000000
# 2 -0.001206 0.005790 -0.003196 0.000000 0.000000 0.000000
# 3 -0.000308 -0.003196 0.007649 0.000000 0.000000 0.000000
# 4 0.000000 0.000000 0.000000 0.192903 0.000000 0.000000
# 5 0.000000 0.000000 0.000000 0.000000 0.169769 0.000000
# 6 0.000000 0.000000 0.000000 0.000000 0.000000 0.100710
#
#
# Mechanical properties :
#
#
# Convention : Reuss Voigt Hill
#
# Bulk Modulus (GPa) = 54.15163 81.66529 67.90846
# Shear Modulus (GPa) = 9.86496 27.10381 18.48439
#
# Velocity S-wave (km/s) = 2.14150 3.54965 2.93138
# Velocity P-wave (km/s) = 5.59362 7.40030 6.55946
#
# Compressibility (1/GPa) = 0.01846666
#
# Stress axis : x y z
#
# Youngs Moduli (GPa) = 69.21246 172.69800 130.74386
#
# Poissons Ratio (x) = 0.20820 0.04030
# Poissons Ratio (y) = 0.08344 0.41791
# Poissons Ratio (z) = 0.02134 0.55202
#
# Static dielectric constant tensor:
#      x y z
#    x 2.035940 0.000000 0.000000 
#    y 0.000000 1.756360 0.000000 
#    z 0.000000 0.000000 1.731340 
# 
# From -- ./inp_files/32138.got.cif
#   From: 2010.05.17/outbox.cif.g08.bks.cpg/sg47_17_cif.got.tgz:32138.got - 2010.06.03 20:15:42.
