data_PCOD9386228
_publ_section_title
;
Structure prediction by ZEFSAII (Michael W. Deem and Ramdas Pophale) SiO2 
 PCOD9386228
Probable space group: P M M M
;
_chemical_formula_sum "Si O2"
_cell_formula_units_Z 37
_cell_length_a 17.034296
_cell_length_b 13.860162
_cell_length_c 8.083996
_cell_angle_alpha 90.000000
_cell_angle_beta 90.000000
_cell_angle_gamma 90.000000
_cell_volume 1908.616113
_symmetry_space_group_name_H-M "P M M M"
_symmetry_group_IT_number 47
_symmetry_cell_setting 'orthorhombic'
loop_
_space_group_symop_operation_xyz
x,y,z
-x,-y,z
x,-y,-z
-x,y,-z
-x,-y,-z
x,y,-z
-x,y,z
x,-y,z
loop_
_atom_site_type_symbol
_atom_site_label
_atom_site_fract_x
_atom_site_fract_y
_atom_site_fract_z
Si Si1 0.811073 0.793151 0.196159
Si Si2 0.184426 0.000000 0.696041
Si Si3 0.633081 0.000000 0.300858
Si Si4 0.500000 0.649475 0.687899
Si Si5 0.909346 0.607327 0.699439
Si Si6 0.630165 0.207824 0.802678
Si Si7 0.500000 0.500000 0.000000
O O1 0.848129 0.895964 0.249833
O O2 0.858457 0.698251 0.246430
O O3 0.720830 0.787026 0.257822
O O4 0.806609 0.796037 0.000000
O O5 0.275166 0.000000 0.755757
O O6 0.184945 0.000000 0.500000
O O7 0.600183 0.900277 0.232929
O O8 0.629657 0.000000 0.500000
O O9 0.500000 0.609112 0.500000
O O10 0.423546 0.716407 0.709453
O O11 0.500000 0.581718 0.849634
O O12 0.909225 0.606202 0.500000
O O13 0.882027 0.500000 0.754936
O O14 0.000000 0.618480 0.753721
O O15 0.627928 0.225650 0.000000
#
# Coordination Sequence:
#
# PCOD9386228 Si02
#       7
#     8   4   4   4   8   8   1
#     4  10  20  34  57  86 118 152 188 235 289 347
#     4   9  17  31  53  79 115 154 189 230 279 338
#     4   9  17  30  54  88 118 148 190 235 282 354
#     4  12  25  44  68  87 113 160 203 247 304 355
#     4   9  19  37  58  80 110 147 188 238 292 343
#     4  10  20  38  58  85 122 156 191 237 293 349
#     4  12  26  52  64  80 120 152 200 264 308 352
#
# _framework density 19.385771999999999
#
# number of rings (size 3 to 8) (size 9 to 14) (size 15 to 20)
#    0.000    2.162    1.081    2.757    0.000    6.486 
#    1.946    3.784    0.000    3.243    0.000    0.000 
#    0.000    0.000    0.000    0.000    0.000    0.000 
#
# Total GULP energy -206047.664536 kJ/mol
# GULP energy per Si atom -5568.855798 kJ/mol
# Density = 1.934165 g / cm^3
# Si number density = 19.385772 Si / 1000 Ang^3
#
#
#
# Elastic Constant Matrix: (Units=GPa)
#
#
# Indices 1 2 3 4 5 6 
#
# 1 58.5876 68.9804 15.1771 0.0000 0.0000 0.0000
# 2 68.9804 198.0210 44.5604 0.0000 0.0000 0.0000
# 3 15.1771 44.5604 76.1151 0.0000 0.0000 0.0000
# 4 0.0000 0.0000 0.0000 29.6612 0.0000 0.0000
# 5 0.0000 0.0000 0.0000 0.0000 20.6885 0.0000
# 6 0.0000 0.0000 0.0000 0.0000 0.0000 92.9415
#
#
#
# Elastic Compliance Matrix: (Units=1/GPa)
#
#
# Indices 1 2 3 4 5 6 
#
# 1 0.028938 -0.010115 0.000151 0.000000 0.000000 0.000000
# 2 -0.010115 0.009352 -0.003458 0.000000 0.000000 0.000000
# 3 0.000151 -0.003458 0.015132 0.000000 0.000000 0.000000
# 4 0.000000 0.000000 0.000000 0.033714 0.000000 0.000000
# 5 0.000000 0.000000 0.000000 0.000000 0.048336 0.000000
# 6 0.000000 0.000000 0.000000 0.000000 0.000000 0.010759
#
#
# Mechanical properties :
#
#
# Convention : Reuss Voigt Hill
#
# Bulk Modulus (GPa) = 37.62312 65.57328 51.59820
# Shear Modulus (GPa) = 27.48259 42.25863 34.87061
#
# Velocity S-wave (km/s) = 3.76928 4.67398 4.24580
# Velocity P-wave (km/s) = 6.19621 7.93896 7.12110
#
# Compressibility (1/GPa) = 0.02657940
#
# Stress axis : x y z
#
# Youngs Moduli (GPa) = 34.55657 106.93468 66.08423
#
# Poissons Ratio (x) = 1.08160 -0.01000
# Poissons Ratio (y) = 0.34953 0.22851
# Poissons Ratio (z) = -0.00523 0.36977
#
# Static dielectric constant tensor:
#      x y z
#    x 1.695960 0.000000 0.000000 
#    y 0.000000 1.714240 0.000000 
#    z 0.000000 0.000000 1.669030 
# 
# From -- ./inp_files/8711.got.cif
#   From: 2010.05.17/outbox.cif.g08.bks.cpg/sg47_5_cif.got.tgz:8711.got - 2010.06.03 20:15:42.
