data_PCOD9386309
_publ_section_title
;
Structure prediction by ZEFSAII (Michael W. Deem and Ramdas Pophale) SiO2 
 PCOD9386309
Probable space group: P M M M
;
_chemical_formula_sum "Si O2"
_cell_formula_units_Z 48
_cell_length_a 10.400330
_cell_length_b 18.840555
_cell_length_c 14.141963
_cell_angle_alpha 90.000000
_cell_angle_beta 90.000000
_cell_angle_gamma 90.000000
_cell_volume 2771.089216
_symmetry_space_group_name_H-M "P M M M"
_symmetry_group_IT_number 47
_symmetry_cell_setting 'orthorhombic'
loop_
_space_group_symop_operation_xyz
x,y,z
-x,-y,z
x,-y,-z
-x,y,-z
-x,-y,-z
x,y,-z
-x,y,z
x,-y,z
loop_
_atom_site_type_symbol
_atom_site_label
_atom_site_fract_x
_atom_site_fract_y
_atom_site_fract_z
Si Si1 0.500000 0.914823 0.387577
Si Si2 0.354149 0.586251 0.107665
Si Si3 0.846433 0.083696 0.110744
Si Si4 0.846848 0.714757 0.609516
Si Si5 0.248190 0.150495 0.707411
Si Si6 0.849953 0.583272 0.734014
Si Si7 0.000000 0.084653 0.608159
O O1 0.500000 0.899345 0.500000
O O2 0.375553 0.881888 0.337785
O O3 0.500000 0.000000 0.376829
O O4 0.500000 0.608340 0.133128
O O5 0.354158 0.500000 0.106183
O O6 0.245745 0.606536 0.182460
O O7 0.327441 0.609700 0.000000
O O8 0.767194 0.132601 0.182112
O O9 0.000000 0.095487 0.124127
O O10 0.822759 0.000000 0.131655
O O11 0.818259 0.095408 0.000000
O O12 0.810760 0.724276 0.500000
O O13 0.770099 0.768079 0.677092
O O14 0.828971 0.634487 0.645091
O O15 0.000000 0.730458 0.618161
O O16 0.126806 0.111515 0.659294
O O17 0.827782 0.500000 0.713115
O O18 0.000000 0.590519 0.762740
O O19 0.000000 0.110130 0.500000
O O20 0.000000 0.000000 0.608606
#
# Coordination Sequence:
#
# PCOD9386309 Si02
#       7
#     4   8   8   8   8   8   4
#     4  11  24  38  53  79 116 150 179 218 273 331
#     4   8  14  27  49  76 105 136 170 212 264 319
#     4   9  17  31  54  83 110 138 177 223 268 318
#     4  10  20  35  55  78 105 139 180 226 277 329
#     4  12  21  36  56  78 110 144 180 226 276 325
#     4   9  18  32  51  77 107 138 178 224 272 327
#     4  11  20  30  53  83 104 132 179 224 263 317
#
# _framework density 17.321708999999998
#
# number of rings (size 3 to 8) (size 9 to 14) (size 15 to 20)
#    0.000    2.167    1.667    4.000    0.000    2.000 
#    1.500    4.583    0.000    2.500    0.000    2.333 
#    0.000    0.000    0.000    0.000    0.000    0.000 
#
# Total GULP energy -267695.635164 kJ/mol
# GULP energy per Si atom -5576.992399 kJ/mol
# Density = 1.728228 g / cm^3
# Si number density = 17.321709 Si / 1000 Ang^3
#
#
#
# Elastic Constant Matrix: (Units=GPa)
#
#
# Indices 1 2 3 4 5 6 
#
# 1 80.6523 34.7640 42.4715 0.0000 0.0000 0.0000
# 2 34.7640 72.9413 48.7021 0.0000 0.0000 0.0000
# 3 42.4715 48.7021 108.0230 0.0000 0.0000 0.0000
# 4 0.0000 0.0000 0.0000 17.8351 0.0000 0.0000
# 5 0.0000 0.0000 0.0000 0.0000 13.2639 0.0000
# 6 0.0000 0.0000 0.0000 0.0000 0.0000 4.8115
#
#
#
# Elastic Compliance Matrix: (Units=1/GPa)
#
#
# Indices 1 2 3 4 5 6 
#
# 1 0.016900 -0.005176 -0.004311 0.000000 0.000000 0.000000
# 2 -0.005176 0.021199 -0.007523 0.000000 0.000000 0.000000
# 3 -0.004311 -0.007523 0.014344 0.000000 0.000000 0.000000
# 4 0.000000 0.000000 0.000000 0.056069 0.000000 0.000000
# 5 0.000000 0.000000 0.000000 0.000000 0.075392 0.000000
# 6 0.000000 0.000000 0.000000 0.000000 0.000000 0.207835
#
#
# Mechanical properties :
#
#
# Convention : Reuss Voigt Hill
#
# Bulk Modulus (GPa) = 54.27773 57.05466 55.66620
# Shear Modulus (GPa) = 11.57673 16.22738 13.90206
#
# Velocity S-wave (km/s) = 2.58803 3.06408 2.83606
# Velocity P-wave (km/s) = 6.35088 6.74743 6.55215
#
# Compressibility (1/GPa) = 0.01842376
#
# Stress axis : x y z
#
# Youngs Moduli (GPa) = 59.17085 47.17110 69.71672
#
# Poissons Ratio (x) = 0.24417 0.30054
# Poissons Ratio (y) = 0.30629 0.52445
# Poissons Ratio (z) = 0.25508 0.35485
#
# Static dielectric constant tensor:
#      x y z
#    x 1.566950 0.000000 0.000000 
#    y 0.000000 1.601650 0.000000 
#    z 0.000000 0.000000 1.593190 
# 
# From -- ./inp_files/21046.got.cif
#   From: 2010.05.17/outbox.cif.g08.bks.cpg/sg47_11_cif.got.tgz:21046.got - 2010.06.03 20:15:42.
