data_PCOD9386976
_publ_section_title
;
Structure prediction by ZEFSAII (Michael W. Deem and Ramdas Pophale) SiO2 
 PCOD9386976
Probable space group: P M M M
;
_chemical_formula_sum "Si O2"
_cell_formula_units_Z 52
_cell_length_a 14.851120
_cell_length_b 24.360469
_cell_length_c 7.773474
_cell_angle_alpha 90.000000
_cell_angle_beta 90.000000
_cell_angle_gamma 90.000000
_cell_volume 2812.289354
_symmetry_space_group_name_H-M "P M M M"
_symmetry_group_IT_number 47
_symmetry_cell_setting 'orthorhombic'
loop_
_space_group_symop_operation_xyz
x,y,z
-x,-y,z
x,-y,-z
-x,y,-z
-x,-y,-z
x,y,-z
-x,y,z
x,-y,z
loop_
_atom_site_type_symbol
_atom_site_label
_atom_site_fract_x
_atom_site_fract_y
_atom_site_fract_z
Si Si1 0.603404 0.666985 0.791762
Si Si2 0.100115 0.399845 0.292093
Si Si3 0.609590 0.000000 0.198443
Si Si4 0.292866 0.440474 0.203715
Si Si5 0.602012 0.881297 0.205919
Si Si6 0.099719 0.728378 0.290000
Si Si7 0.284437 0.224489 0.703683
O O1 0.500000 0.667620 0.733232
O O2 0.655893 0.613000 0.726228
O O3 0.654855 0.722308 0.741966
O O4 0.603083 0.665267 0.000000
O O5 0.101830 0.402347 0.500000
O O6 0.186081 0.432133 0.226048
O O7 0.110907 0.335728 0.241931
O O8 0.000000 0.418040 0.236562
O O9 0.633960 0.940728 0.275752
O O10 0.500000 0.000000 0.195763
O O11 0.641706 0.000000 0.000000
O O12 0.319257 0.500000 0.276215
O O13 0.311979 0.441607 0.000000
O O14 0.500000 0.869724 0.269840
O O15 0.667150 0.830554 0.236057
O O16 0.595087 0.888045 0.000000
O O17 0.100272 0.729210 0.500000
O O18 0.184448 0.763032 0.226098
O O19 0.000000 0.746342 0.234433
O O20 0.276118 0.219814 0.500000
#
# Coordination Sequence:
#
# PCOD9386976 Si02
#       7
#     8   8   4   8   8   8   8
#     4  10  21  36  51  66  89 123 159 193 231 279
#     4   9  17  32  53  72  91 119 153 186 227 285
#     4   7  12  26  47  67  90 129 174 200 217 257
#     4  10  21  35  50  69  92 118 152 196 242 282
#     4   9  17  30  48  70  99 134 167 195 225 268
#     4   8  15  29  48  68  91 120 152 186 228 277
#     4  11  20  30  49  75  99 122 152 194 239 279
#
# _framework density 18.490273999999999
#
# number of rings (size 3 to 8) (size 9 to 14) (size 15 to 20)
#    0.000    2.692    1.538    2.769    0.000    3.692 
#    0.000    3.462    0.000    3.231    0.000    2.692 
#    0.000    4.308    0.000    0.000    0.000    0.000 
#
# Total GULP energy -289917.670709 kJ/mol
# GULP energy per Si atom -5575.339821 kJ/mol
# Density = 1.844819 g / cm^3
# Si number density = 18.490274 Si / 1000 Ang^3
#
#
#
# Elastic Constant Matrix: (Units=GPa)
#
#
# Indices 1 2 3 4 5 6 
#
# 1 100.3532 69.9411 -3.1033 0.0000 0.0000 0.0000
# 2 69.9411 156.3858 3.3505 0.0000 0.0000 0.0000
# 3 -3.1033 3.3505 24.1009 0.0000 0.0000 0.0000
# 4 0.0000 0.0000 0.0000 -28.6631 0.0000 0.0000
# 5 0.0000 0.0000 0.0000 0.0000 18.1686 0.0000
# 6 0.0000 0.0000 0.0000 0.0000 0.0000 34.1872
#
#
#
# Elastic Compliance Matrix: (Units=1/GPa)
#
#
# Indices 1 2 3 4 5 6 
#
# 1 0.014665 -0.006619 0.002808 0.000000 0.000000 0.000000
# 2 -0.006619 0.009401 -0.002159 0.000000 0.000000 0.000000
# 3 0.002808 -0.002159 0.042154 0.000000 0.000000 0.000000
# 4 0.000000 0.000000 0.000000 -0.034888 0.000000 0.000000
# 5 0.000000 0.000000 0.000000 0.000000 0.055040 0.000000
# 6 0.000000 0.000000 0.000000 0.000000 0.000000 0.029251
#
#
# Mechanical properties :
#
#
# Convention : Reuss Voigt Hill
#
# Bulk Modulus (GPa) = 18.42282 46.80183 32.61232
# Shear Modulus (GPa) = 34.32786 18.78198 26.55492
#
# Velocity S-wave (km/s) = 4.31343 3.19058 3.79378
# Velocity P-wave (km/s) = 5.89853 6.24016 6.07175
#
# Compressibility (1/GPa) = 0.05428052
#
# Stress axis : x y z
#
# Youngs Moduli (GPa) = 68.19181 106.37405 23.72252
#
# Poissons Ratio (x) = 0.70405 -0.06662
# Poissons Ratio (y) = 0.45134 0.05122
# Poissons Ratio (z) = -0.19151 0.22968
#
# Static dielectric constant tensor:
#      x y z
#    x 1.646540 0.000000 0.000000 
#    y 0.000000 1.664820 0.000000 
#    z 0.000000 0.000000 1.688370 
# 
# From -- ./inp_files/7631.got.cif
#   From: 2010.05.17/outbox.cif.g08.bks.cpg/sg47_4_cif.got.tgz:7631.got - 2010.06.03 20:15:42.
