data_PCOD9386280
_publ_section_title
;
Structure prediction by ZEFSAII (Michael W. Deem and Ramdas Pophale) SiO2 
 PCOD9386280
Probable space group: P M M M
;
_chemical_formula_sum "Si O2"
_cell_formula_units_Z 48
_cell_length_a 15.435207
_cell_length_b 7.711501
_cell_length_c 18.087596
_cell_angle_alpha 90.000000
_cell_angle_beta 90.000000
_cell_angle_gamma 90.000000
_cell_volume 2152.941486
_symmetry_space_group_name_H-M "P M M M"
_symmetry_group_IT_number 47
_symmetry_cell_setting 'orthorhombic'
loop_
_space_group_symop_operation_xyz
x,y,z
-x,-y,z
x,-y,-z
-x,y,-z
-x,-y,-z
x,y,-z
-x,y,z
x,-y,z
loop_
_atom_site_type_symbol
_atom_site_label
_atom_site_fract_x
_atom_site_fract_y
_atom_site_fract_z
Si Si1 0.832267 0.697812 0.334160
Si Si2 0.339375 0.202170 0.416646
Si Si3 0.098381 0.796821 0.825881
Si Si4 0.401105 0.706684 0.000000
Si Si5 0.279962 0.207792 0.138017
Si Si6 0.000000 0.197827 0.587073
Si Si7 0.405728 0.787656 0.265126
O O1 0.806838 0.500000 0.319775
O O2 0.755842 0.787810 0.379901
O O3 0.865356 0.781140 0.257816
O O4 0.915666 0.706148 0.385584
O O5 0.342359 0.276368 0.500000
O O6 0.396461 0.275289 0.349461
O O7 0.363053 0.000000 0.423541
O O8 0.181436 0.724124 0.871010
O O9 0.000000 0.723062 0.831239
O O10 0.090267 0.000000 0.844327
O O11 0.345045 0.759274 0.071104
O O12 0.406976 0.500000 0.000000
O O13 0.500000 0.776475 0.000000
O O14 0.328162 0.272248 0.212353
O O15 0.271926 0.000000 0.145758
O O16 0.000000 0.187282 0.500000
O O17 0.000000 0.000000 0.617450
O O18 0.500000 0.739261 0.234784
O O19 0.401814 0.000000 0.266488
#
# Coordination Sequence:
#
# PCOD9386280 Si02
#       7
#     8   8   8   4   8   4   8
#     4  12  23  34  52  79 112 149 194 249 304 358
#     4  10  20  35  54  76 109 154 200 247 304 361
#     4  10  20  37  63  90 119 156 198 241 289 350
#     4  11  25  43  64  95 132 164 195 237 298 365
#     4  10  20  38  65  93 122 157 200 247 292 347
#     4  11  23  37  53  73 103 146 197 254 311 361
#     4   9  17  31  55  87 116 145 193 253 303 351
#
# _framework density 22.295078
#
# number of rings (size 3 to 8) (size 9 to 14) (size 15 to 20)
#    0.000    1.667    2.500    3.000    0.000    5.333 
#    0.000    2.083    0.000    3.000    0.000    1.167 
#    0.000    0.000    0.000    0.000    0.000    0.000 
#
# Total GULP energy -267829.051202 kJ/mol
# GULP energy per Si atom -5579.771900 kJ/mol
# Density = 2.224433 g / cm^3
# Si number density = 22.295078 Si / 1000 Ang^3
#
#
#
# Elastic Constant Matrix: (Units=GPa)
#
#
# Indices 1 2 3 4 5 6 
#
# 1 185.5939 5.0604 67.9781 0.0000 0.0000 0.0000
# 2 5.0604 52.1607 -0.7796 0.0000 0.0000 0.0000
# 3 67.9781 -0.7796 97.8004 0.0000 0.0000 0.0000
# 4 0.0000 0.0000 0.0000 -64.0630 0.0000 0.0000
# 5 0.0000 0.0000 0.0000 0.0000 44.0043 0.0000
# 6 0.0000 0.0000 0.0000 0.0000 0.0000 -0.2349
#
#
#
# Elastic Compliance Matrix: (Units=1/GPa)
#
#
# Indices 1 2 3 4 5 6 
#
# 1 0.007260 -0.000780 -0.005052 0.000000 0.000000 0.000000
# 2 -0.000780 0.019258 0.000696 0.000000 0.000000 0.000000
# 3 -0.005052 0.000696 0.013742 0.000000 0.000000 0.000000
# 4 0.000000 0.000000 0.000000 -0.015610 0.000000 0.000000
# 5 0.000000 0.000000 0.000000 0.000000 0.022725 0.000000
# 6 0.000000 0.000000 0.000000 0.000000 0.000000 -4.256872
#
#
# Mechanical properties :
#
#
# Convention : Reuss Voigt Hill
#
# Bulk Modulus (GPa) = 33.34847 53.34142 43.34494
# Shear Modulus (GPa) = -1.19354 13.49436 6.15041
#
# Velocity S-wave (km/s) = -0.73246 2.46288 1.66272
# Velocity P-wave (km/s) = 3.77822 5.66258 4.81351
#
# Compressibility (1/GPa) = 0.02998639
#
# Stress axis : x y z
#
# Youngs Moduli (GPa) = 137.74260 51.92762 72.76852
#
# Poissons Ratio (x) = 0.04050 0.36765
# Poissons Ratio (y) = 0.10742 -0.05061
# Poissons Ratio (z) = 0.69593 -0.03612
#
# Static dielectric constant tensor:
#      x y z
#    x 1.854210 0.000000 0.000000 
#    y 0.000000 1.847230 0.000000 
#    z 0.000000 0.000000 1.820640 
# 
# From -- ./inp_files/24482.got.cif
#   From: 2010.05.17/outbox.cif.g08.bks.cpg/sg47_13_cif.got.tgz:24482.got - 2010.06.03 20:15:42.
