data_PCOD9386352
_publ_section_title
;
Structure prediction by ZEFSAII (Michael W. Deem and Ramdas Pophale) SiO2 
 PCOD9386352
Probable space group: P M M M
;
_chemical_formula_sum "Si O2"
_cell_formula_units_Z 52
_cell_length_a 9.527653
_cell_length_b 15.228824
_cell_length_c 20.585289
_cell_angle_alpha 90.000000
_cell_angle_beta 90.000000
_cell_angle_gamma 90.000000
_cell_volume 2986.821492
_symmetry_space_group_name_H-M "P M M M"
_symmetry_group_IT_number 47
_symmetry_cell_setting 'orthorhombic'
loop_
_space_group_symop_operation_xyz
x,y,z
-x,-y,z
x,-y,-z
-x,y,-z
-x,-y,-z
x,y,-z
-x,y,z
x,-y,z
loop_
_atom_site_type_symbol
_atom_site_label
_atom_site_fract_x
_atom_site_fract_y
_atom_site_fract_z
Si Si1 0.165681 0.598640 0.697897
Si Si2 0.833597 0.103270 0.764549
Si Si3 0.336313 0.851356 0.635761
Si Si4 0.332314 0.601659 0.076337
Si Si5 0.154245 0.000000 0.575430
Si Si6 0.336224 0.656464 0.424032
Si Si7 0.167097 0.715840 0.820963
O O1 0.186098 0.500000 0.724407
O O2 0.245577 0.606021 0.629561
O O3 0.209514 0.669751 0.752205
O O4 0.000000 0.611905 0.685977
O O5 0.736280 0.135239 0.705487
O O6 0.809870 0.179123 0.818069
O O7 0.000000 0.109864 0.747471
O O8 0.806165 0.000000 0.779382
O O9 0.500000 0.875511 0.639499
O O10 0.327854 0.756286 0.602537
O O11 0.245370 0.916637 0.593151
O O12 0.500000 0.610761 0.085472
O O13 0.295596 0.500000 0.091284
O O14 0.249989 0.667600 0.122340
O O15 0.302701 0.616335 0.000000
O O16 0.134658 0.000000 0.500000
O O17 0.000000 0.000000 0.607974
O O18 0.292529 0.650036 0.500000
O O19 0.500000 0.629586 0.421015
O O20 0.000000 0.700470 0.827799
#
# Coordination Sequence:
#
# PCOD9386352 Si02
#       7
#     8   8   8   8   4   8   8
#     4  10  21  36  54  78 106 137 179 228 275 327
#     4  10  20  35  56  80 109 143 181 223 271 327
#     4  11  21  34  53  75 100 130 172 228 282 332
#     4   9  19  36  58  87 122 155 186 222 267 321
#     4  11  23  35  49  71  99 133 172 217 278 347
#     4  10  22  38  53  71  99 136 178 226 280 335
#     4  10  20  35  57  84 115 147 182 226 271 323
#
# _framework density 17.409811000000001
#
# number of rings (size 3 to 8) (size 9 to 14) (size 15 to 20)
#    0.000    1.923    2.308    2.077    0.000    5.231 
#    0.000    2.308    0.000    0.462    0.000    3.231 
#    0.000    0.000    0.000    0.000    0.000    0.000 
#
# Total GULP energy -289845.098243 kJ/mol
# GULP energy per Si atom -5573.944197 kJ/mol
# Density = 1.737019 g / cm^3
# Si number density = 17.409811 Si / 1000 Ang^3
#
#
#
# Elastic Constant Matrix: (Units=GPa)
#
#
# Indices 1 2 3 4 5 6 
#
# 1 55.4743 47.0756 44.1146 0.0000 0.0000 0.0000
# 2 47.0756 103.0958 56.8424 0.0000 0.0000 0.0000
# 3 44.1146 56.8424 93.5034 0.0000 0.0000 0.0000
# 4 0.0000 0.0000 0.0000 29.6115 0.0000 0.0000
# 5 0.0000 0.0000 0.0000 0.0000 33.9394 0.0000
# 6 0.0000 0.0000 0.0000 0.0000 0.0000 25.6467
#
#
#
# Elastic Compliance Matrix: (Units=1/GPa)
#
#
# Indices 1 2 3 4 5 6 
#
# 1 0.034875 -0.010307 -0.010188 0.000000 0.000000 0.000000
# 2 -0.010307 0.017636 -0.005858 0.000000 0.000000 0.000000
# 3 -0.010188 -0.005858 0.019063 0.000000 0.000000 0.000000
# 4 0.000000 0.000000 0.000000 0.033771 0.000000 0.000000
# 5 0.000000 0.000000 0.000000 0.000000 0.029464 0.000000
# 6 0.000000 0.000000 0.000000 0.000000 0.000000 0.038991
#
#
# Mechanical properties :
#
#
# Convention : Reuss Voigt Hill
#
# Bulk Modulus (GPa) = 53.00342 60.90430 56.95386
# Shear Modulus (GPa) = 21.47797 24.77558 23.12677
#
# Velocity S-wave (km/s) = 3.51617 3.77647 3.64864
# Velocity P-wave (km/s) = 6.85531 7.35352 7.10878
#
# Compressibility (1/GPa) = 0.01886671
#
# Stress axis : x y z
#
# Youngs Moduli (GPa) = 28.67395 56.70090 52.45820
#
# Poissons Ratio (x) = 0.58444 0.53443
# Poissons Ratio (y) = 0.29556 0.30732
# Poissons Ratio (z) = 0.29212 0.33218
#
# Static dielectric constant tensor:
#      x y z
#    x 1.591660 0.000000 0.000000 
#    y 0.000000 1.623030 0.000000 
#    z 0.000000 0.000000 1.580620 
# 
# From -- ./inp_files/7046.got.cif
#   From: 2010.05.17/outbox.cif.g08.bks.cpg/sg47_4_cif.got.tgz:7046.got - 2010.06.03 20:15:42.
