data_PCOD9386564
_publ_section_title
;
Structure prediction by ZEFSAII (Michael W. Deem and Ramdas Pophale) SiO2 
 PCOD9386564
Probable space group: P M M M
;
_chemical_formula_sum "Si O2"
_cell_formula_units_Z 48
_cell_length_a 8.764726
_cell_length_b 15.433779
_cell_length_c 19.455026
_cell_angle_alpha 90.000000
_cell_angle_beta 90.000000
_cell_angle_gamma 90.000000
_cell_volume 2631.736699
_symmetry_space_group_name_H-M "P M M M"
_symmetry_group_IT_number 47
_symmetry_cell_setting 'orthorhombic'
loop_
_space_group_symop_operation_xyz
x,y,z
-x,-y,z
x,-y,-z
-x,y,-z
-x,-y,-z
x,y,-z
-x,y,z
x,-y,z
loop_
_atom_site_type_symbol
_atom_site_label
_atom_site_fract_x
_atom_site_fract_y
_atom_site_fract_z
Si Si1 0.183947 0.847584 0.180417
Si Si2 0.185770 0.000000 0.078428
Si Si3 0.317475 0.599986 0.324462
Si Si4 0.317138 0.500000 0.080097
Si Si5 0.317303 0.100267 0.328148
Si Si6 0.817226 0.647520 0.824456
Si Si7 0.817192 0.251419 0.580215
O O1 0.258846 0.873297 0.252599
O O2 0.220626 0.748268 0.162924
O O3 0.000000 0.853713 0.188453
O O4 0.231407 0.915249 0.121662
O O5 0.000000 0.000000 0.076381
O O6 0.240386 0.000000 0.000000
O O7 0.500000 0.609717 0.320500
O O8 0.282534 0.500000 0.341561
O O9 0.247181 0.621655 0.250128
O O10 0.251315 0.666649 0.379577
O O11 0.500000 0.500000 0.085610
O O12 0.252322 0.583767 0.119188
O O13 0.274351 0.500000 0.000000
O O14 0.500000 0.108427 0.330245
O O15 0.244403 0.165437 0.382716
O O16 0.276385 0.000000 0.340962
O O17 0.000000 0.638324 0.823764
O O18 0.775537 0.252861 0.500000
O O19 0.000000 0.253638 0.586240
#
# Coordination Sequence:
#
# PCOD9386564 Si02
#       7
#     8   4   8   4   8   8   8
#     4  10  20  35  60  90 119 156 200 247 299 360
#     4   9  18  34  57  87 122 157 194 241 295 352
#     4  11  23  39  63  92 123 160 201 248 300 364
#     4  11  25  43  61  85 122 167 210 257 315 367
#     4  11  23  38  61  91 121 159 204 250 302 365
#     4  11  22  36  61  93 121 157 205 255 305 363
#     4  11  25  43  63  90 124 160 201 252 306 359
#
# _framework density 18.238907000000001
#
# number of rings (size 3 to 8) (size 9 to 14) (size 15 to 20)
#    0.000    1.333    3.333    2.250    0.000    6.000 
#    0.000    5.000    0.000    1.000    0.000    0.000 
#    0.000    0.000    0.000    0.000    0.000    0.000 
#
# Total GULP energy -268313.892560 kJ/mol
# GULP energy per Si atom -5589.872762 kJ/mol
# Density = 1.819739 g / cm^3
# Si number density = 18.238907 Si / 1000 Ang^3
#
#
#
# Elastic Constant Matrix: (Units=GPa)
#
#
# Indices 1 2 3 4 5 6 
#
# 1 49.9274 71.7041 62.0244 0.0000 0.0000 0.0000
# 2 71.7041 208.0445 124.4186 0.0000 0.0000 0.0000
# 3 62.0244 124.4186 192.7710 0.0000 0.0000 0.0000
# 4 0.0000 0.0000 0.0000 33.8867 0.0000 0.0000
# 5 0.0000 0.0000 0.0000 0.0000 -575.8270 0.0000
# 6 0.0000 0.0000 0.0000 0.0000 0.0000 28.1413
#
#
#
# Elastic Compliance Matrix: (Units=1/GPa)
#
#
# Indices 1 2 3 4 5 6 
#
# 1 0.045212 -0.011210 -0.007312 0.000000 0.000000 0.000000
# 2 -0.011210 0.010608 -0.003240 0.000000 0.000000 0.000000
# 3 -0.007312 -0.003240 0.009631 0.000000 0.000000 0.000000
# 4 0.000000 0.000000 0.000000 0.029510 0.000000 0.000000
# 5 0.000000 0.000000 0.000000 0.000000 -0.001737 0.000000
# 6 0.000000 0.000000 0.000000 0.000000 0.000000 0.035535
#
#
# Mechanical properties :
#
#
# Convention : Reuss Voigt Hill
#
# Bulk Modulus (GPa) = 45.60427 107.44857 76.52642
# Shear Modulus (GPa) = 27.84107 -89.92008 -31.03951
#
# Velocity S-wave (km/s) = 3.91124 -7.02910 -4.12980
# Velocity P-wave (km/s) = 6.74205 2.61497 4.39415
#
# Compressibility (1/GPa) = 0.02192777
#
# Stress axis : x y z
#
# Youngs Moduli (GPa) = 22.11815 94.27189 103.83074
#
# Poissons Ratio (x) = 1.05677 0.75920
# Poissons Ratio (y) = 0.24794 0.33637
# Poissons Ratio (z) = 0.16173 0.30541
#
# Static dielectric constant tensor:
#      x y z
#    x 1.613000 0.000000 0.000000 
#    y 0.000000 1.619300 0.000000 
#    z 0.000000 0.000000 1.585030 
# 
# From -- ./inp_files/6469.got.cif
#   From: 2010.05.17/outbox.cif.g08.bks.cpg/sg47_4_cif.got.tgz:6469.got - 2010.06.03 20:15:42.
