data_PCOD9386270
_publ_section_title
;
Structure prediction by ZEFSAII (Michael W. Deem and Ramdas Pophale) SiO2 
 PCOD9386270
Probable space group: P M M M
;
_chemical_formula_sum "Si O2"
_cell_formula_units_Z 52
_cell_length_a 15.705637
_cell_length_b 9.799414
_cell_length_c 16.497957
_cell_angle_alpha 90.000000
_cell_angle_beta 90.000000
_cell_angle_gamma 90.000000
_cell_volume 2539.135215
_symmetry_space_group_name_H-M "P M M M"
_symmetry_group_IT_number 47
_symmetry_cell_setting 'orthorhombic'
loop_
_space_group_symop_operation_xyz
x,y,z
-x,-y,z
x,-y,-z
-x,y,-z
-x,-y,-z
x,y,-z
-x,y,z
x,-y,z
loop_
_atom_site_type_symbol
_atom_site_label
_atom_site_fract_x
_atom_site_fract_y
_atom_site_fract_z
Si Si1 0.000000 0.841249 0.341396
Si Si2 0.000000 0.661120 0.184066
Si Si3 0.500000 0.157657 0.400338
Si Si4 0.713900 0.151005 0.191414
Si Si5 0.345832 0.346217 0.594342
Si Si6 0.601830 0.659547 0.907587
Si Si7 0.875656 0.149500 0.094575
Si Si8 0.195069 0.156991 0.636192
O O1 0.905838 0.825153 0.380736
O O2 0.000000 0.730303 0.271257
O O3 0.000000 0.000000 0.313053
O O4 0.079788 0.724976 0.137395
O O5 0.000000 0.500000 0.186673
O O6 0.500000 0.153216 0.500000
O O7 0.583135 0.242003 0.372090
O O8 0.500000 0.000000 0.373742
O O9 0.644884 0.261427 0.166812
O O10 0.776886 0.152840 0.114720
O O11 0.776811 0.170052 0.268748
O O12 0.675878 0.000000 0.201027
O O13 0.368446 0.360720 0.500000
O O14 0.345285 0.500000 0.629620
O O15 0.255081 0.270906 0.597591
O O16 0.500000 0.671158 0.901854
O O17 0.624791 0.500000 0.902793
O O18 0.624805 0.706362 0.000000
O O19 0.905383 0.000000 0.125568
O O20 0.893057 0.154822 0.000000
O O21 0.216678 0.000000 0.612238
#
# Coordination Sequence:
#
# PCOD9386270 Si02
#       8
#     4   4   4   8   8   8   8   8
#     4  10  20  41  64  79 108 153 196 237 290 348
#     4  12  23  33  50  76 107 139 178 230 281 334
#     4   9  17  33  61  93 123 155 192 231 270 321
#     4  10  20  35  56  81 106 137 183 235 285 334
#     4  10  21  38  61  91 127 161 191 228 281 345
#     4   9  19  36  55  75 105 147 189 230 283 345
#     4  10  20  35  54  74 102 141 181 225 280 337
#     4  10  21  38  62  86 111 149 196 245 290 342
#
# _framework density 20.479414999999999
#
# number of rings (size 3 to 8) (size 9 to 14) (size 15 to 20)
#    0.000    2.077    1.538    2.538    0.000    6.154 
#    1.385    1.154    0.000    2.308    0.000    0.000 
#    0.000    0.000    0.000    0.000    0.000    0.000 
#
# Total GULP energy -289786.865079 kJ/mol
# GULP energy per Si atom -5572.824328 kJ/mol
# Density = 2.043280 g / cm^3
# Si number density = 20.479415 Si / 1000 Ang^3
#
#
#
# Elastic Constant Matrix: (Units=GPa)
#
#
# Indices 1 2 3 4 5 6 
#
# 1 82.5849 61.8084 6.1819 0.0000 0.0000 0.0000
# 2 61.8084 151.9398 18.0629 0.0000 0.0000 0.0000
# 3 6.1819 18.0629 16.8293 0.0000 0.0000 0.0000
# 4 0.0000 0.0000 0.0000 23.4705 0.0000 0.0000
# 5 0.0000 0.0000 0.0000 0.0000 25.2702 0.0000
# 6 0.0000 0.0000 0.0000 0.0000 0.0000 27.2588
#
#
#
# Elastic Compliance Matrix: (Units=1/GPa)
#
#
# Indices 1 2 3 4 5 6 
#
# 1 0.017437 -0.007258 0.001385 0.000000 0.000000 0.000000
# 2 -0.007258 0.010565 -0.008674 0.000000 0.000000 0.000000
# 3 0.001385 -0.008674 0.068221 0.000000 0.000000 0.000000
# 4 0.000000 0.000000 0.000000 0.042607 0.000000 0.000000
# 5 0.000000 0.000000 0.000000 0.000000 0.039572 0.000000
# 6 0.000000 0.000000 0.000000 0.000000 0.000000 0.036685
#
#
# Mechanical properties :
#
#
# Convention : Reuss Voigt Hill
#
# Bulk Modulus (GPa) = 14.89651 47.05116 30.97383
# Shear Modulus (GPa) = 18.75766 26.21995 22.48881
#
# Velocity S-wave (km/s) = 3.02971 3.58202 3.31738
# Velocity P-wave (km/s) = 4.41911 6.33503 5.46174
#
# Compressibility (1/GPa) = 0.06712983
#
# Stress axis : x y z
#
# Youngs Moduli (GPa) = 57.34890 94.65030 14.65824
#
# Poissons Ratio (x) = 0.68697 -0.02030
# Poissons Ratio (y) = 0.41624 0.12714
# Poissons Ratio (z) = -0.07942 0.82096
#
# Static dielectric constant tensor:
#      x y z
#    x 1.758340 0.000000 0.000000 
#    y 0.000000 1.724450 0.000000 
#    z 0.000000 0.000000 1.786170 
# 
# From -- ./inp_files/30936.got.cif
#   From: 2010.05.17/outbox.cif.g08.bks.cpg/sg47_16_cif.got.tgz:30936.got - 2010.06.03 20:15:42.
