data_PCOD9386095
_publ_section_title
;
Structure prediction by ZEFSAII (Michael W. Deem and Ramdas Pophale) SiO2 
 PCOD9386095
Probable space group: P M M M
;
_chemical_formula_sum "Si O2"
_cell_formula_units_Z 52
_cell_length_a 15.234274
_cell_length_b 8.868717
_cell_length_c 21.134702
_cell_angle_alpha 90.000000
_cell_angle_beta 90.000000
_cell_angle_gamma 90.000000
_cell_volume 2855.477141
_symmetry_space_group_name_H-M "P M M M"
_symmetry_group_IT_number 47
_symmetry_cell_setting 'orthorhombic'
loop_
_space_group_symop_operation_xyz
x,y,z
-x,-y,z
x,-y,-z
-x,y,-z
-x,-y,-z
x,y,-z
-x,y,z
x,-y,z
loop_
_atom_site_type_symbol
_atom_site_label
_atom_site_fract_x
_atom_site_fract_y
_atom_site_fract_z
Si Si1 0.096405 0.821914 0.908197
Si Si2 0.705412 0.182571 0.929871
Si Si3 0.603271 0.682503 0.190942
Si Si4 0.095697 0.671700 0.223286
Si Si5 0.500000 0.331886 0.576099
Si Si6 0.269110 0.676728 0.304330
Si Si7 0.682739 0.820645 0.428047
O O1 0.192003 0.766174 0.930038
O O2 0.098914 0.788924 0.833590
O O3 0.000000 0.761408 0.929291
O O4 0.095199 0.000000 0.921920
O O5 0.652392 0.252212 0.871088
O O6 0.705099 0.000000 0.922935
O O7 0.668736 0.218442 0.000000
O O8 0.500000 0.723997 0.192539
O O9 0.609061 0.500000 0.188169
O O10 0.655554 0.729871 0.254842
O O11 0.101678 0.500000 0.196595
O O12 0.177532 0.691220 0.268122
O O13 0.000000 0.683785 0.254670
O O14 0.500000 0.500000 0.603933
O O15 0.500000 0.345196 0.500000
O O16 0.587102 0.241646 0.591021
O O17 0.286417 0.500000 0.317307
O O18 0.260026 0.760728 0.370711
O O19 0.702830 0.767544 0.500000
O O20 0.681792 0.000000 0.429388
#
# Coordination Sequence:
#
# PCOD9386095 Si02
#       7
#     8   8   8   8   4   8   8
#     4   9  17  30  50  76 105 136 170 211 263 322
#     4  10  21  36  54  77 106 140 178 220 265 316
#     4  10  22  39  56  77 105 137 178 225 268 311
#     4   9  17  31  53  79 105 133 169 217 269 317
#     4   9  17  31  51  73 101 139 178 213 254 307
#     4  10  20  34  55  80 105 137 176 219 268 321
#     4  10  21  35  51  76 110 144 179 219 263 314
#
# _framework density 18.210616000000002
#
# number of rings (size 3 to 8) (size 9 to 14) (size 15 to 20)
#    0.000    2.385    1.538    0.692    1.077    4.308 
#    0.000    3.077    0.000    0.462    0.000    6.462 
#    0.000    0.000    0.000    0.000    0.000    0.000 
#
# Total GULP energy -289616.706728 kJ/mol
# GULP energy per Si atom -5569.552052 kJ/mol
# Density = 1.816917 g / cm^3
# Si number density = 18.210616 Si / 1000 Ang^3
#
#
#
# Elastic Constant Matrix: (Units=GPa)
#
#
# Indices 1 2 3 4 5 6 
#
# 1 94.9092 21.0035 41.7195 0.0000 0.0000 0.0000
# 2 21.0035 23.8545 35.6228 0.0000 0.0000 0.0000
# 3 41.7195 35.6228 112.2341 0.0000 0.0000 0.0000
# 4 0.0000 0.0000 0.0000 10.5488 0.0000 0.0000
# 5 0.0000 0.0000 0.0000 0.0000 0.1642 0.0000
# 6 0.0000 0.0000 0.0000 0.0000 0.0000 22.4773
#
#
#
# Elastic Compliance Matrix: (Units=1/GPa)
#
#
# Indices 1 2 3 4 5 6 
#
# 1 0.013405 -0.008292 -0.002351 0.000000 0.000000 0.000000
# 2 -0.008292 0.084824 -0.023840 0.000000 0.000000 0.000000
# 3 -0.002351 -0.023840 0.017351 0.000000 0.000000 0.000000
# 4 0.000000 0.000000 0.000000 0.094798 0.000000 0.000000
# 5 0.000000 0.000000 0.000000 0.000000 6.088586 0.000000
# 6 0.000000 0.000000 0.000000 0.000000 0.000000 0.044489
#
#
# Mechanical properties :
#
#
# Convention : Reuss Voigt Hill
#
# Bulk Modulus (GPa) = 21.45356 47.52106 34.48731
# Shear Modulus (GPa) = 0.77785 15.48153 8.12969
#
# Velocity S-wave (km/s) = 0.65427 2.91888 2.11517
# Velocity P-wave (km/s) = 3.51812 6.12468 4.99444
#
# Compressibility (1/GPa) = 0.04661231
#
# Stress axis : x y z
#
# Youngs Moduli (GPa) = 74.59997 11.78918 57.63433
#
# Poissons Ratio (x) = 0.09776 0.13550
# Poissons Ratio (y) = 0.61858 1.37403
# Poissons Ratio (z) = 0.17538 0.28106
#
# Static dielectric constant tensor:
#      x y z
#    x 1.661980 0.000000 0.000000 
#    y 0.000000 1.634410 0.000000 
#    z 0.000000 0.000000 1.632500 
# 
# From -- ./inp_files/6946.got.cif
#   From: 2010.05.17/outbox.cif.g08.bks.cpg/sg47_4_cif.got.tgz:6946.got - 2010.06.03 20:15:42.
