data_PCOD9386519
_publ_section_title
;
Structure prediction by ZEFSAII (Michael W. Deem and Ramdas Pophale) SiO2 
 PCOD9386519
Probable space group: P M M M
;
_chemical_formula_sum "Si O2"
_cell_formula_units_Z 44
_cell_length_a 7.932697
_cell_length_b 30.829024
_cell_length_c 9.560697
_cell_angle_alpha 90.000000
_cell_angle_beta 90.000000
_cell_angle_gamma 90.000000
_cell_volume 2338.138304
_symmetry_space_group_name_H-M "P M M M"
_symmetry_group_IT_number 47
_symmetry_cell_setting 'orthorhombic'
loop_
_space_group_symop_operation_xyz
x,y,z
-x,-y,z
x,-y,-z
-x,y,-z
-x,-y,-z
x,y,-z
-x,y,z
x,-y,z
loop_
_atom_site_type_symbol
_atom_site_label
_atom_site_fract_x
_atom_site_fract_y
_atom_site_fract_z
Si Si1 0.500000 0.049431 0.169910
Si Si2 0.698429 0.191860 0.661032
Si Si3 0.799576 0.726246 0.161400
Si Si4 0.810216 0.110138 0.165834
Si Si5 0.703941 0.370031 0.839115
Si Si6 0.705730 0.547946 0.662379
O O1 0.666727 0.076182 0.210128
O O2 0.500000 0.000000 0.221088
O O3 0.500000 0.047821 0.000000
O O4 0.755884 0.194170 0.500000
O O5 0.500000 0.181383 0.661736
O O6 0.723144 0.237366 0.739522
O O7 0.789715 0.154163 0.747360
O O8 0.760997 0.677357 0.210279
O O9 0.000000 0.732457 0.159445
O O10 0.737339 0.730217 0.000000
O O11 0.000000 0.092966 0.183003
O O12 0.785835 0.119595 0.000000
O O13 0.500000 0.370292 0.836753
O O14 0.765018 0.410928 0.750130
O O15 0.759358 0.374511 0.000000
O O16 0.753931 0.552054 0.500000
O O17 0.500000 0.548278 0.666827
O O18 0.758952 0.500000 0.712801
#
# Coordination Sequence:
#
# PCOD9386519 Si02
#       6
#     4   8   8   8   8   8
#     4   9  18  34  57  87 121 153 189 237 284 325
#     4  11  23  37  55  80 109 142 181 225 273 325
#     4  10  21  36  53  74 102 137 175 215 264 322
#     4  10  20  35  58  86 115 151 191 230 279 334
#     4   9  17  29  46  69  95 123 158 203 254 307
#     4   8  14  25  42  65  92 121 155 199 251 305
#
# _framework density 18.818390000000001
#
# number of rings (size 3 to 8) (size 9 to 14) (size 15 to 20)
#    0.000    2.455    0.909    2.182    0.000    6.182 
#    0.000    5.455    0.000    1.636    0.000    5.091 
#    0.000    0.000    0.000    0.000    0.000    0.000 
#
# Total GULP energy -245498.118382 kJ/mol
# GULP energy per Si atom -5579.502691 kJ/mol
# Density = 1.877556 g / cm^3
# Si number density = 18.818390 Si / 1000 Ang^3
#
#
#
# Elastic Constant Matrix: (Units=GPa)
#
#
# Indices 1 2 3 4 5 6 
#
# 1 63.4035 39.7785 28.9057 0.0000 0.0000 0.0000
# 2 39.7785 156.3191 68.1590 0.0000 0.0000 0.0000
# 3 28.9057 68.1590 62.5129 0.0000 0.0000 0.0000
# 4 0.0000 0.0000 0.0000 -28.3450 0.0000 0.0000
# 5 0.0000 0.0000 0.0000 0.0000 10.0802 0.0000
# 6 0.0000 0.0000 0.0000 0.0000 0.0000 -5.8295
#
#
#
# Elastic Compliance Matrix: (Units=1/GPa)
#
#
# Indices 1 2 3 4 5 6 
#
# 1 0.020323 -0.002048 -0.007165 0.000000 0.000000 0.000000
# 2 -0.002048 0.012401 -0.012574 0.000000 0.000000 0.000000
# 3 -0.007165 -0.012574 0.033019 0.000000 0.000000 0.000000
# 4 0.000000 0.000000 0.000000 -0.035280 0.000000 0.000000
# 5 0.000000 0.000000 0.000000 0.000000 0.099204 0.000000
# 6 0.000000 0.000000 0.000000 0.000000 0.000000 -0.171542
#
#
# Mechanical properties :
#
#
# Convention : Reuss Voigt Hill
#
# Bulk Modulus (GPa) = 45.10512 61.76909 53.43710
# Shear Modulus (GPa) = 550.14107 4.87397 277.50752
#
# Velocity S-wave (km/s) = 17.11657 1.61110 12.15674
# Velocity P-wave (km/s) = 20.36312 6.02958 15.01686
#
# Compressibility (1/GPa) = 0.02217043
#
# Stress axis : x y z
#
# Youngs Moduli (GPa) = 49.20527 80.63983 30.28528
#
# Poissons Ratio (x) = 0.16512 0.21699
# Poissons Ratio (y) = 0.10075 0.38081
# Poissons Ratio (z) = 0.35254 1.01397
#
# Static dielectric constant tensor:
#      x y z
#    x 1.682050 0.000000 0.000000 
#    y 0.000000 1.627340 0.000000 
#    z 0.000000 0.000000 1.636000 
# 
# From -- ./inp_files/2321.got.cif
#   From: 2010.05.17/outbox.cif.g08.bks.cpg/sg47_2_cif.got.tgz:2321.got - 2010.06.03 20:15:42.
