data_PCOD9386311
_publ_section_title
;
Structure prediction by ZEFSAII (Michael W. Deem and Ramdas Pophale) SiO2 
 PCOD9386311
Probable space group: P M M M
;
_chemical_formula_sum "Si O2"
_cell_formula_units_Z 44
_cell_length_a 10.004254
_cell_length_b 8.072151
_cell_length_c 27.728788
_cell_angle_alpha 90.000000
_cell_angle_beta 90.000000
_cell_angle_gamma 90.000000
_cell_volume 2239.261815
_symmetry_space_group_name_H-M "P M M M"
_symmetry_group_IT_number 47
_symmetry_cell_setting 'orthorhombic'
loop_
_space_group_symop_operation_xyz
x,y,z
-x,-y,z
x,-y,-z
-x,y,-z
-x,-y,-z
x,y,-z
-x,y,z
x,-y,z
loop_
_atom_site_type_symbol
_atom_site_label
_atom_site_fract_x
_atom_site_fract_y
_atom_site_fract_z
Si Si1 0.156782 0.798111 0.500000
Si Si2 0.000000 0.300930 0.055642
Si Si3 0.847841 0.696243 0.217993
Si Si4 0.655922 0.202642 0.590193
Si Si5 0.252894 0.196368 0.117599
Si Si6 0.500000 0.796584 0.944746
Si Si7 0.846934 0.802785 0.675405
O O1 0.245951 0.748573 0.546227
O O2 0.000000 0.743092 0.500000
O O3 0.151242 0.000000 0.500000
O O4 0.125017 0.237898 0.085698
O O5 0.000000 0.500000 0.055729
O O6 0.000000 0.243932 0.000000
O O7 0.852059 0.500000 0.224484
O O8 0.760696 0.734925 0.171369
O O9 0.807737 0.771922 0.269181
O O10 0.000000 0.755795 0.207592
O O11 0.500000 0.256911 0.586553
O O12 0.734592 0.258769 0.638335
O O13 0.651236 0.000000 0.589999
O O14 0.374140 0.260812 0.085750
O O15 0.266281 0.000000 0.122446
O O16 0.500000 0.000000 0.945979
O O17 0.500000 0.741044 0.000000
O O18 0.000000 0.737109 0.668298
O O19 0.855288 0.000000 0.667724
#
# Coordination Sequence:
#
# PCOD9386311 Si02
#       7
#     4   4   8   8   8   4   8
#     4   9  15  23  39  65 100 139 176 213 262 318
#     4  11  23  37  55  83 117 147 179 222 269 322
#     4  10  20  35  55  78 107 138 173 221 273 323
#     4   9  16  26  41  66 100 136 172 217 267 314
#     4  11  21  36  60  84 108 141 182 226 273 324
#     4   9  20  38  57  81 111 139 173 220 269 320
#     4   9  17  30  49  71  97 131 175 217 257 311
#
# _framework density 19.649332999999999
#
# number of rings (size 3 to 8) (size 9 to 14) (size 15 to 20)
#    0.000    2.273    0.909    2.727    0.000    5.455 
#    1.636    1.818    0.000    3.273    0.000    0.636 
#    0.000    5.091    0.000    0.000    0.000    0.000 
#
# Total GULP energy -245408.808685 kJ/mol
# GULP energy per Si atom -5577.472925 kJ/mol
# Density = 1.960461 g / cm^3
# Si number density = 19.649333 Si / 1000 Ang^3
#
#
#
# Elastic Constant Matrix: (Units=GPa)
#
#
# Indices 1 2 3 4 5 6 
#
# 1 174.7599 -2.2156 103.5909 0.0000 0.0000 0.0000
# 2 -2.2156 8.0277 -1.7031 0.0000 0.0000 0.0000
# 3 103.5909 -1.7031 171.9576 0.0000 0.0000 0.0000
# 4 0.0000 0.0000 0.0000 -21.8030 0.0000 0.0000
# 5 0.0000 0.0000 0.0000 0.0000 31.8682 0.0000
# 6 0.0000 0.0000 0.0000 0.0000 0.0000 9.8547
#
#
#
# Elastic Compliance Matrix: (Units=1/GPa)
#
#
# Indices 1 2 3 4 5 6 
#
# 1 0.008914 0.001324 -0.005357 0.000000 0.000000 0.000000
# 2 0.001324 0.125027 0.000441 0.000000 0.000000 0.000000
# 3 -0.005357 0.000441 0.009047 0.000000 0.000000 0.000000
# 4 0.000000 0.000000 0.000000 -0.045865 0.000000 0.000000
# 5 0.000000 0.000000 0.000000 0.000000 0.031379 0.000000
# 6 0.000000 0.000000 0.000000 0.000000 0.000000 0.101474
#
#
# Mechanical properties :
#
#
# Convention : Reuss Voigt Hill
#
# Bulk Modulus (GPa) = 7.36359 61.56550 34.46454
# Shear Modulus (GPa) = 17.70354 20.98887 19.34620
#
# Velocity S-wave (km/s) = 3.00488 3.27184 3.14119
# Velocity P-wave (km/s) = 3.97426 6.75821 5.54383
#
# Compressibility (1/GPa) = 0.13580336
#
# Stress axis : x y z
#
# Youngs Moduli (GPa) = 112.17795 7.99828 110.53395
#
# Poissons Ratio (x) = -0.01059 0.59214
# Poissons Ratio (y) = -0.14850 -0.04873
# Poissons Ratio (z) = 0.60095 -0.00353
#
# Static dielectric constant tensor:
#      x y z
#    x 1.670860 0.000000 0.000000 
#    y 0.000000 1.692780 0.000000 
#    z 0.000000 0.000000 1.673110 
# 
# From -- ./inp_files/34001.got.cif
#   From: 2010.05.17/outbox.cif.g08.bks.cpg/sg47_18_cif.got.tgz:34001.got - 2010.06.03 20:15:42.
