data_PCOD9386956
_publ_section_title
;
Structure prediction by ZEFSAII (Michael W. Deem and Ramdas Pophale) SiO2 
 PCOD9386956
Probable space group: P M M M
;
_chemical_formula_sum "Si O2"
_cell_formula_units_Z 64
_cell_length_a 41.948667
_cell_length_b 10.236769
_cell_length_c 8.122333
_cell_angle_alpha 90.000000
_cell_angle_beta 90.000000
_cell_angle_gamma 90.000000
_cell_volume 3487.882603
_symmetry_space_group_name_H-M "P M M M"
_symmetry_group_IT_number 47
_symmetry_cell_setting 'orthorhombic'
loop_
_space_group_symop_operation_xyz
x,y,z
-x,-y,z
x,-y,-z
-x,y,-z
-x,-y,-z
x,y,-z
-x,y,z
x,-y,z
loop_
_atom_site_type_symbol
_atom_site_label
_atom_site_fract_x
_atom_site_fract_y
_atom_site_fract_z
Si Si1 0.160261 0.351342 0.803637
Si Si2 0.410234 0.648673 0.196361
Si Si3 0.463846 0.148672 0.698608
Si Si4 0.339473 0.351182 0.698136
Si Si5 0.089461 0.648814 0.301850
Si Si6 0.786115 0.148714 0.698564
Si Si7 0.036252 0.850442 0.701098
Si Si8 0.713711 0.149507 0.298858
O O1 0.166094 0.500000 0.741866
O O2 0.125391 0.309837 0.740818
O O3 0.187851 0.252394 0.753363
O O4 0.158928 0.355840 0.000000
O O5 0.416010 0.500000 0.258169
O O6 0.437891 0.747350 0.246446
O O7 0.375382 0.690436 0.259133
O O8 0.408903 0.644096 0.000000
O O9 0.464086 0.147562 0.500000
O O10 0.500000 0.180461 0.753617
O O11 0.456524 0.000000 0.753364
O O12 0.336986 0.354774 0.500000
O O13 0.335093 0.500000 0.759697
O O14 0.312615 0.251827 0.759906
O O15 0.086944 0.645218 0.500000
O O16 0.085030 0.500000 0.240365
O O17 0.062663 0.748486 0.240178
O O18 0.785928 0.147136 0.500000
O O19 0.749952 0.181542 0.752265
O O20 0.793222 0.000000 0.753999
O O21 0.036693 0.849160 0.500000
O O22 0.000000 0.817215 0.750663
O O23 0.042924 0.000000 0.751329
O O24 0.713370 0.151341 0.500000
O O25 0.706779 0.000000 0.249451
#
# Coordination Sequence:
#
# PCOD9386956 Si02
#       8
#     8   8   8   8   8   8   8   8
#     4  10  21  35  49  68  97 131 165 201 242 288
#     4  10  21  35  50  72 104 138 169 202 242 289
#     4   9  19  36  56  77 100 127 163 207 252 297
#     4   9  17  30  49  72  97 127 164 202 239 282
#     4   9  17  29  46  68  92 119 154 195 236 279
#     4   9  18  33  53  76 100 126 159 200 245 293
#     4   8  14  25  42  66  94 119 145 184 234 283
#     4   8  15  29  49  73  98 122 153 197 245 289
#
# _framework density 18.349240999999999
#
# number of rings (size 3 to 8) (size 9 to 14) (size 15 to 20)
#    0.000    3.000    0.000    2.250    0.000    4.250 
#    0.000    7.500    0.000    2.625    0.000    2.625 
#    0.000    0.000    0.000    0.000    0.000    0.000 
#
# Total GULP energy -356767.400707 kJ/mol
# GULP energy per Si atom -5574.490636 kJ/mol
# Density = 1.830748 g / cm^3
# Si number density = 18.349241 Si / 1000 Ang^3
#
#
#
# Elastic Constant Matrix: (Units=GPa)
#
#
# Indices 1 2 3 4 5 6 
#
# 1 184.0608 134.3836 10.0413 0.0000 0.0000 0.0000
# 2 134.3836 122.1109 10.3425 0.0000 0.0000 0.0000
# 3 10.0413 10.3425 9.3611 0.0000 0.0000 0.0000
# 4 0.0000 0.0000 0.0000 13.4425 0.0000 0.0000
# 5 0.0000 0.0000 0.0000 0.0000 -30.5009 0.0000
# 6 0.0000 0.0000 0.0000 0.0000 0.0000 43.1267
#
#
#
# Elastic Compliance Matrix: (Units=1/GPa)
#
#
# Indices 1 2 3 4 5 6 
#
# 1 0.027809 -0.030976 0.004394 0.000000 0.000000 0.000000
# 2 -0.030976 0.043539 -0.014876 0.000000 0.000000 0.000000
# 3 0.004394 -0.014876 0.118548 0.000000 0.000000 0.000000
# 4 0.000000 0.000000 0.000000 0.074391 0.000000 0.000000
# 5 0.000000 0.000000 0.000000 0.000000 -0.032786 0.000000
# 6 0.000000 0.000000 0.000000 0.000000 0.000000 0.023187
#
#
# Mechanical properties :
#
#
# Convention : Reuss Voigt Hill
#
# Bulk Modulus (GPa) = 9.34765 69.45196 39.39981
# Shear Modulus (GPa) = 13.39526 15.93134 14.66330
#
# Velocity S-wave (km/s) = 2.70481 2.94977 2.82994
# Velocity P-wave (km/s) = 3.85487 7.03802 5.67423
#
# Compressibility (1/GPa) = 0.10697872
#
# Stress axis : x y z
#
# Youngs Moduli (GPa) = 35.95918 22.96792 8.43540
#
# Poissons Ratio (x) = 0.71146 -0.03707
# Poissons Ratio (y) = 1.11389 0.12549
# Poissons Ratio (z) = -0.15800 0.34168
#
# Static dielectric constant tensor:
#      x y z
#    x 1.605960 0.000000 0.000000 
#    y 0.000000 1.635250 0.000000 
#    z 0.000000 0.000000 1.641180 
# 
# From -- ./inp_files/14175.got.cif
#   From: 2010.05.17/outbox.cif.g08.bks.cpg/sg47_8_cif.got.tgz:14175.got - 2010.06.03 20:15:42.
