data_PCOD9386562
_publ_section_title
;
Structure prediction by ZEFSAII (Michael W. Deem and Ramdas Pophale) SiO2 
 PCOD9386562
Probable space group: P M M M
;
_chemical_formula_sum "Si O2"
_cell_formula_units_Z 37
_cell_length_a 7.603894
_cell_length_b 17.960202
_cell_length_c 12.832113
_cell_angle_alpha 90.000000
_cell_angle_beta 90.000000
_cell_angle_gamma 90.000000
_cell_volume 1752.449236
_symmetry_space_group_name_H-M "P M M M"
_symmetry_group_IT_number 47
_symmetry_cell_setting 'orthorhombic'
loop_
_space_group_symop_operation_xyz
x,y,z
-x,-y,z
x,-y,-z
-x,y,-z
-x,-y,-z
x,y,-z
-x,y,z
x,-y,z
loop_
_atom_site_type_symbol
_atom_site_label
_atom_site_fract_x
_atom_site_fract_y
_atom_site_fract_z
Si Si1 0.201872 0.374403 0.723788
Si Si2 0.212579 0.915814 0.380204
Si Si3 0.204793 0.589305 0.500000
Si Si4 0.703918 0.787444 0.216188
Si Si5 0.000000 0.000000 0.000000
Si Si6 0.215587 0.500000 0.880749
Si Si7 0.287134 0.133189 0.000000
O O1 0.284651 0.383933 0.609283
O O2 0.201120 0.288498 0.754769
O O3 0.273722 0.427830 0.814225
O O4 0.000000 0.400486 0.711468
O O5 0.268411 0.902385 0.500000
O O6 0.271256 0.852534 0.301216
O O7 0.000000 0.915962 0.379409
O O8 0.269270 0.000000 0.350338
O O9 0.206799 0.500000 0.500000
O O10 0.000000 0.615805 0.500000
O O11 0.500000 0.767331 0.212937
O O12 0.751844 0.819934 0.103915
O O13 0.156176 0.935950 0.000000
O O14 0.000000 0.500000 0.886575
O O15 0.277457 0.500000 0.000000
O O16 0.500000 0.115431 0.000000
#
# Coordination Sequence:
#
# PCOD9386562 Si02
#       7
#     8   8   4   8   1   4   4
#     4  10  20  35  60  87 117 157 207 257 313 381
#     4   9  20  39  63  90 118 151 202 260 307 370
#     4   9  16  32  57  87 118 151 202 269 331 372
#     4  11  25  42  59  85 130 168 203 259 316 376
#     4  12  26  44  84  98 122 182 218 268 340 396
#     4   9  18  33  56  90 117 147 198 265 310 360
#     4  10  27  47  65 101 136 168 219 275 322 390
#
# _framework density 21.113309000000001
#
# number of rings (size 3 to 8) (size 9 to 14) (size 15 to 20)
#    0.000    2.162    1.081    1.459    7.568    0.865 
#    0.000    1.622    0.000    1.297    0.000    0.000 
#    0.000    0.000    0.000    0.000    0.000    0.000 
#
# Total GULP energy -206288.543151 kJ/mol
# GULP energy per Si atom -5575.366031 kJ/mol
# Density = 2.106525 g / cm^3
# Si number density = 21.113309 Si / 1000 Ang^3
#
#
#
# Elastic Constant Matrix: (Units=GPa)
#
#
# Indices 1 2 3 4 5 6 
#
# 1 49.4522 13.4621 20.2099 0.0000 0.0000 0.0000
# 2 13.4621 137.5048 101.7959 0.0000 0.0000 0.0000
# 3 20.2099 101.7959 197.8458 0.0000 0.0000 0.0000
# 4 0.0000 0.0000 0.0000 281.6649 0.0000 0.0000
# 5 0.0000 0.0000 0.0000 0.0000 3.7848 0.0000
# 6 0.0000 0.0000 0.0000 0.0000 0.0000 268.6770
#
#
#
# Elastic Compliance Matrix: (Units=1/GPa)
#
#
# Indices 1 2 3 4 5 6 
#
# 1 0.021152 -0.000761 -0.001769 0.000000 0.000000 0.000000
# 2 -0.000761 0.011774 -0.005980 0.000000 0.000000 0.000000
# 3 -0.001769 -0.005980 0.008312 0.000000 0.000000 0.000000
# 4 0.000000 0.000000 0.000000 0.003550 0.000000 0.000000
# 5 0.000000 0.000000 0.000000 0.000000 0.264215 0.000000
# 6 0.000000 0.000000 0.000000 0.000000 0.000000 0.003722
#
#
# Mechanical properties :
#
#
# Convention : Reuss Voigt Hill
#
# Bulk Modulus (GPa) = 41.29321 72.85982 57.07651
# Shear Modulus (GPa) = 14.80084 127.44768 71.12426
#
# Velocity S-wave (km/s) = 2.65055 7.77783 5.81034
# Velocity P-wave (km/s) = 5.38215 10.73515 8.49150
#
# Compressibility (1/GPa) = 0.02421706
#
# Stress axis : x y z
#
# Youngs Moduli (GPa) = 47.27749 84.93060 120.30549
#
# Poissons Ratio (x) = 0.06465 0.21282
# Poissons Ratio (y) = 0.03599 0.71947
# Poissons Ratio (z) = 0.08363 0.50792
#
# Static dielectric constant tensor:
#      x y z
#    x 1.799740 0.000000 0.000000 
#    y 0.000000 1.707120 0.000000 
#    z 0.000000 0.000000 1.767620 
# 
# From -- ./inp_files/14957.got.cif
#   From: 2010.05.17/outbox.cif.g08.bks.cpg/sg47_8_cif.got.tgz:14957.got - 2010.06.03 20:15:42.
