data_PCOD9386180
_publ_section_title
;
Structure prediction by ZEFSAII (Michael W. Deem and Ramdas Pophale) SiO2 
 PCOD9386180
Probable space group: P M M M
;
_chemical_formula_sum "Si O2"
_cell_formula_units_Z 56
_cell_length_a 15.368598
_cell_length_b 23.371032
_cell_length_c 8.483970
_cell_angle_alpha 90.000000
_cell_angle_beta 90.000000
_cell_angle_gamma 90.000000
_cell_volume 3047.272308
_symmetry_space_group_name_H-M "P M M M"
_symmetry_group_IT_number 47
_symmetry_cell_setting 'orthorhombic'
loop_
_space_group_symop_operation_xyz
x,y,z
-x,-y,z
x,-y,-z
-x,y,-z
-x,-y,-z
x,y,-z
-x,y,z
x,-y,z
loop_
_atom_site_type_symbol
_atom_site_label
_atom_site_fract_x
_atom_site_fract_y
_atom_site_fract_z
Si Si1 0.843393 0.434434 0.813466
Si Si2 0.905871 0.683108 0.689254
Si Si3 0.500000 0.433427 0.822632
Si Si4 0.601208 0.261055 0.811652
Si Si5 0.227601 0.221019 0.311990
Si Si6 0.894760 0.000000 0.319355
Si Si7 0.101637 0.876652 0.811953
Si Si8 0.668728 0.617719 0.683783
O O1 0.856004 0.500000 0.756014
O O2 0.897721 0.383109 0.736582
O O3 0.745653 0.412660 0.779212
O O4 0.859734 0.434606 0.000000
O O5 0.904184 0.686487 0.500000
O O6 0.825911 0.722356 0.746309
O O7 0.000000 0.705408 0.744860
O O8 0.500000 0.500000 0.845686
O O9 0.416829 0.417442 0.722168
O O10 0.500000 0.405795 0.000000
O O11 0.500000 0.251940 0.761347
O O12 0.676299 0.216453 0.762170
O O13 0.639804 0.319148 0.737095
O O14 0.600627 0.266190 0.000000
O O15 0.237532 0.225597 0.500000
O O16 0.164855 0.168576 0.269657
O O17 0.870864 0.941129 0.233721
O O18 0.864010 0.000000 0.500000
O O19 0.000000 0.000000 0.321606
O O20 0.000000 0.868733 0.763002
O O21 0.105658 0.869579 0.000000
O O22 0.693016 0.618544 0.500000
#
# Coordination Sequence:
#
# PCOD9386180 Si02
#       8
#     8   8   4   8   8   4   8   8
#     4  11  24  40  57  76 101 136 179 227 280 340
#     4  10  22  39  58  81 109 142 182 231 285 339
#     4  11  23  37  53  75 103 133 167 212 271 338
#     4  11  23  39  60  83 111 145 182 228 283 342
#     4  11  22  37  59  86 116 151 192 237 284 337
#     4   9  17  31  53  83 122 165 206 247 287 327
#     4  10  20  34  55  86 125 167 206 241 282 334
#     4  12  23  36  56  79 103 133 171 218 276 341
#
# _framework density 18.377092000000001
#
# number of rings (size 3 to 8) (size 9 to 14) (size 15 to 20)
#    0.000    1.286    2.143    4.286    0.000    7.714 
#    0.000    1.429    0.000    0.000    0.000    0.500 
#    0.000    4.000    0.000    0.000    0.000    0.000 
#
# Total GULP energy -312550.433395 kJ/mol
# GULP energy per Si atom -5581.257739 kJ/mol
# Density = 1.833526 g / cm^3
# Si number density = 18.377092 Si / 1000 Ang^3
#
#
#
# Elastic Constant Matrix: (Units=GPa)
#
#
# Indices 1 2 3 4 5 6 
#
# 1 106.7210 33.8759 3.9169 0.0000 0.0000 0.0000
# 2 33.8759 83.9000 3.2707 0.0000 0.0000 0.0000
# 3 3.9169 3.2707 31.1010 0.0000 0.0000 0.0000
# 4 0.0000 0.0000 0.0000 29.5665 0.0000 0.0000
# 5 0.0000 0.0000 0.0000 0.0000 24.7399 0.0000
# 6 0.0000 0.0000 0.0000 0.0000 0.0000 18.2386
#
#
#
# Elastic Compliance Matrix: (Units=1/GPa)
#
#
# Indices 1 2 3 4 5 6 
#
# 1 0.010773 -0.004315 -0.000903 0.000000 0.000000 0.000000
# 2 -0.004315 0.013696 -0.000897 0.000000 0.000000 0.000000
# 3 -0.000903 -0.000897 0.032361 0.000000 0.000000 0.000000
# 4 0.000000 0.000000 0.000000 0.033822 0.000000 0.000000
# 5 0.000000 0.000000 0.000000 0.000000 0.040420 0.000000
# 6 0.000000 0.000000 0.000000 0.000000 0.000000 0.054829
#
#
# Mechanical properties :
#
#
# Convention : Reuss Voigt Hill
#
# Bulk Modulus (GPa) = 22.42091 33.76100 28.09095
# Shear Modulus (GPa) = 23.47444 26.55291 25.01368
#
# Velocity S-wave (km/s) = 3.57792 3.80530 3.69336
# Velocity P-wave (km/s) = 5.41254 6.14151 5.78851
#
# Compressibility (1/GPa) = 0.04460123
#
# Stress axis : x y z
#
# Youngs Moduli (GPa) = 92.82556 73.01424 30.90108
#
# Poissons Ratio (x) = 0.31502 0.02790
# Poissons Ratio (y) = 0.40050 0.02772
# Poissons Ratio (z) = 0.08382 0.06549
#
# Static dielectric constant tensor:
#      x y z
#    x 1.698000 0.000000 0.000000 
#    y 0.000000 1.644820 0.000000 
#    z 0.000000 0.000000 1.645340 
# 
# From -- ./inp_files/7444.got.cif
#   From: 2010.05.17/outbox.cif.g08.bks.cpg/sg47_4_cif.got.tgz:7444.got - 2010.06.03 20:15:42.
