data_PCOD9386993
_publ_section_title
;
Structure prediction by ZEFSAII (Michael W. Deem and Ramdas Pophale) SiO2 
 PCOD9386993
Probable space group: P M M M
;
_chemical_formula_sum "Si O2"
_cell_formula_units_Z 64
_cell_length_a 13.169999
_cell_length_b 25.963434
_cell_length_c 7.419072
_cell_angle_alpha 90.000000
_cell_angle_beta 90.000000
_cell_angle_gamma 90.000000
_cell_volume 2536.865608
_symmetry_space_group_name_H-M "P M M M"
_symmetry_group_IT_number 47
_symmetry_cell_setting 'orthorhombic'
loop_
_space_group_symop_operation_xyz
x,y,z
-x,-y,z
x,-y,-z
-x,y,-z
-x,-y,-z
x,y,-z
-x,y,z
x,-y,z
loop_
_atom_site_type_symbol
_atom_site_label
_atom_site_fract_x
_atom_site_fract_y
_atom_site_fract_z
Si Si1 0.167179 0.944077 0.281025
Si Si2 0.834086 0.555487 0.781567
Si Si3 0.330336 0.193259 0.779850
Si Si4 0.608088 0.920557 0.709719
Si Si5 0.110449 0.328973 0.708442
Si Si6 0.609856 0.583755 0.220335
Si Si7 0.892883 0.169513 0.208767
Si Si8 0.338196 0.696207 0.206848
O O1 0.165793 0.941418 0.500000
O O2 0.284648 0.940166 0.217756
O O3 0.113514 0.892641 0.215404
O O4 0.126166 0.000000 0.228926
O O5 0.876355 0.500000 0.724906
O O6 0.882516 0.608653 0.717322
O O7 0.715123 0.557544 0.727426
O O8 0.839254 0.557508 0.000000
O O9 0.385043 0.141497 0.720271
O O10 0.213556 0.188434 0.715094
O O11 0.369118 0.248631 0.717232
O O12 0.331424 0.192656 0.000000
O O13 0.607574 0.935676 0.500000
O O14 0.500000 0.936847 0.788996
O O15 0.113657 0.313567 0.500000
O O16 0.214852 0.308360 0.792814
O O17 0.000000 0.313663 0.784319
O O18 0.500000 0.563133 0.276133
O O19 0.620669 0.643002 0.283956
O O20 0.610946 0.583113 0.000000
O O21 0.000000 0.185989 0.290932
O O22 0.893091 0.185362 0.000000
O O23 0.372200 0.696283 0.000000
#
# Coordination Sequence:
#
# PCOD9386993 Si02
#       8
#     8   8   8   8   8   8   8   8
#     4   9  18  32  49  69  93 122 158 199 239 280
#     4   9  18  32  50  72  96 125 163 202 239 281
#     4   9  18  32  50  72  97 125 158 197 238 280
#     4   9  18  32  49  70  97 128 160 194 235 283
#     4  10  21  35  50  70  97 128 160 195 239 289
#     4   8  14  26  45  70  98 123 150 188 231 274
#     4   9  18  32  48  67  93 124 157 193 237 290
#     4   9  18  32  51  74  97 124 159 197 235 276
#
# _framework density 25.227981
#
# number of rings (size 3 to 8) (size 9 to 14) (size 15 to 20)
#    0.000    3.000    0.000    1.125    0.000    4.500 
#    0.000    7.500    0.000    6.000    0.000    7.000 
#    0.000    0.000    0.000    0.000    0.000    0.000 
#
# Total GULP energy -357470.714825 kJ/mol
# GULP energy per Si atom -5585.479919 kJ/mol
# Density = 2.517056 g / cm^3
# Si number density = 25.227981 Si / 1000 Ang^3
#
#
#
# Elastic Constant Matrix: (Units=GPa)
#
#
# Indices 1 2 3 4 5 6 
#
# 1 135.4463 -6.5139 -0.8056 0.0000 0.0000 0.0000
# 2 -6.5139 127.3222 -8.8295 0.0000 0.0000 0.0000
# 3 -0.8056 -8.8295 88.1743 0.0000 0.0000 0.0000
# 4 0.0000 0.0000 0.0000 12.9959 0.0000 0.0000
# 5 0.0000 0.0000 0.0000 0.0000 6.6756 0.0000
# 6 0.0000 0.0000 0.0000 0.0000 0.0000 -15.3699
#
#
#
# Elastic Compliance Matrix: (Units=1/GPa)
#
#
# Indices 1 2 3 4 5 6 
#
# 1 0.007402 0.000386 0.000106 0.000000 0.000000 0.000000
# 2 0.000386 0.007929 0.000798 0.000000 0.000000 0.000000
# 3 0.000106 0.000798 0.011422 0.000000 0.000000 0.000000
# 4 0.000000 0.000000 0.000000 0.076948 0.000000 0.000000
# 5 0.000000 0.000000 0.000000 0.000000 0.149798 0.000000
# 6 0.000000 0.000000 0.000000 0.000000 0.000000 -0.065062
#
#
# Mechanical properties :
#
#
# Convention : Reuss Voigt Hill
#
# Bulk Modulus (GPa) = 34.09114 35.40498 34.74806
# Shear Modulus (GPa) = 25.55778 25.33310 25.44544
#
# Velocity S-wave (km/s) = 3.18633 3.17230 3.17932
# Velocity P-wave (km/s) = 5.20380 5.24237 5.22312
#
# Compressibility (1/GPa) = 0.02933314
#
# Stress axis : x y z
#
# Youngs Moduli (GPa) = 135.09501 126.11693 87.55033
#
# Poissons Ratio (x) = -0.04869 -0.00931
# Poissons Ratio (y) = -0.05216 -0.06982
# Poissons Ratio (z) = -0.01436 -0.10058
#
# Static dielectric constant tensor:
#      x y z
#    x 1.991240 0.000000 0.000000 
#    y 0.000000 1.966520 0.000000 
#    z 0.000000 0.000000 1.982330 
# 
# From -- ./inp_files/8307.got.cif
#   From: 2010.05.17/outbox.cif.g08.bks.cpg/sg47_5_cif.got.tgz:8307.got - 2010.06.03 20:15:42.
