data_PCOD9386928
_publ_section_title
;
Structure prediction by ZEFSAII (Michael W. Deem and Ramdas Pophale) SiO2 
 PCOD9386928
Probable space group: P M M M
;
_chemical_formula_sum "Si O2"
_cell_formula_units_Z 48
_cell_length_a 13.707849
_cell_length_b 25.155859
_cell_length_c 7.441113
_cell_angle_alpha 90.000000
_cell_angle_beta 90.000000
_cell_angle_gamma 90.000000
_cell_volume 2565.939211
_symmetry_space_group_name_H-M "P M M M"
_symmetry_group_IT_number 47
_symmetry_cell_setting 'orthorhombic'
loop_
_space_group_symop_operation_xyz
x,y,z
-x,-y,z
x,-y,-z
-x,y,-z
-x,-y,-z
x,y,-z
-x,y,z
x,-y,z
loop_
_atom_site_type_symbol
_atom_site_label
_atom_site_fract_x
_atom_site_fract_y
_atom_site_fract_z
Si Si1 0.686438 0.441755 0.717514
Si Si2 0.107935 0.396237 0.719688
Si Si3 0.114857 0.827511 0.281355
Si Si4 0.606768 0.327751 0.209106
Si Si5 0.883463 0.942750 0.717158
Si Si6 0.814177 0.715674 0.293858
O O1 0.684111 0.440971 0.500000
O O2 0.653818 0.500000 0.777416
O O3 0.798908 0.431124 0.773259
O O4 0.625037 0.391055 0.777763
O O5 0.108902 0.396012 0.500000
O O6 0.130457 0.335887 0.782635
O O7 0.000000 0.413346 0.775895
O O8 0.122325 0.829002 0.500000
O O9 0.153086 0.885231 0.218102
O O10 0.165559 0.773667 0.215483
O O11 0.000000 0.823624 0.238377
O O12 0.500000 0.315071 0.284093
O O13 0.700363 0.299504 0.293169
O O14 0.608035 0.313287 0.000000
O O15 0.873039 0.943195 0.500000
O O16 0.000000 0.942414 0.752536
O O17 0.845084 0.000000 0.783083
O O18 0.848640 0.718614 0.500000
#
# Coordination Sequence:
#
# PCOD9386928 Si02
#       6
#     8   8   8   8   8   8
#     4   9  18  31  47  68  88 104 127 159 192 227
#     4   8  13  22  38  60  84 107 129 154 184 218
#     4   8  12  18  32  56  84 113 143 170 194 226
#     4  10  21  35  48  60  76 101 130 161 203 251
#     4   7   9  13  22  41  75 116 147 166 188 221
#     4   9  16  26  42  63  83 103 132 169 203 233
#
# _framework density 18.706600000000002
#
# number of rings (size 3 to 8) (size 9 to 14) (size 15 to 20)
#    0.000    3.500    0.000    3.500    0.000    4.333 
#    0.000    3.333    0.000   12.500    0.000    4.667 
#    0.000    1.333    0.000   12.500    0.000    5.000 
#
# Total GULP energy -267287.436239 kJ/mol
# GULP energy per Si atom -5568.488255 kJ/mol
# Density = 1.866402 g / cm^3
# Si number density = 18.706600 Si / 1000 Ang^3
#
#
#
# Elastic Constant Matrix: (Units=GPa)
#
#
# Indices 1 2 3 4 5 6 
#
# 1 40.9337 -5.2230 -9.0680 0.0000 0.0000 0.0000
# 2 -5.2230 115.5449 -3.8947 0.0000 0.0000 0.0000
# 3 -9.0680 -3.8947 54.4419 0.0000 0.0000 0.0000
# 4 0.0000 0.0000 0.0000 -24.6919 0.0000 0.0000
# 5 0.0000 0.0000 0.0000 0.0000 15.6032 0.0000
# 6 0.0000 0.0000 0.0000 0.0000 0.0000 7.4336
#
#
#
# Elastic Compliance Matrix: (Units=1/GPa)
#
#
# Indices 1 2 3 4 5 6 
#
# 1 0.025560 0.001302 0.004350 0.000000 0.000000 0.000000
# 2 0.001302 0.008742 0.000842 0.000000 0.000000 0.000000
# 3 0.004350 0.000842 0.019153 0.000000 0.000000 0.000000
# 4 0.000000 0.000000 0.000000 -0.040499 0.000000 0.000000
# 5 0.000000 0.000000 0.000000 0.000000 0.064090 0.000000
# 6 0.000000 0.000000 0.000000 0.000000 0.000000 0.134525
#
#
# Mechanical properties :
#
#
# Convention : Reuss Voigt Hill
#
# Bulk Modulus (GPa) = 15.05024 19.39432 17.22228
# Shear Modulus (GPa) = 22.65228 14.94272 18.79750
#
# Velocity S-wave (km/s) = 3.48361 2.82936 3.17339
# Velocity P-wave (km/s) = 4.92378 4.58954 4.75959
#
# Compressibility (1/GPa) = 0.06644412
#
# Stress axis : x y z
#
# Youngs Moduli (GPa) = 39.12418 114.39170 52.21085
#
# Poissons Ratio (x) = -0.14894 -0.22714
# Poissons Ratio (y) = -0.05094 -0.04398
# Poissons Ratio (z) = -0.17021 -0.09635
#
# Static dielectric constant tensor:
#      x y z
#    x 1.619920 0.000000 0.000000 
#    y 0.000000 1.698550 0.000000 
#    z 0.000000 0.000000 1.752790 
# 
# From -- ./inp_files/16638.got.cif
#   From: 2010.05.17/outbox.cif.g08.bks.cpg/sg47_9_cif.got.tgz:16638.got - 2010.06.03 20:15:42.
