data_PCOD9386490
_publ_section_title
;
Structure prediction by ZEFSAII (Michael W. Deem and Ramdas Pophale) SiO2 
 PCOD9386490
Probable space group: P M M M
;
_chemical_formula_sum "Si O2"
_cell_formula_units_Z 64
_cell_length_a 14.852743
_cell_length_b 8.641669
_cell_length_c 25.814698
_cell_angle_alpha 90.000000
_cell_angle_beta 90.000000
_cell_angle_gamma 90.000000
_cell_volume 3313.380735
_symmetry_space_group_name_H-M "P M M M"
_symmetry_group_IT_number 47
_symmetry_cell_setting 'orthorhombic'
loop_
_space_group_symop_operation_xyz
x,y,z
-x,-y,z
x,-y,-z
-x,y,-z
-x,-y,-z
x,y,-z
-x,y,z
x,-y,z
loop_
_atom_site_type_symbol
_atom_site_label
_atom_site_fract_x
_atom_site_fract_y
_atom_site_fract_z
Si Si1 0.903619 0.816206 0.437246
Si Si2 0.101273 0.684075 0.212801
Si Si3 0.397421 0.684733 0.346100
Si Si4 0.713755 0.315090 0.942227
Si Si5 0.279089 0.814953 0.745678
Si Si6 0.898377 0.185054 0.903118
Si Si7 0.603779 0.186768 0.154509
Si Si8 0.293969 0.812609 0.560736
O O1 0.903157 0.804204 0.500000
O O2 0.805786 0.757117 0.420782
O O3 0.000000 0.750397 0.418892
O O4 0.904429 0.000000 0.425639
O O5 0.109167 0.500000 0.204853
O O6 0.180371 0.742913 0.249228
O O7 0.111424 0.766555 0.157051
O O8 0.000000 0.717448 0.231873
O O9 0.500000 0.731973 0.334955
O O10 0.391154 0.500000 0.342056
O O11 0.330828 0.762475 0.305263
O O12 0.368287 0.738608 0.403025
O O13 0.709462 0.500000 0.938593
O O14 0.816685 0.262460 0.933343
O O15 0.652412 0.244200 0.897283
O O16 0.684865 0.267370 0.000000
O O17 0.337898 0.763591 0.795675
O O18 0.271786 0.000000 0.746941
O O19 0.000000 0.230463 0.919475
O O20 0.890883 0.000000 0.907384
O O21 0.500000 0.239290 0.157826
O O22 0.603793 0.000000 0.154244
O O23 0.304493 0.775164 0.500000
O O24 0.296162 0.000000 0.564973
#
# Coordination Sequence:
#
# PCOD9386490 Si02
#       8
#     8   8   8   8   8   8   8   8
#     4   7  10  20  43  76 110 141 176 220 269 323
#     4  10  20  35  59  91 125 158 190 228 280 343
#     4  11  25  42  59  82 114 154 198 244 298 356
#     4  11  24  39  56  82 117 156 197 242 294 353
#     4  11  22  39  65  92 117 148 191 241 291 347
#     4  10  20  35  57  85 116 153 197 240 285 341
#     4  10  22  40  62  87 112 144 189 241 299 357
#     4   9  18  34  58  87 117 152 195 242 293 348
#
# _framework density 19.315619000000002
#
# number of rings (size 3 to 8) (size 9 to 14) (size 15 to 20)
#    0.000    2.125    1.250    3.375    0.000    5.750 
#    0.000    4.375    0.000    2.625    0.000    1.750 
#    0.000    0.000    0.000    0.000    0.000    0.000 
#
# Total GULP energy -357233.253046 kJ/mol
# GULP energy per Si atom -5581.769579 kJ/mol
# Density = 1.927166 g / cm^3
# Si number density = 19.315619 Si / 1000 Ang^3
#
#
#
# Elastic Constant Matrix: (Units=GPa)
#
#
# Indices 1 2 3 4 5 6 
#
# 1 94.7325 15.2360 34.1107 0.0000 0.0000 0.0000
# 2 15.2360 14.1445 11.0377 0.0000 0.0000 0.0000
# 3 34.1107 11.0377 60.8060 0.0000 0.0000 0.0000
# 4 0.0000 0.0000 0.0000 26.9924 0.0000 0.0000
# 5 0.0000 0.0000 0.0000 0.0000 9.3840 0.0000
# 6 0.0000 0.0000 0.0000 0.0000 0.0000 26.1219
#
#
#
# Elastic Compliance Matrix: (Units=1/GPa)
#
#
# Indices 1 2 3 4 5 6 
#
# 1 0.014522 -0.010818 -0.006183 0.000000 0.000000 0.000000
# 2 -0.010818 0.090425 -0.010346 0.000000 0.000000 0.000000
# 3 -0.006183 -0.010346 0.021792 0.000000 0.000000 0.000000
# 4 0.000000 0.000000 0.000000 0.037047 0.000000 0.000000
# 5 0.000000 0.000000 0.000000 0.000000 0.106564 0.000000
# 6 0.000000 0.000000 0.000000 0.000000 0.000000 0.038282
#
#
# Mechanical properties :
#
#
# Convention : Reuss Voigt Hill
#
# Bulk Modulus (GPa) = 13.87992 32.27243 23.07618
# Shear Modulus (GPa) = 12.90847 19.78621 16.34734
#
# Velocity S-wave (km/s) = 2.58794 3.20404 2.91233
# Velocity P-wave (km/s) = 4.01639 5.51652 4.82511
#
# Compressibility (1/GPa) = 0.07204650
#
# Stress axis : x y z
#
# Youngs Moduli (GPa) = 68.85991 11.05884 45.88801
#
# Poissons Ratio (x) = 0.11964 0.28372
# Poissons Ratio (y) = 0.74494 0.47474
# Poissons Ratio (z) = 0.42575 0.11441
#
# Static dielectric constant tensor:
#      x y z
#    x 1.696700 0.000000 0.000000 
#    y 0.000000 1.654460 0.000000 
#    z 0.000000 0.000000 1.665040 
# 
# From -- ./inp_files/32158.got.cif
#   From: 2010.05.17/outbox.cif.g08.bks.cpg/sg47_17_cif.got.tgz:32158.got - 2010.06.03 20:15:42.
