data_PCOD9386513
_publ_section_title
;
Structure prediction by ZEFSAII (Michael W. Deem and Ramdas Pophale) SiO2 
 PCOD9386513
Probable space group: P M M M
;
_chemical_formula_sum "Si O2"
_cell_formula_units_Z 48
_cell_length_a 33.049687
_cell_length_b 8.168870
_cell_length_c 9.403218
_cell_angle_alpha 90.000000
_cell_angle_beta 90.000000
_cell_angle_gamma 90.000000
_cell_volume 2538.667600
_symmetry_space_group_name_H-M "P M M M"
_symmetry_group_IT_number 47
_symmetry_cell_setting 'orthorhombic'
loop_
_space_group_symop_operation_xyz
x,y,z
-x,-y,z
x,-y,-z
-x,y,-z
-x,-y,-z
x,y,-z
-x,y,z
x,-y,z
loop_
_atom_site_type_symbol
_atom_site_label
_atom_site_fract_x
_atom_site_fract_y
_atom_site_fract_z
Si Si1 0.400959 0.815456 0.670783
Si Si2 0.753830 0.197725 0.665865
Si Si3 0.000000 0.195029 0.660750
Si Si4 0.676189 0.693544 0.165777
Si Si5 0.453641 0.500000 0.327070
Si Si6 0.154496 0.802296 0.336826
Si Si7 0.922527 0.695088 0.160866
O O1 0.395279 0.802873 0.500000
O O2 0.358266 0.788708 0.747911
O O3 0.430246 0.666125 0.715289
O O4 0.416261 0.000000 0.700373
O O5 0.746670 0.240617 0.500000
O O6 0.719628 0.272038 0.764809
O O7 0.799783 0.248732 0.702200
O O8 0.751855 0.000000 0.675894
O O9 0.040030 0.245948 0.744935
O O10 0.000000 0.262660 0.500000
O O11 0.000000 0.000000 0.651766
O O12 0.667429 0.500000 0.176809
O O13 0.675966 0.739853 0.000000
O O14 0.500000 0.500000 0.277690
O O15 0.454207 0.500000 0.500000
O O16 0.146665 0.749134 0.500000
O O17 0.119661 0.742306 0.233635
O O18 0.154085 0.000000 0.336812
O O19 0.924865 0.500000 0.154402
O O20 0.925157 0.760994 0.000000
#
# Coordination Sequence:
#
# PCOD9386513 Si02
#       7
#     8   8   4   8   4   8   8
#     4  10  20  35  58  85 113 150 193 235 286 347
#     4   9  19  36  57  81 109 143 186 234 282 334
#     4  11  24  41  62  86 108 135 178 227 272 324
#     4  11  23  36  52  78 113 151 191 237 287 339
#     4   9  18  34  57  87 121 151 185 237 293 342
#     4   9  19  37  59  82 109 143 185 229 273 328
#     4  11  24  39  56  82 115 146 178 220 270 326
#
# _framework density 18.907556
#
# number of rings (size 3 to 8) (size 9 to 14) (size 15 to 20)
#    0.000    2.000    0.833    3.500    0.000   10.667 
#    0.000    6.667    0.000    1.000    0.000    1.167 
#    0.000    0.000    0.000    0.000    0.000    0.000 
#
# Total GULP energy -268040.457571 kJ/mol
# GULP energy per Si atom -5584.176199 kJ/mol
# Density = 1.886452 g / cm^3
# Si number density = 18.907556 Si / 1000 Ang^3
#
#
#
# Elastic Constant Matrix: (Units=GPa)
#
#
# Indices 1 2 3 4 5 6 
#
# 1 138.3151 51.8582 74.1937 0.0000 0.0000 0.0000
# 2 51.8582 79.3187 42.3870 0.0000 0.0000 0.0000
# 3 74.1937 42.3870 89.7560 0.0000 0.0000 0.0000
# 4 0.0000 0.0000 0.0000 24.9607 0.0000 0.0000
# 5 0.0000 0.0000 0.0000 0.0000 -18.7086 0.0000
# 6 0.0000 0.0000 0.0000 0.0000 0.0000 30.9167
#
#
#
# Elastic Compliance Matrix: (Units=1/GPa)
#
#
# Indices 1 2 3 4 5 6 
#
# 1 0.013848 -0.003928 -0.009592 0.000000 0.000000 0.000000
# 2 -0.003928 0.017977 -0.005243 0.000000 0.000000 0.000000
# 3 -0.009592 -0.005243 0.021546 0.000000 0.000000 0.000000
# 4 0.000000 0.000000 0.000000 0.040063 0.000000 0.000000
# 5 0.000000 0.000000 0.000000 0.000000 -0.053451 0.000000
# 6 0.000000 0.000000 0.000000 0.000000 0.000000 0.032345
#
#
# Mechanical properties :
#
#
# Convention : Reuss Voigt Hill
#
# Bulk Modulus (GPa) = 63.10818 71.58531 67.34674
# Shear Modulus (GPa) = 43.42770 16.69717 30.06244
#
# Velocity S-wave (km/s) = 4.79774 2.97492 3.99177
# Velocity P-wave (km/s) = 8.00879 7.05288 7.54599
#
# Compressibility (1/GPa) = 0.01584581
#
# Stress axis : x y z
#
# Youngs Moduli (GPa) = 72.21443 55.62651 46.41242
#
# Poissons Ratio (x) = 0.21849 0.44518
# Poissons Ratio (y) = 0.28364 0.24333
# Poissons Ratio (z) = 0.69267 0.29164
#
# Static dielectric constant tensor:
#      x y z
#    x 1.632630 0.000000 0.000000 
#    y 0.000000 1.669890 0.000000 
#    z 0.000000 0.000000 1.640850 
# 
# From -- ./inp_files/13989.got.cif
#   From: 2010.05.17/outbox.cif.g08.bks.cpg/sg47_7_cif.got.tgz:13989.got - 2010.06.03 20:15:42.
