data_PCOD9386288
_publ_section_title
;
Structure prediction by ZEFSAII (Michael W. Deem and Ramdas Pophale) SiO2 
 PCOD9386288
Probable space group: P M M M
;
_chemical_formula_sum "Si O2"
_cell_formula_units_Z 52
_cell_length_a 7.597309
_cell_length_b 14.861061
_cell_length_c 25.953184
_cell_angle_alpha 90.000000
_cell_angle_beta 90.000000
_cell_angle_gamma 90.000000
_cell_volume 2930.220168
_symmetry_space_group_name_H-M "P M M M"
_symmetry_group_IT_number 47
_symmetry_cell_setting 'orthorhombic'
loop_
_space_group_symop_operation_xyz
x,y,z
-x,-y,z
x,-y,-z
-x,y,-z
-x,-y,-z
x,y,-z
-x,y,z
x,-y,z
loop_
_atom_site_type_symbol
_atom_site_label
_atom_site_fract_x
_atom_site_fract_y
_atom_site_fract_z
Si Si1 0.294988 0.207722 0.055953
Si Si2 0.787198 0.600126 0.096479
Si Si3 0.500000 0.108948 0.558459
Si Si4 0.207387 0.100857 0.842000
Si Si5 0.208526 0.892897 0.640366
Si Si6 0.785563 0.599539 0.783271
Si Si7 0.784744 0.211829 0.256499
O O1 0.500000 0.185039 0.054864
O O2 0.277292 0.314578 0.065045
O O3 0.221559 0.155968 0.105181
O O4 0.217219 0.184453 0.000000
O O5 0.730623 0.500000 0.079661
O O6 0.735806 0.611594 0.156593
O O7 0.000000 0.601851 0.094644
O O8 0.500000 0.143440 0.500000
O O9 0.671891 0.133217 0.591798
O O10 0.500000 0.000000 0.555591
O O11 0.278933 0.156465 0.793444
O O12 0.000000 0.092401 0.831561
O O13 0.281006 0.000000 0.846392
O O14 0.264207 0.837344 0.690815
O O15 0.000000 0.878834 0.631185
O O16 0.233082 0.000000 0.650201
O O17 0.727168 0.500000 0.766682
O O18 0.726783 0.685024 0.750514
O O19 0.000000 0.599182 0.782758
O O20 0.000000 0.212333 0.255559
#
# Coordination Sequence:
#
# PCOD9386288 Si02
#       7
#     8   8   4   8   8   8   8
#     4  11  24  38  49  65  93 125 156 195 245 302
#     4   9  17  32  54  75  92 114 151 196 239 289
#     4   9  18  32  48  70 103 141 180 214 242 281
#     4  10  20  35  55  74  90 116 158 204 249 296
#     4   9  17  29  46  71 103 137 171 208 249 288
#     4   8  13  23  44  72  97 121 149 186 238 295
#     4   9  15  27  48  72 100 127 154 196 246 295
#
# _framework density 17.746106000000001
#
# number of rings (size 3 to 8) (size 9 to 14) (size 15 to 20)
#    0.000    2.692    1.538    1.846    0.000    4.615 
#    1.385    4.615    0.000    0.000    0.000    0.000 
#    0.000    1.231    0.000    6.000    0.000    0.154 
#
# Total GULP energy -289982.261920 kJ/mol
# GULP energy per Si atom -5576.581960 kJ/mol
# Density = 1.770571 g / cm^3
# Si number density = 17.746106 Si / 1000 Ang^3
#
#
#
# Elastic Constant Matrix: (Units=GPa)
#
#
# Indices 1 2 3 4 5 6 
#
# 1 44.2621 13.7559 25.1478 0.0000 0.0000 0.0000
# 2 13.7559 103.9504 67.2303 0.0000 0.0000 0.0000
# 3 25.1478 67.2303 140.9599 0.0000 0.0000 0.0000
# 4 0.0000 0.0000 0.0000 14.6669 0.0000 0.0000
# 5 0.0000 0.0000 0.0000 0.0000 19.7611 0.0000
# 6 0.0000 0.0000 0.0000 0.0000 0.0000 -11.8124
#
#
#
# Elastic Compliance Matrix: (Units=1/GPa)
#
#
# Indices 1 2 3 4 5 6 
#
# 1 0.025168 -0.000617 -0.004196 0.000000 0.000000 0.000000
# 2 -0.000617 0.013926 -0.006532 0.000000 0.000000 0.000000
# 3 -0.004196 -0.006532 0.010958 0.000000 0.000000 0.000000
# 4 0.000000 0.000000 0.000000 0.068181 0.000000 0.000000
# 5 0.000000 0.000000 0.000000 0.000000 0.050605 0.000000
# 6 0.000000 0.000000 0.000000 0.000000 0.000000 -0.084657
#
#
# Mechanical properties :
#
#
# Convention : Reuss Voigt Hill
#
# Bulk Modulus (GPa) = 36.54544 55.71562 46.13053
# Shear Modulus (GPa) = 43.10656 16.72568 29.91612
#
# Velocity S-wave (km/s) = 4.93391 3.07334 4.11029
# Velocity P-wave (km/s) = 7.28671 6.63762 6.96973
#
# Compressibility (1/GPa) = 0.02736319
#
# Stress axis : x y z
#
# Youngs Moduli (GPa) = 39.73246 71.80713 91.25580
#
# Poissons Ratio (x) = 0.04429 0.38290
# Poissons Ratio (y) = 0.02451 0.59608
# Poissons Ratio (z) = 0.16672 0.46904
#
# Static dielectric constant tensor:
#      x y z
#    x 1.659950 0.000000 0.000000 
#    y 0.000000 1.616700 0.000000 
#    z 0.000000 0.000000 1.585490 
# 
# From -- ./inp_files/12574.got.cif
#   From: 2010.05.17/outbox.cif.g08.bks.cpg/sg47_7_cif.got.tgz:12574.got - 2010.06.03 20:15:42.
