data_PCOD9386286
_publ_section_title
;
Structure prediction by ZEFSAII (Michael W. Deem and Ramdas Pophale) SiO2 
 PCOD9386286
Probable space group: P M M M
;
_chemical_formula_sum "Si O2"
_cell_formula_units_Z 40
_cell_length_a 22.049750
_cell_length_b 13.271289
_cell_length_c 7.640237
_cell_angle_alpha 90.000000
_cell_angle_beta 90.000000
_cell_angle_gamma 90.000000
_cell_volume 2235.751892
_symmetry_space_group_name_H-M "P M M M"
_symmetry_group_IT_number 47
_symmetry_cell_setting 'orthorhombic'
loop_
_space_group_symop_operation_xyz
x,y,z
-x,-y,z
x,-y,-z
-x,y,-z
-x,-y,-z
x,y,-z
-x,y,z
x,-y,z
loop_
_atom_site_type_symbol
_atom_site_label
_atom_site_fract_x
_atom_site_fract_y
_atom_site_fract_z
Si Si1 0.430444 0.000000 0.214883
Si Si2 0.295504 0.387937 0.710198
Si Si3 0.068200 0.619632 0.000000
Si Si4 0.839842 0.322289 0.699930
Si Si5 0.340324 0.172985 0.791322
Si Si6 0.794226 0.112369 0.212602
O O1 0.393940 0.100365 0.272932
O O2 0.500000 0.000000 0.272222
O O3 0.430852 0.000000 0.000000
O O4 0.294007 0.390288 0.500000
O O5 0.312964 0.500000 0.773088
O O6 0.225925 0.363829 0.765122
O O7 0.337803 0.292822 0.756724
O O8 0.106989 0.648634 0.170100
O O9 0.063701 0.500000 0.000000
O O10 0.000000 0.662547 0.000000
O O11 0.848909 0.356540 0.500000
O O12 0.832565 0.201922 0.706961
O O13 0.275421 0.130215 0.729924
O O14 0.340560 0.161711 0.000000
O O15 0.813320 0.000000 0.258823
O O16 0.795958 0.121888 0.000000
#
# Coordination Sequence:
#
# PCOD9386286 Si02
#       6
#     4   8   4   8   8   8
#     4   9  16  28  47  71 103 139 171 208 251 298
#     4   9  18  31  48  73 102 129 159 207 269 316
#     4  11  24  40  57  77 103 139 180 217 258 308
#     4  10  20  35  54  79 108 137 173 216 264 318
#     4   9  16  27  45  72 100 130 170 210 254 307
#     4   9  15  27  50  78 108 135 165 213 266 317
#
# _framework density 17.891072000000001
#
# number of rings (size 3 to 8) (size 9 to 14) (size 15 to 20)
#    0.000    2.600    2.000    0.600    1.400    2.400 
#    0.000    1.500    0.000    3.000    0.000    5.600 
#    0.000    0.000    0.000    0.000    0.000    0.000 
#
# Total GULP energy -222963.057575 kJ/mol
# GULP energy per Si atom -5574.076439 kJ/mol
# Density = 1.785035 g / cm^3
# Si number density = 17.891072 Si / 1000 Ang^3
#
#
#
# Elastic Constant Matrix: (Units=GPa)
#
#
# Indices 1 2 3 4 5 6 
#
# 1 107.4331 57.1481 32.4813 0.0000 0.0000 0.0000
# 2 57.1481 138.3134 15.1741 0.0000 0.0000 0.0000
# 3 32.4813 15.1741 53.5737 0.0000 0.0000 0.0000
# 4 0.0000 0.0000 0.0000 177.5286 0.0000 0.0000
# 5 0.0000 0.0000 0.0000 0.0000 8.9668 0.0000
# 6 0.0000 0.0000 0.0000 0.0000 0.0000 23.5894
#
#
#
# Elastic Compliance Matrix: (Units=1/GPa)
#
#
# Indices 1 2 3 4 5 6 
#
# 1 0.014167 -0.005069 -0.007154 0.000000 0.000000 0.000000
# 2 -0.005069 0.009275 0.000446 0.000000 0.000000 0.000000
# 3 -0.007154 0.000446 0.022877 0.000000 0.000000 0.000000
# 4 0.000000 0.000000 0.000000 0.005633 0.000000 0.000000
# 5 0.000000 0.000000 0.000000 0.000000 0.111522 0.000000
# 6 0.000000 0.000000 0.000000 0.000000 0.000000 0.042392
#
#
# Mechanical properties :
#
#
# Convention : Reuss Voigt Hill
#
# Bulk Modulus (GPa) = 43.92456 56.54748 50.23602
# Shear Modulus (GPa) = 21.09629 54.98474 38.04051
#
# Velocity S-wave (km/s) = 3.43760 5.54975 4.61611
# Velocity P-wave (km/s) = 6.35300 8.52886 7.52004
#
# Compressibility (1/GPa) = 0.02276631
#
# Stress axis : x y z
#
# Youngs Moduli (GPa) = 70.58499 107.81282 43.71223
#
# Poissons Ratio (x) = 0.54648 0.31271
# Poissons Ratio (y) = 0.35778 -0.01950
# Poissons Ratio (z) = 0.50496 -0.04809
#
# Static dielectric constant tensor:
#      x y z
#    x 1.583050 0.000000 0.000000 
#    y 0.000000 1.644070 0.000000 
#    z 0.000000 0.000000 1.714930 
# 
# From -- ./inp_files/10740.got.cif
#   From: 2010.05.17/outbox.cif.g08.bks.cpg/sg47_6_cif.got.tgz:10740.got - 2010.06.03 20:15:42.
