data_PCOD9386768
_publ_section_title
;
Structure prediction by ZEFSAII (Michael W. Deem and Ramdas Pophale) SiO2 
 PCOD9386768
Probable space group: P M M M
;
_chemical_formula_sum "Si O2"
_cell_formula_units_Z 33
_cell_length_a 7.797809
_cell_length_b 25.645207
_cell_length_c 7.626785
_cell_angle_alpha 90.000000
_cell_angle_beta 90.000000
_cell_angle_gamma 90.000000
_cell_volume 1525.177206
_symmetry_space_group_name_H-M "P M M M"
_symmetry_group_IT_number 47
_symmetry_cell_setting 'orthorhombic'
loop_
_space_group_symop_operation_xyz
x,y,z
-x,-y,z
x,-y,-z
-x,y,-z
-x,-y,-z
x,y,-z
-x,y,z
x,-y,z
loop_
_atom_site_type_symbol
_atom_site_label
_atom_site_fract_x
_atom_site_fract_y
_atom_site_fract_z
Si Si1 0.803497 0.775877 0.289964
Si Si2 0.310439 0.337161 0.712947
Si Si3 0.000000 0.411919 0.805206
Si Si4 0.000000 0.500000 0.500000
Si Si5 0.789695 0.000000 0.206772
Si Si6 0.801853 0.111630 0.789353
O O1 0.810709 0.772749 0.500000
O O2 0.715068 0.722870 0.229301
O O3 0.722487 0.832174 0.249844
O O4 0.000000 0.775510 0.222019
O O5 0.298231 0.337824 0.500000
O O6 0.500000 0.355115 0.762252
O O7 0.164013 0.374321 0.783715
O O8 0.000000 0.454502 0.653524
O O9 0.000000 0.434699 0.000000
O O10 0.730747 0.056198 0.277836
O O11 0.000000 0.000000 0.217410
O O12 0.745427 0.000000 0.000000
O O13 0.000000 0.114634 0.725110
O O14 0.807167 0.107429 0.000000
#
# Coordination Sequence:
#
# PCOD9386768 Si02
#       6
#     8   8   4   1   4   8
#     4   9  16  27  46  74 110 147 191 245 309 372
#     4  10  20  39  66  93 130 177 215 260 321 377
#     4  12  25  45  75 106 137 176 219 262 309 367
#     4  12  26  52  78 102 148 178 218 258 310 362
#     4   7  10  18  31  49  80 125 178 233 293 364
#     4   8  13  21  35  57  88 131 182 237 299 364
#
# _framework density 21.63683
#
# number of rings (size 3 to 8) (size 9 to 14) (size 15 to 20)
#    0.000    2.788    2.424    1.636    0.000    1.455 
#    0.000    1.818    0.000    5.091    0.000    0.848 
#    0.000    6.788    0.000    0.000    0.000    0.000 
#
# Total GULP energy -183740.075598 kJ/mol
# GULP energy per Si atom -5567.881079 kJ/mol
# Density = 2.158758 g / cm^3
# Si number density = 21.636830 Si / 1000 Ang^3
#
#
#
# Elastic Constant Matrix: (Units=GPa)
#
#
# Indices 1 2 3 4 5 6 
#
# 1 88.5295 53.9070 20.4015 0.0000 0.0000 0.0000
# 2 53.9070 196.0203 46.2959 0.0000 0.0000 0.0000
# 3 20.4015 46.2959 84.0971 0.0000 0.0000 0.0000
# 4 0.0000 0.0000 0.0000 29.6246 0.0000 0.0000
# 5 0.0000 0.0000 0.0000 0.0000 -8.7750 0.0000
# 6 0.0000 0.0000 0.0000 0.0000 0.0000 -6.1540
#
#
#
# Elastic Compliance Matrix: (Units=1/GPa)
#
#
# Indices 1 2 3 4 5 6 
#
# 1 0.013717 -0.003433 -0.001438 0.000000 0.000000 0.000000
# 2 -0.003433 0.006723 -0.002868 0.000000 0.000000 0.000000
# 3 -0.001438 -0.002868 0.013819 0.000000 0.000000 0.000000
# 4 0.000000 0.000000 0.000000 0.033756 0.000000 0.000000
# 5 0.000000 0.000000 0.000000 0.000000 -0.113960 0.000000
# 6 0.000000 0.000000 0.000000 0.000000 0.000000 -0.162496
#
#
# Mechanical properties :
#
#
# Convention : Reuss Voigt Hill
#
# Bulk Modulus (GPa) = 53.24496 67.76175 60.50335
# Shear Modulus (GPa) = -26.78054 19.47529 -3.65262
#
# Velocity S-wave (km/s) = -3.52195 3.00342 -1.30070
# Velocity P-wave (km/s) = 2.85009 6.58886 5.07623
#
# Compressibility (1/GPa) = 0.01878112
#
# Stress axis : x y z
#
# Youngs Moduli (GPa) = 72.90062 148.74398 72.36485
#
# Poissons Ratio (x) = 0.51060 0.10406
# Poissons Ratio (y) = 0.25025 0.20756
# Poissons Ratio (z) = 0.10483 0.42664
#
# Static dielectric constant tensor:
#      x y z
#    x 1.804140 0.000000 0.000000 
#    y 0.000000 1.803750 0.000000 
#    z 0.000000 0.000000 1.802170 
# 
# From -- ./inp_files/1339.got.cif
#   From: 2010.05.17/outbox.cif.g08.bks.cpg/sg47_1_cif.got.tgz:1339.got - 2010.06.03 20:15:42.
