data_PCOD9386705
_publ_section_title
;
Structure prediction by ZEFSAII (Michael W. Deem and Ramdas Pophale) SiO2 
 PCOD9386705
Probable space group: P M M M
;
_chemical_formula_sum "Si O2"
_cell_formula_units_Z 44
_cell_length_a 9.324329
_cell_length_b 7.756258
_cell_length_c 32.766302
_cell_angle_alpha 90.000000
_cell_angle_beta 90.000000
_cell_angle_gamma 90.000000
_cell_volume 2369.721263
_symmetry_space_group_name_H-M "P M M M"
_symmetry_group_IT_number 47
_symmetry_cell_setting 'orthorhombic'
loop_
_space_group_symop_operation_xyz
x,y,z
-x,-y,z
x,-y,-z
-x,y,-z
-x,-y,-z
x,y,-z
-x,y,z
x,-y,z
loop_
_atom_site_type_symbol
_atom_site_label
_atom_site_fract_x
_atom_site_fract_y
_atom_site_fract_z
Si Si1 0.333685 0.790211 0.545132
Si Si2 0.663573 0.296084 0.080505
Si Si3 0.827370 0.201058 0.626716
Si Si4 0.825992 0.500000 0.687576
Si Si5 0.837918 0.206314 0.000000
Si Si6 0.328844 0.195859 0.170339
Si Si7 0.826905 0.500000 0.217801
O O1 0.285202 0.732215 0.500000
O O2 0.500000 0.739191 0.550249
O O3 0.240208 0.738735 0.583852
O O4 0.330407 0.000000 0.544545
O O5 0.500000 0.239810 0.071937
O O6 0.662273 0.500000 0.088810
O O7 0.757463 0.262971 0.040880
O O8 0.711860 0.208449 0.122465
O O9 0.780832 0.329775 0.662615
O O10 0.000000 0.207476 0.623643
O O11 0.787376 0.000000 0.633897
O O12 0.782797 0.500000 0.734642
O O13 0.000000 0.500000 0.687445
O O14 0.000000 0.272834 0.000000
O O15 0.840728 0.000000 0.000000
O O16 0.500000 0.235780 0.172334
O O17 0.239100 0.333187 0.195699
O O18 0.307462 0.000000 0.184551
O O19 0.000000 0.500000 0.215001
#
# Coordination Sequence:
#
# PCOD9386705 Si02
#       7
#     8   8   8   4   4   8   4
#     4   8  14  26  45  70 102 137 170 209 260 314
#     4  10  20  37  61  84 109 147 194 235 274 329
#     4   9  17  31  52  74  98 133 177 220 258 306
#     4   9  20  37  54  76 106 139 174 216 272 330
#     4  11  24  37  50  78 120 157 190 232 279 327
#     4  10  21  40  65  89 116 151 191 237 286 339
#     4  11  23  39  61  87 117 149 184 234 291 352
#
# _framework density 18.567585999999999
#
# number of rings (size 3 to 8) (size 9 to 14) (size 15 to 20)
#    0.000    2.455    0.909    1.909    0.000    5.091 
#    0.000    6.364    0.000    4.909    0.000    0.000 
#    0.000    0.000    0.000    0.000    0.000    0.000 
#
# Total GULP energy -245479.686909 kJ/mol
# GULP energy per Si atom -5579.083793 kJ/mol
# Density = 1.852533 g / cm^3
# Si number density = 18.567586 Si / 1000 Ang^3
#
#
#
# Elastic Constant Matrix: (Units=GPa)
#
#
# Indices 1 2 3 4 5 6 
#
# 1 50.7918 38.7176 65.5111 0.0000 0.0000 0.0000
# 2 38.7176 95.0941 67.6577 0.0000 0.0000 0.0000
# 3 65.5111 67.6577 168.6788 0.0000 0.0000 0.0000
# 4 0.0000 0.0000 0.0000 -7.1490 0.0000 0.0000
# 5 0.0000 0.0000 0.0000 0.0000 38.0871 0.0000
# 6 0.0000 0.0000 0.0000 0.0000 0.0000 14.0664
#
#
#
# Elastic Compliance Matrix: (Units=1/GPa)
#
#
# Indices 1 2 3 4 5 6 
#
# 1 0.043344 -0.007935 -0.013651 0.000000 0.000000 0.000000
# 2 -0.007935 0.016168 -0.003403 0.000000 0.000000 0.000000
# 3 -0.013651 -0.003403 0.012595 0.000000 0.000000 0.000000
# 4 0.000000 0.000000 0.000000 -0.139879 0.000000 0.000000
# 5 0.000000 0.000000 0.000000 0.000000 0.026256 0.000000
# 6 0.000000 0.000000 0.000000 0.000000 0.000000 0.071091
#
#
# Mechanical properties :
#
#
# Convention : Reuss Voigt Hill
#
# Bulk Modulus (GPa) = 45.19045 73.14864 59.16954
# Shear Modulus (GPa) = 57.51752 18.51278 38.01515
#
# Velocity S-wave (km/s) = 5.57177 3.16103 4.52972
# Velocity P-wave (km/s) = 8.11074 7.26665 7.70027
#
# Compressibility (1/GPa) = 0.02212857
#
# Stress axis : x y z
#
# Youngs Moduli (GPa) = 23.07114 61.85053 79.39476
#
# Poissons Ratio (x) = 0.49079 1.08383
# Poissons Ratio (y) = 0.18307 0.27020
# Poissons Ratio (z) = 0.31495 0.21049
#
# Static dielectric constant tensor:
#      x y z
#    x 1.626730 0.000000 0.000000 
#    y 0.000000 1.667980 0.000000 
#    z 0.000000 0.000000 1.624860 
# 
# From -- ./inp_files/33991.got.cif
#   From: 2010.05.17/outbox.cif.g08.bks.cpg/sg47_17_cif.got.tgz:33991.got - 2010.06.03 20:15:42.
