data_PCOD9386417
_publ_section_title
;
Structure prediction by ZEFSAII (Michael W. Deem and Ramdas Pophale) SiO2 
 PCOD9386417
Probable space group: P M M M
;
_chemical_formula_sum "Si O2"
_cell_formula_units_Z 40
_cell_length_a 9.329315
_cell_length_b 7.698081
_cell_length_c 27.270736
_cell_angle_alpha 90.000000
_cell_angle_beta 90.000000
_cell_angle_gamma 90.000000
_cell_volume 1958.524879
_symmetry_space_group_name_H-M "P M M M"
_symmetry_group_IT_number 47
_symmetry_cell_setting 'orthorhombic'
loop_
_space_group_symop_operation_xyz
x,y,z
-x,-y,z
x,-y,-z
-x,y,-z
-x,-y,-z
x,y,-z
-x,y,z
x,-y,z
loop_
_atom_site_type_symbol
_atom_site_label
_atom_site_fract_x
_atom_site_fract_y
_atom_site_fract_z
Si Si1 0.329627 0.788107 0.500000
Si Si2 0.664773 0.790157 0.287954
Si Si3 0.161590 0.706144 0.190750
Si Si4 0.835225 0.213301 0.000000
Si Si5 0.674140 0.205762 0.605458
Si Si6 0.338703 0.206421 0.905363
O O1 0.500000 0.750227 0.500000
O O2 0.273417 0.724200 0.552803
O O3 0.317890 0.000000 0.500000
O O4 0.500000 0.730759 0.280142
O O5 0.763366 0.744323 0.242436
O O6 0.718364 0.724614 0.341283
O O7 0.659608 0.000000 0.291034
O O8 0.153150 0.500000 0.185669
O O9 0.257368 0.769817 0.145720
O O10 0.000000 0.778356 0.188790
O O11 0.753009 0.273384 0.048759
O O12 0.000000 0.268990 0.000000
O O13 0.836170 0.000000 0.000000
O O14 0.500000 0.219170 0.605472
O O15 0.708000 0.000000 0.605055
O O16 0.500000 0.278387 0.903659
O O17 0.350509 0.000000 0.913219
#
# Coordination Sequence:
#
# PCOD9386417 Si02
#       6
#     4   8   8   4   8   8
#     4   7   8  12  26  52  88 123 146 172 222 283
#     4   9  17  30  49  73  98 124 158 200 244 292
#     4  11  24  38  50  68  96 130 168 208 248 290
#     4   9  17  31  54  83 112 139 164 192 230 277
#     4   7  10  17  32  58  91 121 148 182 228 283
#     4  10  20  35  57  83 107 131 162 200 240 284
#
# _framework density 20.423532999999999
#
# number of rings (size 3 to 8) (size 9 to 14) (size 15 to 20)
#    0.000    3.000    0.000    4.500    0.000    6.800 
#    0.000    0.500    0.000    3.000    0.000    1.400 
#    0.000    9.600    0.000    0.000    0.000    0.000 
#
# Total GULP energy -222914.521044 kJ/mol
# GULP energy per Si atom -5572.863026 kJ/mol
# Density = 2.037705 g / cm^3
# Si number density = 20.423533 Si / 1000 Ang^3
#
#
#
# Elastic Constant Matrix: (Units=GPa)
#
#
# Indices 1 2 3 4 5 6 
#
# 1 127.8042 5.4737 100.9211 0.0000 0.0000 0.0000
# 2 5.4737 32.7002 -3.2896 0.0000 0.0000 0.0000
# 3 100.9211 -3.2896 225.5138 0.0000 0.0000 0.0000
# 4 0.0000 0.0000 0.0000 -63.6511 0.0000 0.0000
# 5 0.0000 0.0000 0.0000 0.0000 9.5374 0.0000
# 6 0.0000 0.0000 0.0000 0.0000 0.0000 16.7357
#
#
#
# Elastic Compliance Matrix: (Units=1/GPa)
#
#
# Indices 1 2 3 4 5 6 
#
# 1 0.012321 -0.002621 -0.005552 0.000000 0.000000 0.000000
# 2 -0.002621 0.031183 0.001628 0.000000 0.000000 0.000000
# 3 -0.005552 0.001628 0.006943 0.000000 0.000000 0.000000
# 4 0.000000 0.000000 0.000000 -0.015711 0.000000 0.000000
# 5 0.000000 0.000000 0.000000 0.000000 0.104850 0.000000
# 6 0.000000 0.000000 0.000000 0.000000 0.000000 0.059752
#
#
# Mechanical properties :
#
#
# Convention : Reuss Voigt Hill
#
# Bulk Modulus (GPa) = 26.76906 65.80319 46.28612
# Shear Modulus (GPa) = 22.23395 11.38527 16.80961
#
# Velocity S-wave (km/s) = 3.30304 2.36362 2.87200
# Velocity P-wave (km/s) = 5.26139 6.30382 5.80605
#
# Compressibility (1/GPa) = 0.03735656
#
# Stress axis : x y z
#
# Youngs Moduli (GPa) = 81.16279 32.06840 144.03632
#
# Poissons Ratio (x) = 0.08405 0.79970
# Poissons Ratio (y) = 0.21272 -0.23446
# Poissons Ratio (z) = 0.45062 -0.05220
#
# Static dielectric constant tensor:
#      x y z
#    x 1.620260 0.000000 0.000000 
#    y 0.000000 1.752240 0.000000 
#    z 0.000000 0.000000 1.760470 
# 
# From -- ./inp_files/33065.got.cif
#   From: 2010.05.17/outbox.cif.g08.bks.cpg/sg47_17_cif.got.tgz:33065.got - 2010.06.03 20:15:42.
