data_PCOD9386912
_publ_section_title
;
Structure prediction by ZEFSAII (Michael W. Deem and Ramdas Pophale) SiO2 
 PCOD9386912
Probable space group: P M M M
;
_chemical_formula_sum "Si O2"
_cell_formula_units_Z 52
_cell_length_a 14.867785
_cell_length_b 20.591243
_cell_length_c 9.744869
_cell_angle_alpha 90.000000
_cell_angle_beta 90.000000
_cell_angle_gamma 90.000000
_cell_volume 2983.354359
_symmetry_space_group_name_H-M "P M M M"
_symmetry_group_IT_number 47
_symmetry_cell_setting 'orthorhombic'
loop_
_space_group_symop_operation_xyz
x,y,z
-x,-y,z
x,-y,-z
-x,y,-z
-x,-y,-z
x,y,-z
-x,y,z
x,-y,z
loop_
_atom_site_type_symbol
_atom_site_label
_atom_site_fract_x
_atom_site_fract_y
_atom_site_fract_z
Si Si1 0.607543 0.710854 0.663320
Si Si2 0.829774 0.075593 0.839337
Si Si3 0.000000 0.078586 0.655028
Si Si4 0.391279 0.430823 0.663496
Si Si5 0.104752 0.303117 0.162975
Si Si6 0.109298 0.572932 0.657572
Si Si7 0.735464 0.204222 0.839042
O O1 0.624771 0.714631 0.500000
O O2 0.500000 0.715053 0.681745
O O3 0.639161 0.639293 0.715049
O O4 0.659363 0.765630 0.744780
O O5 0.752216 0.127995 0.816575
O O6 0.911983 0.094926 0.741828
O O7 0.806310 0.000000 0.814918
O O8 0.857274 0.080997 0.000000
O O9 0.000000 0.104441 0.500000
O O10 0.000000 0.000000 0.647013
O O11 0.373381 0.431223 0.500000
O O12 0.500000 0.430748 0.676907
O O13 0.358271 0.500000 0.720674
O O14 0.134349 0.367186 0.246259
O O15 0.171998 0.243670 0.190224
O O16 0.000000 0.288400 0.198154
O O17 0.107600 0.316502 0.000000
O O18 0.139214 0.583210 0.500000
O O19 0.137875 0.500000 0.699714
O O20 0.000000 0.572107 0.656613
O O21 0.714984 0.214297 0.000000
#
# Coordination Sequence:
#
# PCOD9386912 Si02
#       7
#     8   8   4   8   8   8   8
#     4   9  18  33  53  76 102 132 167 207 250 300
#     4   9  18  33  53  74  98 133 173 207 243 294
#     4   9  17  29  47  75 107 133 160 197 244 295
#     4   7  10  20  42  70  95 120 154 196 241 290
#     4   9  18  31  46  66  95 129 161 196 241 293
#     4   8  14  26  44  64  87 119 162 209 247 277
#     4  10  21  34  51  74 100 130 165 206 250 297
#
# _framework density 17.430045
#
# number of rings (size 3 to 8) (size 9 to 14) (size 15 to 20)
#    0.000    3.308    0.000    2.077    1.077    2.769 
#    0.000    2.308    0.000    3.692    0.000    5.385 
#    0.000    0.000    0.000    0.000    0.000    0.000 
#
# Total GULP energy -289578.069991 kJ/mol
# GULP energy per Si atom -5568.809038 kJ/mol
# Density = 1.739037 g / cm^3
# Si number density = 17.430045 Si / 1000 Ang^3
#
#
#
# Elastic Constant Matrix: (Units=GPa)
#
#
# Indices 1 2 3 4 5 6 
#
# 1 53.5938 40.5775 35.9382 0.0000 0.0000 0.0000
# 2 40.5775 118.7120 58.6773 0.0000 0.0000 0.0000
# 3 35.9382 58.6773 44.8119 0.0000 0.0000 0.0000
# 4 0.0000 0.0000 0.0000 22.9795 0.0000 0.0000
# 5 0.0000 0.0000 0.0000 0.0000 208.4130 0.0000
# 6 0.0000 0.0000 0.0000 0.0000 0.0000 75.1904
#
#
#
# Elastic Compliance Matrix: (Units=1/GPa)
#
#
# Indices 1 2 3 4 5 6 
#
# 1 0.042071 0.006510 -0.042265 0.000000 0.000000 0.000000
# 2 0.006510 0.024886 -0.037807 0.000000 0.000000 0.000000
# 3 -0.042265 -0.037807 0.105715 0.000000 0.000000 0.000000
# 4 0.000000 0.000000 0.000000 0.043517 0.000000 0.000000
# 5 0.000000 0.000000 0.000000 0.000000 0.004798 0.000000
# 6 0.000000 0.000000 0.000000 0.000000 0.000000 0.013300
#
#
# Mechanical properties :
#
#
# Convention : Reuss Voigt Hill
#
# Bulk Modulus (GPa) = 39.13910 54.16709 46.65310
# Shear Modulus (GPa) = 12.82295 66.77823 39.80059
#
# Velocity S-wave (km/s) = 2.71529 6.19640 4.78373
# Velocity P-wave (km/s) = 5.68631 9.07403 7.57206
#
# Compressibility (1/GPa) = 0.02554990
#
# Stress axis : x y z
#
# Youngs Moduli (GPa) = 23.76928 40.18380 9.45936
#
# Poissons Ratio (x) = -0.26160 0.39980
# Poissons Ratio (y) = -0.15474 0.35763
# Poissons Ratio (z) = 1.00460 1.51921
#
# Static dielectric constant tensor:
#      x y z
#    x 1.605740 0.000000 0.000000 
#    y 0.000000 1.617390 0.000000 
#    z 0.000000 0.000000 1.574620 
# 
# From -- ./inp_files/6919.got.cif
#   From: 2010.05.17/outbox.cif.g08.bks.cpg/sg47_4_cif.got.tgz:6919.got - 2010.06.03 20:15:42.
