data_PCOD9386800
_publ_section_title
;
Structure prediction by ZEFSAII (Michael W. Deem and Ramdas Pophale) SiO2 
 PCOD9386800
Probable space group: P M M M
;
_chemical_formula_sum "Si O2"
_cell_formula_units_Z 28
_cell_length_a 7.575852
_cell_length_b 11.165083
_cell_length_c 14.661651
_cell_angle_alpha 90.000000
_cell_angle_beta 90.000000
_cell_angle_gamma 90.000000
_cell_volume 1240.155990
_symmetry_space_group_name_H-M "P M M M"
_symmetry_group_IT_number 47
_symmetry_cell_setting 'orthorhombic'
loop_
_space_group_symop_operation_xyz
x,y,z
-x,-y,z
x,-y,-z
-x,y,-z
-x,-y,-z
x,y,-z
-x,y,z
x,-y,z
loop_
_atom_site_type_symbol
_atom_site_label
_atom_site_fract_x
_atom_site_fract_y
_atom_site_fract_z
Si Si1 0.211274 0.871674 0.786397
Si Si2 0.798651 0.500000 0.610906
Si Si3 0.216764 0.761852 0.396184
Si Si4 0.711515 0.630285 0.104808
O O1 0.272183 0.851902 0.682277
O O2 0.247187 0.750947 0.841653
O O3 0.000000 0.878761 0.783503
O O4 0.277781 0.000000 0.822624
O O5 0.806188 0.500000 0.500000
O O6 0.719603 0.628731 0.633294
O O7 0.000000 0.500000 0.645129
O O8 0.271781 0.787226 0.500000
O O9 0.000000 0.757321 0.397797
O O10 0.500000 0.624245 0.102352
O O11 0.774040 0.500000 0.142014
O O12 0.774481 0.639685 0.000000
#
# Coordination Sequence:
#
# PCOD9386800 Si02
#       4
#     8   4   8   8
#     4  10  21  33  49  81 117 144 174 214 261 312
#     4   7  10  18  34  58  86 121 168 212 245 281
#     4   8  14  25  42  67 103 143 178 212 251 299
#     4   9  20  40  62  80  99 130 176 224 268 320
#
# _framework density 22.577805000000001
#
# number of rings (size 3 to 8) (size 9 to 14) (size 15 to 20)
#    0.000    3.286    0.000    2.571    2.000    2.857 
#    0.000    7.143    0.000    0.857    0.000    4.000 
#    0.000    0.000    0.000    0.000    0.000    0.000 
#
# Total GULP energy -156074.282805 kJ/mol
# GULP energy per Si atom -5574.081529 kJ/mol
# Density = 2.252642 g / cm^3
# Si number density = 22.577805 Si / 1000 Ang^3
#
#
#
# Elastic Constant Matrix: (Units=GPa)
#
#
# Indices 1 2 3 4 5 6 
#
# 1 49.7138 14.6045 5.8521 0.0000 0.0000 0.0000
# 2 14.6045 225.6692 93.7089 0.0000 0.0000 0.0000
# 3 5.8521 93.7089 84.3163 0.0000 0.0000 0.0000
# 4 0.0000 0.0000 0.0000 -0.9062 0.0000 0.0000
# 5 0.0000 0.0000 0.0000 0.0000 20.5401 0.0000
# 6 0.0000 0.0000 0.0000 0.0000 0.0000 34.4850
#
#
#
# Elastic Compliance Matrix: (Units=1/GPa)
#
#
# Indices 1 2 3 4 5 6 
#
# 1 0.020505 -0.001367 0.000096 0.000000 0.000000 0.000000
# 2 -0.001367 0.008320 -0.009152 0.000000 0.000000 0.000000
# 3 0.000096 -0.009152 0.022025 0.000000 0.000000 0.000000
# 4 0.000000 0.000000 0.000000 -1.103558 0.000000 0.000000
# 5 0.000000 0.000000 0.000000 0.000000 0.048685 0.000000
# 6 0.000000 0.000000 0.000000 0.000000 0.000000 0.028998
#
#
# Mechanical properties :
#
#
# Convention : Reuss Voigt Hill
#
# Bulk Modulus (GPa) = 33.32833 65.33671 49.33252
# Shear Modulus (GPa) = -5.29562 27.19271 10.94855
#
# Velocity S-wave (km/s) = -1.53316 3.47421 2.20449
# Velocity P-wave (km/s) = 3.41460 6.71527 5.32702
#
# Compressibility (1/GPa) = 0.03000451
#
# Stress axis : x y z
#
# Youngs Moduli (GPa) = 48.76770 120.19057 45.40282
#
# Poissons Ratio (x) = 0.16429 -0.00436
# Poissons Ratio (y) = 0.06666 0.41553
# Poissons Ratio (z) = -0.00468 1.10000
#
# Static dielectric constant tensor:
#      x y z
#    x 1.882100 0.000000 0.000000 
#    y 0.000000 1.952420 0.000000 
#    z 0.000000 0.000000 1.832200 
# 
# From -- ./inp_files/20282.got.cif
#   From: 2010.05.17/outbox.cif.g08.bks.cpg/sg47_11_cif.got.tgz:20282.got - 2010.06.03 20:15:42.
