data_PCOD9386017
_publ_section_title
;
Structure prediction by ZEFSAII (Michael W. Deem and Ramdas Pophale) SiO2 
 PCOD9386017
Probable space group: P M M M
;
_chemical_formula_sum "Si O2"
_cell_formula_units_Z 48
_cell_length_a 14.406474
_cell_length_b 7.667044
_cell_length_c 19.556250
_cell_angle_alpha 90.000000
_cell_angle_beta 90.000000
_cell_angle_gamma 90.000000
_cell_volume 2160.086964
_symmetry_space_group_name_H-M "P M M M"
_symmetry_group_IT_number 47
_symmetry_cell_setting 'orthorhombic'
loop_
_space_group_symop_operation_xyz
x,y,z
-x,-y,z
x,-y,-z
-x,y,-z
-x,-y,-z
x,y,-z
-x,y,z
x,-y,z
loop_
_atom_site_type_symbol
_atom_site_label
_atom_site_fract_x
_atom_site_fract_y
_atom_site_fract_z
Si Si1 0.500000 0.711328 0.078686
Si Si2 0.000000 0.300715 0.636766
Si Si3 0.204056 0.790505 0.420225
Si Si4 0.892101 0.284964 0.000000
Si Si5 0.365015 0.711400 0.199925
Si Si6 0.000000 0.195971 0.213660
Si Si7 0.601807 0.796152 0.354311
Si Si8 0.180989 0.299721 0.141874
O O1 0.500000 0.500000 0.073879
O O2 0.415479 0.760063 0.128908
O O3 0.500000 0.775633 0.000000
O O4 0.099481 0.271121 0.599626
O O5 0.000000 0.189738 0.705372
O O6 0.000000 0.500000 0.659452
O O7 0.218123 0.750408 0.500000
O O8 0.297524 0.725473 0.380461
O O9 0.201033 0.000000 0.411010
O O10 0.841030 0.223220 0.931993
O O11 0.892717 0.500000 0.000000
O O12 0.000000 0.233549 0.000000
O O13 0.373178 0.500000 0.206625
O O14 0.398668 0.783047 0.271938
O O15 0.261191 0.776320 0.187959
O O16 0.911465 0.293123 0.185106
O O17 0.000000 0.000000 0.185494
O O18 0.500000 0.723575 0.377422
O O19 0.601789 0.000000 0.374312
O O20 0.209390 0.500000 0.128935
#
# Coordination Sequence:
#
# PCOD9386017 Si02
#       8
#     4   4   8   4   8   4   8   8
#     4   9  18  32  51  81 114 141 182 240 293 339
#     4  12  25  41  63  90 122 157 197 241 291 349
#     4  10  22  41  65  93 125 160 197 238 289 350
#     4   9  16  30  52  75 105 144 187 242 300 353
#     4  10  20  34  56  83 112 148 191 240 292 344
#     4  12  24  38  56  80 111 148 188 235 286 339
#     4  10  21  38  61  88 120 159 200 245 295 349
#     4  10  20  34  54  80 109 145 191 240 292 351
#
# _framework density 22.221328
#
# number of rings (size 3 to 8) (size 9 to 14) (size 15 to 20)
#    0.000    1.833    1.667    2.750    1.167    5.667 
#    0.000    2.500    0.000    1.000    0.000    2.333 
#    0.000    0.000    0.000    0.000    0.000    0.000 
#
# Total GULP energy -267615.874954 kJ/mol
# GULP energy per Si atom -5575.330728 kJ/mol
# Density = 2.217075 g / cm^3
# Si number density = 22.221328 Si / 1000 Ang^3
#
#
#
# Elastic Constant Matrix: (Units=GPa)
#
#
# Indices 1 2 3 4 5 6 
#
# 1 191.2798 -0.6060 53.1162 0.0000 0.0000 0.0000
# 2 -0.6060 49.9074 -1.2064 0.0000 0.0000 0.0000
# 3 53.1162 -1.2064 95.2318 0.0000 0.0000 0.0000
# 4 0.0000 0.0000 0.0000 34.4117 0.0000 0.0000
# 5 0.0000 0.0000 0.0000 0.0000 36.9752 0.0000
# 6 0.0000 0.0000 0.0000 0.0000 0.0000 4.7846
#
#
#
# Elastic Compliance Matrix: (Units=1/GPa)
#
#
# Indices 1 2 3 4 5 6 
#
# 1 0.006186 -0.000008 -0.003450 0.000000 0.000000 0.000000
# 2 -0.000008 0.020043 0.000259 0.000000 0.000000 0.000000
# 3 -0.003450 0.000259 0.012428 0.000000 0.000000 0.000000
# 4 0.000000 0.000000 0.000000 0.029060 0.000000 0.000000
# 5 0.000000 0.000000 0.000000 0.000000 0.027045 0.000000
# 6 0.000000 0.000000 0.000000 0.000000 0.000000 0.209004
#
#
# Mechanical properties :
#
#
# Convention : Reuss Voigt Hill
#
# Bulk Modulus (GPa) = 31.00060 48.78072 39.89066
# Shear Modulus (GPa) = 15.58025 34.24199 24.91112
#
# Velocity S-wave (km/s) = 2.65078 3.92975 3.35183
# Velocity P-wave (km/s) = 4.83218 6.52614 5.74197
#
# Compressibility (1/GPa) = 0.03225744
#
# Stress axis : x y z
#
# Youngs Moduli (GPa) = 161.65380 49.89205 80.46050
#
# Poissons Ratio (x) = 0.00041 0.27762
# Poissons Ratio (y) = 0.00134 -0.02080
# Poissons Ratio (z) = 0.55777 -0.01290
#
# Static dielectric constant tensor:
#      x y z
#    x 1.869030 0.000000 0.000000 
#    y 0.000000 1.864950 0.000000 
#    z 0.000000 0.000000 1.767550 
# 
# From -- ./inp_files/28110.got.cif
#   From: 2010.05.17/outbox.cif.g08.bks.cpg/sg47_15_cif.got.tgz:28110.got - 2010.06.03 20:15:42.
