data_PCOD9386054
_publ_section_title
;
Structure prediction by ZEFSAII (Michael W. Deem and Ramdas Pophale) SiO2 
 PCOD9386054
Probable space group: P M M M
;
_chemical_formula_sum "Si O2"
_cell_formula_units_Z 64
_cell_length_a 8.973410
_cell_length_b 25.887300
_cell_length_c 14.781726
_cell_angle_alpha 90.000000
_cell_angle_beta 90.000000
_cell_angle_gamma 90.000000
_cell_volume 3433.755877
_symmetry_space_group_name_H-M "P M M M"
_symmetry_group_IT_number 47
_symmetry_cell_setting 'orthorhombic'
loop_
_space_group_symop_operation_xyz
x,y,z
-x,-y,z
x,-y,-z
-x,y,-z
-x,-y,-z
x,y,-z
-x,y,z
x,-y,z
loop_
_atom_site_type_symbol
_atom_site_label
_atom_site_fract_x
_atom_site_fract_y
_atom_site_fract_z
Si Si1 0.177416 0.439933 0.784810
Si Si2 0.822200 0.783601 0.602710
Si Si3 0.678973 0.351661 0.103366
Si Si4 0.326628 0.437242 0.400402
Si Si5 0.178621 0.942238 0.221687
Si Si6 0.321130 0.251596 0.219069
Si Si7 0.678017 0.897412 0.397656
Si Si8 0.179665 0.842046 0.893924
O O1 0.223120 0.500000 0.795371
O O2 0.248954 0.403685 0.859623
O O3 0.232928 0.421194 0.686194
O O4 0.000000 0.437585 0.788773
O O5 0.792716 0.765553 0.500000
O O6 0.747666 0.750272 0.681024
O O7 0.753727 0.841112 0.610787
O O8 0.000000 0.786443 0.615822
O O9 0.500000 0.356559 0.106946
O O10 0.721303 0.303676 0.166556
O O11 0.722519 0.341299 0.000000
O O12 0.275853 0.419444 0.500000
O O13 0.500000 0.422634 0.388785
O O14 0.321588 0.500000 0.402207
O O15 0.257231 0.931751 0.317394
O O16 0.219371 0.896877 0.151877
O O17 0.000000 0.939084 0.235044
O O18 0.214068 0.000000 0.189001
O O19 0.500000 0.248134 0.223716
O O20 0.257834 0.203147 0.162609
O O21 0.709112 0.916551 0.500000
O O22 0.500000 0.892155 0.388276
O O23 0.000000 0.836012 0.886959
O O24 0.219423 0.840275 0.000000
#
# Coordination Sequence:
#
# PCOD9386054 Si02
#       8
#     8   8   8   8   8   8   8   8
#     4  10  21  36  56  85 119 153 190 235 287 339
#     4  10  20  35  58  87 118 151 186 225 274 337
#     4  10  23  42  61  83 112 149 193 237 283 336
#     4   8  14  27  50  79 110 147 190 230 269 321
#     4  10  21  36  54  79 113 152 193 237 284 338
#     4  11  22  38  62  89 116 145 183 234 285 335
#     4  10  20  34  54  81 112 148 189 232 281 336
#     4  10  21  37  58  83 110 146 191 234 284 344
#
# _framework density 18.638483000000001
#
# number of rings (size 3 to 8) (size 9 to 14) (size 15 to 20)
#    0.000    2.125    1.250    2.250    0.000    5.500 
#    0.000    5.625    0.000    0.750    0.000    1.750 
#    0.000    0.000    0.000    0.000    0.000    0.000 
#
# Total GULP energy -357271.595588 kJ/mol
# GULP energy per Si atom -5582.368681 kJ/mol
# Density = 1.859606 g / cm^3
# Si number density = 18.638483 Si / 1000 Ang^3
#
#
#
# Elastic Constant Matrix: (Units=GPa)
#
#
# Indices 1 2 3 4 5 6 
#
# 1 32.1792 35.7134 43.3290 0.0000 0.0000 0.0000
# 2 35.7134 87.8899 61.6250 0.0000 0.0000 0.0000
# 3 43.3290 61.6250 122.2649 0.0000 0.0000 0.0000
# 4 0.0000 0.0000 0.0000 16.7497 0.0000 0.0000
# 5 0.0000 0.0000 0.0000 0.0000 26.4110 0.0000
# 6 0.0000 0.0000 0.0000 0.0000 0.0000 16.4363
#
#
#
# Elastic Compliance Matrix: (Units=1/GPa)
#
#
# Indices 1 2 3 4 5 6 
#
# 1 0.074423 -0.018170 -0.017216 0.000000 0.000000 0.000000
# 2 -0.018170 0.022033 -0.004666 0.000000 0.000000 0.000000
# 3 -0.017216 -0.004666 0.016632 0.000000 0.000000 0.000000
# 4 0.000000 0.000000 0.000000 0.059702 0.000000 0.000000
# 5 0.000000 0.000000 0.000000 0.000000 0.037863 0.000000
# 6 0.000000 0.000000 0.000000 0.000000 0.000000 0.060841
#
#
# Mechanical properties :
#
#
# Convention : Reuss Voigt Hill
#
# Bulk Modulus (GPa) = 30.31828 58.18542 44.25185
# Shear Modulus (GPa) = 13.78957 18.69718 16.24337
#
# Velocity S-wave (km/s) = 2.72296 3.17069 2.95531
# Velocity P-wave (km/s) = 5.11740 6.68506 5.95306
#
# Compressibility (1/GPa) = 0.03298340
#
# Stress axis : x y z
#
# Youngs Moduli (GPa) = 13.43668 45.38726 60.12503
#
# Poissons Ratio (x) = 0.82468 1.03514
# Poissons Ratio (y) = 0.24414 0.28054
# Poissons Ratio (z) = 0.23133 0.21177
#
# Static dielectric constant tensor:
#      x y z
#    x 1.621450 0.000000 0.000000 
#    y 0.000000 1.632790 0.000000 
#    z 0.000000 0.000000 1.644740 
# 
# From -- ./inp_files/21932.got.cif
#   From: 2010.05.17/outbox.cif.g08.bks.cpg/sg47_11_cif.got.tgz:21932.got - 2010.06.03 20:15:42.
