data_PCOD9386024
_publ_section_title
;
Structure prediction by ZEFSAII (Michael W. Deem and Ramdas Pophale) SiO2 
 PCOD9386024
Probable space group: P M M M
;
_chemical_formula_sum "Si O2"
_cell_formula_units_Z 40
_cell_length_a 8.047156
_cell_length_b 28.259288
_cell_length_c 9.385584
_cell_angle_alpha 90.000000
_cell_angle_beta 90.000000
_cell_angle_gamma 90.000000
_cell_volume 2134.346553
_symmetry_space_group_name_H-M "P M M M"
_symmetry_group_IT_number 47
_symmetry_cell_setting 'orthorhombic'
loop_
_space_group_symop_operation_xyz
x,y,z
-x,-y,z
x,-y,-z
-x,y,-z
-x,-y,-z
x,y,-z
-x,y,z
x,-y,z
loop_
_atom_site_type_symbol
_atom_site_label
_atom_site_fract_x
_atom_site_fract_y
_atom_site_fract_z
Si Si1 0.800180 0.694808 0.336612
Si Si2 0.310869 0.119071 0.329147
Si Si3 0.201832 0.787397 0.833411
Si Si4 0.698009 0.591169 0.662237
Si Si5 0.000000 0.945928 0.326854
Si Si6 0.197799 0.500000 0.839932
O O1 0.738167 0.699466 0.500000
O O2 0.743643 0.738388 0.240168
O O3 0.752683 0.642686 0.283284
O O4 0.000000 0.696924 0.341063
O O5 0.294737 0.126424 0.500000
O O6 0.500000 0.102674 0.301790
O O7 0.277898 0.168221 0.249256
O O8 0.166460 0.082436 0.284974
O O9 0.000000 0.790529 0.821708
O O10 0.244543 0.788234 0.000000
O O11 0.764471 0.586211 0.500000
O O12 0.500000 0.591020 0.655139
O O13 0.751235 0.547082 0.756342
O O14 0.000000 0.947153 0.500000
O O15 0.000000 0.000000 0.275992
O O16 0.000000 0.500000 0.848218
O O17 0.267723 0.500000 0.000000
#
# Coordination Sequence:
#
# PCOD9386024 Si02
#       6
#     8   8   8   8   4   4
#     4   9  18  33  54  79 109 146 185 225 270 323
#     4  10  20  34  56  84 113 149 191 233 281 338
#     4  10  20  34  54  80 112 150 188 229 278 330
#     4  10  21  37  57  81 108 138 175 220 270 326
#     4   9  18  34  57  85 117 149 185 236 289 332
#     4  11  24  39  56  78 104 137 178 223 270 324
#
# _framework density 18.741098000000001
#
# number of rings (size 3 to 8) (size 9 to 14) (size 15 to 20)
#    0.000    2.200    1.000    1.800    0.000    6.400 
#    0.000    6.000    0.000    1.200    0.000    1.400 
#    0.000    0.000    0.000    0.000    0.000    0.000 
#
# Total GULP energy -223257.632429 kJ/mol
# GULP energy per Si atom -5581.440811 kJ/mol
# Density = 1.869844 g / cm^3
# Si number density = 18.741098 Si / 1000 Ang^3
#
#
#
# Elastic Constant Matrix: (Units=GPa)
#
#
# Indices 1 2 3 4 5 6 
#
# 1 76.5630 66.7197 38.6782 0.0000 0.0000 0.0000
# 2 66.7197 193.4658 73.0980 0.0000 0.0000 0.0000
# 3 38.6782 73.0980 61.3503 0.0000 0.0000 0.0000
# 4 0.0000 0.0000 0.0000 -7.3503 0.0000 0.0000
# 5 0.0000 0.0000 0.0000 0.0000 15.4883 0.0000
# 6 0.0000 0.0000 0.0000 0.0000 0.0000 -10.9584
#
#
#
# Elastic Compliance Matrix: (Units=1/GPa)
#
#
# Indices 1 2 3 4 5 6 
#
# 1 0.020758 -0.004027 -0.008289 0.000000 0.000000 0.000000
# 2 -0.004027 0.010182 -0.009593 0.000000 0.000000 0.000000
# 3 -0.008289 -0.009593 0.032956 0.000000 0.000000 0.000000
# 4 0.000000 0.000000 0.000000 -0.136050 0.000000 0.000000
# 5 0.000000 0.000000 0.000000 0.000000 0.064565 0.000000
# 6 0.000000 0.000000 0.000000 0.000000 0.000000 -0.091254
#
#
# Mechanical properties :
#
#
# Convention : Reuss Voigt Hill
#
# Bulk Modulus (GPa) = 49.80595 76.48567 63.14581
# Shear Modulus (GPa) = -103.44871 9.62813 -46.91029
#
# Velocity S-wave (km/s) = -7.43765 2.26905 -5.00850
# Velocity P-wave (km/s) = 6.86475 6.91123 0.56585
#
# Compressibility (1/GPa) = 0.02007792
#
# Stress axis : x y z
#
# Youngs Moduli (GPa) = 48.17523 98.20977 30.34366
#
# Poissons Ratio (x) = 0.39547 0.25151
# Poissons Ratio (y) = 0.19399 0.29110
# Poissons Ratio (z) = 0.39931 0.94216
#
# Static dielectric constant tensor:
#      x y z
#    x 1.664310 0.000000 0.000000 
#    y 0.000000 1.631620 0.000000 
#    z 0.000000 0.000000 1.641730 
# 
# From -- ./inp_files/1834.got.cif
#   From: 2010.05.17/outbox.cif.g08.bks.cpg/sg47_1_cif.got.tgz:1834.got - 2010.06.03 20:15:42.
