data_PCOD9386343
_publ_section_title
;
Structure prediction by ZEFSAII (Michael W. Deem and Ramdas Pophale) SiO2 
 PCOD9386343
Probable space group: P M M M
;
_chemical_formula_sum "Si O2"
_cell_formula_units_Z 56
_cell_length_a 14.167986
_cell_length_b 9.117384
_cell_length_c 23.892200
_cell_angle_alpha 90.000000
_cell_angle_beta 90.000000
_cell_angle_gamma 90.000000
_cell_volume 3086.274191
_symmetry_space_group_name_H-M "P M M M"
_symmetry_group_IT_number 47
_symmetry_cell_setting 'orthorhombic'
loop_
_space_group_symop_operation_xyz
x,y,z
-x,-y,z
x,-y,-z
-x,y,-z
-x,-y,-z
x,y,-z
-x,y,z
x,-y,z
loop_
_atom_site_type_symbol
_atom_site_label
_atom_site_fract_x
_atom_site_fract_y
_atom_site_fract_z
Si Si1 0.294274 0.175741 0.563659
Si Si2 0.606791 0.323622 0.332416
Si Si3 0.892240 0.825289 0.370030
Si Si4 0.791867 0.675525 0.733394
Si Si5 0.394836 0.830639 0.932055
Si Si6 0.796123 0.673306 0.066287
Si Si7 0.891323 0.174020 0.835187
O O1 0.310863 0.223428 0.500000
O O2 0.360301 0.252607 0.609218
O O3 0.186090 0.204876 0.582639
O O4 0.308121 0.000000 0.566580
O O5 0.500000 0.279947 0.318213
O O6 0.609664 0.500000 0.338160
O O7 0.686073 0.283877 0.286635
O O8 0.860169 0.736342 0.315415
O O9 0.000000 0.791736 0.385841
O O10 0.887005 0.000000 0.357426
O O11 0.798654 0.500000 0.737076
O O12 0.823228 0.748517 0.790894
O O13 0.500000 0.786766 0.912888
O O14 0.308364 0.727895 0.915956
O O15 0.377732 0.000000 0.915277
O O16 0.397202 0.829362 0.000000
O O17 0.805416 0.500000 0.075156
O O18 0.869318 0.761274 0.103907
O O19 0.807055 0.702877 0.000000
O O20 0.000000 0.203572 0.819568
O O21 0.876601 0.000000 0.834773
#
# Coordination Sequence:
#
# PCOD9386343 Si02
#       7
#     8   8   8   8   8   8   8
#     4   9  18  31  47  72 106 141 179 221 260 302
#     4   9  19  36  56  77 103 137 174 212 259 314
#     4   9  17  30  49  72 100 136 175 215 262 314
#     4  10  20  35  56  79 102 129 166 215 267 316
#     4   8  14  27  49  75 103 137 174 209 246 291
#     4  10  21  36  55  81 112 144 178 218 263 310
#     4  11  24  40  58  79 104 137 175 214 260 318
#
# _framework density 18.144856999999998
#
# number of rings (size 3 to 8) (size 9 to 14) (size 15 to 20)
#    0.000    2.571    0.000    2.143    0.000    6.286 
#    0.000    6.429    0.000    2.571    0.000    4.000 
#    0.000    0.000    0.000    0.000    0.000    0.000 
#
# Total GULP energy -312326.308728 kJ/mol
# GULP energy per Si atom -5577.255513 kJ/mol
# Density = 1.810356 g / cm^3
# Si number density = 18.144857 Si / 1000 Ang^3
#
#
#
# Elastic Constant Matrix: (Units=GPa)
#
#
# Indices 1 2 3 4 5 6 
#
# 1 110.6661 44.8531 43.8540 0.0000 0.0000 0.0000
# 2 44.8531 42.0480 40.9694 0.0000 0.0000 0.0000
# 3 43.8540 40.9694 73.0656 0.0000 0.0000 0.0000
# 4 0.0000 0.0000 0.0000 26.5511 0.0000 0.0000
# 5 0.0000 0.0000 0.0000 0.0000 10.4805 0.0000
# 6 0.0000 0.0000 0.0000 0.0000 0.0000 24.9049
#
#
#
# Elastic Compliance Matrix: (Units=1/GPa)
#
#
# Indices 1 2 3 4 5 6 
#
# 1 0.015918 -0.016910 -0.000073 0.000000 0.000000 0.000000
# 2 -0.016910 0.070386 -0.029318 0.000000 0.000000 0.000000
# 3 -0.000073 -0.029318 0.030169 0.000000 0.000000 0.000000
# 4 0.000000 0.000000 0.000000 0.037663 0.000000 0.000000
# 5 0.000000 0.000000 0.000000 0.000000 0.095415 0.000000
# 6 0.000000 0.000000 0.000000 0.000000 0.000000 0.040153
#
#
# Mechanical properties :
#
#
# Convention : Reuss Voigt Hill
#
# Bulk Modulus (GPa) = 41.88782 53.90364 47.89573
# Shear Modulus (GPa) = 12.81191 18.79419 15.80305
#
# Velocity S-wave (km/s) = 2.66012 3.22185 2.95437
# Velocity P-wave (km/s) = 5.70704 6.60396 6.17182
#
# Compressibility (1/GPa) = 0.02387329
#
# Stress axis : x y z
#
# Youngs Moduli (GPa) = 62.82004 14.20745 33.14666
#
# Poissons Ratio (x) = 0.24024 0.00241
# Poissons Ratio (y) = 1.06226 0.97178
# Poissons Ratio (z) = 0.00457 0.41653
#
# Static dielectric constant tensor:
#      x y z
#    x 1.638100 0.000000 0.000000 
#    y 0.000000 1.602660 0.000000 
#    z 0.000000 0.000000 1.610570 
# 
# From -- ./inp_files/7290.got.cif
#   From: 2010.05.17/outbox.cif.g08.bks.cpg/sg47_4_cif.got.tgz:7290.got - 2010.06.03 20:15:42.
