data_PCOD9386349
_publ_section_title
;
Structure prediction by ZEFSAII (Michael W. Deem and Ramdas Pophale) SiO2 
 PCOD9386349
Probable space group: P M M M
;
_chemical_formula_sum "Si O2"
_cell_formula_units_Z 41
_cell_length_a 30.162134
_cell_length_b 9.174333
_cell_length_c 7.699480
_cell_angle_alpha 90.000000
_cell_angle_beta 90.000000
_cell_angle_gamma 90.000000
_cell_volume 2130.580559
_symmetry_space_group_name_H-M "P M M M"
_symmetry_group_IT_number 47
_symmetry_cell_setting 'orthorhombic'
loop_
_space_group_symop_operation_xyz
x,y,z
-x,-y,z
x,-y,-z
-x,y,-z
-x,-y,-z
x,y,-z
-x,y,z
x,-y,z
loop_
_atom_site_type_symbol
_atom_site_label
_atom_site_fract_x
_atom_site_fract_y
_atom_site_fract_z
Si Si1 0.856791 0.325960 0.293013
Si Si2 0.500000 0.667844 0.713104
Si Si3 0.587496 0.835486 0.707373
Si Si4 0.000000 0.000000 0.000000
Si Si5 0.323229 0.664647 0.206569
Si Si6 0.766540 0.165423 0.708149
Si Si7 0.091750 0.161862 0.000000
O O1 0.863561 0.297110 0.500000
O O2 0.856755 0.500000 0.268919
O O3 0.809280 0.258905 0.237915
O O4 0.892709 0.248918 0.170404
O O5 0.500000 0.500000 0.767764
O O6 0.500000 0.668205 0.500000
O O7 0.544335 0.749958 0.772860
O O8 0.581815 0.846129 0.500000
O O9 0.632619 0.748048 0.736761
O O10 0.590381 0.000000 0.777228
O O11 0.960248 0.124825 0.000000
O O12 0.321483 0.500000 0.278791
O O13 0.279176 0.753956 0.251267
O O14 0.325090 0.654796 0.000000
O O15 0.769301 0.156473 0.500000
O O16 0.767297 0.000000 0.777194
O O17 0.113778 0.000000 0.000000
#
# Coordination Sequence:
#
# PCOD9386349 Si02
#       7
#     8   4   8   1   8   8   4
#     4  10  21  38  63  95 129 167 212 263 319 377
#     4   9  17  31  54  81 104 131 174 224 280 345
#     4  10  20  35  56  80 105 136 177 230 286 343
#     4   8  24  44  64 100 128 174 226 260 322 374
#     4  11  24  38  52  75 111 151 190 232 286 348
#     4  10  21  37  58  86 117 152 196 243 292 354
#     4  10  21  41  65  91 127 170 214 262 312 365
#
# _framework density 19.243582
#
# number of rings (size 3 to 8) (size 9 to 14) (size 15 to 20)
#    0.293    1.659    0.000    3.512    1.366    8.585 
#    0.000    2.439    0.000    4.098    0.000    0.000 
#    0.000    0.000    0.000    0.000    0.000    0.000 
#
# Total GULP energy -228641.760622 kJ/mol
# GULP energy per Si atom -5576.628308 kJ/mol
# Density = 1.919978 g / cm^3
# Si number density = 19.243582 Si / 1000 Ang^3
#
#
#
# Elastic Constant Matrix: (Units=GPa)
#
#
# Indices 1 2 3 4 5 6 
#
# 1 195.4845 105.5965 36.8191 0.0000 0.0000 0.0000
# 2 105.5965 192.5652 45.3883 0.0000 0.0000 0.0000
# 3 36.8191 45.3883 53.1879 0.0000 0.0000 0.0000
# 4 0.0000 0.0000 0.0000 16.0552 0.0000 0.0000
# 5 0.0000 0.0000 0.0000 0.0000 9.7885 0.0000
# 6 0.0000 0.0000 0.0000 0.0000 0.0000 21.4072
#
#
#
# Elastic Compliance Matrix: (Units=1/GPa)
#
#
# Indices 1 2 3 4 5 6 
#
# 1 0.007450 -0.003592 -0.002092 0.000000 0.000000 0.000000
# 2 -0.003592 0.008233 -0.004539 0.000000 0.000000 0.000000
# 3 -0.002092 -0.004539 0.024122 0.000000 0.000000 0.000000
# 4 0.000000 0.000000 0.000000 0.062285 0.000000 0.000000
# 5 0.000000 0.000000 0.000000 0.000000 0.102161 0.000000
# 6 0.000000 0.000000 0.000000 0.000000 0.000000 0.046713
#
#
# Mechanical properties :
#
#
# Convention : Reuss Voigt Hill
#
# Bulk Modulus (GPa) = 51.65380 90.76059 71.20719
# Shear Modulus (GPa) = 17.99447 26.34575 22.17011
#
# Velocity S-wave (km/s) = 3.06124 3.70410 3.39791
# Velocity P-wave (km/s) = 6.27657 8.09693 7.24416
#
# Compressibility (1/GPa) = 0.01935966
#
# Stress axis : x y z
#
# Youngs Moduli (GPa) = 134.22942 121.46641 41.45534
#
# Poissons Ratio (x) = 0.43634 0.08671
# Poissons Ratio (y) = 0.48219 0.18815
# Poissons Ratio (z) = 0.28076 0.55130
#
# Static dielectric constant tensor:
#      x y z
#    x 1.637700 0.000000 0.000000 
#    y 0.000000 1.683060 0.000000 
#    z 0.000000 0.000000 1.703190 
# 
# From -- ./inp_files/13096.got.cif
#   From: 2010.05.17/outbox.cif.g08.bks.cpg/sg47_7_cif.got.tgz:13096.got - 2010.06.03 20:15:42.
