data_PCOD9386515
_publ_section_title
;
Structure prediction by ZEFSAII (Michael W. Deem and Ramdas Pophale) SiO2 
 PCOD9386515
Probable space group: P M M M
;
_chemical_formula_sum "Si O2"
_cell_formula_units_Z 56
_cell_length_a 21.502046
_cell_length_b 7.984050
_cell_length_c 14.974730
_cell_angle_alpha 90.000000
_cell_angle_beta 90.000000
_cell_angle_gamma 90.000000
_cell_volume 2570.762968
_symmetry_space_group_name_H-M "P M M M"
_symmetry_group_IT_number 47
_symmetry_cell_setting 'orthorhombic'
loop_
_space_group_symop_operation_xyz
x,y,z
-x,-y,z
x,-y,-z
-x,y,-z
-x,-y,-z
x,y,-z
-x,y,z
x,-y,z
loop_
_atom_site_type_symbol
_atom_site_label
_atom_site_fract_x
_atom_site_fract_y
_atom_site_fract_z
Si Si1 0.201789 0.688404 0.605286
Si Si2 0.376618 0.796996 0.792246
Si Si3 0.662808 0.803162 0.602138
Si Si4 0.748832 0.699900 0.104568
Si Si5 0.931670 0.307413 0.351207
Si Si6 0.500000 0.204813 0.896751
Si Si7 0.926734 0.310316 0.000000
Si Si8 0.877015 0.810899 0.181945
O O1 0.206927 0.669380 0.500000
O O2 0.202059 0.500000 0.646287
O O3 0.264507 0.783249 0.629429
O O4 0.134061 0.769492 0.618525
O O5 0.372848 0.734292 0.689211
O O6 0.316270 0.747507 0.849877
O O7 0.438318 0.741258 0.844103
O O8 0.377344 0.000000 0.788085
O O9 0.653748 0.734341 0.500000
O O10 0.648773 0.000000 0.595849
O O11 0.754032 0.500000 0.102188
O O12 0.804832 0.765186 0.167566
O O13 0.753362 0.759391 0.000000
O O14 0.931909 0.500000 0.384178
O O15 0.918920 0.303734 0.245683
O O16 0.000000 0.235964 0.372259
O O17 0.500000 0.000000 0.897552
O O18 0.500000 0.259469 0.000000
O O19 0.904600 0.211396 0.085049
O O20 0.899794 0.500000 0.000000
O O21 0.000000 0.323325 0.000000
O O22 0.883008 0.000000 0.214377
#
# Coordination Sequence:
#
# PCOD9386515 Si02
#       8
#     8   8   8   8   8   4   4   8
#     4   9  18  33  54  79 105 137 181 230 279 335
#     4  10  20  35  58  85 114 151 193 232 276 333
#     4   9  18  33  53  80 113 146 182 229 283 334
#     4  11  23  38  57  81 111 144 182 233 290 341
#     4  10  21  36  53  74 104 142 181 226 283 341
#     4   9  18  34  56  84 118 155 193 237 284 331
#     4  11  23  39  57  75 101 138 177 220 275 333
#     4  12  24  37  55  78 105 138 180 228 275 330
#
# _framework density 21.783417
#
# number of rings (size 3 to 8) (size 9 to 14) (size 15 to 20)
#    0.000    1.857    0.714    3.643    0.000    7.714 
#    0.000    2.143    0.000    3.429    0.000    3.000 
#    0.000    3.429    0.000    0.000    0.000    0.000 
#
# Total GULP energy -312342.868229 kJ/mol
# GULP energy per Si atom -5577.551218 kJ/mol
# Density = 2.173384 g / cm^3
# Si number density = 21.783417 Si / 1000 Ang^3
#
#
#
# Elastic Constant Matrix: (Units=GPa)
#
#
# Indices 1 2 3 4 5 6 
#
# 1 134.8075 5.3614 41.9587 0.0000 0.0000 0.0000
# 2 5.3614 45.1845 7.3022 0.0000 0.0000 0.0000
# 3 41.9587 7.3022 105.5843 0.0000 0.0000 0.0000
# 4 0.0000 0.0000 0.0000 15.8386 0.0000 0.0000
# 5 0.0000 0.0000 0.0000 0.0000 30.9296 0.0000
# 6 0.0000 0.0000 0.0000 0.0000 0.0000 22.0449
#
#
#
# Elastic Compliance Matrix: (Units=1/GPa)
#
#
# Indices 1 2 3 4 5 6 
#
# 1 0.008475 -0.000467 -0.003336 0.000000 0.000000 0.000000
# 2 -0.000467 0.022407 -0.001364 0.000000 0.000000 0.000000
# 3 -0.003336 -0.001364 0.010891 0.000000 0.000000 0.000000
# 4 0.000000 0.000000 0.000000 0.063137 0.000000 0.000000
# 5 0.000000 0.000000 0.000000 0.000000 0.032332 0.000000
# 6 0.000000 0.000000 0.000000 0.000000 0.000000 0.045362
#
#
# Mechanical properties :
#
#
# Convention : Reuss Voigt Hill
#
# Bulk Modulus (GPa) = 31.80628 43.86897 37.83762
# Shear Modulus (GPa) = 24.58012 29.15954 26.86983
#
# Velocity S-wave (km/s) = 3.36279 3.66267 3.51593
# Velocity P-wave (km/s) = 5.45075 6.17003 5.82151
#
# Compressibility (1/GPa) = 0.03144034
#
# Stress axis : x y z
#
# Youngs Moduli (GPa) = 117.99795 44.62824 91.81906
#
# Poissons Ratio (x) = 0.02082 0.30627
# Poissons Ratio (y) = 0.05505 0.12527
# Poissons Ratio (z) = 0.39359 0.06089
#
# Static dielectric constant tensor:
#      x y z
#    x 1.786940 0.000000 0.000000 
#    y 0.000000 1.850850 0.000000 
#    z 0.000000 0.000000 1.854770 
# 
# From -- ./inp_files/25199.got.cif
#   From: 2010.05.17/outbox.cif.g08.bks.cpg/sg47_13_cif.got.tgz:25199.got - 2010.06.03 20:15:42.
