data_PCOD9386264
_publ_section_title
;
Structure prediction by ZEFSAII (Michael W. Deem and Ramdas Pophale) SiO2 
 PCOD9386264
Probable space group: P M M M
;
_chemical_formula_sum "Si O2"
_cell_formula_units_Z 64
_cell_length_a 20.480620
_cell_length_b 20.855874
_cell_length_c 8.851304
_cell_angle_alpha 90.000000
_cell_angle_beta 90.000000
_cell_angle_gamma 90.000000
_cell_volume 3780.756879
_symmetry_space_group_name_H-M "P M M M"
_symmetry_group_IT_number 47
_symmetry_cell_setting 'orthorhombic'
loop_
_space_group_symop_operation_xyz
x,y,z
-x,-y,z
x,-y,-z
-x,y,-z
-x,-y,-z
x,y,-z
-x,y,z
x,-y,z
loop_
_atom_site_type_symbol
_atom_site_label
_atom_site_fract_x
_atom_site_fract_y
_atom_site_fract_z
Si Si1 0.423722 0.302335 0.182536
Si Si2 0.349265 0.569795 0.184104
Si Si3 0.928599 0.605671 0.680019
Si Si4 0.341460 0.185981 0.320814
Si Si5 0.070610 0.747128 0.820047
Si Si6 0.793782 0.389905 0.180713
Si Si7 0.574669 0.924902 0.818341
Si Si8 0.787989 0.236758 0.820316
O O1 0.500000 0.299511 0.220041
O O2 0.391909 0.369636 0.232137
O O3 0.384345 0.244140 0.254170
O O4 0.417505 0.297962 0.000000
O O5 0.373859 0.500000 0.232172
O O6 0.273854 0.578409 0.230942
O O7 0.349345 0.570958 0.000000
O O8 0.925689 0.599432 0.500000
O O9 0.929537 0.680570 0.729049
O O10 0.860319 0.582506 0.749296
O O11 0.000000 0.579552 0.730190
O O12 0.344442 0.186421 0.500000
O O13 0.373053 0.121002 0.257647
O O14 0.267850 0.199163 0.266097
O O15 0.137516 0.783441 0.784261
O O16 0.000000 0.778840 0.794710
O O17 0.074782 0.731018 0.000000
O O18 0.786130 0.313440 0.213092
O O19 0.799112 0.396151 0.000000
O O20 0.500000 0.907096 0.774733
O O21 0.583907 0.000000 0.782281
O O22 0.578773 0.918208 0.000000
O O23 0.776563 0.230025 0.000000
#
# Coordination Sequence:
#
# PCOD9386264 Si02
#       8
#     8   8   8   8   8   8   8   8
#     4  10  20  35  54  73  95 124 158 199 249 302
#     4   9  17  31  51  73  93 114 151 205 257 300
#     4   9  16  24  37  60  88 116 148 188 232 282
#     4  12  23  32  48  75 107 138 167 201 238 281
#     4   8  14  25  41  62  89 122 158 197 243 288
#     4   9  16  28  46  65  88 118 152 195 244 292
#     4   9  19  37  59  79 100 131 169 205 244 291
#     4   9  16  28  46  67  95 129 164 201 242 289
#
# _framework density 16.927828000000002
#
# number of rings (size 3 to 8) (size 9 to 14) (size 15 to 20)
#    0.000    2.625    1.250    3.000    0.000    5.250 
#    0.000    1.875    0.000    1.875    0.000    3.500 
#    0.000    0.500    0.000    5.750    0.000    1.750 
#
# Total GULP energy -356664.746171 kJ/mol
# GULP energy per Si atom -5572.886659 kJ/mol
# Density = 1.688930 g / cm^3
# Si number density = 16.927828 Si / 1000 Ang^3
#
#
#
# Elastic Constant Matrix: (Units=GPa)
#
#
# Indices 1 2 3 4 5 6 
#
# 1 137.2209 50.9917 37.3732 0.0000 0.0000 0.0000
# 2 50.9917 56.9761 21.8592 0.0000 0.0000 0.0000
# 3 37.3732 21.8592 21.4202 0.0000 0.0000 0.0000
# 4 0.0000 0.0000 0.0000 -10.9576 0.0000 0.0000
# 5 0.0000 0.0000 0.0000 0.0000 8.1556 0.0000
# 6 0.0000 0.0000 0.0000 0.0000 0.0000 561.6860
#
#
#
# Elastic Compliance Matrix: (Units=1/GPa)
#
#
# Indices 1 2 3 4 5 6 
#
# 1 0.014870 -0.005513 -0.020319 0.000000 0.000000 0.000000
# 2 -0.005513 0.030888 -0.021903 0.000000 0.000000 0.000000
# 3 -0.020319 -0.021903 0.104488 0.000000 0.000000 0.000000
# 4 0.000000 0.000000 0.000000 -0.091261 0.000000 0.000000
# 5 0.000000 0.000000 0.000000 0.000000 0.122615 0.000000
# 6 0.000000 0.000000 0.000000 0.000000 0.000000 0.001780
#
#
# Mechanical properties :
#
#
# Convention : Reuss Voigt Hill
#
# Bulk Modulus (GPa) = 18.25561 48.45169 33.35365
# Shear Modulus (GPa) = 16.82884 118.80300 67.81592
#
# Velocity S-wave (km/s) = 3.15644 8.38656 6.33631
# Velocity P-wave (km/s) = 4.90835 11.06634 8.56025
#
# Compressibility (1/GPa) = 0.05477768
#
# Stress axis : x y z
#
# Youngs Moduli (GPa) = 67.24873 32.37507 9.57043
#
# Poissons Ratio (x) = 0.17848 0.19446
# Poissons Ratio (y) = 0.37072 0.20962
# Poissons Ratio (z) = 1.36644 0.70910
#
# Static dielectric constant tensor:
#      x y z
#    x 1.611640 0.000000 0.000000 
#    y 0.000000 1.557480 0.000000 
#    z 0.000000 0.000000 1.564910 
# 
# From -- ./inp_files/11649.got.cif
#   From: 2010.05.17/outbox.cif.g08.bks.cpg/sg47_6_cif.got.tgz:11649.got - 2010.06.03 20:15:42.
