data_PCOD9386274
_publ_section_title
;
Structure prediction by ZEFSAII (Michael W. Deem and Ramdas Pophale) SiO2 
 PCOD9386274
Probable space group: P M M M
;
_chemical_formula_sum "Si O2"
_cell_formula_units_Z 52
_cell_length_a 9.045604
_cell_length_b 21.280419
_cell_length_c 15.449418
_cell_angle_alpha 90.000000
_cell_angle_beta 90.000000
_cell_angle_gamma 90.000000
_cell_volume 2973.924026
_symmetry_space_group_name_H-M "P M M M"
_symmetry_group_IT_number 47
_symmetry_cell_setting 'orthorhombic'
loop_
_space_group_symop_operation_xyz
x,y,z
-x,-y,z
x,-y,-z
-x,y,-z
-x,-y,-z
x,y,-z
-x,y,z
x,-y,z
loop_
_atom_site_type_symbol
_atom_site_label
_atom_site_fract_x
_atom_site_fract_y
_atom_site_fract_z
Si Si1 0.672555 0.853695 0.846464
Si Si2 0.178379 0.408321 0.759440
Si Si3 0.822025 0.261119 0.763855
Si Si4 0.177129 0.810906 0.407656
Si Si5 0.823440 0.927602 0.000000
Si Si6 0.178884 0.500000 0.602582
Si Si7 0.326996 0.927695 0.334994
Si Si8 0.678260 0.500000 0.102923
O O1 0.500000 0.848667 0.868572
O O2 0.741417 0.784866 0.830937
O O3 0.685137 0.895311 0.759146
O O4 0.761317 0.891247 0.917925
O O5 0.212696 0.334590 0.764380
O O6 0.219532 0.441089 0.666666
O O7 0.256244 0.442335 0.840528
O O8 0.000000 0.416251 0.767197
O O9 0.775510 0.232596 0.671213
O O10 0.000000 0.254388 0.773502
O O11 0.226057 0.785312 0.500000
O O12 0.236666 0.881092 0.395506
O O13 0.000000 0.812832 0.405371
O O14 0.000000 0.926892 0.000000
O O15 0.772948 0.000000 0.000000
O O16 0.229718 0.500000 0.500000
O O17 0.000000 0.500000 0.597006
O O18 0.500000 0.926725 0.359202
O O19 0.277349 0.000000 0.334028
O O20 0.500000 0.500000 0.107233
O O21 0.718980 0.500000 0.000000
#
# Coordination Sequence:
#
# PCOD9386274 Si02
#       8
#     8   8   8   8   4   4   8   4
#     4  10  20  35  54  75 100 132 171 213 258 311
#     4   9  18  33  55  81 108 142 179 215 260 311
#     4   9  18  34  53  74 104 139 174 213 258 308
#     4   9  18  31  47  70 100 132 167 209 255 304
#     4  11  23  37  55  79 105 132 165 210 265 321
#     4   8  14  26  48  81 114 139 173 220 262 308
#     4   9  18  32  49  68  92 126 168 212 257 305
#     4  10  21  37  56  79 106 137 173 216 260 306
#
# _framework density 17.485315
#
# number of rings (size 3 to 8) (size 9 to 14) (size 15 to 20)
#    0.000    2.692    0.000    1.846    0.000    4.615 
#    1.385    4.615    0.000    3.692    0.000    6.462 
#    0.000    0.000    0.000    0.000    0.000    0.000 
#
# Total GULP energy -289604.058943 kJ/mol
# GULP energy per Si atom -5569.308826 kJ/mol
# Density = 1.744552 g / cm^3
# Si number density = 17.485315 Si / 1000 Ang^3
#
#
#
# Elastic Constant Matrix: (Units=GPa)
#
#
# Indices 1 2 3 4 5 6 
#
# 1 30.6032 42.6363 41.4143 0.0000 0.0000 0.0000
# 2 42.6363 163.7585 60.4009 0.0000 0.0000 0.0000
# 3 41.4143 60.4009 110.8908 0.0000 0.0000 0.0000
# 4 0.0000 0.0000 0.0000 10.8636 0.0000 0.0000
# 5 0.0000 0.0000 0.0000 0.0000 14.4616 0.0000
# 6 0.0000 0.0000 0.0000 0.0000 0.0000 18.3868
#
#
#
# Elastic Compliance Matrix: (Units=1/GPa)
#
#
# Indices 1 2 3 4 5 6 
#
# 1 0.082950 -0.012727 -0.024047 0.000000 0.000000 0.000000
# 2 -0.012727 0.009595 -0.000473 0.000000 0.000000 0.000000
# 3 -0.024047 -0.000473 0.018256 0.000000 0.000000 0.000000
# 4 0.000000 0.000000 0.000000 0.092050 0.000000 0.000000
# 5 0.000000 0.000000 0.000000 0.000000 0.069149 0.000000
# 6 0.000000 0.000000 0.000000 0.000000 0.000000 0.054387
#
#
# Mechanical properties :
#
#
# Convention : Reuss Voigt Hill
#
# Bulk Modulus (GPa) = 27.54308 66.01727 46.78017
# Shear Modulus (GPa) = 12.10703 19.46247 15.78475
#
# Velocity S-wave (km/s) = 2.63423 3.33990 3.00783
# Velocity P-wave (km/s) = 5.00385 7.26024 6.23496
#
# Compressibility (1/GPa) = 0.03630676
#
# Stress axis : x y z
#
# Youngs Moduli (GPa) = 12.05544 104.22462 54.77608
#
# Poissons Ratio (x) = 1.32652 1.31719
# Poissons Ratio (y) = 0.15344 0.02590
# Poissons Ratio (z) = 0.28990 0.04928
#
# Static dielectric constant tensor:
#      x y z
#    x 1.581510 0.000000 0.000000 
#    y 0.000000 1.582370 0.000000 
#    z 0.000000 0.000000 1.479480 
# 
# From -- ./inp_files/21512.got.cif
#   From: 2010.05.17/outbox.cif.g08.bks.cpg/sg47_11_cif.got.tgz:21512.got - 2010.06.03 20:15:42.
