data_PCOD9386660
_publ_section_title
;
Structure prediction by ZEFSAII (Michael W. Deem and Ramdas Pophale) SiO2 
 PCOD9386660
Probable space group: P M M M
;
_chemical_formula_sum "Si O2"
_cell_formula_units_Z 25
_cell_length_a 7.928612
_cell_length_b 7.814042
_cell_length_c 21.432107
_cell_angle_alpha 90.000000
_cell_angle_beta 90.000000
_cell_angle_gamma 90.000000
_cell_volume 1327.815627
_symmetry_space_group_name_H-M "P M M M"
_symmetry_group_IT_number 47
_symmetry_cell_setting 'orthorhombic'
loop_
_space_group_symop_operation_xyz
x,y,z
-x,-y,z
x,-y,-z
-x,y,-z
-x,-y,-z
x,y,-z
-x,y,z
x,-y,z
loop_
_atom_site_type_symbol
_atom_site_label
_atom_site_fract_x
_atom_site_fract_y
_atom_site_fract_z
Si Si1 0.292593 0.500000 0.608190
Si Si2 0.200180 0.690375 0.841379
Si Si3 0.702245 0.191832 0.297252
Si Si4 0.000000 0.500000 0.500000
Si Si5 0.699592 0.000000 0.930197
O O1 0.500000 0.500000 0.592760
O O2 0.257885 0.332914 0.650855
O O3 0.153661 0.500000 0.553760
O O4 0.272280 0.500000 0.852182
O O5 0.241630 0.749258 0.771194
O O6 0.255299 0.832501 0.890529
O O7 0.000000 0.680066 0.845968
O O8 0.500000 0.183602 0.295278
O O9 0.767181 0.000000 0.310643
O O10 0.500000 0.000000 0.935875
O O11 0.774546 0.000000 0.000000
#
# Coordination Sequence:
#
# PCOD9386660 Si02
#       5
#     4   8   8   1   4
#     4  10  23  43  65  92 130 172 207 259 320 371
#     4  11  23  37  60  93 127 161 206 264 321 377
#     4  10  20  36  62  94 125 160 207 261 313 366
#     4  12  26  44  70  94 132 170 212 256 294 410
#     4  11  25  43  61  85 123 171 216 259 320 389
#
# _framework density 18.827915000000001
#
# number of rings (size 3 to 8) (size 9 to 14) (size 15 to 20)
#    0.000    1.440    3.200    1.680    2.240    3.840 
#    0.000    4.800    0.000    3.840    0.000    0.000 
#    0.000    0.000    0.000    0.000    0.000    0.000 
#
# Total GULP energy -139227.461906 kJ/mol
# GULP energy per Si atom -5569.098476 kJ/mol
# Density = 1.878506 g / cm^3
# Si number density = 18.827915 Si / 1000 Ang^3
#
#
#
# Elastic Constant Matrix: (Units=GPa)
#
#
# Indices 1 2 3 4 5 6 
#
# 1 59.1334 53.5086 75.2138 0.0000 0.0000 0.0000
# 2 53.5086 204.6528 101.7937 0.0000 0.0000 0.0000
# 3 75.2138 101.7937 175.4804 0.0000 0.0000 0.0000
# 4 0.0000 0.0000 0.0000 -7.3131 0.0000 0.0000
# 5 0.0000 0.0000 0.0000 0.0000 52.5828 0.0000
# 6 0.0000 0.0000 0.0000 0.0000 0.0000 24.0159
#
#
#
# Elastic Compliance Matrix: (Units=1/GPa)
#
#
# Indices 1 2 3 4 5 6 
#
# 1 0.038131 -0.002587 -0.014843 0.000000 0.000000 0.000000
# 2 -0.002587 0.007043 -0.002977 0.000000 0.000000 0.000000
# 3 -0.014843 -0.002977 0.013788 0.000000 0.000000 0.000000
# 4 0.000000 0.000000 0.000000 -0.136741 0.000000 0.000000
# 5 0.000000 0.000000 0.000000 0.000000 0.019018 0.000000
# 6 0.000000 0.000000 0.000000 0.000000 0.000000 0.041639
#
#
# Mechanical properties :
#
#
# Convention : Reuss Voigt Hill
#
# Bulk Modulus (GPa) = 55.10180 100.03322 77.56751
# Shear Modulus (GPa) = 168.11790 27.77382 97.94586
#
# Velocity S-wave (km/s) = 9.45969 3.84492 7.22043
# Velocity P-wave (km/s) = 12.19196 8.54148 10.52617
#
# Compressibility (1/GPa) = 0.01814823
#
# Stress axis : x y z
#
# Youngs Moduli (GPa) = 26.22531 141.97573 72.52937
#
# Poissons Ratio (x) = 0.36728 1.07655
# Poissons Ratio (y) = 0.06784 0.21592
# Poissons Ratio (z) = 0.38926 0.42266
#
# Static dielectric constant tensor:
#      x y z
#    x 1.671970 0.000000 0.000000 
#    y 0.000000 1.687390 0.000000 
#    z 0.000000 0.000000 1.655740 
# 
# From -- ./inp_files/26019.got.cif
#   From: 2010.05.17/outbox.cif.g08.bks.cpg/sg47_14_cif.got.tgz:26019.got - 2010.06.03 20:15:42.
