data_PCOD9386892
_publ_section_title
;
Structure prediction by ZEFSAII (Michael W. Deem and Ramdas Pophale) SiO2 
 PCOD9386892
Probable space group: P M M M
;
_chemical_formula_sum "Si O2"
_cell_formula_units_Z 45
_cell_length_a 27.049865
_cell_length_b 11.863811
_cell_length_c 7.793539
_cell_angle_alpha 90.000000
_cell_angle_beta 90.000000
_cell_angle_gamma 90.000000
_cell_volume 2501.059562
_symmetry_space_group_name_H-M "P M M M"
_symmetry_group_IT_number 47
_symmetry_cell_setting 'orthorhombic'
loop_
_space_group_symop_operation_xyz
x,y,z
-x,-y,z
x,-y,-z
-x,y,-z
-x,-y,-z
x,y,-z
-x,y,z
x,-y,z
loop_
_atom_site_type_symbol
_atom_site_label
_atom_site_fract_x
_atom_site_fract_y
_atom_site_fract_z
Si Si1 0.102262 0.374353 0.500000
Si Si2 0.000000 0.500000 0.500000
Si Si3 0.741269 0.628594 0.206735
Si Si4 0.352053 0.227608 0.698563
Si Si5 0.444549 0.373528 0.205096
Si Si6 0.302277 0.000000 0.288845
Si Si7 0.842932 0.247462 0.201171
Si Si8 0.186751 0.000000 0.707240
O O1 0.126698 0.500000 0.500000
O O2 0.044309 0.403445 0.500000
O O3 0.119162 0.306204 0.668521
O O4 0.748004 0.500000 0.262751
O O5 0.691611 0.682031 0.279046
O O6 0.789036 0.702633 0.250433
O O7 0.736853 0.629557 0.000000
O O8 0.359719 0.204088 0.500000
O O9 0.402800 0.281969 0.760727
O O10 0.330695 0.111367 0.774209
O O11 0.500000 0.346612 0.269358
O O12 0.431029 0.500000 0.268935
O O13 0.447636 0.381414 0.000000
O O14 0.244589 0.000000 0.237331
O O15 0.301298 0.000000 0.500000
O O16 0.839028 0.113575 0.227187
O O17 0.852215 0.273782 0.000000
O O18 0.185605 0.000000 0.500000
#
# Coordination Sequence:
#
# PCOD9386892 Si02
#       8
#     4   1   8   8   8   4   8   4
#     4  10  22  43  67  95 133 168 212 261 309 369
#     4   8  24  48  70 102 132 178 228 248 326 368
#     4  10  21  34  49  77 117 155 190 233 295 366
#     4  11  21  34  52  75 105 144 186 235 292 357
#     4   9  19  37  57  74  97 133 177 231 296 359
#     4   9  20  35  50  72 112 157 195 230 292 362
#     4  11  22  37  61  94 130 169 213 261 311 369
#     4  11  19  37  61  87 127 178 215 256 310 375
#
# _framework density 17.992374999999999
#
# number of rings (size 3 to 8) (size 9 to 14) (size 15 to 20)
#    0.267    1.600    2.667    2.400    1.244    4.267 
#    0.000    4.000    0.000    3.733    0.000    1.244 
#    0.000    0.000    0.000    0.000    0.000    0.000 
#
# Total GULP energy -250759.758390 kJ/mol
# GULP energy per Si atom -5572.439075 kJ/mol
# Density = 1.795142 g / cm^3
# Si number density = 17.992375 Si / 1000 Ang^3
#
#
#
# Elastic Constant Matrix: (Units=GPa)
#
#
# Indices 1 2 3 4 5 6 
#
# 1 116.9552 54.1682 36.2851 0.0000 0.0000 0.0000
# 2 54.1682 131.3000 23.9251 0.0000 0.0000 0.0000
# 3 36.2851 23.9251 57.8480 0.0000 0.0000 0.0000
# 4 0.0000 0.0000 0.0000 19.9437 0.0000 0.0000
# 5 0.0000 0.0000 0.0000 0.0000 10.1635 0.0000
# 6 0.0000 0.0000 0.0000 0.0000 0.0000 12.0004
#
#
#
# Elastic Compliance Matrix: (Units=1/GPa)
#
#
# Indices 1 2 3 4 5 6 
#
# 1 0.012260 -0.003955 -0.006055 0.000000 0.000000 0.000000
# 2 -0.003955 0.009513 -0.001454 0.000000 0.000000 0.000000
# 3 -0.006055 -0.001454 0.021686 0.000000 0.000000 0.000000
# 4 0.000000 0.000000 0.000000 0.050141 0.000000 0.000000
# 5 0.000000 0.000000 0.000000 0.000000 0.098391 0.000000
# 6 0.000000 0.000000 0.000000 0.000000 0.000000 0.083331
#
#
# Mechanical properties :
#
#
# Convention : Reuss Voigt Hill
#
# Bulk Modulus (GPa) = 48.70338 59.42888 54.06613
# Shear Modulus (GPa) = 16.38851 21.20317 18.79584
#
# Velocity S-wave (km/s) = 3.02132 3.43658 3.23562
# Velocity P-wave (km/s) = 6.26888 6.98917 6.63880
#
# Compressibility (1/GPa) = 0.02053246
#
# Stress axis : x y z
#
# Youngs Moduli (GPa) = 81.56336 105.12393 46.11341
#
# Poissons Ratio (x) = 0.41574 0.27920
# Poissons Ratio (y) = 0.32257 0.06703
# Poissons Ratio (z) = 0.49384 0.15281
#
# Static dielectric constant tensor:
#      x y z
#    x 1.586830 0.000000 0.000000 
#    y 0.000000 1.638450 0.000000 
#    z 0.000000 0.000000 1.650830 
# 
# From -- ./inp_files/12399.got.cif
#   From: 2010.05.17/outbox.cif.g08.bks.cpg/sg47_7_cif.got.tgz:12399.got - 2010.06.03 20:15:42.
