data_PCOD9386315
_publ_section_title
;
Structure prediction by ZEFSAII (Michael W. Deem and Ramdas Pophale) SiO2 
 PCOD9386315
Probable space group: P M M M
;
_chemical_formula_sum "Si O2"
_cell_formula_units_Z 56
_cell_length_a 22.621842
_cell_length_b 15.366104
_cell_length_c 9.097306
_cell_angle_alpha 90.000000
_cell_angle_beta 90.000000
_cell_angle_gamma 90.000000
_cell_volume 3162.310689
_symmetry_space_group_name_H-M "P M M M"
_symmetry_group_IT_number 47
_symmetry_cell_setting 'orthorhombic'
loop_
_space_group_symop_operation_xyz
x,y,z
-x,-y,z
x,-y,-z
-x,y,-z
-x,-y,-z
x,y,-z
-x,y,z
x,-y,z
loop_
_atom_site_type_symbol
_atom_site_label
_atom_site_fract_x
_atom_site_fract_y
_atom_site_fract_z
Si Si1 0.654238 0.635911 0.672869
Si Si2 0.500000 0.899006 0.824910
Si Si3 0.836185 0.778070 0.175647
Si Si4 0.430412 0.500000 0.823892
Si Si5 0.383177 0.163782 0.328572
Si Si6 0.219797 0.401404 0.823338
Si Si7 0.070169 0.900809 0.324572
Si Si8 0.742535 0.901585 0.675199
O O1 0.655624 0.613460 0.500000
O O2 0.603574 0.581849 0.754747
O O3 0.639113 0.737423 0.685892
O O4 0.717477 0.614985 0.744823
O O5 0.441100 0.854653 0.763870
O O6 0.500000 0.000000 0.777916
O O7 0.500000 0.895380 0.000000
O O8 0.824573 0.677119 0.216761
O O9 0.892151 0.826787 0.245740
O O10 0.780287 0.832692 0.234963
O O11 0.839625 0.783381 0.000000
O O12 0.500000 0.500000 0.788568
O O13 0.423905 0.500000 0.000000
O O14 0.396855 0.147281 0.500000
O O15 0.326564 0.106003 0.286904
O O16 0.199775 0.500000 0.788918
O O17 0.228957 0.396517 0.000000
O O18 0.080927 0.896152 0.500000
O O19 0.000000 0.890414 0.300493
O O20 0.086062 0.000000 0.277673
O O21 0.747859 0.882968 0.500000
O O22 0.763489 0.000000 0.700479
#
# Coordination Sequence:
#
# PCOD9386315 Si02
#       8
#     8   4   8   4   8   8   8   8
#     4  11  22  37  59  84 106 133 179 235 280 327
#     4  11  25  41  57  78 103 136 181 229 276 337
#     4  11  22  34  54  86 119 149 187 236 284 333
#     4  11  25  41  57  79 109 145 178 217 284 359
#     4  10  22  39  58  79 104 138 181 228 278 332
#     4  10  21  38  58  80 111 151 188 225 281 348
#     4   9  19  37  60  85 117 160 202 235 275 333
#     4  10  20  35  55  78 108 146 183 220 269 333
#
# _framework density 17.708570000000002
#
# number of rings (size 3 to 8) (size 9 to 14) (size 15 to 20)
#    0.000    1.714    2.143    2.571    1.000    6.571 
#    0.000    0.714    0.000    0.429    0.000    3.000 
#    0.000    0.000    0.000    0.000    0.000    0.000 
#
# Total GULP energy -312722.763453 kJ/mol
# GULP energy per Si atom -5584.335062 kJ/mol
# Density = 1.766826 g / cm^3
# Si number density = 17.708570 Si / 1000 Ang^3
#
#
#
# Elastic Constant Matrix: (Units=GPa)
#
#
# Indices 1 2 3 4 5 6 
#
# 1 95.8340 64.6244 43.6551 0.0000 0.0000 0.0000
# 2 64.6244 131.4348 52.4996 0.0000 0.0000 0.0000
# 3 43.6551 52.4996 46.7436 0.0000 0.0000 0.0000
# 4 0.0000 0.0000 0.0000 25.4410 0.0000 0.0000
# 5 0.0000 0.0000 0.0000 0.0000 143.8073 0.0000
# 6 0.0000 0.0000 0.0000 0.0000 0.0000 28.3889
#
#
#
# Elastic Compliance Matrix: (Units=1/GPa)
#
#
# Indices 1 2 3 4 5 6 
#
# 1 0.019339 -0.004161 -0.013388 0.000000 0.000000 0.000000
# 2 -0.004161 0.014694 -0.012617 0.000000 0.000000 0.000000
# 3 -0.013388 -0.012617 0.048067 0.000000 0.000000 0.000000
# 4 0.000000 0.000000 0.000000 0.039307 0.000000 0.000000
# 5 0.000000 0.000000 0.000000 0.000000 0.006954 0.000000
# 6 0.000000 0.000000 0.000000 0.000000 0.000000 0.035225
#
#
# Mechanical properties :
#
#
# Convention : Reuss Voigt Hill
#
# Bulk Modulus (GPa) = 45.93848 66.17449 56.05648
# Shear Modulus (GPa) = 21.62865 47.07633 34.35249
#
# Velocity S-wave (km/s) = 3.49860 5.16155 4.40918
# Velocity P-wave (km/s) = 6.50522 8.54236 7.59243
#
# Compressibility (1/GPa) = 0.02176824
#
# Stress axis : x y z
#
# Youngs Moduli (GPa) = 51.70809 68.05447 20.80416
#
# Poissons Ratio (x) = 0.28319 0.27852
# Poissons Ratio (y) = 0.21517 0.26249
# Poissons Ratio (z) = 0.69226 0.85866
#
# Static dielectric constant tensor:
#      x y z
#    x 1.580690 0.000000 0.000000 
#    y 0.000000 1.632410 0.000000 
#    z 0.000000 0.000000 1.591170 
# 
# From -- ./inp_files/11371.got.cif
#   From: 2010.05.17/outbox.cif.g08.bks.cpg/sg47_6_cif.got.tgz:11371.got - 2010.06.03 20:15:42.
