data_PCOD9386552
_publ_section_title
;
Structure prediction by ZEFSAII (Michael W. Deem and Ramdas Pophale) SiO2 
 PCOD9386552
Probable space group: P M M M
;
_chemical_formula_sum "Si O2"
_cell_formula_units_Z 56
_cell_length_a 15.076638
_cell_length_b 7.825301
_cell_length_c 22.108868
_cell_angle_alpha 90.000000
_cell_angle_beta 90.000000
_cell_angle_gamma 90.000000
_cell_volume 2608.387232
_symmetry_space_group_name_H-M "P M M M"
_symmetry_group_IT_number 47
_symmetry_cell_setting 'orthorhombic'
loop_
_space_group_symop_operation_xyz
x,y,z
-x,-y,z
x,-y,-z
-x,y,-z
-x,-y,-z
x,y,-z
-x,y,z
x,-y,z
loop_
_atom_site_type_symbol
_atom_site_label
_atom_site_fract_x
_atom_site_fract_y
_atom_site_fract_z
Si Si1 0.301458 0.702606 0.568065
Si Si2 0.500000 0.807915 0.572873
Si Si3 0.099282 0.205173 0.796071
Si Si4 0.500000 0.810140 0.069939
Si Si5 0.602277 0.708826 0.230315
Si Si6 0.240641 0.294109 0.691244
Si Si7 0.314618 0.304334 0.891053
Si Si8 0.863554 0.803296 0.933366
O O1 0.290238 0.775480 0.500000
O O2 0.285677 0.500000 0.563785
O O3 0.405374 0.722934 0.586683
O O4 0.237802 0.769390 0.621842
O O5 0.500000 0.814857 0.500000
O O6 0.500000 0.000000 0.597494
O O7 0.168704 0.250283 0.742989
O O8 0.112541 0.269019 0.866197
O O9 0.000000 0.257519 0.777759
O O10 0.103055 0.000000 0.801251
O O11 0.412786 0.705359 0.083678
O O12 0.500000 0.000000 0.099544
O O13 0.500000 0.837275 0.000000
O O14 0.500000 0.766343 0.227837
O O15 0.599136 0.500000 0.226306
O O16 0.660980 0.759313 0.286893
O O17 0.665622 0.766892 0.175394
O O18 0.240091 0.500000 0.689439
O O19 0.283998 0.500000 0.888278
O O20 0.243198 0.202895 0.929062
O O21 0.893954 0.000000 0.934013
O O22 0.889039 0.729297 0.000000
#
# Coordination Sequence:
#
# PCOD9386552 Si02
#       8
#     8   4   8   4   8   8   8   8
#     4   9  18  32  52  80 114 152 192 230 271 322
#     4   9  17  29  46  73 114 160 199 232 268 313
#     4  10  22  40  61  84 110 140 178 227 279 334
#     4  11  23  35  46  65  98 140 183 224 268 316
#     4   9  17  30  49  74 104 138 177 219 262 311
#     4  10  20  35  59  84 110 146 185 229 278 327
#     4  11  20  33  52  73 100 136 178 222 268 322
#     4  10  21  37  56  78 106 138 172 216 273 333
#
# _framework density 21.469207000000001
#
# number of rings (size 3 to 8) (size 9 to 14) (size 15 to 20)
#    0.000    2.143    2.143    1.286    1.000    4.571 
#    0.000    1.429    0.000    0.429    0.000    5.000 
#    0.000    0.000    0.000    0.000    0.000    0.000 
#
# Total GULP energy -311800.012907 kJ/mol
# GULP energy per Si atom -5567.857373 kJ/mol
# Density = 2.142034 g / cm^3
# Si number density = 21.469207 Si / 1000 Ang^3
#
#
#
# Elastic Constant Matrix: (Units=GPa)
#
#
# Indices 1 2 3 4 5 6 
#
# 1 107.2953 6.2695 64.0121 0.0000 0.0000 0.0000
# 2 6.2695 36.4254 11.7455 0.0000 0.0000 0.0000
# 3 64.0121 11.7455 188.9248 0.0000 0.0000 0.0000
# 4 0.0000 0.0000 0.0000 12.0715 0.0000 0.0000
# 5 0.0000 0.0000 0.0000 0.0000 54.6079 0.0000
# 6 0.0000 0.0000 0.0000 0.0000 0.0000 10.3102
#
#
#
# Elastic Compliance Matrix: (Units=1/GPa)
#
#
# Indices 1 2 3 4 5 6 
#
# 1 0.011701 -0.000751 -0.003918 0.000000 0.000000 0.000000
# 2 -0.000751 0.028063 -0.001490 0.000000 0.000000 0.000000
# 3 -0.003918 -0.001490 0.006713 0.000000 0.000000 0.000000
# 4 0.000000 0.000000 0.000000 0.082840 0.000000 0.000000
# 5 0.000000 0.000000 0.000000 0.000000 0.018312 0.000000
# 6 0.000000 0.000000 0.000000 0.000000 0.000000 0.096991
#
#
# Mechanical properties :
#
#
# Convention : Reuss Voigt Hill
#
# Bulk Modulus (GPa) = 29.27419 55.18885 42.23152
# Shear Modulus (GPa) = 18.63405 32.10581 25.36993
#
# Velocity S-wave (km/s) = 2.94928 3.87128 3.44130
# Velocity P-wave (km/s) = 5.02620 6.76345 5.95848
#
# Compressibility (1/GPa) = 0.03415978
#
# Stress axis : x y z
#
# Youngs Moduli (GPa) = 85.45961 35.63389 148.95821
#
# Poissons Ratio (x) = 0.02675 0.58363
# Poissons Ratio (y) = 0.06415 0.22200
# Poissons Ratio (z) = 0.33483 0.05311
#
# Static dielectric constant tensor:
#      x y z
#    x 1.756710 0.000000 0.000000 
#    y 0.000000 1.850290 0.000000 
#    z 0.000000 0.000000 1.880690 
# 
# From -- ./inp_files/31099.got.cif
#   From: 2010.05.17/outbox.cif.g08.bks.cpg/sg47_16_cif.got.tgz:31099.got - 2010.06.03 20:15:42.
