data_PCOD9386166
_publ_section_title
;
Structure prediction by ZEFSAII (Michael W. Deem and Ramdas Pophale) SiO2 
 PCOD9386166
Probable space group: P M M M
;
_chemical_formula_sum "Si O2"
_cell_formula_units_Z 64
_cell_length_a 25.780585
_cell_length_b 14.909187
_cell_length_c 8.769624
_cell_angle_alpha 90.000000
_cell_angle_beta 90.000000
_cell_angle_gamma 90.000000
_cell_volume 3370.759003
_symmetry_space_group_name_H-M "P M M M"
_symmetry_group_IT_number 47
_symmetry_cell_setting 'orthorhombic'
loop_
_space_group_symop_operation_xyz
x,y,z
-x,-y,z
x,-y,-z
-x,y,-z
-x,-y,-z
x,y,-z
-x,y,z
x,-y,z
loop_
_atom_site_type_symbol
_atom_site_label
_atom_site_fract_x
_atom_site_fract_y
_atom_site_fract_z
Si Si1 0.867921 0.253338 0.178763
Si Si2 0.060790 0.393714 0.675570
Si Si3 0.058898 0.895932 0.683644
Si Si4 0.340186 0.395461 0.315528
Si Si5 0.416180 0.900722 0.183091
Si Si6 0.750669 0.726452 0.817495
Si Si7 0.556487 0.711606 0.683705
Si Si8 0.300587 0.100903 0.319528
O O1 0.904495 0.337599 0.211743
O O2 0.896770 0.169162 0.255171
O O3 0.810347 0.278538 0.235117
O O4 0.863726 0.234641 0.000000
O O5 0.072892 0.367845 0.500000
O O6 0.068675 0.500000 0.689845
O O7 0.000000 0.375580 0.699620
O O8 0.059456 0.892276 0.500000
O O9 0.000000 0.869296 0.732285
O O10 0.066664 0.000000 0.728399
O O11 0.338945 0.391709 0.500000
O O12 0.341257 0.500000 0.270413
O O13 0.289593 0.344497 0.253314
O O14 0.392842 0.343878 0.264894
O O15 0.441706 0.812412 0.252006
O O16 0.357722 0.898465 0.247230
O O17 0.437429 0.000000 0.223890
O O18 0.416383 0.894423 0.000000
O O19 0.731783 0.824340 0.765866
O O20 0.748548 0.717397 0.000000
O O21 0.559251 0.716211 0.500000
O O22 0.500000 0.671528 0.724294
O O23 0.304310 0.121391 0.500000
O O24 0.279375 0.000000 0.303083
#
# Coordination Sequence:
#
# PCOD9386166 Si02
#       8
#     8   8   8   8   8   8   8   8
#     4  11  24  37  53  83 119 152 189 234 285 342
#     4   9  19  37  60  84 110 143 185 233 284 337
#     4   9  19  37  60  85 115 154 199 243 287 337
#     4  10  22  41  64  87 111 145 192 241 291 349
#     4  10  20  34  55  84 118 155 190 225 272 331
#     4  11  24  40  57  81 116 155 191 232 285 341
#     4  10  21  37  59  88 120 152 189 237 288 340
#     4  10  20  35  58  85 111 143 186 233 278 328
#
# _framework density 18.986820999999999
#
# number of rings (size 3 to 8) (size 9 to 14) (size 15 to 20)
#    0.000    2.000    1.250    2.625    0.000    8.000 
#    0.000    8.750    0.000    0.000    0.000    1.750 
#    0.000    0.000    0.000    0.000    0.000    0.000 
#
# Total GULP energy -357191.132107 kJ/mol
# GULP energy per Si atom -5581.111439 kJ/mol
# Density = 1.894361 g / cm^3
# Si number density = 18.986821 Si / 1000 Ang^3
#
#
#
# Elastic Constant Matrix: (Units=GPa)
#
#
# Indices 1 2 3 4 5 6 
#
# 1 107.6145 63.9874 32.3417 0.0000 0.0000 0.0000
# 2 63.9874 95.6998 24.5809 0.0000 0.0000 0.0000
# 3 32.3417 24.5809 17.9482 0.0000 0.0000 0.0000
# 4 0.0000 0.0000 0.0000 374.4291 0.0000 0.0000
# 5 0.0000 0.0000 0.0000 0.0000 29.0013 0.0000
# 6 0.0000 0.0000 0.0000 0.0000 0.0000 45.5465
#
#
#
# Elastic Compliance Matrix: (Units=1/GPa)
#
#
# Indices 1 2 3 4 5 6 
#
# 1 0.023210 -0.007368 -0.031732 0.000000 0.000000 0.000000
# 2 -0.007368 0.018459 -0.012003 0.000000 0.000000 0.000000
# 3 -0.031732 -0.012003 0.129335 0.000000 0.000000 0.000000
# 4 0.000000 0.000000 0.000000 0.002671 0.000000 0.000000
# 5 0.000000 0.000000 0.000000 0.000000 0.034481 0.000000
# 6 0.000000 0.000000 0.000000 0.000000 0.000000 0.021956
#
#
# Mechanical properties :
#
#
# Convention : Reuss Voigt Hill
#
# Bulk Modulus (GPa) = 14.53564 51.45362 32.99463
# Shear Modulus (GPa) = 14.07454 96.48555 55.28004
#
# Velocity S-wave (km/s) = 2.72560 7.13635 5.40168
# Velocity P-wave (km/s) = 4.19255 9.74996 7.50464
#
# Compressibility (1/GPa) = 0.06879643
#
# Stress axis : x y z
#
# Youngs Moduli (GPa) = 43.08437 54.17376 7.73188
#
# Poissons Ratio (x) = 0.39918 0.24535
# Poissons Ratio (y) = 0.31746 0.09281
# Poissons Ratio (z) = 1.36717 0.65026
#
# Static dielectric constant tensor:
#      x y z
#    x 1.695840 0.000000 0.000000 
#    y 0.000000 1.654460 0.000000 
#    z 0.000000 0.000000 1.644700 
# 
# From -- ./inp_files/12710.got.cif
#   From: 2010.05.17/outbox.cif.g08.bks.cpg/sg47_7_cif.got.tgz:12710.got - 2010.06.03 20:15:42.
