data_PCOD9386905
_publ_section_title
;
Structure prediction by ZEFSAII (Michael W. Deem and Ramdas Pophale) SiO2 
 PCOD9386905
Probable space group: P M M M
;
_chemical_formula_sum "Si O2"
_cell_formula_units_Z 48
_cell_length_a 35.331431
_cell_length_b 7.818068
_cell_length_c 9.234276
_cell_angle_alpha 90.000000
_cell_angle_beta 90.000000
_cell_angle_gamma 90.000000
_cell_volume 2550.724315
_symmetry_space_group_name_H-M "P M M M"
_symmetry_group_IT_number 47
_symmetry_cell_setting 'orthorhombic'
loop_
_space_group_symop_operation_xyz
x,y,z
-x,-y,z
x,-y,-z
-x,y,-z
-x,-y,-z
x,y,-z
-x,y,z
x,-y,z
loop_
_atom_site_type_symbol
_atom_site_label
_atom_site_fract_x
_atom_site_fract_y
_atom_site_fract_z
Si Si1 0.544582 0.197953 0.826867
Si Si2 0.116265 0.297312 0.662526
Si Si3 0.958777 0.794245 0.166039
Si Si4 0.411647 0.500000 0.670720
Si Si5 0.801525 0.203790 0.665372
Si Si6 0.274827 0.795387 0.826794
Si Si7 0.321397 0.500000 0.672231
O O1 0.500000 0.227052 0.796181
O O2 0.569832 0.333446 0.743461
O O3 0.553267 0.000000 0.790714
O O4 0.549546 0.218244 0.000000
O O5 0.114208 0.222329 0.500000
O O6 0.117855 0.500000 0.652147
O O7 0.078409 0.253827 0.747397
O O8 0.156728 0.242188 0.725879
O O9 0.000000 0.735334 0.223737
O O10 0.959890 0.000000 0.163406
O O11 0.955701 0.734218 0.000000
O O12 0.419732 0.500000 0.500000
O O13 0.366551 0.500000 0.690812
O O14 0.798959 0.274444 0.500000
O O15 0.766476 0.256472 0.764474
O O16 0.798774 0.000000 0.654416
O O17 0.303928 0.669147 0.747208
O O18 0.280863 0.000000 0.797169
O O19 0.276358 0.772997 0.000000
O O20 0.312722 0.500000 0.500000
#
# Coordination Sequence:
#
# PCOD9386905 Si02
#       7
#     8   8   8   4   8   8   4
#     4   9  19  37  61  88 119 159 205 250 299 356
#     4  10  21  34  50  78 111 139 170 209 255 312
#     4   9  19  36  55  73  96 131 175 219 262 310
#     4  11  24  38  55  86 122 158 200 249 303 354
#     4   9  18  34  56  80 107 141 178 217 268 330
#     4  10  22  40  62  89 117 146 189 245 299 350
#     4  11  25  42  60  83 118 162 203 243 292 356
#
# _framework density 18.818183999999999
#
# number of rings (size 3 to 8) (size 9 to 14) (size 15 to 20)
#    0.000    2.333    0.000    2.750    1.167    7.333 
#    0.000    8.333    0.000    0.000    0.000    0.000 
#    0.000    0.000    0.000    0.000    0.000    0.000 
#
# Total GULP energy -267756.945391 kJ/mol
# GULP energy per Si atom -5578.269696 kJ/mol
# Density = 1.877535 g / cm^3
# Si number density = 18.818184 Si / 1000 Ang^3
#
#
#
# Elastic Constant Matrix: (Units=GPa)
#
#
# Indices 1 2 3 4 5 6 
#
# 1 146.8080 77.3445 86.4100 0.0000 0.0000 0.0000
# 2 77.3445 83.5663 59.1090 0.0000 0.0000 0.0000
# 3 86.4100 59.1090 86.3833 0.0000 0.0000 0.0000
# 4 0.0000 0.0000 0.0000 10.1387 0.0000 0.0000
# 5 0.0000 0.0000 0.0000 0.0000 -6.5163 0.0000
# 6 0.0000 0.0000 0.0000 0.0000 0.0000 -34.1926
#
#
#
# Elastic Compliance Matrix: (Units=1/GPa)
#
#
# Indices 1 2 3 4 5 6 
#
# 1 0.018984 -0.008020 -0.013502 0.000000 0.000000 0.000000
# 2 -0.008020 0.026580 -0.010164 0.000000 0.000000 0.000000
# 3 -0.013502 -0.010164 0.032038 0.000000 0.000000 0.000000
# 4 0.000000 0.000000 0.000000 0.098632 0.000000 0.000000
# 5 0.000000 0.000000 0.000000 0.000000 -0.153461 0.000000
# 6 0.000000 0.000000 0.000000 0.000000 0.000000 -0.029246
#
#
# Mechanical properties :
#
#
# Convention : Reuss Voigt Hill
#
# Bulk Modulus (GPa) = 70.28613 84.72052 77.50332
# Shear Modulus (GPa) = 81.11166 0.14555 40.62861
#
# Velocity S-wave (km/s) = 6.57240 0.27842 4.65155
# Velocity P-wave (km/s) = 9.74815 6.72470 8.37401
#
# Compressibility (1/GPa) = 0.01422756
#
# Stress axis : x y z
#
# Youngs Moduli (GPa) = 52.67495 37.62296 31.21315
#
# Poissons Ratio (x) = 0.30175 0.42144
# Poissons Ratio (y) = 0.42248 0.31727
# Poissons Ratio (z) = 0.71122 0.38242
#
# Static dielectric constant tensor:
#      x y z
#    x 1.653910 0.000000 0.000000 
#    y 0.000000 1.655420 0.000000 
#    z 0.000000 0.000000 1.653800 
# 
# From -- ./inp_files/13994.got.cif
#   From: 2010.05.17/outbox.cif.g08.bks.cpg/sg47_7_cif.got.tgz:13994.got - 2010.06.03 20:15:42.
