data_PCOD9386833
_publ_section_title
;
Structure prediction by ZEFSAII (Michael W. Deem and Ramdas Pophale) SiO2 
 PCOD9386833
Probable space group: P M M M
;
_chemical_formula_sum "Si O2"
_cell_formula_units_Z 44
_cell_length_a 31.762381
_cell_length_b 7.800964
_cell_length_c 9.469948
_cell_angle_alpha 90.000000
_cell_angle_beta 90.000000
_cell_angle_gamma 90.000000
_cell_volume 2346.437112
_symmetry_space_group_name_H-M "P M M M"
_symmetry_group_IT_number 47
_symmetry_cell_setting 'orthorhombic'
loop_
_space_group_symop_operation_xyz
x,y,z
-x,-y,z
x,-y,-z
-x,y,-z
-x,-y,-z
x,y,-z
-x,y,z
x,-y,z
loop_
_atom_site_type_symbol
_atom_site_label
_atom_site_fract_x
_atom_site_fract_y
_atom_site_fract_z
Si Si1 0.890444 0.696990 0.327923
Si Si2 0.636634 0.204854 0.661115
Si Si3 0.048380 0.000000 0.672442
Si Si4 0.796732 0.293464 0.660758
Si Si5 0.545344 0.293688 0.334728
Si Si6 0.284675 0.205850 0.840686
O O1 0.890120 0.693936 0.500000
O O2 0.897283 0.500000 0.281580
O O3 0.925875 0.830998 0.282921
O O4 0.843371 0.758014 0.288189
O O5 0.638105 0.273900 0.500000
O O6 0.590228 0.237203 0.724458
O O7 0.675177 0.272931 0.753317
O O8 0.641391 0.000000 0.651559
O O9 0.048273 0.000000 0.500000
O O10 0.000000 0.000000 0.718852
O O11 0.790157 0.229864 0.500000
O O12 0.798045 0.500000 0.654686
O O13 0.758433 0.241609 0.758945
O O14 0.545801 0.239078 0.500000
O O15 0.500000 0.235337 0.274854
O O16 0.545153 0.500000 0.332568
O O17 0.289182 0.000000 0.848097
O O18 0.283630 0.273292 0.000000
#
# Coordination Sequence:
#
# PCOD9386833 Si02
#       6
#     8   8   4   8   8   8
#     4   8  15  27  41  62  93 125 161 205 245 287
#     4   9  17  29  45  66  91 119 153 190 230 279
#     4   9  16  24  38  64  95 131 169 197 238 297
#     4   9  18  32  50  71  93 122 163 204 242 287
#     4   8  14  25  42  65  90 113 141 183 232 276
#     4  10  21  34  47  67  96 127 158 195 241 291
#
# _framework density 18.751833999999999
#
# number of rings (size 3 to 8) (size 9 to 14) (size 15 to 20)
#    0.000    3.182    0.000    2.182    1.273    2.909 
#    0.000    5.455    0.000    0.545    0.000    3.818 
#    0.000    1.455    0.000    4.000    0.000    4.000 
#
# Total GULP energy -245056.241707 kJ/mol
# GULP energy per Si atom -5569.460039 kJ/mol
# Density = 1.870915 g / cm^3
# Si number density = 18.751834 Si / 1000 Ang^3
#
#
#
# Elastic Constant Matrix: (Units=GPa)
#
#
# Indices 1 2 3 4 5 6 
#
# 1 218.6162 45.8504 64.1842 0.0000 0.0000 0.0000
# 2 45.8504 43.3228 15.3265 0.0000 0.0000 0.0000
# 3 64.1842 15.3265 48.8905 0.0000 0.0000 0.0000
# 4 0.0000 0.0000 0.0000 7.5880 0.0000 0.0000
# 5 0.0000 0.0000 0.0000 0.0000 -4.6687 0.0000
# 6 0.0000 0.0000 0.0000 0.0000 0.0000 35.2257
#
#
#
# Elastic Compliance Matrix: (Units=1/GPa)
#
#
# Indices 1 2 3 4 5 6 
#
# 1 0.008535 -0.005701 -0.009417 0.000000 0.000000 0.000000
# 2 -0.005701 0.029770 -0.001848 0.000000 0.000000 0.000000
# 3 -0.009417 -0.001848 0.033396 0.000000 0.000000 0.000000
# 4 0.000000 0.000000 0.000000 0.131787 0.000000 0.000000
# 5 0.000000 0.000000 0.000000 0.000000 -0.214193 0.000000
# 6 0.000000 0.000000 0.000000 0.000000 0.000000 0.028388
#
#
# Mechanical properties :
#
#
# Convention : Reuss Voigt Hill
#
# Bulk Modulus (GPa) = 26.47720 62.39462 44.43591
# Shear Modulus (GPa) = 77.87427 19.99357 48.93392
#
# Velocity S-wave (km/s) = 6.45128 3.26884 5.11392
# Velocity P-wave (km/s) = 8.34521 6.89878 7.65623
#
# Compressibility (1/GPa) = 0.03776834
#
# Stress axis : x y z
#
# Youngs Moduli (GPa) = 117.16726 33.59083 29.94331
#
# Poissons Ratio (x) = 0.19151 0.28199
# Poissons Ratio (y) = 0.66799 0.05533
# Poissons Ratio (z) = 1.10341 0.06207
#
# Static dielectric constant tensor:
#      x y z
#    x 1.671750 0.000000 0.000000 
#    y 0.000000 1.676540 0.000000 
#    z 0.000000 0.000000 1.625330 
# 
# From -- ./inp_files/13682.got.cif
#   From: 2010.05.17/outbox.cif.g08.bks.cpg/sg47_7_cif.got.tgz:13682.got - 2010.06.03 20:15:42.
