data_PCOD9386947
_publ_section_title
;
Structure prediction by ZEFSAII (Michael W. Deem and Ramdas Pophale) SiO2 
 PCOD9386947
Probable space group: P M M M
;
_chemical_formula_sum "Si O2"
_cell_formula_units_Z 52
_cell_length_a 7.503980
_cell_length_b 34.882073
_cell_length_c 9.588952
_cell_angle_alpha 90.000000
_cell_angle_beta 90.000000
_cell_angle_gamma 90.000000
_cell_volume 2509.950168
_symmetry_space_group_name_H-M "P M M M"
_symmetry_group_IT_number 47
_symmetry_cell_setting 'orthorhombic'
loop_
_space_group_symop_operation_xyz
x,y,z
-x,-y,z
x,-y,-z
-x,y,-z
-x,-y,-z
x,y,-z
-x,y,z
x,-y,z
loop_
_atom_site_type_symbol
_atom_site_label
_atom_site_fract_x
_atom_site_fract_y
_atom_site_fract_z
Si Si1 0.788257 0.805574 0.843694
Si Si2 0.285415 0.732473 0.658152
Si Si3 0.285785 0.041207 0.337536
Si Si4 0.717909 0.573830 0.160515
Si Si5 0.717246 0.646044 0.660470
Si Si6 0.788680 0.125051 0.658490
Si Si7 0.282311 0.500000 0.661000
O O1 0.765396 0.765694 0.763375
O O2 0.714643 0.840773 0.752340
O O3 0.000000 0.812010 0.854803
O O4 0.714838 0.804146 0.000000
O O5 0.223701 0.741044 0.500000
O O6 0.500000 0.731365 0.654365
O O7 0.225359 0.689385 0.695539
O O8 0.226179 0.041880 0.500000
O O9 0.500000 0.040534 0.337682
O O10 0.233955 0.082449 0.278530
O O11 0.225058 0.000000 0.277878
O O12 0.500000 0.573811 0.159764
O O13 0.776261 0.613170 0.234222
O O14 0.773289 0.537754 0.254375
O O15 0.775052 0.570699 0.000000
O O16 0.769420 0.637903 0.500000
O O17 0.500000 0.645830 0.662251
O O18 0.714833 0.125616 0.500000
O O19 0.000000 0.131156 0.646243
O O20 0.500000 0.500000 0.659006
O O21 0.224206 0.500000 0.500000
#
# Coordination Sequence:
#
# PCOD9386947 Si02
#       7
#     8   8   8   8   8   8   4
#     4  10  21  35  49  67  94 126 157 191 233 279
#     4   9  18  32  50  71  92 116 151 193 233 277
#     4   8  14  25  42  66  94 119 144 180 226 270
#     4   9  15  21  30  46  69  98 134 175 216 260
#     4   8  14  25  39  55  77 104 134 171 217 267
#     4   9  17  29  46  67  89 115 149 187 225 267
#     4   9  15  21  29  41  61  95 138 179 218 261
#
# _framework density 20.717542000000002
#
# number of rings (size 3 to 8) (size 9 to 14) (size 15 to 20)
#    0.000    3.154    0.000    2.538    0.000    5.538 
#    0.000    4.615    0.000    0.462    0.000    3.231 
#    0.000    0.000    0.000    0.692    0.000   13.692 
#
# Total GULP energy -289972.212059 kJ/mol
# GULP energy per Si atom -5576.388693 kJ/mol
# Density = 2.067039 g / cm^3
# Si number density = 20.717542 Si / 1000 Ang^3
#
#
#
# Elastic Constant Matrix: (Units=GPa)
#
#
# Indices 1 2 3 4 5 6 
#
# 1 52.9206 0.9951 5.5022 0.0000 0.0000 0.0000
# 2 0.9951 207.7818 133.2651 0.0000 0.0000 0.0000
# 3 5.5022 133.2651 148.2027 0.0000 0.0000 0.0000
# 4 0.0000 0.0000 0.0000 -8.3332 0.0000 0.0000
# 5 0.0000 0.0000 0.0000 0.0000 3.6193 0.0000
# 6 0.0000 0.0000 0.0000 0.0000 0.0000 17.7692
#
#
#
# Elastic Compliance Matrix: (Units=1/GPa)
#
#
# Indices 1 2 3 4 5 6 
#
# 1 0.019034 0.000855 -0.001476 0.000000 0.000000 0.000000
# 2 0.000855 0.011409 -0.010291 0.000000 0.000000 0.000000
# 3 -0.001476 -0.010291 0.016056 0.000000 0.000000 0.000000
# 4 0.000000 0.000000 0.000000 -0.120002 0.000000 0.000000
# 5 0.000000 0.000000 0.000000 0.000000 0.276299 0.000000
# 6 0.000000 0.000000 0.000000 0.000000 0.000000 0.056277
#
#
# Mechanical properties :
#
#
# Convention : Reuss Voigt Hill
#
# Bulk Modulus (GPa) = 40.52520 76.49219 58.50870
# Shear Modulus (GPa) = 17.29388 20.55389 18.92389
#
# Velocity S-wave (km/s) = 2.89233 3.15318 3.02557
# Velocity P-wave (km/s) = 5.54593 7.08931 6.36458
#
# Compressibility (1/GPa) = 0.02467600
#
# Stress axis : x y z
#
# Youngs Moduli (GPa) = 52.53864 87.65225 62.28323
#
# Poissons Ratio (x) = -0.07498 0.09192
# Poissons Ratio (y) = -0.04494 0.64093
# Poissons Ratio (z) = 0.07754 0.90199
#
# Static dielectric constant tensor:
#      x y z
#    x 1.801700 0.000000 0.000000 
#    y 0.000000 1.741900 0.000000 
#    z 0.000000 0.000000 1.711360 
# 
# From -- ./inp_files/4552.got.cif
#   From: 2010.05.17/outbox.cif.g08.bks.cpg/sg47_3_cif.got.tgz:4552.got - 2010.06.03 20:15:42.
