data_PCOD9386919
_publ_section_title
;
Structure prediction by ZEFSAII (Michael W. Deem and Ramdas Pophale) SiO2 
 PCOD9386919
Probable space group: P M M M
;
_chemical_formula_sum "Si O2"
_cell_formula_units_Z 56
_cell_length_a 8.882866
_cell_length_b 14.360571
_cell_length_c 21.915461
_cell_angle_alpha 90.000000
_cell_angle_beta 90.000000
_cell_angle_gamma 90.000000
_cell_volume 2795.602562
_symmetry_space_group_name_H-M "P M M M"
_symmetry_group_IT_number 47
_symmetry_cell_setting 'orthorhombic'
loop_
_space_group_symop_operation_xyz
x,y,z
-x,-y,z
x,-y,-z
-x,y,-z
-x,-y,-z
x,y,-z
-x,y,z
x,-y,z
loop_
_atom_site_type_symbol
_atom_site_label
_atom_site_fract_x
_atom_site_fract_y
_atom_site_fract_z
Si Si1 0.680723 0.389655 0.681656
Si Si2 0.828211 0.886998 0.742299
Si Si3 0.181516 0.294196 0.933397
Si Si4 0.322121 0.108976 0.383893
Si Si5 0.676347 0.612357 0.184074
Si Si6 0.183258 0.105422 0.122008
Si Si7 0.820746 0.714818 0.566885
O O1 0.500000 0.377922 0.680684
O O2 0.712019 0.500000 0.677441
O O3 0.734472 0.356532 0.748897
O O4 0.750393 0.339057 0.623821
O O5 0.723503 0.864208 0.685445
O O6 0.771779 0.862166 0.809747
O O7 0.000000 0.852961 0.732637
O O8 0.836339 0.000000 0.744211
O O9 0.241060 0.348569 0.874887
O O10 0.226166 0.185880 0.924500
O O11 0.000000 0.298237 0.932343
O O12 0.232776 0.328399 0.000000
O O13 0.500000 0.120583 0.392527
O O14 0.231747 0.178504 0.426518
O O15 0.284728 0.000000 0.392727
O O16 0.500000 0.637391 0.180186
O O17 0.685664 0.500000 0.183965
O O18 0.000000 0.101486 0.123519
O O19 0.236113 0.000000 0.109891
O O20 0.772852 0.679076 0.500000
O O21 0.000000 0.709332 0.570680
#
# Coordination Sequence:
#
# PCOD9386919 Si02
#       7
#     8   8   8   8   8   8   8
#     4   9  20  41  67  92 116 144 184 236 291 346
#     4   8  14  27  48  73 101 136 182 234 284 333
#     4  10  21  34  51  82 119 152 191 238 284 331
#     4  10  21  36  55  81 114 152 195 242 289 336
#     4   9  20  40  63  85 110 143 185 232 284 344
#     4   8  15  29  49  74 107 148 190 230 275 329
#     4  11  25  41  58  85 120 157 194 232 279 339
#
# _framework density 20.031461
#
# number of rings (size 3 to 8) (size 9 to 14) (size 15 to 20)
#    0.000    2.714    0.000    2.571    2.000    4.571 
#    0.000    7.143    0.000    0.429    0.000    1.000 
#    0.000    0.000    0.000    0.000    0.000    0.000 
#
# Total GULP energy -312425.316868 kJ/mol
# GULP energy per Si atom -5579.023515 kJ/mol
# Density = 1.998587 g / cm^3
# Si number density = 20.031461 Si / 1000 Ang^3
#
#
#
# Elastic Constant Matrix: (Units=GPa)
#
#
# Indices 1 2 3 4 5 6 
#
# 1 14.8462 17.1567 34.9285 0.0000 0.0000 0.0000
# 2 17.1567 47.9487 52.6852 0.0000 0.0000 0.0000
# 3 34.9285 52.6852 171.1283 0.0000 0.0000 0.0000
# 4 0.0000 0.0000 0.0000 16.9862 0.0000 0.0000
# 5 0.0000 0.0000 0.0000 0.0000 -533.9042 0.0000
# 6 0.0000 0.0000 0.0000 0.0000 0.0000 23.3946
#
#
#
# Elastic Compliance Matrix: (Units=1/GPa)
#
#
# Indices 1 2 3 4 5 6 
#
# 1 0.155647 -0.031412 -0.022098 0.000000 0.000000 0.000000
# 2 -0.031412 0.037857 -0.005244 0.000000 0.000000 0.000000
# 3 -0.022098 -0.005244 0.011968 0.000000 0.000000 0.000000
# 4 0.000000 0.000000 0.000000 0.058871 0.000000 0.000000
# 5 0.000000 0.000000 0.000000 0.000000 -0.001873 0.000000
# 6 0.000000 0.000000 0.000000 0.000000 0.000000 0.042745
#
#
# Mechanical properties :
#
#
# Convention : Reuss Voigt Hill
#
# Bulk Modulus (GPa) = 11.36809 49.27379 30.32094
# Shear Modulus (GPa) = 11.06087 -90.09449 -39.51681
#
# Velocity S-wave (km/s) = 2.35239 -6.71373 -4.44637
# Velocity P-wave (km/s) = 3.61466 5.95376 3.34526
#
# Compressibility (1/GPa) = 0.08796551
#
# Stress axis : x y z
#
# Youngs Moduli (GPa) = 6.42478 26.41542 83.55434
#
# Poissons Ratio (x) = 0.82976 1.84639
# Poissons Ratio (y) = 0.20181 0.43812
# Poissons Ratio (z) = 0.14197 0.13851
#
# Static dielectric constant tensor:
#      x y z
#    x 1.672470 0.000000 0.000000 
#    y 0.000000 1.731080 0.000000 
#    z 0.000000 0.000000 1.730230 
# 
# From -- ./inp_files/7211.got.cif
#   From: 2010.05.17/outbox.cif.g08.bks.cpg/sg47_4_cif.got.tgz:7211.got - 2010.06.03 20:15:42.
