data_PCOD9386770
_publ_section_title
;
Structure prediction by ZEFSAII (Michael W. Deem and Ramdas Pophale) SiO2 
 PCOD9386770
Probable space group: P M M M
;
_chemical_formula_sum "Si O2"
_cell_formula_units_Z 33
_cell_length_a 20.256303
_cell_length_b 7.659980
_cell_length_c 10.390739
_cell_angle_alpha 90.000000
_cell_angle_beta 90.000000
_cell_angle_gamma 90.000000
_cell_volume 1612.256945
_symmetry_space_group_name_H-M "P M M M"
_symmetry_group_IT_number 47
_symmetry_cell_setting 'orthorhombic'
loop_
_space_group_symop_operation_xyz
x,y,z
-x,-y,z
x,-y,-z
-x,y,-z
-x,-y,-z
x,y,-z
-x,y,z
x,-y,z
loop_
_atom_site_type_symbol
_atom_site_label
_atom_site_fract_x
_atom_site_fract_y
_atom_site_fract_z
Si Si1 0.074673 0.790113 0.144587
Si Si2 0.816661 0.708915 0.643222
Si Si3 0.672061 0.712558 0.268404
Si Si4 0.500000 0.500000 0.000000
Si Si5 0.575949 0.287042 0.500000
Si Si6 0.610887 0.804948 0.000000
O O1 0.127659 0.744530 0.251842
O O2 0.000000 0.728366 0.173857
O O3 0.072222 0.000000 0.139608
O O4 0.092340 0.728350 0.000000
O O5 0.832927 0.775478 0.500000
O O6 0.810884 0.500000 0.634743
O O7 0.744346 0.771871 0.686422
O O8 0.671518 0.500000 0.263970
O O9 0.616944 0.765192 0.373495
O O10 0.653974 0.781405 0.128505
O O11 0.557034 0.346986 0.000000
O O12 0.574567 0.500000 0.500000
O O13 0.500000 0.227614 0.500000
O O14 0.582450 0.000000 0.000000
#
# Coordination Sequence:
#
# PCOD9386770 Si02
#       6
#     8   8   8   1   4   4
#     4   9  20  39  60  84 118 161 210 263 318 377
#     4  10  21  37  59  89 127 167 207 255 313 380
#     4  10  20  40  62  91 130 169 209 261 321 381
#     4  12  26  52  68  92 136 176 204 278 340 374
#     4   9  18  32  63  91 116 165 217 249 310 382
#     4  12  27  43  69 100 128 168 221 267 324 397
#
# _framework density 20.468201000000001
#
# number of rings (size 3 to 8) (size 9 to 14) (size 15 to 20)
#    0.000    2.061    2.424    0.909    3.394    2.909 
#    0.000    4.242    0.000    0.727    0.000    0.000 
#    0.000    0.000    0.000    0.000    0.000    0.000 
#
# Total GULP energy -184048.156425 kJ/mol
# GULP energy per Si atom -5577.216861 kJ/mol
# Density = 2.042161 g / cm^3
# Si number density = 20.468201 Si / 1000 Ang^3
#
#
#
# Elastic Constant Matrix: (Units=GPa)
#
#
# Indices 1 2 3 4 5 6 
#
# 1 191.0135 21.4417 139.2213 0.0000 0.0000 0.0000
# 2 21.4417 74.3571 19.6045 0.0000 0.0000 0.0000
# 3 139.2213 19.6045 218.7746 0.0000 0.0000 0.0000
# 4 0.0000 0.0000 0.0000 12.0071 0.0000 0.0000
# 5 0.0000 0.0000 0.0000 0.0000 121.6430 0.0000
# 6 0.0000 0.0000 0.0000 0.0000 0.0000 56.2905
#
#
#
# Elastic Compliance Matrix: (Units=1/GPa)
#
#
# Indices 1 2 3 4 5 6 
#
# 1 0.009871 -0.001219 -0.006172 0.000000 0.000000 0.000000
# 2 -0.001219 0.013925 -0.000472 0.000000 0.000000 0.000000
# 3 -0.006172 -0.000472 0.008541 0.000000 0.000000 0.000000
# 4 0.000000 0.000000 0.000000 0.083284 0.000000 0.000000
# 5 0.000000 0.000000 0.000000 0.000000 0.008221 0.000000
# 6 0.000000 0.000000 0.000000 0.000000 0.000000 0.017765
#
#
# Mechanical properties :
#
#
# Convention : Reuss Voigt Hill
#
# Bulk Modulus (GPa) = 60.20534 93.85336 77.02935
# Shear Modulus (GPa) = 30.69944 58.24662 44.47303
#
# Velocity S-wave (km/s) = 3.87700 5.34031 4.66637
# Velocity P-wave (km/s) = 7.03701 9.16395 8.16999
#
# Compressibility (1/GPa) = 0.01660982
#
# Stress axis : x y z
#
# Youngs Moduli (GPa) = 101.31009 71.81540 117.08253
#
# Poissons Ratio (x) = 0.08754 0.72265
# Poissons Ratio (y) = 0.12350 0.05527
# Poissons Ratio (z) = 0.62530 0.03390
#
# Static dielectric constant tensor:
#      x y z
#    x 1.693240 0.000000 0.000000 
#    y 0.000000 1.762480 0.000000 
#    z 0.000000 0.000000 1.710710 
# 
# From -- ./inp_files/10417.got.cif
#   From: 2010.05.17/outbox.cif.g08.bks.cpg/sg47_6_cif.got.tgz:10417.got - 2010.06.03 20:15:42.
