data_PCOD9386177
_publ_section_title
;
Structure prediction by ZEFSAII (Michael W. Deem and Ramdas Pophale) SiO2 
 PCOD9386177
Probable space group: P M M M
;
_chemical_formula_sum "Si O2"
_cell_formula_units_Z 64
_cell_length_a 15.087108
_cell_length_b 8.305074
_cell_length_c 25.807496
_cell_angle_alpha 90.000000
_cell_angle_beta 90.000000
_cell_angle_gamma 90.000000
_cell_volume 3233.667594
_symmetry_space_group_name_H-M "P M M M"
_symmetry_group_IT_number 47
_symmetry_cell_setting 'orthorhombic'
loop_
_space_group_symop_operation_xyz
x,y,z
-x,-y,z
x,-y,-z
-x,y,-z
-x,-y,-z
x,y,-z
-x,y,z
x,-y,z
loop_
_atom_site_type_symbol
_atom_site_label
_atom_site_fract_x
_atom_site_fract_y
_atom_site_fract_z
Si Si1 0.401957 0.313067 0.575837
Si Si2 0.750728 0.192909 0.136935
Si Si3 0.596762 0.184993 0.311778
Si Si4 0.396089 0.694285 0.941518
Si Si5 0.792868 0.807554 0.443841
Si Si6 0.103406 0.195187 0.659415
Si Si7 0.764498 0.310348 0.253384
Si Si8 0.899580 0.803773 0.058117
O O1 0.500000 0.250033 0.560090
O O2 0.397592 0.500000 0.561089
O O3 0.399655 0.296275 0.637971
O O4 0.312117 0.228412 0.558261
O O5 0.662050 0.236514 0.105146
O O6 0.766196 0.268918 0.192933
O O7 0.829691 0.251101 0.099767
O O8 0.754495 0.000000 0.142696
O O9 0.500000 0.204600 0.286578
O O10 0.677897 0.222173 0.275435
O O11 0.603339 0.000000 0.330394
O O12 0.500000 0.736061 0.936076
O O13 0.389527 0.500000 0.940215
O O14 0.367549 0.746960 0.000000
O O15 0.826244 0.746489 0.500000
O O16 0.842891 0.747518 0.392074
O O17 0.804408 0.000000 0.443478
O O18 0.153068 0.254297 0.711165
O O19 0.000000 0.243045 0.657463
O O20 0.106731 0.000000 0.659737
O O21 0.754151 0.500000 0.260429
O O22 0.000000 0.754120 0.069570
O O23 0.898337 0.000000 0.057985
O O24 0.876644 0.750928 0.000000
#
# Coordination Sequence:
#
# PCOD9386177 Si02
#       8
#     8   8   8   8   8   8   8   8
#     4  10  20  34  55  85 120 158 194 229 278 339
#     4  11  22  35  56  86 117 150 194 245 293 344
#     4  10  20  36  60  86 112 145 187 235 284 338
#     4   9  19  37  59  83 117 162 205 245 296 356
#     4  10  21  37  60  90 122 156 196 244 294 346
#     4  10  22  42  66  88 114 151 196 246 300 358
#     4  12  25  40  59  84 117 156 196 240 294 355
#     4   8  15  30  53  81 111 141 176 223 279 335
#
# _framework density 19.791768999999999
#
# number of rings (size 3 to 8) (size 9 to 14) (size 15 to 20)
#    0.000    2.000    1.250    3.375    0.000    4.500 
#    0.000    4.375    0.000    1.125    0.000    6.125 
#    0.000    0.000    0.000    0.000    0.000    0.000 
#
# Total GULP energy -357147.921013 kJ/mol
# GULP energy per Si atom -5580.436266 kJ/mol
# Density = 1.974672 g / cm^3
# Si number density = 19.791769 Si / 1000 Ang^3
#
#
#
# Elastic Constant Matrix: (Units=GPa)
#
#
# Indices 1 2 3 4 5 6 
#
# 1 112.8884 8.8316 73.6799 0.0000 0.0000 0.0000
# 2 8.8316 29.3927 8.1951 0.0000 0.0000 0.0000
# 3 73.6799 8.1951 132.6676 0.0000 0.0000 0.0000
# 4 0.0000 0.0000 0.0000 -67.1862 0.0000 0.0000
# 5 0.0000 0.0000 0.0000 0.0000 -9.6271 0.0000
# 6 0.0000 0.0000 0.0000 0.0000 0.0000 -1.2982
#
#
#
# Elastic Compliance Matrix: (Units=1/GPa)
#
#
# Indices 1 2 3 4 5 6 
#
# 1 0.014018 -0.002077 -0.007657 0.000000 0.000000 0.000000
# 2 -0.002077 0.034926 -0.001004 0.000000 0.000000 0.000000
# 3 -0.007657 -0.001004 0.011852 0.000000 0.000000 0.000000
# 4 0.000000 0.000000 0.000000 -0.014884 0.000000 0.000000
# 5 0.000000 0.000000 0.000000 0.000000 -0.103874 0.000000
# 6 0.000000 0.000000 0.000000 0.000000 0.000000 -0.770322
#
#
# Mechanical properties :
#
#
# Convention : Reuss Voigt Hill
#
# Bulk Modulus (GPa) = 25.43208 50.70685 38.06946
# Shear Modulus (GPa) = -6.29961 -3.33947 -4.81954
#
# Velocity S-wave (km/s) = -1.78602 -1.30037 -1.56218
# Velocity P-wave (km/s) = 2.93676 4.83954 4.00286
#
# Compressibility (1/GPa) = 0.03932042
#
# Stress axis : x y z
#
# Youngs Moduli (GPa) = 71.33441 28.63192 84.37241
#
# Poissons Ratio (x) = 0.05947 0.64605
# Poissons Ratio (y) = 0.14817 0.08470
# Poissons Ratio (z) = 0.54622 0.02874
#
# Static dielectric constant tensor:
#      x y z
#    x 1.693380 0.000000 0.000000 
#    y 0.000000 1.693890 0.000000 
#    z 0.000000 0.000000 1.701560 
# 
# From -- ./inp_files/32800.got.cif
#   From: 2010.05.17/outbox.cif.g08.bks.cpg/sg47_17_cif.got.tgz:32800.got - 2010.06.03 20:15:42.
