data_PCOD9386648
_publ_section_title
;
Structure prediction by ZEFSAII (Michael W. Deem and Ramdas Pophale) SiO2 
 PCOD9386648
Probable space group: P M M M
;
_chemical_formula_sum "Si O2"
_cell_formula_units_Z 36
_cell_length_a 12.811554
_cell_length_b 7.572767
_cell_length_c 19.385489
_cell_angle_alpha 90.000000
_cell_angle_beta 90.000000
_cell_angle_gamma 90.000000
_cell_volume 1880.759078
_symmetry_space_group_name_H-M "P M M M"
_symmetry_group_IT_number 47
_symmetry_cell_setting 'orthorhombic'
loop_
_space_group_symop_operation_xyz
x,y,z
-x,-y,z
x,-y,-z
-x,y,-z
-x,-y,-z
x,y,-z
-x,y,z
x,-y,z
loop_
_atom_site_type_symbol
_atom_site_label
_atom_site_fract_x
_atom_site_fract_y
_atom_site_fract_z
Si Si1 0.731627 0.707766 0.646832
Si Si2 0.273588 0.707574 0.193681
Si Si3 0.500000 0.788163 0.645376
Si Si4 0.120977 0.000000 0.582515
Si Si5 0.500000 0.789539 0.803828
Si Si6 0.120667 0.284179 0.076967
O O1 0.757678 0.500000 0.644416
O O2 0.729743 0.772933 0.727231
O O3 0.613055 0.729406 0.617811
O O4 0.814741 0.829599 0.608527
O O5 0.252558 0.500000 0.199627
O O6 0.390723 0.730429 0.165325
O O7 0.191672 0.782228 0.139300
O O8 0.500000 0.721195 0.724773
O O9 0.500000 0.000000 0.644476
O O10 0.120378 0.000000 0.500000
O O11 0.000000 0.000000 0.606545
O O12 0.500000 0.000000 0.801326
O O13 0.124206 0.500000 0.077471
O O14 0.000000 0.234174 0.086203
O O15 0.154317 0.228991 0.000000
#
# Coordination Sequence:
#
# PCOD9386648 Si02
#       6
#     8   8   4   4   4   8
#     4  10  20  36  61  90 116 146 188 235 282 333
#     4   9  17  29  51  80 106 133 173 221 267 318
#     4   9  15  31  59  88 119 147 178 226 285 341
#     4  11  26  45  61  81 114 155 193 228 275 334
#     4   9  17  27  46  72 103 140 173 207 263 323
#     4   8  14  26  45  70 101 135 171 217 272 320
#
# _framework density 19.141207000000001
#
# number of rings (size 3 to 8) (size 9 to 14) (size 15 to 20)
#    0.000    2.778    1.111    1.333    1.556    4.444 
#    0.000    5.000    0.000    5.333    0.000    1.556 
#    0.000    0.000    0.000    0.000    0.000    0.000 
#
# Total GULP energy -200589.668453 kJ/mol
# GULP energy per Si atom -5571.935235 kJ/mol
# Density = 1.909764 g / cm^3
# Si number density = 19.141207 Si / 1000 Ang^3
#
#
#
# Elastic Constant Matrix: (Units=GPa)
#
#
# Indices 1 2 3 4 5 6 
#
# 1 146.6779 36.8276 61.2972 0.0000 0.0000 0.0000
# 2 36.8276 86.4411 20.5453 0.0000 0.0000 0.0000
# 3 61.2972 20.5453 61.0528 0.0000 0.0000 0.0000
# 4 0.0000 0.0000 0.0000 -3.3459 0.0000 0.0000
# 5 0.0000 0.0000 0.0000 0.0000 41.0095 0.0000
# 6 0.0000 0.0000 0.0000 0.0000 0.0000 9.2849
#
#
#
# Elastic Compliance Matrix: (Units=1/GPa)
#
#
# Indices 1 2 3 4 5 6 
#
# 1 0.012220 -0.002489 -0.011431 0.000000 0.000000 0.000000
# 2 -0.002489 0.013081 -0.001903 0.000000 0.000000 0.000000
# 3 -0.011431 -0.001903 0.028496 0.000000 0.000000 0.000000
# 4 0.000000 0.000000 0.000000 -0.298873 0.000000 0.000000
# 5 0.000000 0.000000 0.000000 0.000000 0.024385 0.000000
# 6 0.000000 0.000000 0.000000 0.000000 0.000000 0.107702
#
#
# Mechanical properties :
#
#
# Convention : Reuss Voigt Hill
#
# Bulk Modulus (GPa) = 45.14421 59.05687 52.10054
# Shear Modulus (GPa) = -67.60512 21.08981 -23.25766
#
# Velocity S-wave (km/s) = -5.94944 3.32294 -3.48955
# Velocity P-wave (km/s) = 4.85370 6.75595 3.32298
#
# Compressibility (1/GPa) = 0.02215123
#
# Stress axis : x y z
#
# Youngs Moduli (GPa) = 81.83534 76.44467 35.09229
#
# Poissons Ratio (x) = 0.19029 0.40114
# Poissons Ratio (y) = 0.20371 0.06678
# Poissons Ratio (z) = 0.93545 0.14547
#
# Static dielectric constant tensor:
#      x y z
#    x 1.677050 0.000000 0.000000 
#    y 0.000000 1.687590 0.000000 
#    z 0.000000 0.000000 1.671830 
# 
# From -- ./inp_files/30294.got.cif
#   From: 2010.05.17/outbox.cif.g08.bks.cpg/sg47_16_cif.got.tgz:30294.got - 2010.06.03 20:15:42.
