data_PCOD9386139
_publ_section_title
;
Structure prediction by ZEFSAII (Michael W. Deem and Ramdas Pophale) SiO2 
 PCOD9386139
Probable space group: P M M M
;
_chemical_formula_sum "Si O2"
_cell_formula_units_Z 36
_cell_length_a 25.035554
_cell_length_b 7.563834
_cell_length_c 8.516633
_cell_angle_alpha 90.000000
_cell_angle_beta 90.000000
_cell_angle_gamma 90.000000
_cell_volume 1612.750288
_symmetry_space_group_name_H-M "P M M M"
_symmetry_group_IT_number 47
_symmetry_cell_setting 'orthorhombic'
loop_
_space_group_symop_operation_xyz
x,y,z
-x,-y,z
x,-y,-z
-x,y,-z
-x,-y,-z
x,y,-z
-x,y,z
x,-y,z
loop_
_atom_site_type_symbol
_atom_site_label
_atom_site_fract_x
_atom_site_fract_y
_atom_site_fract_z
Si Si1 0.671794 0.289528 0.825987
Si Si2 0.937232 0.785465 0.500000
Si Si3 0.442012 0.212751 0.680939
Si Si4 0.220512 0.285685 0.674829
Si Si5 0.113154 0.207473 0.173283
O O1 0.679333 0.500000 0.833806
O O2 0.611689 0.262643 0.768462
O O3 0.719619 0.224767 0.715760
O O4 0.678136 0.215039 0.000000
O O5 0.912392 0.718809 0.334897
O O6 0.000000 0.748677 0.500000
O O7 0.929825 0.000000 0.500000
O O8 0.438187 0.272708 0.500000
O O9 0.500000 0.273237 0.744196
O O10 0.443365 0.000000 0.679768
O O11 0.205533 0.224623 0.500000
O O12 0.219511 0.500000 0.674485
O O13 0.176615 0.224124 0.798473
O O14 0.098773 0.000000 0.169183
O O15 0.099225 0.281129 0.000000
#
# Coordination Sequence:
#
# PCOD9386139 Si02
#       5
#     8   4   8   8   8
#     4  10  21  35  51  75 105 135 171 215 263 318
#     4   9  18  34  55  81 115 149 182 225 270 313
#     4   9  19  36  55  74  98 131 172 216 263 316
#     4  10  20  35  56  79 105 141 181 221 270 323
#     4  10  20  34  55  83 112 144 183 225 271 322
#
# _framework density 22.322116000000001
#
# number of rings (size 3 to 8) (size 9 to 14) (size 15 to 20)
#    0.000    2.333    1.111    2.000    0.000    5.333 
#    0.000    5.556    0.000    1.333    0.000    1.556 
#    0.000    0.000    0.000    0.000    0.000    0.000 
#
# Total GULP energy -200906.472112 kJ/mol
# GULP energy per Si atom -5580.735336 kJ/mol
# Density = 2.227131 g / cm^3
# Si number density = 22.322116 Si / 1000 Ang^3
#
#
#
# Elastic Constant Matrix: (Units=GPa)
#
#
# Indices 1 2 3 4 5 6 
#
# 1 106.9226 -6.8453 61.3130 0.0000 0.0000 0.0000
# 2 -6.8453 50.1851 7.8632 0.0000 0.0000 0.0000
# 3 61.3130 7.8632 165.1226 0.0000 0.0000 0.0000
# 4 0.0000 0.0000 0.0000 10.6794 0.0000 0.0000
# 5 0.0000 0.0000 0.0000 0.0000 9.5256 0.0000
# 6 0.0000 0.0000 0.0000 0.0000 0.0000 18.7098
#
#
#
# Elastic Compliance Matrix: (Units=1/GPa)
#
#
# Indices 1 2 3 4 5 6 
#
# 1 0.012159 0.002384 -0.004628 0.000000 0.000000 0.000000
# 2 0.002384 0.020543 -0.001863 0.000000 0.000000 0.000000
# 3 -0.004628 -0.001863 0.007863 0.000000 0.000000 0.000000
# 4 0.000000 0.000000 0.000000 0.093638 0.000000 0.000000
# 5 0.000000 0.000000 0.000000 0.000000 0.104980 0.000000
# 6 0.000000 0.000000 0.000000 0.000000 0.000000 0.053448
#
#
# Mechanical properties :
#
#
# Convention : Reuss Voigt Hill
#
# Bulk Modulus (GPa) = 30.91203 49.65466 40.28335
# Shear Modulus (GPa) = 16.04457 25.10959 20.57708
#
# Velocity S-wave (km/s) = 2.68391 3.35755 3.03945
# Velocity P-wave (km/s) = 4.84589 6.10932 5.51391
#
# Compressibility (1/GPa) = 0.03234986
#
# Stress axis : x y z
#
# Youngs Moduli (GPa) = 82.24167 48.67752 127.17023
#
# Poissons Ratio (x) = -0.11603 0.58860
# Poissons Ratio (y) = -0.19604 0.23697
# Poissons Ratio (z) = 0.38065 0.09071
#
# Static dielectric constant tensor:
#      x y z
#    x 1.802340 0.000000 0.000000 
#    y 0.000000 1.839370 0.000000 
#    z 0.000000 0.000000 1.836450 
# 
# From -- ./inp_files/12062.got.cif
#   From: 2010.05.17/outbox.cif.g08.bks.cpg/sg47_7_cif.got.tgz:12062.got - 2010.06.03 20:15:42.
