data_PCOD9386042
_publ_section_title
;
Structure prediction by ZEFSAII (Michael W. Deem and Ramdas Pophale) SiO2 
 PCOD9386042
Probable space group: P M M M
;
_chemical_formula_sum "Si O2"
_cell_formula_units_Z 64
_cell_length_a 8.082784
_cell_length_b 14.895042
_cell_length_c 26.300038
_cell_angle_alpha 90.000000
_cell_angle_beta 90.000000
_cell_angle_gamma 90.000000
_cell_volume 3166.351183
_symmetry_space_group_name_H-M "P M M M"
_symmetry_group_IT_number 47
_symmetry_cell_setting 'orthorhombic'
loop_
_space_group_symop_operation_xyz
x,y,z
-x,-y,z
x,-y,-z
-x,y,-z
-x,-y,-z
x,y,-z
-x,y,z
x,-y,z
loop_
_atom_site_type_symbol
_atom_site_label
_atom_site_fract_x
_atom_site_fract_y
_atom_site_fract_z
Si Si1 0.196500 0.290878 0.555494
Si Si2 0.303063 0.719745 0.752384
Si Si3 0.802142 0.096755 0.060866
Si Si4 0.200826 0.603948 0.654783
Si Si5 0.297092 0.398037 0.153178
Si Si6 0.697054 0.709128 0.057574
Si Si7 0.805104 0.900131 0.293774
Si Si8 0.306375 0.100404 0.591504
O O1 0.265959 0.314622 0.500000
O O2 0.261738 0.347395 0.603312
O O3 0.222205 0.185206 0.565557
O O4 0.000000 0.307671 0.554189
O O5 0.500000 0.726845 0.755977
O O6 0.259617 0.659967 0.703271
O O7 0.240927 0.668439 0.802338
O O8 0.234165 0.819099 0.743554
O O9 0.727561 0.190347 0.078637
O O10 0.000000 0.100310 0.067653
O O11 0.742653 0.000000 0.081247
O O12 0.770150 0.095407 0.000000
O O13 0.252513 0.500000 0.657174
O O14 0.000000 0.606334 0.654823
O O15 0.500000 0.397120 0.153237
O O16 0.245161 0.500000 0.162749
O O17 0.240232 0.361962 0.098454
O O18 0.500000 0.697191 0.053812
O O19 0.765841 0.701909 0.000000
O O20 0.713501 0.887917 0.347615
O O21 0.000000 0.897404 0.305694
O O22 0.764691 0.000000 0.274139
O O23 0.500000 0.102626 0.578585
O O24 0.241903 0.000000 0.579157
#
# Coordination Sequence:
#
# PCOD9386042 Si02
#       8
#     8   8   8   8   8   8   8   8
#     4  10  21  36  54  78 110 148 186 225 272 323
#     4  11  21  35  58  83 108 140 177 219 268 322
#     4   8  14  26  45  69  99 136 173 208 253 310
#     4  10  21  37  57  80 106 139 181 227 273 322
#     4   9  19  35  53  77 109 141 175 219 270 319
#     4   9  17  30  51  78 105 137 179 223 264 308
#     4  10  20  35  57  83 111 142 175 215 265 321
#     4  10  20  34  54  81 111 144 181 220 266 320
#
# _framework density 20.212541999999999
#
# number of rings (size 3 to 8) (size 9 to 14) (size 15 to 20)
#    0.000    2.375    1.250    1.875    0.000    3.500 
#    0.000    6.875    0.000    5.625    0.000    3.500 
#    0.000    0.000    0.000    0.000    0.000    0.000 
#
# Total GULP energy -357067.835866 kJ/mol
# GULP energy per Si atom -5579.184935 kJ/mol
# Density = 2.016654 g / cm^3
# Si number density = 20.212542 Si / 1000 Ang^3
#
#
#
# Elastic Constant Matrix: (Units=GPa)
#
#
# Indices 1 2 3 4 5 6 
#
# 1 11.6296 -2.1738 -1.4517 0.0000 0.0000 0.0000
# 2 -2.1738 98.1749 46.6780 0.0000 0.0000 0.0000
# 3 -1.4517 46.6780 88.0682 0.0000 0.0000 0.0000
# 4 0.0000 0.0000 0.0000 6.9879 0.0000 0.0000
# 5 0.0000 0.0000 0.0000 0.0000 15.8078 0.0000
# 6 0.0000 0.0000 0.0000 0.0000 0.0000 18.7112
#
#
#
# Elastic Compliance Matrix: (Units=1/GPa)
#
#
# Indices 1 2 3 4 5 6 
#
# 1 0.086364 0.001652 0.000548 0.000000 0.000000 0.000000
# 2 0.001652 0.013649 -0.007207 0.000000 0.000000 0.000000
# 3 0.000548 -0.007207 0.015184 0.000000 0.000000 0.000000
# 4 0.000000 0.000000 0.000000 0.143105 0.000000 0.000000
# 5 0.000000 0.000000 0.000000 0.000000 0.063260 0.000000
# 6 0.000000 0.000000 0.000000 0.000000 0.000000 0.053444
#
#
# Mechanical properties :
#
#
# Convention : Reuss Voigt Hill
#
# Bulk Modulus (GPa) = 9.50725 31.55310 20.53018
# Shear Modulus (GPa) = 11.90244 18.62273 15.26259
#
# Velocity S-wave (km/s) = 2.42929 3.03866 2.75090
# Velocity P-wave (km/s) = 3.54717 5.28733 4.50212
#
# Compressibility (1/GPa) = 0.10518283
#
# Stress axis : x y z
#
# Youngs Moduli (GPa) = 11.57884 73.26466 65.85971
#
# Poissons Ratio (x) = -0.12100 -0.03611
# Poissons Ratio (y) = -0.01912 0.47466
# Poissons Ratio (z) = -0.00635 0.52803
#
# Static dielectric constant tensor:
#      x y z
#    x 1.727800 0.000000 0.000000 
#    y 0.000000 1.717990 0.000000 
#    z 0.000000 0.000000 1.716810 
# 
# From -- ./inp_files/12674.got.cif
#   From: 2010.05.17/outbox.cif.g08.bks.cpg/sg47_7_cif.got.tgz:12674.got - 2010.06.03 20:15:42.
