data_PCOD9386578
_publ_section_title
;
Structure prediction by ZEFSAII (Michael W. Deem and Ramdas Pophale) SiO2 
 PCOD9386578
Probable space group: P M M M
;
_chemical_formula_sum "Si O2"
_cell_formula_units_Z 56
_cell_length_a 15.546825
_cell_length_b 21.370387
_cell_length_c 9.013661
_cell_angle_alpha 90.000000
_cell_angle_beta 90.000000
_cell_angle_gamma 90.000000
_cell_volume 2994.713755
_symmetry_space_group_name_H-M "P M M M"
_symmetry_group_IT_number 47
_symmetry_cell_setting 'orthorhombic'
loop_
_space_group_symop_operation_xyz
x,y,z
-x,-y,z
x,-y,-z
-x,y,-z
-x,-y,-z
x,y,-z
-x,y,z
x,-y,z
loop_
_atom_site_type_symbol
_atom_site_label
_atom_site_fract_x
_atom_site_fract_y
_atom_site_fract_z
Si Si1 0.000000 0.425736 0.833618
Si Si2 0.403394 0.924296 0.326565
Si Si3 0.592050 0.302110 0.178258
Si Si4 0.351450 0.570924 0.677505
Si Si5 0.897333 0.000000 0.678816
Si Si6 0.227239 0.248520 0.822009
Si Si7 0.778072 0.106324 0.821994
Si Si8 0.165228 0.372779 0.675524
O O1 0.916007 0.404204 0.748588
O O2 0.000000 0.500000 0.841307
O O3 0.000000 0.399495 0.000000
O O4 0.393261 0.906143 0.500000
O O5 0.500000 0.904152 0.276871
O O6 0.320042 0.903577 0.234347
O O7 0.403180 0.000000 0.322023
O O8 0.500000 0.275351 0.224003
O O9 0.600995 0.371922 0.243357
O O10 0.673330 0.260642 0.223685
O O11 0.594443 0.306567 0.000000
O O12 0.365964 0.574658 0.500000
O O13 0.372595 0.500000 0.725009
O O14 0.251003 0.586494 0.705705
O O15 0.844759 0.940772 0.744345
O O16 0.890574 0.000000 0.500000
O O17 0.000000 0.000000 0.716644
O O18 0.199367 0.178370 0.787327
O O19 0.176841 0.303888 0.742859
O O20 0.221707 0.256595 0.000000
O O21 0.780409 0.097130 0.000000
O O22 0.155711 0.368709 0.500000
#
# Coordination Sequence:
#
# PCOD9386578 Si02
#       8
#     4   8   8   8   4   8   8   8
#     4  11  23  37  57  85 115 146 179 222 283 347
#     4   9  18  33  54  82 119 159 192 229 282 342
#     4   9  18  33  52  74 105 145 187 228 267 318
#     4   9  18  32  50  73 103 139 179 227 280 327
#     4  11  25  45  66  87 114 151 191 236 286 345
#     4   9  20  38  57  80 113 151 186 226 280 337
#     4  11  22  37  62  92 119 150 190 241 294 343
#     4  10  20  36  57  80 107 142 185 232 278 331
#
# _framework density 18.699617
#
# number of rings (size 3 to 8) (size 9 to 14) (size 15 to 20)
#    0.000    2.286    0.714    2.143    0.000    5.143 
#    1.286    3.571    0.000    0.000    0.000    0.000 
#    0.000    0.000    0.000    0.000    0.000    0.000 
#
# Total GULP energy -312417.017060 kJ/mol
# GULP energy per Si atom -5578.875305 kJ/mol
# Density = 1.865706 g / cm^3
# Si number density = 18.699617 Si / 1000 Ang^3
#
#
#
# Elastic Constant Matrix: (Units=GPa)
#
#
# Indices 1 2 3 4 5 6 
#
# 1 106.1295 35.5342 39.0896 0.0000 0.0000 0.0000
# 2 35.5342 97.1541 32.5992 0.0000 0.0000 0.0000
# 3 39.0896 32.5992 32.2105 0.0000 0.0000 0.0000
# 4 0.0000 0.0000 0.0000 10.3015 0.0000 0.0000
# 5 0.0000 0.0000 0.0000 0.0000 26.7547 0.0000
# 6 0.0000 0.0000 0.0000 0.0000 0.0000 -8.9240
#
#
#
# Elastic Compliance Matrix: (Units=1/GPa)
#
#
# Indices 1 2 3 4 5 6 
#
# 1 0.017112 0.001074 -0.021853 0.000000 0.000000 0.000000
# 2 0.001074 0.015653 -0.017145 0.000000 0.000000 0.000000
# 3 -0.021853 -0.017145 0.074918 0.000000 0.000000 0.000000
# 4 0.000000 0.000000 0.000000 0.097073 0.000000 0.000000
# 5 0.000000 0.000000 0.000000 0.000000 0.037377 0.000000
# 6 0.000000 0.000000 0.000000 0.000000 0.000000 -0.112058
#
#
# Mechanical properties :
#
#
# Convention : Reuss Voigt Hill
#
# Bulk Modulus (GPa) = 31.41295 49.99332 40.70314
# Shear Modulus (GPa) = 23.09096 14.17788 18.63442
#
# Velocity S-wave (km/s) = 3.51784 2.75651 3.16018
# Velocity P-wave (km/s) = 5.77368 6.07652 5.92704
#
# Compressibility (1/GPa) = 0.03183400
#
# Stress axis : x y z
#
# Youngs Moduli (GPa) = 58.43911 63.88536 13.34791
#
# Poissons Ratio (x) = -0.06861 0.29169
# Poissons Ratio (y) = -0.06276 0.22885
# Poissons Ratio (z) = 1.27708 1.09533
#
# Static dielectric constant tensor:
#      x y z
#    x 1.630390 0.000000 0.000000 
#    y 0.000000 1.627550 0.000000 
#    z 0.000000 0.000000 1.631240 
# 
# From -- ./inp_files/7435.got.cif
#   From: 2010.05.17/outbox.cif.g08.bks.cpg/sg47_4_cif.got.tgz:7435.got - 2010.06.03 20:15:42.
