data_PCOD9386749
_publ_section_title
;
Structure prediction by ZEFSAII (Michael W. Deem and Ramdas Pophale) SiO2 
 PCOD9386749
Probable space group: P M M M
;
_chemical_formula_sum "Si O2"
_cell_formula_units_Z 44
_cell_length_a 17.728137
_cell_length_b 15.145369
_cell_length_c 8.464095
_cell_angle_alpha 90.000000
_cell_angle_beta 90.000000
_cell_angle_gamma 90.000000
_cell_volume 2272.602538
_symmetry_space_group_name_H-M "P M M M"
_symmetry_group_IT_number 47
_symmetry_cell_setting 'orthorhombic'
loop_
_space_group_symop_operation_xyz
x,y,z
-x,-y,z
x,-y,-z
-x,y,-z
-x,-y,-z
x,y,-z
-x,y,z
x,-y,z
loop_
_atom_site_type_symbol
_atom_site_label
_atom_site_fract_x
_atom_site_fract_y
_atom_site_fract_z
Si Si1 0.186901 0.833714 0.310480
Si Si2 0.500000 0.900744 0.812832
Si Si3 0.640355 0.207442 0.314110
Si Si4 0.334702 0.598304 0.817466
Si Si5 0.080198 0.396546 0.500000
Si Si6 0.159845 0.648021 0.173876
Si Si7 0.909561 0.000000 0.191434
O O1 0.177119 0.814401 0.500000
O O2 0.277568 0.837187 0.283736
O O3 0.164071 0.753022 0.197626
O O4 0.135730 0.916443 0.262945
O O5 0.574102 0.847188 0.764674
O O6 0.500000 0.000000 0.744019
O O7 0.500000 0.907668 0.000000
O O8 0.628682 0.205337 0.500000
O O9 0.639468 0.310766 0.263411
O O10 0.354127 0.500000 0.752792
O O11 0.243810 0.607681 0.818893
O O12 0.360115 0.600769 0.000000
O O13 0.071018 0.500000 0.500000
O O14 0.119625 0.379191 0.665929
O O15 0.000000 0.348155 0.500000
O O16 0.127900 0.625801 0.000000
O O17 0.000000 0.000000 0.229364
O O18 0.903333 0.000000 0.000000
#
# Coordination Sequence:
#
# PCOD9386749 Si02
#       7
#     8   4   8   8   4   8   4
#     4  10  21  40  64  91 122 160 205 255 313 374
#     4  11  25  43  64  91 122 163 209 254 308 363
#     4  10  22  39  62  93 126 161 205 255 307 368
#     4   9  18  34  60  92 123 158 201 250 304 362
#     4  11  24  38  54  81 117 156 201 255 315 378
#     4  10  20  38  61  86 116 156 205 256 308 370
#     4  11  25  41  59  88 123 162 209 260 318 379
#
# _framework density 19.361063999999999
#
# number of rings (size 3 to 8) (size 9 to 14) (size 15 to 20)
#    0.000    1.909    0.909    2.182    2.545    6.182 
#    0.000    1.364    0.000    2.727    0.000    0.000 
#    0.000    0.000    0.000    0.000    0.000    0.000 
#
# Total GULP energy -245167.394054 kJ/mol
# GULP energy per Si atom -5571.986228 kJ/mol
# Density = 1.931700 g / cm^3
# Si number density = 19.361064 Si / 1000 Ang^3
#
#
#
# Elastic Constant Matrix: (Units=GPa)
#
#
# Indices 1 2 3 4 5 6 
#
# 1 76.2578 62.2281 60.4493 0.0000 0.0000 0.0000
# 2 62.2281 133.7559 37.2640 0.0000 0.0000 0.0000
# 3 60.4493 37.2640 125.4358 0.0000 0.0000 0.0000
# 4 0.0000 0.0000 0.0000 16.6942 0.0000 0.0000
# 5 0.0000 0.0000 0.0000 0.0000 25.5221 0.0000
# 6 0.0000 0.0000 0.0000 0.0000 0.0000 39.8553
#
#
#
# Elastic Compliance Matrix: (Units=1/GPa)
#
#
# Indices 1 2 3 4 5 6 
#
# 1 0.032101 -0.011583 -0.012029 0.000000 0.000000 0.000000
# 2 -0.011583 0.012331 0.001919 0.000000 0.000000 0.000000
# 3 -0.012029 0.001919 0.013199 0.000000 0.000000 0.000000
# 4 0.000000 0.000000 0.000000 0.059901 0.000000 0.000000
# 5 0.000000 0.000000 0.000000 0.000000 0.039182 0.000000
# 6 0.000000 0.000000 0.000000 0.000000 0.000000 0.025091
#
#
# Mechanical properties :
#
#
# Convention : Reuss Voigt Hill
#
# Bulk Modulus (GPa) = 70.20317 72.81469 71.50893
# Shear Modulus (GPa) = 21.74501 28.11486 24.92993
#
# Velocity S-wave (km/s) = 3.35495 3.81482 3.59225
# Velocity P-wave (km/s) = 7.16563 7.55608 7.36344
#
# Compressibility (1/GPa) = 0.01424437
#
# Stress axis : x y z
#
# Youngs Moduli (GPa) = 31.15198 81.09885 75.76383
#
# Poissons Ratio (x) = 0.93939 0.91134
# Poissons Ratio (y) = 0.36084 -0.14539
# Poissons Ratio (z) = 0.37472 -0.15563
#
# Static dielectric constant tensor:
#      x y z
#    x 0.781980 0.000000 0.000000 
#    y 0.000000 1.703780 0.000000 
#    z 0.000000 0.000000 1.524980 
# 
# From -- ./inp_files/9093.got.cif
#   From: 2010.05.17/outbox.cif.g08.bks.cpg/sg47_5_cif.got.tgz:9093.got - 2010.06.03 20:15:42.
