data_PCOD9386157
_publ_section_title
;
Structure prediction by ZEFSAII (Michael W. Deem and Ramdas Pophale) SiO2 
 PCOD9386157
Probable space group: P M M M
;
_chemical_formula_sum "Si O2"
_cell_formula_units_Z 48
_cell_length_a 9.270480
_cell_length_b 31.828520
_cell_length_c 8.678930
_cell_angle_alpha 90.000000
_cell_angle_beta 90.000000
_cell_angle_gamma 90.000000
_cell_volume 2560.854192
_symmetry_space_group_name_H-M "P M M M"
_symmetry_group_IT_number 47
_symmetry_cell_setting 'orthorhombic'
loop_
_space_group_symop_operation_xyz
x,y,z
-x,-y,z
x,-y,-z
-x,y,-z
-x,-y,-z
x,y,-z
-x,y,z
x,-y,z
loop_
_atom_site_type_symbol
_atom_site_label
_atom_site_fract_x
_atom_site_fract_y
_atom_site_fract_z
Si Si1 0.164224 0.000000 0.683883
Si Si2 0.670801 0.920315 0.815354
Si Si3 0.168719 0.418669 0.814947
Si Si4 0.832240 0.256816 0.813345
Si Si5 0.666800 0.826532 0.812370
Si Si6 0.331268 0.500000 0.314911
Si Si7 0.668512 0.662491 0.315132
O O1 0.243992 0.958273 0.740973
O O2 0.163893 0.000000 0.500000
O O3 0.000000 0.000000 0.741183
O O4 0.500000 0.924588 0.784166
O O5 0.714013 0.873264 0.763329
O O6 0.689359 0.922501 0.000000
O O7 0.251480 0.458898 0.748502
O O8 0.245148 0.376715 0.754385
O O9 0.000000 0.419405 0.769702
O O10 0.175621 0.419597 0.000000
O O11 0.765953 0.212071 0.763685
O O12 0.740286 0.294698 0.744151
O O13 0.000000 0.260423 0.770189
O O14 0.823518 0.258975 0.000000
O O15 0.500000 0.819932 0.765245
O O16 0.667110 0.827127 0.000000
O O17 0.500000 0.500000 0.269480
O O18 0.324625 0.500000 0.500000
O O19 0.676519 0.660686 0.500000
O O20 0.500000 0.660601 0.270066
#
# Coordination Sequence:
#
# PCOD9386157 Si02
#       7
#     4   8   8   8   8   4   8
#     4  11  24  37  48  70 106 143 178 217 264 320
#     4   9  18  34  57  82 104 131 174 223 268 320
#     4  11  24  41  62  89 118 149 189 234 280 332
#     4  10  20  34  55  84 114 144 180 221 268 325
#     4   8  15  30  53  80 108 137 172 218 269 319
#     4  11  24  41  62  90 122 155 192 231 274 328
#     4  11  24  40  58  82 112 148 191 234 276 326
#
# _framework density 18.743746000000002
#
# number of rings (size 3 to 8) (size 9 to 14) (size 15 to 20)
#    0.000    2.000    0.000    4.500    0.000   12.000 
#    0.000    2.500    0.000    1.000    0.000    0.000 
#    0.000    0.000    0.000    0.000    0.000    0.000 
#
# Total GULP energy -268138.801851 kJ/mol
# GULP energy per Si atom -5586.225039 kJ/mol
# Density = 1.870108 g / cm^3
# Si number density = 18.743746 Si / 1000 Ang^3
#
#
#
# Elastic Constant Matrix: (Units=GPa)
#
#
# Indices 1 2 3 4 5 6 
#
# 1 162.5747 120.4290 54.7110 0.0000 0.0000 0.0000
# 2 120.4290 205.3071 46.6415 0.0000 0.0000 0.0000
# 3 54.7110 46.6415 28.3308 0.0000 0.0000 0.0000
# 4 0.0000 0.0000 0.0000 -183.2394 0.0000 0.0000
# 5 0.0000 0.0000 0.0000 0.0000 24.7918 0.0000
# 6 0.0000 0.0000 0.0000 0.0000 0.0000 200.7373
#
#
#
# Elastic Compliance Matrix: (Units=1/GPa)
#
#
# Indices 1 2 3 4 5 6 
#
# 1 0.020101 -0.004748 -0.031001 0.000000 0.000000 0.000000
# 2 -0.004748 0.008902 -0.005487 0.000000 0.000000 0.000000
# 3 -0.031001 -0.005487 0.104199 0.000000 0.000000 0.000000
# 4 0.000000 0.000000 0.000000 -0.005457 0.000000 0.000000
# 5 0.000000 0.000000 0.000000 0.000000 0.040336 0.000000
# 6 0.000000 0.000000 0.000000 0.000000 0.000000 0.004982
#
#
# Mechanical properties :
#
#
# Convention : Reuss Voigt Hill
#
# Bulk Modulus (GPa) = 19.71232 93.30840 56.51036
# Shear Modulus (GPa) = 18.35228 20.08667 19.21948
#
# Velocity S-wave (km/s) = 3.13248 3.27715 3.20563
# Velocity P-wave (km/s) = 4.86033 8.01304 6.62690
#
# Compressibility (1/GPa) = 0.05072970
#
# Stress axis : x y z
#
# Youngs Moduli (GPa) = 49.74886 112.32975 9.59700
#
# Poissons Ratio (x) = 0.53334 0.29752
# Poissons Ratio (y) = 0.23621 0.05266
# Poissons Ratio (z) = 1.54228 0.61637
#
# Static dielectric constant tensor:
#      x y z
#    x 1.629350 0.000000 0.000000 
#    y 0.000000 1.623380 0.000000 
#    z 0.000000 0.000000 1.635340 
# 
# From -- ./inp_files/2631.got.cif
#   From: 2010.05.17/outbox.cif.g08.bks.cpg/sg47_2_cif.got.tgz:2631.got - 2010.06.03 20:15:42.
