data_PCOD9386211
_publ_section_title
;
Structure prediction by ZEFSAII (Michael W. Deem and Ramdas Pophale) SiO2 
 PCOD9386211
Probable space group: P M M M
;
_chemical_formula_sum "Si O2"
_cell_formula_units_Z 64
_cell_length_a 25.641454
_cell_length_b 14.726064
_cell_length_c 8.952357
_cell_angle_alpha 90.000000
_cell_angle_beta 90.000000
_cell_angle_gamma 90.000000
_cell_volume 3380.389347
_symmetry_space_group_name_H-M "P M M M"
_symmetry_group_IT_number 47
_symmetry_cell_setting 'orthorhombic'
loop_
_space_group_symop_operation_xyz
x,y,z
-x,-y,z
x,-y,-z
-x,y,-z
-x,-y,-z
x,y,-z
-x,y,z
x,-y,z
loop_
_atom_site_type_symbol
_atom_site_label
_atom_site_fract_x
_atom_site_fract_y
_atom_site_fract_z
Si Si1 0.849338 0.104819 0.178206
Si Si2 0.938160 0.213297 0.323755
Si Si3 0.559043 0.785632 0.322566
Si Si4 0.936635 0.600505 0.173788
Si Si5 0.246513 0.208545 0.321455
Si Si6 0.345552 0.892213 0.178222
Si Si7 0.291675 0.601359 0.322261
Si Si8 0.405513 0.396843 0.821674
O O1 0.904871 0.140000 0.235213
O O2 0.805048 0.166567 0.251344
O O3 0.840897 0.000000 0.220620
O O4 0.846399 0.111811 0.000000
O O5 0.929830 0.203358 0.500000
O O6 0.920456 0.313677 0.271050
O O7 0.000000 0.205214 0.293627
O O8 0.569003 0.786097 0.500000
O O9 0.500000 0.817886 0.295731
O O10 0.602084 0.846450 0.240988
O O11 0.564522 0.683169 0.261415
O O12 0.918806 0.500000 0.222542
O O13 0.000000 0.598822 0.178342
O O14 0.921999 0.613567 0.000000
O O15 0.245343 0.198531 0.500000
O O16 0.296467 0.155786 0.256100
O O17 0.254314 0.315054 0.285700
O O18 0.344964 0.000000 0.207586
O O19 0.342374 0.878271 0.000000
O O20 0.304130 0.607816 0.500000
O O21 0.270494 0.500000 0.294673
O O22 0.345369 0.610758 0.231204
O O23 0.422786 0.500000 0.785667
O O24 0.409071 0.384844 0.000000
#
# Coordination Sequence:
#
# PCOD9386211 Si02
#       8
#     8   8   8   8   8   8   8   8
#     4  11  25  43  62  85 115 154 200 250 301 351
#     4  10  21  37  59  88 121 157 197 244 299 356
#     4  11  24  40  58  83 116 155 199 247 298 351
#     4   8  14  27  50  80 114 153 195 236 279 332
#     4  11  22  38  64  93 120 153 192 238 292 347
#     4  11  24  41  62  87 115 150 193 243 300 358
#     4   9  18  34  58  88 121 155 190 229 280 346
#     4  10  20  34  56  86 118 154 195 239 289 347
#
# _framework density 18.932729999999999
#
# number of rings (size 3 to 8) (size 9 to 14) (size 15 to 20)
#    0.000    1.875    1.250    3.000    0.000    7.500 
#    0.000    5.625    0.000    2.250    0.000    0.000 
#    0.000    0.000    0.000    0.000    0.000    0.000 
#
# Total GULP energy -357453.691180 kJ/mol
# GULP energy per Si atom -5585.213925 kJ/mol
# Density = 1.888964 g / cm^3
# Si number density = 18.932730 Si / 1000 Ang^3
#
#
#
# Elastic Constant Matrix: (Units=GPa)
#
#
# Indices 1 2 3 4 5 6 
#
# 1 53.1430 46.4817 35.3258 0.0000 0.0000 0.0000
# 2 46.4817 104.4314 47.8684 0.0000 0.0000 0.0000
# 3 35.3258 47.8684 53.2451 0.0000 0.0000 0.0000
# 4 0.0000 0.0000 0.0000 27.0684 0.0000 0.0000
# 5 0.0000 0.0000 0.0000 0.0000 -505.0398 0.0000
# 6 0.0000 0.0000 0.0000 0.0000 0.0000 -9.4420
#
#
#
# Elastic Compliance Matrix: (Units=1/GPa)
#
#
# Indices 1 2 3 4 5 6 
#
# 1 0.038204 -0.009161 -0.017110 0.000000 0.000000 0.000000
# 2 -0.009161 0.018484 -0.010540 0.000000 0.000000 0.000000
# 3 -0.017110 -0.010540 0.039608 0.000000 0.000000 0.000000
# 4 0.000000 0.000000 0.000000 0.036943 0.000000 0.000000
# 5 0.000000 0.000000 0.000000 0.000000 -0.001980 0.000000
# 6 0.000000 0.000000 0.000000 0.000000 0.000000 -0.105910
#
#
# Mechanical properties :
#
#
# Convention : Reuss Voigt Hill
#
# Bulk Modulus (GPa) = 44.10356 52.24126 48.17241
# Shear Modulus (GPa) = 46.93434 -92.07311 -22.56938
#
# Velocity S-wave (km/s) = 4.98436 -6.98121 -3.45640
# Velocity P-wave (km/s) = 7.51469 6.10983 3.09359
#
# Compressibility (1/GPa) = 0.02267391
#
# Stress axis : x y z
#
# Youngs Moduli (GPa) = 26.17521 54.09960 25.24711
#
# Poissons Ratio (x) = 0.49563 0.43199
# Poissons Ratio (y) = 0.23980 0.26610
# Poissons Ratio (z) = 0.44787 0.57019
#
# Static dielectric constant tensor:
#      x y z
#    x 1.641920 0.000000 0.000000 
#    y 0.000000 1.664030 0.000000 
#    z 0.000000 0.000000 1.629860 
# 
# From -- ./inp_files/12667.got.cif
#   From: 2010.05.17/outbox.cif.g08.bks.cpg/sg47_7_cif.got.tgz:12667.got - 2010.06.03 20:15:42.
