data_PCOD9386483
_publ_section_title
;
Structure prediction by ZEFSAII (Michael W. Deem and Ramdas Pophale) SiO2 
 PCOD9386483
Probable space group: P M M M
;
_chemical_formula_sum "Si O2"
_cell_formula_units_Z 44
_cell_length_a 28.925467
_cell_length_b 9.209097
_cell_length_c 8.784621
_cell_angle_alpha 90.000000
_cell_angle_beta 90.000000
_cell_angle_gamma 90.000000
_cell_volume 2340.024778
_symmetry_space_group_name_H-M "P M M M"
_symmetry_group_IT_number 47
_symmetry_cell_setting 'orthorhombic'
loop_
_space_group_symop_operation_xyz
x,y,z
-x,-y,z
x,-y,-z
-x,y,-z
-x,-y,-z
x,y,-z
-x,y,z
x,-y,z
loop_
_atom_site_type_symbol
_atom_site_label
_atom_site_fract_x
_atom_site_fract_y
_atom_site_fract_z
Si Si1 0.817228 0.669659 0.817467
Si Si2 0.906328 0.830147 0.684136
Si Si3 0.552993 0.828921 0.682707
Si Si4 0.640014 0.669487 0.181761
Si Si5 0.728279 0.830353 0.682441
Si Si6 0.000000 0.667360 0.685446
O O1 0.818282 0.500000 0.773415
O O2 0.862209 0.750723 0.753917
O O3 0.771551 0.745466 0.752398
O O4 0.816603 0.678331 0.000000
O O5 0.903450 0.821410 0.500000
O O6 0.953624 0.750942 0.732667
O O7 0.907177 0.000000 0.725386
O O8 0.557547 0.812136 0.500000
O O9 0.500000 0.792162 0.723637
O O10 0.591089 0.733576 0.765288
O O11 0.560153 0.000000 0.716540
O O12 0.643711 0.500000 0.223612
O O13 0.680986 0.759425 0.259424
O O14 0.644391 0.681560 0.000000
O O15 0.730292 0.821184 0.500000
O O16 0.730219 0.000000 0.725740
O O17 0.000000 0.500000 0.735969
O O18 0.000000 0.667025 0.500000
#
# Coordination Sequence:
#
# PCOD9386483 Si02
#       6
#     8   8   8   8   8   4
#     4  11  24  40  58  83 115 149 186 229 278 333
#     4  10  20  35  57  85 115 148 189 234 279 331
#     4   9  19  37  60  85 113 147 190 237 281 329
#     4  11  24  39  56  83 118 152 187 229 278 333
#     4  11  24  41  62  87 112 142 185 233 279 332
#     4   9  17  31  54  83 114 149 188 232 282 331
#
# _framework density 18.803218999999999
#
# number of rings (size 3 to 8) (size 9 to 14) (size 15 to 20)
#    0.000    1.727    0.000    4.636    0.000   14.182 
#    0.000    3.182    0.000    2.727    0.000    0.000 
#    0.000    0.000    0.000    0.000    0.000    0.000 
#
# Total GULP energy -245979.073076 kJ/mol
# GULP energy per Si atom -5590.433479 kJ/mol
# Density = 1.876042 g / cm^3
# Si number density = 18.803219 Si / 1000 Ang^3
#
#
#
# Elastic Constant Matrix: (Units=GPa)
#
#
# Indices 1 2 3 4 5 6 
#
# 1 156.4860 109.4693 40.5439 0.0000 0.0000 0.0000
# 2 109.4693 187.8917 57.9076 0.0000 0.0000 0.0000
# 3 40.5439 57.9076 29.9575 0.0000 0.0000 0.0000
# 4 0.0000 0.0000 0.0000 33.5509 0.0000 0.0000
# 5 0.0000 0.0000 0.0000 0.0000-1199.7934 0.0000
# 6 0.0000 0.0000 0.0000 0.0000 0.0000 56.3077
#
#
#
# Elastic Compliance Matrix: (Units=1/GPa)
#
#
# Indices 1 2 3 4 5 6 
#
# 1 0.011251 -0.004606 -0.006323 0.000000 0.000000 0.000000
# 2 -0.004606 0.015051 -0.022860 0.000000 0.000000 0.000000
# 3 -0.006323 -0.022860 0.086126 0.000000 0.000000 0.000000
# 4 0.000000 0.000000 0.000000 0.029805 0.000000 0.000000
# 5 0.000000 0.000000 0.000000 0.000000 -0.000833 0.000000
# 6 0.000000 0.000000 0.000000 0.000000 0.000000 0.017760
#
#
# Mechanical properties :
#
#
# Convention : Reuss Voigt Hill
#
# Bulk Modulus (GPa) = 22.29660 87.79741 55.04700
# Shear Modulus (GPa) = 20.68792 -210.89267 -95.10238
#
# Velocity S-wave (km/s) = 3.32057 -10.60194 -7.11952
# Velocity P-wave (km/s) = 5.15609 10.15255 6.18421
#
# Compressibility (1/GPa) = 0.04484989
#
# Stress axis : x y z
#
# Youngs Moduli (GPa) = 88.88239 66.43945 11.61096
#
# Poissons Ratio (x) = 0.30604 0.07341
# Poissons Ratio (y) = 0.40942 0.26543
# Poissons Ratio (z) = 0.56197 1.51880
#
# Static dielectric constant tensor:
#      x y z
#    x 1.611290 0.000000 0.000000 
#    y 0.000000 1.631020 0.000000 
#    z 0.000000 0.000000 1.631870 
# 
# From -- ./inp_files/13596.got.cif
#   From: 2010.05.17/outbox.cif.g08.bks.cpg/sg47_7_cif.got.tgz:13596.got - 2010.06.03 20:15:42.
