data_PCOD9386227
_publ_section_title
;
Structure prediction by ZEFSAII (Michael W. Deem and Ramdas Pophale) SiO2 
 PCOD9386227
Probable space group: P M M M
;
_chemical_formula_sum "Si O2"
_cell_formula_units_Z 52
_cell_length_a 13.038887
_cell_length_b 7.404218
_cell_length_c 23.070273
_cell_angle_alpha 90.000000
_cell_angle_beta 90.000000
_cell_angle_gamma 90.000000
_cell_volume 2227.267871
_symmetry_space_group_name_H-M "P M M M"
_symmetry_group_IT_number 47
_symmetry_cell_setting 'orthorhombic'
loop_
_space_group_symop_operation_xyz
x,y,z
-x,-y,z
x,-y,-z
-x,y,-z
-x,-y,-z
x,y,-z
-x,y,z
x,-y,z
loop_
_atom_site_type_symbol
_atom_site_label
_atom_site_fract_x
_atom_site_fract_y
_atom_site_fract_z
Si Si1 0.165760 0.290628 0.562331
Si Si2 0.888367 0.280645 0.689218
Si Si3 0.305249 0.788920 0.142748
Si Si4 0.330616 0.204619 0.732807
Si Si5 0.387430 0.219202 0.605838
Si Si6 0.500000 0.716661 0.065673
Si Si7 0.117239 0.220198 0.933281
O O1 0.138131 0.210260 0.500000
O O2 0.134227 0.500000 0.561004
O O3 0.121521 0.217258 0.622370
O O4 0.288919 0.283153 0.570593
O O5 0.879411 0.500000 0.689502
O O6 0.791869 0.204924 0.722954
O O7 0.000000 0.232145 0.712346
O O8 0.342956 0.709643 0.204165
O O9 0.398290 0.778099 0.098297
O O10 0.202944 0.715264 0.111956
O O11 0.283661 0.000000 0.155206
O O12 0.374220 0.282592 0.672768
O O13 0.371834 0.000000 0.734814
O O14 0.500000 0.271291 0.584285
O O15 0.381819 0.000000 0.605958
O O16 0.500000 0.500000 0.065695
O O17 0.500000 0.781645 0.000000
O O18 0.000000 0.273840 0.919842
O O19 0.119782 0.000000 0.932979
O O20 0.140283 0.274445 0.000000
#
# Coordination Sequence:
#
# PCOD9386227 Si02
#       7
#     8   8   8   8   8   4   8
#     4   9  18  32  49  71  98 126 165 216 259 299
#     4   9  18  33  52  73 101 138 174 208 253 310
#     4  10  20  34  57  83 105 136 181 226 264 311
#     4   9  19  33  51  76 102 129 165 215 262 303
#     4   9  18  32  49  67  94 130 162 199 254 316
#     4  11  25  41  55  77 113 151 182 219 268 319
#     4   8  14  26  46  74 105 131 160 206 260 307
#
# _framework density 23.346989000000001
#
# number of rings (size 3 to 8) (size 9 to 14) (size 15 to 20)
#    0.000    2.846    0.000    1.154    1.077    4.000 
#    0.000    4.615    0.000    0.462    0.000    6.462 
#    0.000    0.000    0.000    0.000    0.000    0.000 
#
# Total GULP energy -290335.191931 kJ/mol
# GULP energy per Si atom -5583.369076 kJ/mol
# Density = 2.329385 g / cm^3
# Si number density = 23.346989 Si / 1000 Ang^3
#
#
#
# Elastic Constant Matrix: (Units=GPa)
#
#
# Indices 1 2 3 4 5 6 
#
# 1 90.0265 -6.9452 0.3823 0.0000 0.0000 0.0000
# 2 -6.9452 83.8343 0.2909 0.0000 0.0000 0.0000
# 3 0.3823 0.2909 105.6806 0.0000 0.0000 0.0000
# 4 0.0000 0.0000 0.0000 -1.2709 0.0000 0.0000
# 5 0.0000 0.0000 0.0000 0.0000 -24.5248 0.0000
# 6 0.0000 0.0000 0.0000 0.0000 0.0000 -16.6666
#
#
#
# Elastic Compliance Matrix: (Units=1/GPa)
#
#
# Indices 1 2 3 4 5 6 
#
# 1 0.011179 0.000926 -0.000043 0.000000 0.000000 0.000000
# 2 0.000926 0.012005 -0.000036 0.000000 0.000000 0.000000
# 3 -0.000043 -0.000036 0.009463 0.000000 0.000000 0.000000
# 4 0.000000 0.000000 0.000000 -0.786821 0.000000 0.000000
# 5 0.000000 0.000000 0.000000 0.000000 -0.040775 0.000000
# 6 0.000000 0.000000 0.000000 0.000000 0.000000 -0.060000
#
#
# Mechanical properties :
#
#
# Convention : Reuss Voigt Hill
#
# Bulk Modulus (GPa) = 29.11955 29.66639 29.39297
# Shear Modulus (GPa) = -5.91579 10.56176 2.32298
#
# Velocity S-wave (km/s) = -1.59354 2.12923 0.99857
# Velocity P-wave (km/s) = 3.01890 4.33349 3.73450
#
# Compressibility (1/GPa) = 0.03434119
#
# Stress axis : x y z
#
# Youngs Moduli (GPa) = 89.44961 83.29754 105.67779
#
# Poissons Ratio (x) = -0.07716 0.00454
# Poissons Ratio (y) = -0.08286 0.00385
# Poissons Ratio (z) = 0.00385 0.00303
#
# Static dielectric constant tensor:
#      x y z
#    x 1.839060 0.000000 0.000000 
#    y 0.000000 1.924830 0.000000 
#    z 0.000000 0.000000 1.879280 
# 
# From -- ./inp_files/30859.got.cif
#   From: 2010.05.17/outbox.cif.g08.bks.cpg/sg47_16_cif.got.tgz:30859.got - 2010.06.03 20:15:42.
