data_PCOD9386382
_publ_section_title
;
Structure prediction by ZEFSAII (Michael W. Deem and Ramdas Pophale) SiO2 
 PCOD9386382
Probable space group: P M M M
;
_chemical_formula_sum "Si O2"
_cell_formula_units_Z 44
_cell_length_a 13.978761
_cell_length_b 8.277378
_cell_length_c 19.736217
_cell_angle_alpha 90.000000
_cell_angle_beta 90.000000
_cell_angle_gamma 90.000000
_cell_volume 2283.628107
_symmetry_space_group_name_H-M "P M M M"
_symmetry_group_IT_number 47
_symmetry_cell_setting 'orthorhombic'
loop_
_space_group_symop_operation_xyz
x,y,z
-x,-y,z
x,-y,-z
-x,y,-z
-x,-y,-z
x,y,-z
-x,y,z
x,-y,z
loop_
_atom_site_type_symbol
_atom_site_label
_atom_site_fract_x
_atom_site_fract_y
_atom_site_fract_z
Si Si1 0.886594 0.175873 0.846874
Si Si2 0.116592 0.500000 0.920883
Si Si3 0.886827 0.806309 0.577099
Si Si4 0.385484 0.683144 0.574031
Si Si5 0.809636 0.683940 0.717095
Si Si6 0.609605 0.815065 0.716125
O O1 0.848880 0.335138 0.885068
O O2 0.869275 0.202718 0.767114
O O3 0.000000 0.171981 0.859536
O O4 0.846964 0.000000 0.867253
O O5 0.000000 0.500000 0.915639
O O6 0.140837 0.500000 0.000000
O O7 0.865128 0.751356 0.500000
O O8 0.828962 0.727878 0.638710
O O9 0.000000 0.775410 0.588173
O O10 0.872646 0.000000 0.579331
O O11 0.349608 0.732617 0.500000
O O12 0.500000 0.668471 0.568651
O O13 0.350499 0.500000 0.590217
O O14 0.374421 0.806041 0.634956
O O15 0.839015 0.500000 0.727788
O O16 0.699085 0.709441 0.739430
O O17 0.500000 0.759714 0.729310
O O18 0.618495 0.000000 0.739000
#
# Coordination Sequence:
#
# PCOD9386382 Si02
#       6
#     8   4   8   8   8   8
#     4  10  20  35  56  83 117 153 187 223 262 310
#     4   9  18  34  56  86 122 154 186 217 252 310
#     4   9  19  36  55  74  98 131 175 228 282 332
#     4   8  14  26  43  60  79 106 143 192 254 320
#     4  12  23  34  52  75 103 140 182 227 275 331
#     4  10  21  35  49  66  90 123 167 220 274 327
#
# _framework density 19.267583999999999
#
# number of rings (size 3 to 8) (size 9 to 14) (size 15 to 20)
#    0.000    2.273    0.909    3.818    0.000    5.455 
#    0.000    4.545    0.000    0.000    0.000    0.000 
#    0.000    1.455    0.000    3.818    0.000    0.182 
#
# Total GULP energy -245226.830525 kJ/mol
# GULP energy per Si atom -5573.337057 kJ/mol
# Density = 1.922373 g / cm^3
# Si number density = 19.267584 Si / 1000 Ang^3
#
#
#
# Elastic Constant Matrix: (Units=GPa)
#
#
# Indices 1 2 3 4 5 6 
#
# 1 56.1934 15.8099 -1.2248 0.0000 0.0000 0.0000
# 2 15.8099 98.5779 34.2562 0.0000 0.0000 0.0000
# 3 -1.2248 34.2562 59.2780 0.0000 0.0000 0.0000
# 4 0.0000 0.0000 0.0000 42.0689 0.0000 0.0000
# 5 0.0000 0.0000 0.0000 0.0000 -1.1947 0.0000
# 6 0.0000 0.0000 0.0000 0.0000 0.0000 19.9822
#
#
#
# Elastic Compliance Matrix: (Units=1/GPa)
#
#
# Indices 1 2 3 4 5 6 
#
# 1 0.018974 -0.003978 0.002691 0.000000 0.000000 0.000000
# 2 -0.003978 0.013527 -0.007900 0.000000 0.000000 0.000000
# 3 0.002691 -0.007900 0.021490 0.000000 0.000000 0.000000
# 4 0.000000 0.000000 0.000000 0.023771 0.000000 0.000000
# 5 0.000000 0.000000 0.000000 0.000000 -0.837058 0.000000
# 6 0.000000 0.000000 0.000000 0.000000 0.000000 0.050045
#
#
# Mechanical properties :
#
#
# Convention : Reuss Voigt Hill
#
# Bulk Modulus (GPa) = 28.07576 34.63685 31.35631
# Shear Modulus (GPa) = -7.36371 23.18516 7.91072
#
# Velocity S-wave (km/s) = -1.95707 3.47266 2.02845
# Velocity P-wave (km/s) = 3.08161 5.83909 4.66858
#
# Compressibility (1/GPa) = 0.03561791
#
# Stress axis : x y z
#
# Youngs Moduli (GPa) = 52.70494 73.92410 46.53251
#
# Poissons Ratio (x) = 0.29408 -0.12522
# Poissons Ratio (y) = 0.20966 0.36759
# Poissons Ratio (z) = -0.14183 0.58397
#
# Static dielectric constant tensor:
#      x y z
#    x 1.722530 0.000000 0.000000 
#    y 0.000000 1.707800 0.000000 
#    z 0.000000 0.000000 1.686990 
# 
# From -- ./inp_files/27887.got.cif
#   From: 2010.05.17/outbox.cif.g08.bks.cpg/sg47_14_cif.got.tgz:27887.got - 2010.06.03 20:15:42.
