data_PCOD9386523
_publ_section_title
;
Structure prediction by ZEFSAII (Michael W. Deem and Ramdas Pophale) SiO2 
 PCOD9386523
Probable space group: P M M M
;
_chemical_formula_sum "Si O2"
_cell_formula_units_Z 40
_cell_length_a 8.181829
_cell_length_b 9.363802
_cell_length_c 27.791101
_cell_angle_alpha 90.000000
_cell_angle_beta 90.000000
_cell_angle_gamma 90.000000
_cell_volume 2129.160364
_symmetry_space_group_name_H-M "P M M M"
_symmetry_group_IT_number 47
_symmetry_cell_setting 'orthorhombic'
loop_
_space_group_symop_operation_xyz
x,y,z
-x,-y,z
x,-y,-z
-x,y,-z
-x,-y,-z
x,y,-z
-x,y,z
x,-y,z
loop_
_atom_site_type_symbol
_atom_site_label
_atom_site_fract_x
_atom_site_fract_y
_atom_site_fract_z
Si Si1 0.304337 0.337387 0.000000
Si Si2 0.192733 0.666400 0.290614
Si Si3 0.305731 0.834190 0.198586
Si Si4 0.315821 0.828427 0.382524
Si Si5 0.804649 0.164324 0.906805
Si Si6 0.000000 0.826319 0.444850
O O1 0.246462 0.257005 0.952205
O O2 0.243813 0.500000 0.000000
O O3 0.500000 0.338336 0.000000
O O4 0.239478 0.500000 0.289918
O O5 0.224043 0.738274 0.239137
O O6 0.289122 0.751645 0.331632
O O7 0.000000 0.676470 0.301840
O O8 0.500000 0.830950 0.205838
O O9 0.266249 0.786203 0.144326
O O10 0.250292 0.000000 0.202805
O O11 0.500000 0.798288 0.400740
O O12 0.166147 0.783726 0.417157
O O13 0.303611 0.000000 0.375912
O O14 0.000000 0.164709 0.903040
O O15 0.749488 0.000000 0.914159
O O16 0.000000 0.776923 0.500000
O O17 0.000000 0.000000 0.445440
#
# Coordination Sequence:
#
# PCOD9386523 Si02
#       6
#     4   8   8   8   8   4
#     4  11  24  39  56  80 110 145 182 223 274 330
#     4  11  23  37  55  81 114 153 193 234 284 340
#     4  10  21  37  58  84 112 144 184 230 282 339
#     4  10  20  35  58  86 115 152 195 237 287 345
#     4  10  21  38  60  84 108 139 181 227 276 332
#     4   9  18  34  57  87 121 153 189 240 293 336
#
# _framework density 18.786746999999998
#
# number of rings (size 3 to 8) (size 9 to 14) (size 15 to 20)
#    0.000    1.800    1.000    3.000    0.000    9.600 
#    0.000    2.000    0.000    1.200    0.000    1.400 
#    0.000    0.000    0.000    0.000    0.000    0.000 
#
# Total GULP energy -223413.617125 kJ/mol
# GULP energy per Si atom -5585.340428 kJ/mol
# Density = 1.874399 g / cm^3
# Si number density = 18.786747 Si / 1000 Ang^3
#
#
#
# Elastic Constant Matrix: (Units=GPa)
#
#
# Indices 1 2 3 4 5 6 
#
# 1 91.2617 35.1377 47.1016 0.0000 0.0000 0.0000
# 2 35.1377 51.8964 52.4017 0.0000 0.0000 0.0000
# 3 47.1016 52.4017 129.9787 0.0000 0.0000 0.0000
# 4 0.0000 0.0000 0.0000 -10.0440 0.0000 0.0000
# 5 0.0000 0.0000 0.0000 0.0000 16.3845 0.0000
# 6 0.0000 0.0000 0.0000 0.0000 0.0000 19.7345
#
#
#
# Elastic Compliance Matrix: (Units=1/GPa)
#
#
# Indices 1 2 3 4 5 6 
#
# 1 0.015216 -0.007986 -0.002295 0.000000 0.000000 0.000000
# 2 -0.007986 0.036690 -0.011898 0.000000 0.000000 0.000000
# 3 -0.002295 -0.011898 0.013322 0.000000 0.000000 0.000000
# 4 0.000000 0.000000 0.000000 -0.099562 0.000000 0.000000
# 5 0.000000 0.000000 0.000000 0.000000 0.061033 0.000000
# 6 0.000000 0.000000 0.000000 0.000000 0.000000 0.050673
#
#
# Mechanical properties :
#
#
# Convention : Reuss Voigt Hill
#
# Bulk Modulus (GPa) = 47.91188 60.26875 54.09031
# Shear Modulus (GPa) = 38.85434 14.44805 26.65120
#
# Velocity S-wave (km/s) = 4.55266 2.77619 3.77054
# Velocity P-wave (km/s) = 7.29342 6.51356 6.91449
#
# Compressibility (1/GPa) = 0.02087165
#
# Stress axis : x y z
#
# Youngs Moduli (GPa) = 65.71828 27.25553 75.06488
#
# Poissons Ratio (x) = 0.21765 0.17225
# Poissons Ratio (y) = 0.52481 0.89311
# Poissons Ratio (z) = 0.15080 0.32428
#
# Static dielectric constant tensor:
#      x y z
#    x 1.664070 0.000000 0.000000 
#    y 0.000000 1.632180 0.000000 
#    z 0.000000 0.000000 1.617330 
# 
# From -- ./inp_files/33038.got.cif
#   From: 2010.05.17/outbox.cif.g08.bks.cpg/sg47_17_cif.got.tgz:33038.got - 2010.06.03 20:15:42.
