data_PCOD9386503
_publ_section_title
;
Structure prediction by ZEFSAII (Michael W. Deem and Ramdas Pophale) SiO2 
 PCOD9386503
Probable space group: P M M M
;
_chemical_formula_sum "Si O2"
_cell_formula_units_Z 48
_cell_length_a 7.676161
_cell_length_b 16.035556
_cell_length_c 18.281014
_cell_angle_alpha 90.000000
_cell_angle_beta 90.000000
_cell_angle_gamma 90.000000
_cell_volume 2250.237610
_symmetry_space_group_name_H-M "P M M M"
_symmetry_group_IT_number 47
_symmetry_cell_setting 'orthorhombic'
loop_
_space_group_symop_operation_xyz
x,y,z
-x,-y,z
x,-y,-z
-x,y,-z
-x,-y,-z
x,y,-z
-x,y,z
x,-y,z
loop_
_atom_site_type_symbol
_atom_site_label
_atom_site_fract_x
_atom_site_fract_y
_atom_site_fract_z
Si Si1 0.791507 0.769809 0.081096
Si Si2 0.292499 0.355229 0.306139
Si Si3 0.289572 0.591952 0.853954
Si Si4 0.713454 0.096430 0.500000
Si Si5 0.290836 0.826915 0.652605
Si Si6 0.790242 0.907318 0.804236
Si Si7 0.208052 0.500000 0.417338
O O1 0.758671 0.673326 0.100225
O O2 0.723536 0.832914 0.143420
O O3 0.000000 0.780424 0.079627
O O4 0.723375 0.789031 0.000000
O O5 0.500000 0.346480 0.296239
O O6 0.225987 0.391063 0.229127
O O7 0.221088 0.264275 0.325616
O O8 0.263271 0.419487 0.371371
O O9 0.500000 0.589002 0.853082
O O10 0.228842 0.500000 0.878499
O O11 0.500000 0.098050 0.500000
O O12 0.773491 0.140593 0.574487
O O13 0.765592 0.000000 0.500000
O O14 0.500000 0.820406 0.645952
O O15 0.253527 0.887393 0.720296
O O16 0.000000 0.907695 0.809877
O O17 0.727532 0.000000 0.824559
O O18 0.277194 0.500000 0.500000
O O19 0.000000 0.500000 0.420598
#
# Coordination Sequence:
#
# PCOD9386503 Si02
#       7
#     8   8   8   4   8   8   4
#     4  10  22  39  58  83 115 150 189 233 282 339
#     4  10  20  36  58  82 108 145 193 237 279 334
#     4  10  20  37  59  84 112 143 183 230 284 340
#     4   9  18  32  51  80 113 140 174 223 275 327
#     4  10  20  35  58  84 110 145 188 233 281 333
#     4  10  21  37  58  84 114 150 191 234 283 338
#     4  11  25  39  53  81 118 153 192 235 285 338
#
# _framework density 21.331081999999999
#
# number of rings (size 3 to 8) (size 9 to 14) (size 15 to 20)
#    0.000    2.000    2.500    0.750    1.167    4.333 
#    0.000    3.750    0.000    1.500    0.000    2.333 
#    0.000    0.000    0.000    0.000    0.000    0.000 
#
# Total GULP energy -268113.621246 kJ/mol
# GULP energy per Si atom -5585.700443 kJ/mol
# Density = 2.128253 g / cm^3
# Si number density = 21.331082 Si / 1000 Ang^3
#
#
#
# Elastic Constant Matrix: (Units=GPa)
#
#
# Indices 1 2 3 4 5 6 
#
# 1 33.5373 0.8045 -0.7140 0.0000 0.0000 0.0000
# 2 0.8045 145.1917 49.1258 0.0000 0.0000 0.0000
# 3 -0.7140 49.1258 130.3398 0.0000 0.0000 0.0000
# 4 0.0000 0.0000 0.0000 14.1028 0.0000 0.0000
# 5 0.0000 0.0000 0.0000 0.0000 17.8040 0.0000
# 6 0.0000 0.0000 0.0000 0.0000 0.0000 14.9470
#
#
#
# Elastic Compliance Matrix: (Units=1/GPa)
#
#
# Indices 1 2 3 4 5 6 
#
# 1 0.029829 -0.000253 0.000259 0.000000 0.000000 0.000000
# 2 -0.000253 0.007896 -0.002978 0.000000 0.000000 0.000000
# 3 0.000259 -0.002978 0.008796 0.000000 0.000000 0.000000
# 4 0.000000 0.000000 0.000000 0.070908 0.000000 0.000000
# 5 0.000000 0.000000 0.000000 0.000000 0.056167 0.000000
# 6 0.000000 0.000000 0.000000 0.000000 0.000000 0.066903
#
#
# Mechanical properties :
#
#
# Convention : Reuss Voigt Hill
#
# Bulk Modulus (GPa) = 24.64388 45.27792 34.96090
# Shear Modulus (GPa) = 19.23308 26.69426 22.96367
#
# Velocity S-wave (km/s) = 3.00600 3.54139 3.28462
# Velocity P-wave (km/s) = 4.86068 6.16395 5.55069
#
# Compressibility (1/GPa) = 0.04057803
#
# Stress axis : x y z
#
# Youngs Moduli (GPa) = 33.52428 126.64148 113.68896
#
# Poissons Ratio (x) = 0.03202 -0.02941
# Poissons Ratio (y) = 0.00848 0.33851
# Poissons Ratio (z) = -0.00867 0.37708
#
# Static dielectric constant tensor:
#      x y z
#    x 1.799550 0.000000 0.000000 
#    y 0.000000 1.754660 0.000000 
#    z 0.000000 0.000000 1.747730 
# 
# From -- ./inp_files/6456.got.cif
#   From: 2010.05.17/outbox.cif.g08.bks.cpg/sg47_4_cif.got.tgz:6456.got - 2010.06.03 20:15:42.
