data_PCOD9386806
_publ_section_title
;
Structure prediction by ZEFSAII (Michael W. Deem and Ramdas Pophale) SiO2 
 PCOD9386806
Probable space group: P M M M
;
_chemical_formula_sum "Si O2"
_cell_formula_units_Z 52
_cell_length_a 15.573407
_cell_length_b 23.786800
_cell_length_c 8.800419
_cell_angle_alpha 90.000000
_cell_angle_beta 90.000000
_cell_angle_gamma 90.000000
_cell_volume 3260.040570
_symmetry_space_group_name_H-M "P M M M"
_symmetry_group_IT_number 47
_symmetry_cell_setting 'orthorhombic'
loop_
_space_group_symop_operation_xyz
x,y,z
-x,-y,z
x,-y,-z
-x,y,-z
-x,-y,-z
x,y,-z
-x,y,z
x,-y,z
loop_
_atom_site_type_symbol
_atom_site_label
_atom_site_fract_x
_atom_site_fract_y
_atom_site_fract_z
Si Si1 0.821803 0.902073 0.676399
Si Si2 0.767329 0.772410 0.323081
Si Si3 0.351900 0.938888 0.182349
Si Si4 0.000000 0.932844 0.827637
Si Si5 0.899830 0.684378 0.815740
Si Si6 0.595591 0.185333 0.183540
Si Si7 0.896086 0.560379 0.820932
O O1 0.815237 0.918647 0.500000
O O2 0.804455 0.835596 0.688217
O O3 0.747599 0.932894 0.771073
O O4 0.914858 0.914464 0.741304
O O5 0.759935 0.757693 0.500000
O O6 0.833386 0.730288 0.243380
O O7 0.672941 0.777930 0.249720
O O8 0.393691 0.880147 0.235323
O O9 0.384368 0.000000 0.237406
O O10 0.360194 0.939122 0.000000
O O11 0.000000 0.000000 0.834049
O O12 0.000000 0.910471 0.000000
O O13 0.871938 0.621801 0.760361
O O14 0.000000 0.694585 0.770536
O O15 0.899118 0.683881 0.000000
O O16 0.500000 0.204509 0.225369
O O17 0.602566 0.185393 0.000000
O O18 0.866881 0.500000 0.754955
O O19 0.000000 0.560354 0.814770
O O20 0.873143 0.559897 0.000000
#
# Coordination Sequence:
#
# PCOD9386806 Si02
#       7
#     8   8   8   4   8   8   8
#     4  10  21  34  46  61  83 114 149 183 221 265
#     4  10  21  34  47  65  92 123 153 188 228 269
#     4   9  17  30  48  69  91 111 134 170 220 276
#     4  11  23  35  47  63  81 105 142 187 232 273
#     4   9  17  28  45  70  96 126 163 196 226 261
#     4   9  18  33  52  71  90 114 145 183 228 277
#     4   7  10  19  37  62  92 123 155 191 226 258
#
# _framework density 15.950723
#
# number of rings (size 3 to 8) (size 9 to 14) (size 15 to 20)
#    0.000    2.846    0.000    3.000    1.077    5.538 
#    0.000    1.538    0.000    0.462    0.000    6.462 
#    0.000    0.615    0.000    7.077    0.000    2.308 
#
# Total GULP energy -289540.553576 kJ/mol
# GULP energy per Si atom -5568.087569 kJ/mol
# Density = 1.591442 g / cm^3
# Si number density = 15.950723 Si / 1000 Ang^3
#
#
#
# Elastic Constant Matrix: (Units=GPa)
#
#
# Indices 1 2 3 4 5 6 
#
# 1 97.0471 37.7523 19.0869 0.0000 0.0000 0.0000
# 2 37.7523 82.4203 23.5755 0.0000 0.0000 0.0000
# 3 19.0869 23.5755 14.9500 0.0000 0.0000 0.0000
# 4 0.0000 0.0000 0.0000 7.8201 0.0000 0.0000
# 5 0.0000 0.0000 0.0000 0.0000 -7.4253 0.0000
# 6 0.0000 0.0000 0.0000 0.0000 0.0000 8.1636
#
#
#
# Elastic Compliance Matrix: (Units=1/GPa)
#
#
# Indices 1 2 3 4 5 6 
#
# 1 0.014009 -0.002370 -0.014148 0.000000 0.000000 0.000000
# 2 -0.002370 0.022504 -0.032462 0.000000 0.000000 0.000000
# 3 -0.014148 -0.032462 0.136144 0.000000 0.000000 0.000000
# 4 0.000000 0.000000 0.000000 0.127876 0.000000 0.000000
# 5 0.000000 0.000000 0.000000 0.000000 -0.134674 0.000000
# 6 0.000000 0.000000 0.000000 0.000000 0.000000 0.122494
#
#
# Mechanical properties :
#
#
# Convention : Reuss Voigt Hill
#
# Bulk Modulus (GPa) = 13.38750 39.47186 26.42968
# Shear Modulus (GPa) = 12.15918 9.31185 10.73552
#
# Velocity S-wave (km/s) = 2.76397 2.41879 2.59712
# Velocity P-wave (km/s) = 4.31246 5.70969 5.05954
#
# Compressibility (1/GPa) = 0.07469655
#
# Stress axis : x y z
#
# Youngs Moduli (GPa) = 71.38402 44.43697 7.34517
#
# Poissons Ratio (x) = 0.10530 0.10392
# Poissons Ratio (y) = 0.16916 0.23844
# Poissons Ratio (z) = 1.00996 1.44251
#
# Static dielectric constant tensor:
#      x y z
#    x 1.905330 0.000000 0.000000 
#    y 0.000000 1.567110 0.000000 
#    z 0.000000 0.000000 1.542430 
# 
# From -- ./inp_files/7670.got.cif
#   From: 2010.05.17/outbox.cif.g08.bks.cpg/sg47_4_cif.got.tgz:7670.got - 2010.06.03 20:15:42.
