data_PCOD9386108
_publ_section_title
;
Structure prediction by ZEFSAII (Michael W. Deem and Ramdas Pophale) SiO2 
 PCOD9386108
Probable space group: P M M M
;
_chemical_formula_sum "Si O2"
_cell_formula_units_Z 44
_cell_length_a 7.600191
_cell_length_b 33.201935
_cell_length_c 9.413797
_cell_angle_alpha 90.000000
_cell_angle_beta 90.000000
_cell_angle_gamma 90.000000
_cell_volume 2375.487397
_symmetry_space_group_name_H-M "P M M M"
_symmetry_group_IT_number 47
_symmetry_cell_setting 'orthorhombic'
loop_
_space_group_symop_operation_xyz
x,y,z
-x,-y,z
x,-y,-z
-x,y,-z
-x,-y,-z
x,y,-z
-x,y,z
x,-y,z
loop_
_atom_site_type_symbol
_atom_site_label
_atom_site_fract_x
_atom_site_fract_y
_atom_site_fract_z
Si Si1 0.788339 0.000000 0.163627
Si Si2 0.285189 0.622640 0.162782
Si Si3 0.000000 0.857885 0.672729
Si Si4 0.298793 0.080403 0.333623
Si Si5 0.714656 0.544972 0.664492
Si Si6 0.706955 0.297014 0.330099
Si Si7 0.000000 0.233694 0.672562
O O1 0.726229 0.960060 0.244266
O O2 0.000000 0.000000 0.166343
O O3 0.729932 0.000000 0.000000
O O4 0.500000 0.621718 0.163722
O O5 0.224746 0.581787 0.239167
O O6 0.236008 0.662449 0.249959
O O7 0.227755 0.624684 0.000000
O O8 0.831448 0.884354 0.714407
O O9 0.000000 0.855906 0.500000
O O10 0.000000 0.812116 0.725443
O O11 0.259762 0.071352 0.500000
O O12 0.500000 0.093788 0.324403
O O13 0.765923 0.550864 0.500000
O O14 0.500000 0.545194 0.667079
O O15 0.770100 0.500000 0.709324
O O16 0.725542 0.303105 0.500000
O O17 0.500000 0.289772 0.301366
O O18 0.828662 0.259605 0.287137
O O19 0.000000 0.231883 0.500000
#
# Coordination Sequence:
#
# PCOD9386108 Si02
#       7
#     4   8   4   8   8   8   4
#     4  11  22  35  54  79 109 146 185 224 263 301
#     4   9  16  25  39  61  90 123 159 200 244 291
#     4   9  18  33  52  77 108 133 163 216 262 301
#     4  10  20  34  55  81 108 143 181 215 261 314
#     4   8  13  21  34  55  86 123 160 197 238 287
#     4   9  17  30  49  71  95 124 159 201 246 293
#     4   9  18  32  52  78 102 127 164 206 252 302
#
# _framework density 18.522514999999999
#
# number of rings (size 3 to 8) (size 9 to 14) (size 15 to 20)
#    0.000    2.818    0.909    1.636    0.000    5.091 
#    0.000    5.909    0.000    2.182    0.000    3.182 
#    0.000    5.091    0.000    0.545    0.000    0.000 
#
# Total GULP energy -245447.958156 kJ/mol
# GULP energy per Si atom -5578.362685 kJ/mol
# Density = 1.848036 g / cm^3
# Si number density = 18.522515 Si / 1000 Ang^3
#
#
#
# Elastic Constant Matrix: (Units=GPa)
#
#
# Indices 1 2 3 4 5 6 
#
# 1 77.4035 67.6636 36.8595 0.0000 0.0000 0.0000
# 2 67.6636 209.0381 75.4812 0.0000 0.0000 0.0000
# 3 36.8595 75.4812 62.3319 0.0000 0.0000 0.0000
# 4 0.0000 0.0000 0.0000 -3.8275 0.0000 0.0000
# 5 0.0000 0.0000 0.0000 0.0000 6.4025 0.0000
# 6 0.0000 0.0000 0.0000 0.0000 0.0000 -14.3807
#
#
#
# Elastic Compliance Matrix: (Units=1/GPa)
#
#
# Indices 1 2 3 4 5 6 
#
# 1 0.019570 -0.003831 -0.006933 0.000000 0.000000 0.000000
# 2 -0.003831 0.009251 -0.008937 0.000000 0.000000 0.000000
# 3 -0.006933 -0.008937 0.030965 0.000000 0.000000 0.000000
# 4 0.000000 0.000000 0.000000 -0.261265 0.000000 0.000000
# 5 0.000000 0.000000 0.000000 0.000000 0.156188 0.000000
# 6 0.000000 0.000000 0.000000 0.000000 0.000000 -0.069538
#
#
# Mechanical properties :
#
#
# Convention : Reuss Voigt Hill
#
# Bulk Modulus (GPa) = 49.05907 78.75358 63.90633
# Shear Modulus (GPa) = -72.85321 8.89015 -31.98153
#
# Velocity S-wave (km/s) = -6.27835 2.19319 -4.15978
# Velocity P-wave (km/s) = 5.10031 7.00168 3.39193
#
# Compressibility (1/GPa) = 0.02038359
#
# Stress axis : x y z
#
# Youngs Moduli (GPa) = 51.09887 108.09696 32.29410
#
# Poissons Ratio (x) = 0.41413 0.22390
# Poissons Ratio (y) = 0.19576 0.28861
# Poissons Ratio (z) = 0.35428 0.96607
#
# Static dielectric constant tensor:
#      x y z
#    x 1.679220 0.000000 0.000000 
#    y 0.000000 1.606090 0.000000 
#    z 0.000000 0.000000 1.612930 
# 
# From -- ./inp_files/2365.got.cif
#   From: 2010.05.17/outbox.cif.g08.bks.cpg/sg47_2_cif.got.tgz:2365.got - 2010.06.03 20:15:42.
