data_PCOD9386322
_publ_section_title
;
Structure prediction by ZEFSAII (Michael W. Deem and Ramdas Pophale) SiO2 
 PCOD9386322
Probable space group: P M M M
;
_chemical_formula_sum "Si O2"
_cell_formula_units_Z 56
_cell_length_a 8.985997
_cell_length_b 23.567549
_cell_length_c 15.849841
_cell_angle_alpha 90.000000
_cell_angle_beta 90.000000
_cell_angle_gamma 90.000000
_cell_volume 3356.646432
_symmetry_space_group_name_H-M "P M M M"
_symmetry_group_IT_number 47
_symmetry_cell_setting 'orthorhombic'
loop_
_space_group_symop_operation_xyz
x,y,z
-x,-y,z
x,-y,-z
-x,y,-z
-x,-y,-z
x,y,-z
-x,y,z
x,-y,z
loop_
_atom_site_type_symbol
_atom_site_label
_atom_site_fract_x
_atom_site_fract_y
_atom_site_fract_z
Si Si1 0.179295 0.223665 0.594632
Si Si2 0.828555 0.331315 0.183441
Si Si3 0.321379 0.211739 0.223981
Si Si4 0.830415 0.355150 0.621837
Si Si5 0.328028 0.562836 0.101245
Si Si6 0.821564 0.119151 0.100294
Si Si7 0.675771 0.437019 0.500000
Si Si8 0.329329 0.000000 0.898076
O O1 0.219708 0.201938 0.500000
O O2 0.258503 0.202344 0.680288
O O3 0.210169 0.291247 0.594966
O O4 0.000000 0.216999 0.604577
O O5 0.736582 0.272865 0.189871
O O6 0.826094 0.355585 0.278045
O O7 0.762040 0.381824 0.128194
O O8 0.000000 0.318290 0.160511
O O9 0.500000 0.210660 0.225583
O O10 0.255948 0.165184 0.159966
O O11 0.728116 0.401425 0.580103
O O12 0.000000 0.365046 0.594910
O O13 0.500000 0.568543 0.129670
O O14 0.273338 0.500000 0.130080
O O15 0.328611 0.561318 0.000000
O O16 0.757793 0.057262 0.124568
O O17 0.000000 0.120766 0.110284
O O18 0.789390 0.128598 0.000000
O O19 0.740509 0.500000 0.500000
O O20 0.500000 0.440417 0.500000
O O21 0.500000 0.000000 0.866919
O O22 0.335461 0.000000 0.000000
#
# Coordination Sequence:
#
# PCOD9386322 Si02
#       8
#     8   8   8   8   8   8   4   4
#     4   9  17  33  55  75  99 131 168 212 262 313
#     4  10  21  36  53  73  98 128 165 207 255 310
#     4  11  22  34  51  79 111 141 177 220 270 321
#     4   9  18  34  51  67  88 119 155 191 239 296
#     4   9  19  36  55  73  94 122 158 203 256 311
#     4  10  20  35  55  79 111 151 191 227 263 309
#     4  11  23  33  43  65  93 119 151 192 239 294
#     4   9  17  31  53  81 112 147 186 225 267 313
#
# _framework density 16.683318
#
# number of rings (size 3 to 8) (size 9 to 14) (size 15 to 20)
#    0.000    2.286    0.714    3.857    0.000    7.143 
#    0.000    3.571    0.000    0.000    0.000    0.500 
#    0.000    4.000    0.000    0.000    0.000    0.000 
#
# Total GULP energy -312048.641737 kJ/mol
# GULP energy per Si atom -5572.297174 kJ/mol
# Density = 1.664535 g / cm^3
# Si number density = 16.683318 Si / 1000 Ang^3
#
#
#
# Elastic Constant Matrix: (Units=GPa)
#
#
# Indices 1 2 3 4 5 6 
#
# 1 100.2774 67.6229 54.0925 0.0000 0.0000 0.0000
# 2 67.6229 112.7355 60.7217 0.0000 0.0000 0.0000
# 3 54.0925 60.7217 81.3054 0.0000 0.0000 0.0000
# 4 0.0000 0.0000 0.0000 18.1332 0.0000 0.0000
# 5 0.0000 0.0000 0.0000 0.0000 6.3207 0.0000
# 6 0.0000 0.0000 0.0000 0.0000 0.0000 29.0613
#
#
#
# Elastic Compliance Matrix: (Units=1/GPa)
#
#
# Indices 1 2 3 4 5 6 
#
# 1 0.018765 -0.007581 -0.006822 0.000000 0.000000 0.000000
# 2 -0.007581 0.017903 -0.008327 0.000000 0.000000 0.000000
# 3 -0.006822 -0.008327 0.023057 0.000000 0.000000 0.000000
# 4 0.000000 0.000000 0.000000 0.055147 0.000000 0.000000
# 5 0.000000 0.000000 0.000000 0.000000 0.158212 0.000000
# 6 0.000000 0.000000 0.000000 0.000000 0.000000 0.034410
#
#
# Mechanical properties :
#
#
# Convention : Reuss Voigt Hill
#
# Bulk Modulus (GPa) = 70.10616 73.24363 71.67490
# Shear Modulus (GPa) = 13.97786 18.16178 16.06982
#
# Velocity S-wave (km/s) = 2.89768 3.30300 3.10696
# Velocity P-wave (km/s) = 7.30125 7.65141 7.47838
#
# Compressibility (1/GPa) = 0.01426408
#
# Stress axis : x y z
#
# Youngs Moduli (GPa) = 53.29064 55.85756 43.37114
#
# Poissons Ratio (x) = 0.42347 0.29590
# Poissons Ratio (y) = 0.40401 0.36113
# Poissons Ratio (z) = 0.36357 0.46510
#
# Static dielectric constant tensor:
#      x y z
#    x 1.572220 0.000000 0.000000 
#    y 0.000000 1.544180 0.000000 
#    z 0.000000 0.000000 1.585450 
# 
# From -- ./inp_files/21680.got.cif
#   From: 2010.05.17/outbox.cif.g08.bks.cpg/sg47_11_cif.got.tgz:21680.got - 2010.06.03 20:15:42.
