data_PCOD9386532
_publ_section_title
;
Structure prediction by ZEFSAII (Michael W. Deem and Ramdas Pophale) SiO2 
 PCOD9386532
Probable space group: P M M M
;
_chemical_formula_sum "Si O2"
_cell_formula_units_Z 56
_cell_length_a 8.833717
_cell_length_b 23.128948
_cell_length_c 14.862403
_cell_angle_alpha 90.000000
_cell_angle_beta 90.000000
_cell_angle_gamma 90.000000
_cell_volume 3036.605644
_symmetry_space_group_name_H-M "P M M M"
_symmetry_group_IT_number 47
_symmetry_cell_setting 'orthorhombic'
loop_
_space_group_symop_operation_xyz
x,y,z
-x,-y,z
x,-y,-z
-x,y,-z
-x,-y,-z
x,y,-z
-x,y,z
x,-y,z
loop_
_atom_site_type_symbol
_atom_site_label
_atom_site_fract_x
_atom_site_fract_y
_atom_site_fract_z
Si Si1 0.680935 0.110846 0.300455
Si Si2 0.817939 0.225352 0.606369
Si Si3 0.176035 0.000000 0.607418
Si Si4 0.176262 0.254164 0.898187
Si Si5 0.678060 0.680902 0.263847
Si Si6 0.180637 0.566685 0.310819
Si Si7 0.329472 0.430509 0.500000
Si Si8 0.319297 0.871735 0.901832
O O1 0.500000 0.115525 0.309926
O O2 0.753176 0.170019 0.339115
O O3 0.714890 0.099839 0.194387
O O4 0.744080 0.057098 0.355615
O O5 0.776559 0.222875 0.500000
O O6 0.755581 0.282702 0.655465
O O7 0.000000 0.224692 0.612167
O O8 0.183100 0.000000 0.500000
O O9 0.000000 0.000000 0.634600
O O10 0.281429 0.285151 0.826694
O O11 0.225577 0.187470 0.900460
O O12 0.000000 0.259341 0.871549
O O13 0.192942 0.276757 0.000000
O O14 0.500000 0.678604 0.280020
O O15 0.744164 0.616592 0.252746
O O16 0.226566 0.500000 0.292327
O O17 0.237102 0.582855 0.410831
O O18 0.000000 0.569404 0.305909
O O19 0.343308 0.500000 0.500000
O O20 0.500000 0.406068 0.500000
O O21 0.500000 0.858909 0.900117
O O22 0.289776 0.900432 0.000000
#
# Coordination Sequence:
#
# PCOD9386532 Si02
#       8
#     8   8   4   8   8   8   4   8
#     4  11  22  38  62  90 118 152 194 243 294 344
#     4  11  24  40  58  82 117 157 194 239 294 349
#     4  11  25  43  62  83 112 158 207 247 290 343
#     4  10  20  35  58  87 117 150 190 236 287 347
#     4  12  24  37  57  85 117 152 192 240 292 348
#     4  10  21  37  56  77 107 149 194 240 290 346
#     4   9  17  31  51  75 103 139 185 232 277 332
#     4   9  18  34  57  86 119 152 186 229 288 351
#
# _framework density 18.441645000000001
#
# number of rings (size 3 to 8) (size 9 to 14) (size 15 to 20)
#    0.000    1.571    1.429    3.857    1.000    6.571 
#    0.000    0.357    0.000    2.571    0.000    3.000 
#    0.000    0.000    0.000    0.000    0.000    0.000 
#
# Total GULP energy -312519.277131 kJ/mol
# GULP energy per Si atom -5580.701377 kJ/mol
# Density = 1.839967 g / cm^3
# Si number density = 18.441645 Si / 1000 Ang^3
#
#
#
# Elastic Constant Matrix: (Units=GPa)
#
#
# Indices 1 2 3 4 5 6 
#
# 1 75.3393 29.9344 34.4236 0.0000 0.0000 0.0000
# 2 29.9344 77.4445 21.5061 0.0000 0.0000 0.0000
# 3 34.4236 21.5061 81.6891 0.0000 0.0000 0.0000
# 4 0.0000 0.0000 0.0000 33.5835 0.0000 0.0000
# 5 0.0000 0.0000 0.0000 0.0000 26.4137 0.0000
# 6 0.0000 0.0000 0.0000 0.0000 0.0000 25.1608
#
#
#
# Elastic Compliance Matrix: (Units=1/GPa)
#
#
# Indices 1 2 3 4 5 6 
#
# 1 0.018260 -0.005309 -0.006297 0.000000 0.000000 0.000000
# 2 -0.005309 0.015475 -0.001837 0.000000 0.000000 0.000000
# 3 -0.006297 -0.001837 0.015379 0.000000 0.000000 0.000000
# 4 0.000000 0.000000 0.000000 0.029776 0.000000 0.000000
# 5 0.000000 0.000000 0.000000 0.000000 0.037859 0.000000
# 6 0.000000 0.000000 0.000000 0.000000 0.000000 0.039744
#
#
# Mechanical properties :
#
#
# Convention : Reuss Voigt Hill
#
# Bulk Modulus (GPa) = 44.98948 45.13346 45.06147
# Shear Modulus (GPa) = 26.20705 26.93886 26.57296
#
# Velocity S-wave (km/s) = 3.77381 3.82614 3.80006
# Velocity P-wave (km/s) = 6.59071 6.63671 6.61375
#
# Compressibility (1/GPa) = 0.02222742
#
# Stress axis : x y z
#
# Youngs Moduli (GPa) = 54.76447 64.62161 65.02544
#
# Poissons Ratio (x) = 0.34310 0.40946
# Poissons Ratio (y) = 0.29076 0.11943
# Poissons Ratio (z) = 0.34485 0.11869
#
# Static dielectric constant tensor:
#      x y z
#    x 1.618360 0.000000 0.000000 
#    y 0.000000 1.634060 0.000000 
#    z 0.000000 0.000000 1.686300 
# 
# From -- ./inp_files/21593.got.cif
#   From: 2010.05.17/outbox.cif.g08.bks.cpg/sg47_11_cif.got.tgz:21593.got - 2010.06.03 20:15:42.
