data_PCOD9386683
_publ_section_title
;
Structure prediction by ZEFSAII (Michael W. Deem and Ramdas Pophale) SiO2 
 PCOD9386683
Probable space group: P M M M
;
_chemical_formula_sum "Si O2"
_cell_formula_units_Z 48
_cell_length_a 10.311043
_cell_length_b 30.032941
_cell_length_c 7.644515
_cell_angle_alpha 90.000000
_cell_angle_beta 90.000000
_cell_angle_gamma 90.000000
_cell_volume 2367.284192
_symmetry_space_group_name_H-M "P M M M"
_symmetry_group_IT_number 47
_symmetry_cell_setting 'orthorhombic'
loop_
_space_group_symop_operation_xyz
x,y,z
-x,-y,z
x,-y,-z
-x,y,-z
-x,-y,-z
x,y,-z
-x,y,z
x,-y,z
loop_
_atom_site_type_symbol
_atom_site_label
_atom_site_fract_x
_atom_site_fract_y
_atom_site_fract_z
Si Si1 0.500000 0.051331 0.210706
Si Si2 0.647784 0.199369 0.708200
Si Si3 0.000000 0.051565 0.715104
Si Si4 0.246712 0.106617 0.295150
Si Si5 0.853343 0.725268 0.207864
Si Si6 0.146188 0.622863 0.289769
Si Si7 0.351774 0.449399 0.713692
O O1 0.373773 0.076504 0.278334
O O2 0.500000 0.000000 0.265511
O O3 0.500000 0.053149 0.000000
O O4 0.635268 0.192488 0.500000
O O5 0.500000 0.204930 0.776097
O O6 0.716786 0.154874 0.781234
O O7 0.742369 0.241120 0.732127
O O8 0.874196 0.078857 0.776306
O O9 0.000000 0.050345 0.500000
O O10 0.000000 0.000000 0.771336
O O11 0.216435 0.113691 0.500000
O O12 0.820804 0.674100 0.251079
O O13 0.000000 0.734412 0.278008
O O14 0.860043 0.729313 0.000000
O O15 0.142560 0.618412 0.500000
O O16 0.250639 0.587441 0.223798
O O17 0.000000 0.614726 0.223242
O O18 0.351023 0.448752 0.500000
O O19 0.500000 0.440211 0.767675
O O20 0.318311 0.500000 0.765921
#
# Coordination Sequence:
#
# PCOD9386683 Si02
#       7
#     4   8   4   8   8   8   8
#     4  11  23  37  55  81 113 149 183 215 258 311
#     4  10  21  37  57  82 107 134 176 223 269 319
#     4   9  18  32  55  87 113 135 171 217 262 309
#     4  10  20  37  59  83 109 140 178 221 266 313
#     4  10  22  38  55  77 106 142 181 218 266 325
#     4   9  17  30  49  74 102 133 172 218 265 309
#     4   8  14  25  43  70 103 135 168 211 263 314
#
# _framework density 20.276401
#
# number of rings (size 3 to 8) (size 9 to 14) (size 15 to 20)
#    0.000    2.500    0.833    1.750    1.167    4.333 
#    0.000    3.750    0.000    2.000    0.000    3.500 
#    0.000    0.000    0.000    0.000    0.000    0.000 
#
# Total GULP energy -267864.329943 kJ/mol
# GULP energy per Si atom -5580.506874 kJ/mol
# Density = 2.023025 g / cm^3
# Si number density = 20.276401 Si / 1000 Ang^3
#
#
#
# Elastic Constant Matrix: (Units=GPa)
#
#
# Indices 1 2 3 4 5 6 
#
# 1 190.5659 143.8604 -1.5970 0.0000 0.0000 0.0000
# 2 143.8604 189.6232 -2.4034 0.0000 0.0000 0.0000
# 3 -1.5970 -2.4034 38.5955 0.0000 0.0000 0.0000
# 4 0.0000 0.0000 0.0000 -332.1802 0.0000 0.0000
# 5 0.0000 0.0000 0.0000 0.0000 7.1139 0.0000
# 6 0.0000 0.0000 0.0000 0.0000 0.0000 24.5712
#
#
#
# Elastic Compliance Matrix: (Units=1/GPa)
#
#
# Indices 1 2 3 4 5 6 
#
# 1 0.012282 -0.009319 -0.000072 0.000000 0.000000 0.000000
# 2 -0.009319 0.012348 0.000383 0.000000 0.000000 0.000000
# 3 -0.000072 0.000383 0.025931 0.000000 0.000000 0.000000
# 4 0.000000 0.000000 0.000000 -0.003010 0.000000 0.000000
# 5 0.000000 0.000000 0.000000 0.000000 0.140570 0.000000
# 6 0.000000 0.000000 0.000000 0.000000 0.000000 0.040698
#
#
# Mechanical properties :
#
#
# Convention : Reuss Voigt Hill
#
# Bulk Modulus (GPa) = 30.72590 77.61162 54.16876
# Shear Modulus (GPa) = 19.40386 -41.50406 -11.05010
#
# Velocity S-wave (km/s) = 3.09685 -4.52919 -2.33700
# Velocity P-wave (km/s) = 5.28902 3.31790 4.41487
#
# Compressibility (1/GPa) = 0.03254584
#
# Stress axis : x y z
#
# Youngs Moduli (GPa) = 81.42270 80.98404 38.56438
#
# Poissons Ratio (x) = 0.75465 0.00278
# Poissons Ratio (y) = 0.75874 -0.01478
# Poissons Ratio (z) = 0.00587 -0.03105
#
# Static dielectric constant tensor:
#      x y z
#    x 1.706260 0.000000 0.000000 
#    y 0.000000 1.690520 0.000000 
#    z 0.000000 0.000000 1.748070 
# 
# From -- ./inp_files/2787.got.cif
#   From: 2010.05.17/outbox.cif.g08.bks.cpg/sg47_2_cif.got.tgz:2787.got - 2010.06.03 20:15:42.
