data_PCOD9386337
_publ_section_title
;
Structure prediction by ZEFSAII (Michael W. Deem and Ramdas Pophale) SiO2 
 PCOD9386337
Probable space group: P M M M
;
_chemical_formula_sum "Si O2"
_cell_formula_units_Z 52
_cell_length_a 29.137406
_cell_length_b 10.953069
_cell_length_c 8.733536
_cell_angle_alpha 90.000000
_cell_angle_beta 90.000000
_cell_angle_gamma 90.000000
_cell_volume 2787.255774
_symmetry_space_group_name_H-M "P M M M"
_symmetry_group_IT_number 47
_symmetry_cell_setting 'orthorhombic'
loop_
_space_group_symop_operation_xyz
x,y,z
-x,-y,z
x,-y,-z
-x,y,-z
-x,-y,-z
x,y,-z
-x,y,z
x,-y,z
loop_
_atom_site_type_symbol
_atom_site_label
_atom_site_fract_x
_atom_site_fract_y
_atom_site_fract_z
Si Si1 0.718319 0.863210 0.186284
Si Si2 0.053358 0.500000 0.182836
Si Si3 0.119214 0.700850 0.679632
Si Si4 0.218124 0.639258 0.185000
Si Si5 0.611154 0.862362 0.184712
Si Si6 0.446190 0.362695 0.684506
Si Si7 0.050805 0.855174 0.174893
O O1 0.748149 0.747684 0.239326
O O2 0.664807 0.849405 0.228268
O O3 0.733678 0.000000 0.235570
O O4 0.720184 0.863216 0.000000
O O5 0.080112 0.387363 0.254594
O O6 0.000000 0.500000 0.220964
O O7 0.058151 0.500000 0.000000
O O8 0.125190 0.685044 0.500000
O O9 0.166972 0.671928 0.761056
O O10 0.095137 0.826945 0.723887
O O11 0.229513 0.500000 0.235179
O O12 0.219179 0.639074 0.000000
O O13 0.582239 0.750039 0.249404
O O14 0.596147 0.000000 0.232452
O O15 0.608791 0.858819 0.000000
O O16 0.443252 0.359399 0.500000
O O17 0.500000 0.350453 0.725701
O O18 0.431098 0.500000 0.733617
O O19 0.000000 0.811333 0.228749
O O20 0.047576 0.000000 0.165458
O O21 0.057092 0.808305 0.000000
#
# Coordination Sequence:
#
# PCOD9386337 Si02
#       7
#     8   4   8   8   8   8   8
#     4   8  16  33  56  81 107 137 178 229 280 327
#     4  11  23  39  59  79 101 135 179 219 254 305
#     4  12  24  36  53  79 111 140 167 209 267 320
#     4  10  20  35  56  78 103 139 184 225 262 317
#     4   9  18  33  54  82 114 143 178 231 288 339
#     4   9  19  35  52  73 107 151 196 238 280 332
#     4   9  19  37  59  80 103 135 175 213 249 301
#
# _framework density 18.656341999999999
#
# number of rings (size 3 to 8) (size 9 to 14) (size 15 to 20)
#    0.000    2.385    0.769    3.923    0.000    5.538 
#    0.000    6.923    0.000    0.923    0.000    0.000 
#    0.000    0.000    0.000    0.000    0.000    0.000 
#
# Total GULP energy -289790.615789 kJ/mol
# GULP energy per Si atom -5572.896457 kJ/mol
# Density = 1.861388 g / cm^3
# Si number density = 18.656342 Si / 1000 Ang^3
#
#
#
# Elastic Constant Matrix: (Units=GPa)
#
#
# Indices 1 2 3 4 5 6 
#
# 1 87.7306 90.6882 21.5038 0.0000 0.0000 0.0000
# 2 90.6882 169.5486 28.9416 0.0000 0.0000 0.0000
# 3 21.5038 28.9416 12.5280 0.0000 0.0000 0.0000
# 4 0.0000 0.0000 0.0000 6.6295 0.0000 0.0000
# 5 0.0000 0.0000 0.0000 0.0000 -120.5807 0.0000
# 6 0.0000 0.0000 0.0000 0.0000 0.0000 41.1849
#
#
#
# Elastic Compliance Matrix: (Units=1/GPa)
#
#
# Indices 1 2 3 4 5 6 
#
# 1 0.029035 -0.011596 -0.023049 0.000000 0.000000 0.000000
# 2 -0.011596 0.014369 -0.013291 0.000000 0.000000 0.000000
# 3 -0.023049 -0.013291 0.150088 0.000000 0.000000 0.000000
# 4 0.000000 0.000000 0.000000 0.150840 0.000000 0.000000
# 5 0.000000 0.000000 0.000000 0.000000 -0.008293 0.000000
# 6 0.000000 0.000000 0.000000 0.000000 0.000000 0.024281
#
#
# Mechanical properties :
#
#
# Convention : Reuss Voigt Hill
#
# Bulk Modulus (GPa) = 10.24379 61.34161 35.79270
# Shear Modulus (GPa) = 10.23056 -5.97501 2.12777
#
# Velocity S-wave (km/s) = 2.34427 -1.79154 1.06911
# Velocity P-wave (km/s) = 3.58192 5.35459 4.55532
#
# Compressibility (1/GPa) = 0.09762012
#
# Stress axis : x y z
#
# Youngs Moduli (GPa) = 34.44155 69.59379 6.66275
#
# Poissons Ratio (x) = 0.80699 0.15357
# Poissons Ratio (y) = 0.39937 0.08856
# Poissons Ratio (z) = 0.79384 0.92499
#
# Static dielectric constant tensor:
#      x y z
#    x 1.616520 0.000000 0.000000 
#    y 0.000000 3.424520 0.000000 
#    z 0.000000 0.000000 1.635530 
# 
# From -- ./inp_files/13232.got.cif
#   From: 2010.05.17/outbox.cif.g08.bks.cpg/sg47_7_cif.got.tgz:13232.got - 2010.06.03 20:15:42.
