data_PCOD9386383
_publ_section_title
;
Structure prediction by ZEFSAII (Michael W. Deem and Ramdas Pophale) SiO2 
 PCOD9386383
Probable space group: P M M M
;
_chemical_formula_sum "Si O2"
_cell_formula_units_Z 48
_cell_length_a 18.096821
_cell_length_b 8.603616
_cell_length_c 15.218933
_cell_angle_alpha 90.000000
_cell_angle_beta 90.000000
_cell_angle_gamma 90.000000
_cell_volume 2369.558932
_symmetry_space_group_name_H-M "P M M M"
_symmetry_group_IT_number 47
_symmetry_cell_setting 'orthorhombic'
loop_
_space_group_symop_operation_xyz
x,y,z
-x,-y,z
x,-y,-z
-x,y,-z
-x,-y,-z
x,y,-z
-x,y,z
x,-y,z
loop_
_atom_site_type_symbol
_atom_site_label
_atom_site_fract_x
_atom_site_fract_y
_atom_site_fract_z
Si Si1 0.583220 0.821363 0.849741
Si Si2 0.179903 0.179677 0.600977
Si Si3 0.000000 0.689866 0.897989
Si Si4 0.352948 0.828829 0.651873
Si Si5 0.579517 0.500000 0.602693
Si Si6 0.138895 0.685237 0.219679
Si Si7 0.737333 0.188225 0.095735
O O1 0.500000 0.754682 0.853488
O O2 0.615429 0.830459 0.750859
O O3 0.653150 0.750270 0.899712
O O4 0.576754 0.000000 0.881154
O O5 0.175702 0.239986 0.500000
O O6 0.265403 0.179074 0.633341
O O7 0.135700 0.263582 0.678779
O O8 0.156343 0.000000 0.598901
O O9 0.928522 0.739937 0.841995
O O10 0.000000 0.500000 0.899670
O O11 0.000000 0.741428 0.000000
O O12 0.381715 0.663361 0.619878
O O13 0.376425 0.000000 0.614483
O O14 0.500000 0.500000 0.649603
O O15 0.569789 0.500000 0.500000
O O16 0.140355 0.500000 0.217233
O O17 0.213070 0.747931 0.173793
O O18 0.735263 0.000000 0.103432
O O19 0.769342 0.228028 0.000000
#
# Coordination Sequence:
#
# PCOD9386383 Si02
#       7
#     8   8   4   8   4   8   8
#     4   9  17  31  53  79 109 149 195 243 300 362
#     4  10  21  38  61  88 121 160 199 245 302 365
#     4   9  20  40  64  91 126 164 199 241 300 369
#     4  10  20  37  57  78 111 157 202 251 313 373
#     4  11  24  36  50  78 111 146 201 266 317 372
#     4  11  22  38  63  92 120 156 199 249 303 362
#     4  10  20  35  56  83 117 153 194 247 300 359
#
# _framework density 20.256934999999999
#
# number of rings (size 3 to 8) (size 9 to 14) (size 15 to 20)
#    0.000    2.000    1.667    2.000    1.167    3.667 
#    0.000    4.583    0.000    5.500    0.000    1.167 
#    0.000    0.000    0.000    0.000    0.000    0.000 
#
# Total GULP energy -267258.516121 kJ/mol
# GULP energy per Si atom -5567.885753 kJ/mol
# Density = 2.021083 g / cm^3
# Si number density = 20.256935 Si / 1000 Ang^3
#
#
#
# Elastic Constant Matrix: (Units=GPa)
#
#
# Indices 1 2 3 4 5 6 
#
# 1 96.8454 18.2440 56.3428 0.0000 0.0000 0.0000
# 2 18.2440 77.5638 36.5207 0.0000 0.0000 0.0000
# 3 56.3428 36.5207 148.2377 0.0000 0.0000 0.0000
# 4 0.0000 0.0000 0.0000 23.4596 0.0000 0.0000
# 5 0.0000 0.0000 0.0000 0.0000 25.6947 0.0000
# 6 0.0000 0.0000 0.0000 0.0000 0.0000 20.6826
#
#
#
# Elastic Compliance Matrix: (Units=1/GPa)
#
#
# Indices 1 2 3 4 5 6 
#
# 1 0.013306 -0.000847 -0.004849 0.000000 0.000000 0.000000
# 2 -0.000847 0.014638 -0.003285 0.000000 0.000000 0.000000
# 3 -0.004849 -0.003285 0.009398 0.000000 0.000000 0.000000
# 4 0.000000 0.000000 0.000000 0.042626 0.000000 0.000000
# 5 0.000000 0.000000 0.000000 0.000000 0.038919 0.000000
# 6 0.000000 0.000000 0.000000 0.000000 0.000000 0.048350
#
#
# Mechanical properties :
#
#
# Convention : Reuss Voigt Hill
#
# Bulk Modulus (GPa) = 51.59338 60.54021 56.06679
# Shear Modulus (GPa) = 26.08808 28.07001 27.07904
#
# Velocity S-wave (km/s) = 3.59257 3.72654 3.66017
# Velocity P-wave (km/s) = 6.53709 6.96183 6.75280
#
# Compressibility (1/GPa) = 0.01938233
#
# Stress axis : x y z
#
# Youngs Moduli (GPa) = 75.15278 68.31393 106.40440
#
# Poissons Ratio (x) = 0.05784 0.51594
# Poissons Ratio (y) = 0.06363 0.34949
# Poissons Ratio (z) = 0.36441 0.22438
#
# Static dielectric constant tensor:
#      x y z
#    x 1.802990 0.000000 0.000000 
#    y 0.000000 1.620640 0.000000 
#    z 0.000000 0.000000 1.756820 
# 
# From -- ./inp_files/24453.got.cif
#   From: 2010.05.17/outbox.cif.g08.bks.cpg/sg47_13_cif.got.tgz:24453.got - 2010.06.03 20:15:42.
