data_PCOD9386128
_publ_section_title
;
Structure prediction by ZEFSAII (Michael W. Deem and Ramdas Pophale) SiO2 
 PCOD9386128
Probable space group: P M M M
;
_chemical_formula_sum "Si O2"
_cell_formula_units_Z 64
_cell_length_a 7.893721
_cell_length_b 15.111973
_cell_length_c 25.989392
_cell_angle_alpha 90.000000
_cell_angle_beta 90.000000
_cell_angle_gamma 90.000000
_cell_volume 3100.266739
_symmetry_space_group_name_H-M "P M M M"
_symmetry_group_IT_number 47
_symmetry_cell_setting 'orthorhombic'
loop_
_space_group_symop_operation_xyz
x,y,z
-x,-y,z
x,-y,-z
-x,y,-z
-x,-y,-z
x,y,-z
-x,y,z
x,-y,z
loop_
_atom_site_type_symbol
_atom_site_label
_atom_site_fract_x
_atom_site_fract_y
_atom_site_fract_z
Si Si1 0.206916 0.602420 0.941845
Si Si2 0.203884 0.209174 0.444575
Si Si3 0.704553 0.102701 0.058224
Si Si4 0.198314 0.749424 0.136081
Si Si5 0.201359 0.596167 0.420806
Si Si6 0.196925 0.777440 0.751106
Si Si7 0.703715 0.402245 0.698745
Si Si8 0.700025 0.900408 0.343247
O O1 0.254400 0.500000 0.933614
O O2 0.269978 0.667517 0.897178
O O3 0.000000 0.606045 0.941870
O O4 0.260787 0.628430 0.000000
O O5 0.259425 0.171189 0.500000
O O6 0.269513 0.310475 0.440921
O O7 0.245597 0.153772 0.393878
O O8 0.000000 0.214479 0.445221
O O9 0.500000 0.110036 0.061428
O O10 0.786406 0.166424 0.099326
O O11 0.748069 0.000000 0.066407
O O12 0.754970 0.127034 0.000000
O O13 0.274300 0.773435 0.191641
O O14 0.000000 0.728280 0.145133
O O15 0.270216 0.500000 0.438007
O O16 0.229109 0.600117 0.359506
O O17 0.000000 0.594944 0.431783
O O18 0.217926 0.678733 0.729098
O O19 0.266162 0.844910 0.708555
O O20 0.000000 0.800643 0.755772
O O21 0.500000 0.392346 0.697425
O O22 0.743545 0.500000 0.720102
O O23 0.500000 0.908313 0.347383
O O24 0.774046 0.000000 0.341621
#
# Coordination Sequence:
#
# PCOD9386128 Si02
#       8
#     8   8   8   8   8   8   8   8
#     4   8  14  27  49  77 110 147 184 223 269 320
#     4  10  21  37  60  91 123 153 186 228 280 338
#     4   9  19  36  56  78 107 144 182 221 273 337
#     4  10  21  34  53  83 113 142 183 234 282 331
#     4   9  17  31  54  84 118 154 187 219 262 320
#     4  11  23  38  57  83 114 149 189 235 290 347
#     4  10  20  34  55  82 112 148 189 230 271 322
#     4  11  25  44  64  83 106 144 193 241 293 351
#
# _framework density 20.643384999999999
#
# number of rings (size 3 to 8) (size 9 to 14) (size 15 to 20)
#    0.000    2.250    1.250    2.250    0.000    5.500 
#    0.000    6.875    0.000    0.375    0.000    4.375 
#    0.000    0.000    0.000    0.000    0.000    0.000 
#
# Total GULP energy -357074.839412 kJ/mol
# GULP energy per Si atom -5579.294366 kJ/mol
# Density = 2.059640 g / cm^3
# Si number density = 20.643385 Si / 1000 Ang^3
#
#
#
# Elastic Constant Matrix: (Units=GPa)
#
#
# Indices 1 2 3 4 5 6 
#
# 1 24.6302 5.3610 7.6463 0.0000 0.0000 0.0000
# 2 5.3610 127.6899 93.1031 0.0000 0.0000 0.0000
# 3 7.6463 93.1031 174.3567 0.0000 0.0000 0.0000
# 4 0.0000 0.0000 0.0000 -39.5679 0.0000 0.0000
# 5 0.0000 0.0000 0.0000 0.0000 9.2217 0.0000
# 6 0.0000 0.0000 0.0000 0.0000 0.0000 27.0361
#
#
#
# Elastic Compliance Matrix: (Units=1/GPa)
#
#
# Indices 1 2 3 4 5 6 
#
# 1 0.041197 -0.000675 -0.001446 0.000000 0.000000 0.000000
# 2 -0.000675 0.012836 -0.006824 0.000000 0.000000 0.000000
# 3 -0.001446 -0.006824 0.009443 0.000000 0.000000 0.000000
# 4 0.000000 0.000000 0.000000 -0.025273 0.000000 0.000000
# 5 0.000000 0.000000 0.000000 0.000000 0.108440 0.000000
# 6 0.000000 0.000000 0.000000 0.000000 0.000000 0.036988
#
#
# Mechanical properties :
#
#
# Convention : Reuss Voigt Hill
#
# Bulk Modulus (GPa) = 21.93766 59.87749 40.90758
# Shear Modulus (GPa) = 23.07175 14.04241 18.55708
#
# Velocity S-wave (km/s) = 3.34673 2.61097 3.00148
# Velocity P-wave (km/s) = 5.05808 6.17723 5.64546
#
# Compressibility (1/GPa) = 0.04558371
#
# Stress axis : x y z
#
# Youngs Moduli (GPa) = 24.27389 77.90738 105.89967
#
# Poissons Ratio (x) = 0.05260 0.15314
# Poissons Ratio (y) = 0.01639 0.72271
# Poissons Ratio (z) = 0.03510 0.53167
#
# Static dielectric constant tensor:
#      x y z
#    x 1.743890 0.000000 0.000000 
#    y 0.000000 1.744240 0.000000 
#    z 0.000000 0.000000 1.751600 
# 
# From -- ./inp_files/32097.got.cif
#   From: 2010.05.17/outbox.cif.g08.bks.cpg/sg47_17_cif.got.tgz:32097.got - 2010.06.03 20:15:42.
