data_PCOD9386468
_publ_section_title
;
Structure prediction by ZEFSAII (Michael W. Deem and Ramdas Pophale) SiO2 
 PCOD9386468
Probable space group: P M M M
;
_chemical_formula_sum "Si O2"
_cell_formula_units_Z 48
_cell_length_a 8.620213
_cell_length_b 31.856039
_cell_length_c 9.282485
_cell_angle_alpha 90.000000
_cell_angle_beta 90.000000
_cell_angle_gamma 90.000000
_cell_volume 2549.024605
_symmetry_space_group_name_H-M "P M M M"
_symmetry_group_IT_number 47
_symmetry_cell_setting 'orthorhombic'
loop_
_space_group_symop_operation_xyz
x,y,z
-x,-y,z
x,-y,-z
-x,y,-z
-x,-y,-z
x,y,-z
-x,y,z
x,-y,z
loop_
_atom_site_type_symbol
_atom_site_label
_atom_site_fract_x
_atom_site_fract_y
_atom_site_fract_z
Si Si1 0.685703 0.000000 0.333978
Si Si2 0.814530 0.919783 0.168098
Si Si3 0.689273 0.253495 0.334371
Si Si4 0.687155 0.829865 0.831781
Si Si5 0.813823 0.418700 0.667820
Si Si6 0.686297 0.500000 0.832094
Si Si7 0.312089 0.662453 0.167670
O O1 0.747142 0.041572 0.256158
O O2 0.500000 0.000000 0.328345
O O3 0.735946 0.000000 0.500000
O O4 0.754325 0.874363 0.218175
O O5 0.000000 0.920654 0.175213
O O6 0.767703 0.924102 0.000000
O O7 0.739730 0.256699 0.500000
O O8 0.500000 0.253204 0.333705
O O9 0.739241 0.210030 0.260791
O O10 0.737016 0.293970 0.242183
O O11 0.500000 0.832037 0.825085
O O12 0.730362 0.823898 0.000000
O O13 0.765404 0.419362 0.500000
O O14 0.748163 0.458888 0.751441
O O15 0.754333 0.376767 0.745231
O O16 0.000000 0.419940 0.672717
O O17 0.500000 0.500000 0.827844
O O18 0.734633 0.500000 0.000000
O O19 0.500000 0.660501 0.172910
O O20 0.266047 0.661086 0.000000
#
# Coordination Sequence:
#
# PCOD9386468 Si02
#       7
#     4   8   8   8   8   4   8
#     4  11  24  39  56  80 108 139 178 223 270 322
#     4  10  21  37  57  81 109 142 180 221 268 324
#     4   9  17  30  51  79 109 142 182 229 277 321
#     4   9  17  31  52  77 105 139 180 225 271 320
#     4  11  24  40  58  83 115 149 185 226 275 330
#     4  11  24  41  62  88 114 143 184 229 272 324
#     4  10  20  35  57  84 112 145 188 233 275 324
#
# _framework density 18.830732999999999
#
# number of rings (size 3 to 8) (size 9 to 14) (size 15 to 20)
#    0.000    2.000    0.000    3.500    0.000   11.333 
#    0.000    2.500    0.000    3.000    0.000    0.000 
#    0.000    0.000    0.000    0.000    0.000    0.000 
#
# Total GULP energy -268172.534943 kJ/mol
# GULP energy per Si atom -5586.927811 kJ/mol
# Density = 1.878787 g / cm^3
# Si number density = 18.830733 Si / 1000 Ang^3
#
#
#
# Elastic Constant Matrix: (Units=GPa)
#
#
# Indices 1 2 3 4 5 6 
#
# 1 20.1183 39.8733 39.3626 0.0000 0.0000 0.0000
# 2 39.8733 224.0373 129.6316 0.0000 0.0000 0.0000
# 3 39.3626 129.6316 171.3971 0.0000 0.0000 0.0000
# 4 0.0000 0.0000 0.0000 -840.4882 0.0000 0.0000
# 5 0.0000 0.0000 0.0000 0.0000 21.1188 0.0000
# 6 0.0000 0.0000 0.0000 0.0000 0.0000 -83.9642
#
#
#
# Elastic Compliance Matrix: (Units=1/GPa)
#
#
# Indices 1 2 3 4 5 6 
#
# 1 0.097386 -0.007809 -0.016460 0.000000 0.000000 0.000000
# 2 -0.007809 0.008563 -0.004683 0.000000 0.000000 0.000000
# 3 -0.016460 -0.004683 0.013156 0.000000 0.000000 0.000000
# 4 0.000000 0.000000 0.000000 -0.001190 0.000000 0.000000
# 5 0.000000 0.000000 0.000000 0.000000 0.047351 0.000000
# 6 0.000000 0.000000 0.000000 0.000000 0.000000 -0.011910
#
#
# Mechanical properties :
#
#
# Convention : Reuss Voigt Hill
#
# Bulk Modulus (GPa) = 16.33906 92.58752 54.46329
# Shear Modulus (GPa) = 21.58325 -166.88770 -72.65223
#
# Velocity S-wave (km/s) = 3.38919 -9.42431 -6.21816
# Velocity P-wave (km/s) = 4.90011 8.31555 4.75065
#
# Compressibility (1/GPa) = 0.06120302
#
# Stress axis : x y z
#
# Youngs Moduli (GPa) = 10.26838 116.78154 76.00851
#
# Poissons Ratio (x) = 0.91190 1.25108
# Poissons Ratio (y) = 0.08018 0.35595
# Poissons Ratio (z) = 0.16901 0.54690
#
# Static dielectric constant tensor:
#      x y z
#    x 1.638220 0.000000 0.000000 
#    y 0.000000 1.613780 0.000000 
#    z 0.000000 0.000000 1.639790 
# 
# From -- ./inp_files/2770.got.cif
#   From: 2010.05.17/outbox.cif.g08.bks.cpg/sg47_2_cif.got.tgz:2770.got - 2010.06.03 20:15:42.
