data_PCOD9386887
_publ_section_title
;
Structure prediction by ZEFSAII (Michael W. Deem and Ramdas Pophale) SiO2 
 PCOD9386887
Probable space group: P M M M
;
_chemical_formula_sum "Si O2"
_cell_formula_units_Z 40
_cell_length_a 7.727692
_cell_length_b 9.565615
_cell_length_c 28.271060
_cell_angle_alpha 90.000000
_cell_angle_beta 90.000000
_cell_angle_gamma 90.000000
_cell_volume 2089.800332
_symmetry_space_group_name_H-M "P M M M"
_symmetry_group_IT_number 47
_symmetry_cell_setting 'orthorhombic'
loop_
_space_group_symop_operation_xyz
x,y,z
-x,-y,z
x,-y,-z
-x,y,-z
-x,-y,-z
x,y,-z
-x,y,z
x,-y,z
loop_
_atom_site_type_symbol
_atom_site_label
_atom_site_fract_x
_atom_site_fract_y
_atom_site_fract_z
Si Si1 0.706311 0.831638 0.389079
Si Si2 0.707379 0.156640 0.281938
Si Si3 0.205389 0.657454 0.192294
Si Si4 0.287388 0.839473 0.000000
Si Si5 0.705914 0.340682 0.911263
Si Si6 0.000000 0.335108 0.556672
O O1 0.500000 0.802959 0.395337
O O2 0.759301 0.797783 0.334708
O O3 0.831140 0.743850 0.422752
O O4 0.728687 0.000000 0.395090
O O5 0.500000 0.148135 0.284229
O O6 0.751346 0.254879 0.238476
O O7 0.775807 0.000000 0.273661
O O8 0.278318 0.500000 0.196393
O O9 0.265242 0.715753 0.141664
O O10 0.000000 0.648658 0.189574
O O11 0.228458 0.756791 0.046748
O O12 0.500000 0.840085 0.000000
O O13 0.231806 0.000000 0.000000
O O14 0.500000 0.350678 0.918029
O O15 0.776268 0.500000 0.913421
O O16 0.000000 0.500000 0.569711
O O17 0.000000 0.325603 0.500000
#
# Coordination Sequence:
#
# PCOD9386887 Si02
#       6
#     8   8   8   4   8   4
#     4   9  20  40  64  89 118 156 204 251 294 349
#     4   9  19  36  57  81 108 140 180 226 275 324
#     4  10  21  34  49  75 109 141 175 215 262 321
#     4   9  17  29  48  73  94 116 158 217 270 313
#     4   9  17  31  50  69  93 129 170 210 256 314
#     4  11  25  41  59  89 127 163 199 244 301 356
#
# _framework density 19.140584
#
# number of rings (size 3 to 8) (size 9 to 14) (size 15 to 20)
#    0.000    2.600    0.000    2.400    1.400    6.000 
#    0.000    6.500    0.000    3.000    0.000    0.000 
#    0.000    0.000    0.000    0.000    0.000    0.000 
#
# Total GULP energy -223086.622129 kJ/mol
# GULP energy per Si atom -5577.165553 kJ/mol
# Density = 1.909702 g / cm^3
# Si number density = 19.140584 Si / 1000 Ang^3
#
#
#
# Elastic Constant Matrix: (Units=GPa)
#
#
# Indices 1 2 3 4 5 6 
#
# 1 58.7516 35.1338 40.9890 0.0000 0.0000 0.0000
# 2 35.1338 89.5331 93.6615 0.0000 0.0000 0.0000
# 3 40.9890 93.6615 160.2801 0.0000 0.0000 0.0000
# 4 0.0000 0.0000 0.0000 65.7048 0.0000 0.0000
# 5 0.0000 0.0000 0.0000 0.0000 47.1853 0.0000
# 6 0.0000 0.0000 0.0000 0.0000 0.0000 18.4235
#
#
#
# Elastic Compliance Matrix: (Units=1/GPa)
#
#
# Indices 1 2 3 4 5 6 
#
# 1 0.022383 -0.007192 -0.001522 0.000000 0.000000 0.000000
# 2 -0.007192 0.031045 -0.016303 0.000000 0.000000 0.000000
# 3 -0.001522 -0.016303 0.016155 0.000000 0.000000 0.000000
# 4 0.000000 0.000000 0.000000 0.015220 0.000000 0.000000
# 5 0.000000 0.000000 0.000000 0.000000 0.021193 0.000000
# 6 0.000000 0.000000 0.000000 0.000000 0.000000 0.054279
#
#
# Mechanical properties :
#
#
# Convention : Reuss Voigt Hill
#
# Bulk Modulus (GPa) = 51.14657 72.01483 61.58070
# Shear Modulus (GPa) = 23.06024 35.51475 29.28749
#
# Velocity S-wave (km/s) = 3.47476 4.31219 3.91593
# Velocity P-wave (km/s) = 6.54814 7.90564 7.25869
#
# Compressibility (1/GPa) = 0.01955165
#
# Stress axis : x y z
#
# Youngs Moduli (GPa) = 44.67679 32.21079 61.90091
#
# Poissons Ratio (x) = 0.23165 0.09419
# Poissons Ratio (y) = 0.32130 1.00915
# Poissons Ratio (z) = 0.06798 0.52512
#
# Static dielectric constant tensor:
#      x y z
#    x 1.682410 0.000000 0.000000 
#    y 0.000000 1.657410 0.000000 
#    z 0.000000 0.000000 1.665380 
# 
# From -- ./inp_files/1693.got.cif
#   From: 2010.05.17/outbox.cif.g08.bks.cpg/sg47_1_cif.got.tgz:1693.got - 2010.06.03 20:15:42.
