data_PCOD9386744
_publ_section_title
;
Structure prediction by ZEFSAII (Michael W. Deem and Ramdas Pophale) SiO2 
 PCOD9386744
Probable space group: P M M M
;
_chemical_formula_sum "Si O2"
_cell_formula_units_Z 52
_cell_length_a 9.920944
_cell_length_b 18.713159
_cell_length_c 15.959609
_cell_angle_alpha 90.000000
_cell_angle_beta 90.000000
_cell_angle_gamma 90.000000
_cell_volume 2962.936562
_symmetry_space_group_name_H-M "P M M M"
_symmetry_group_IT_number 47
_symmetry_cell_setting 'orthorhombic'
loop_
_space_group_symop_operation_xyz
x,y,z
-x,-y,z
x,-y,-z
-x,y,-z
-x,-y,-z
x,y,-z
-x,y,z
x,-y,z
loop_
_atom_site_type_symbol
_atom_site_label
_atom_site_fract_x
_atom_site_fract_y
_atom_site_fract_z
Si Si1 0.348654 0.320888 0.599898
Si Si2 0.159378 0.830587 0.901142
Si Si3 0.663899 0.839343 0.404012
Si Si4 0.657820 0.414625 0.000000
Si Si5 0.846057 0.661979 0.870023
Si Si6 0.339932 0.914984 0.767489
Si Si7 0.153225 0.582559 0.304873
O O1 0.357467 0.322083 0.500000
O O2 0.500000 0.327042 0.635177
O O3 0.293794 0.241518 0.619744
O O4 0.257133 0.384746 0.630518
O O5 0.176581 0.746400 0.880600
O O6 0.252067 0.875454 0.838062
O O7 0.000000 0.847249 0.889535
O O8 0.191204 0.841813 0.000000
O O9 0.708788 0.856388 0.500000
O O10 0.500000 0.838309 0.407805
O O11 0.700858 0.890232 0.326778
O O12 0.735968 0.380979 0.921887
O O13 0.670393 0.500000 0.000000
O O14 0.500000 0.396247 0.000000
O O15 0.838762 0.633238 0.775974
O O16 0.000000 0.647519 0.899594
O O17 0.500000 0.897893 0.777334
O O18 0.324453 0.000000 0.774836
O O19 0.181398 0.500000 0.282863
O O20 0.000000 0.585745 0.337093
#
# Coordination Sequence:
#
# PCOD9386744 Si02
#       7
#     8   8   8   4   8   8   8
#     4   9  18  33  53  75 100 136 180 221 264 315
#     4  10  21  38  59  81 104 138 187 232 273 324
#     4   8  15  31  55  81 109 140 176 219 265 317
#     4  11  23  35  51  81 114 139 168 211 265 320
#     4  10  20  38  59  77 101 137 182 225 265 318
#     4  10  21  35  54  84 116 144 177 218 269 327
#     4  10  21  34  50  75 104 136 174 218 270 319
#
# _framework density 17.550156999999999
#
# number of rings (size 3 to 8) (size 9 to 14) (size 15 to 20)
#    0.000    2.385    0.769    2.538    0.000    4.615 
#    0.000    4.615    0.000    1.385    0.000    1.077 
#    0.000    0.000    0.000    0.000    0.000    0.000 
#
# Total GULP energy -289825.565831 kJ/mol
# GULP energy per Si atom -5573.568574 kJ/mol
# Density = 1.751021 g / cm^3
# Si number density = 17.550157 Si / 1000 Ang^3
#
#
#
# Elastic Constant Matrix: (Units=GPa)
#
#
# Indices 1 2 3 4 5 6 
#
# 1 74.1531 58.2863 45.2606 0.0000 0.0000 0.0000
# 2 58.2863 81.4904 64.4550 0.0000 0.0000 0.0000
# 3 45.2606 64.4550 73.2647 0.0000 0.0000 0.0000
# 4 0.0000 0.0000 0.0000 27.4817 0.0000 0.0000
# 5 0.0000 0.0000 0.0000 0.0000 105.2448 0.0000
# 6 0.0000 0.0000 0.0000 0.0000 0.0000 27.9039
#
#
#
# Elastic Compliance Matrix: (Units=1/GPa)
#
#
# Indices 1 2 3 4 5 6 
#
# 1 0.030834 -0.022975 0.001164 0.000000 0.000000 0.000000
# 2 -0.022975 0.057464 -0.036361 0.000000 0.000000 0.000000
# 3 0.001164 -0.036361 0.044919 0.000000 0.000000 0.000000
# 4 0.000000 0.000000 0.000000 0.036388 0.000000 0.000000
# 5 0.000000 0.000000 0.000000 0.000000 0.009502 0.000000
# 6 0.000000 0.000000 0.000000 0.000000 0.000000 0.035837
#
#
# Mechanical properties :
#
#
# Convention : Reuss Voigt Hill
#
# Bulk Modulus (GPa) = 59.26631 62.76798 61.01714
# Shear Modulus (GPa) = 14.84063 36.18650 25.51357
#
# Velocity S-wave (km/s) = 2.91110 4.54573 3.81695
# Velocity P-wave (km/s) = 6.71880 7.96204 7.36670
#
# Compressibility (1/GPa) = 0.01687299
#
# Stress axis : x y z
#
# Youngs Moduli (GPa) = 32.43189 17.40215 22.26211
#
# Poissons Ratio (x) = 0.39981 -0.02591
# Poissons Ratio (y) = 0.74511 0.80948
# Poissons Ratio (z) = -0.03774 0.63277
#
# Static dielectric constant tensor:
#      x y z
#    x 1.579930 0.000000 0.000000 
#    y 0.000000 1.584260 0.000000 
#    z 0.000000 0.000000 1.632040 
# 
# From -- ./inp_files/21411.got.cif
#   From: 2010.05.17/outbox.cif.g08.bks.cpg/sg47_11_cif.got.tgz:21411.got - 2010.06.03 20:15:42.
