data_PCOD9386186
_publ_section_title
;
Structure prediction by ZEFSAII (Michael W. Deem and Ramdas Pophale) SiO2 
 PCOD9386186
Probable space group: P M M M
;
_chemical_formula_sum "Si O2"
_cell_formula_units_Z 52
_cell_length_a 9.125277
_cell_length_b 14.680687
_cell_length_c 20.587930
_cell_angle_alpha 90.000000
_cell_angle_beta 90.000000
_cell_angle_gamma 90.000000
_cell_volume 2758.068948
_symmetry_space_group_name_H-M "P M M M"
_symmetry_group_IT_number 47
_symmetry_cell_setting 'orthorhombic'
loop_
_space_group_symop_operation_xyz
x,y,z
-x,-y,z
x,-y,-z
-x,y,-z
-x,-y,-z
x,y,-z
-x,y,z
x,-y,z
loop_
_atom_site_type_symbol
_atom_site_label
_atom_site_fract_x
_atom_site_fract_y
_atom_site_fract_z
Si Si1 0.333777 0.610302 0.500000
Si Si2 0.825657 0.785435 0.923855
Si Si3 0.324452 0.895820 0.815187
Si Si4 0.670093 0.600874 0.921057
Si Si5 0.321957 0.105438 0.572623
Si Si6 0.676753 0.230254 0.693357
Si Si7 0.174541 0.392853 0.365480
O O1 0.342648 0.500000 0.500000
O O2 0.500000 0.647438 0.500000
O O3 0.248795 0.633801 0.565689
O O4 0.753313 0.862536 0.880201
O O5 0.764657 0.687206 0.900886
O O6 0.000000 0.787195 0.918280
O O7 0.786909 0.795975 0.000000
O O8 0.500000 0.891135 0.823680
O O9 0.285661 0.827413 0.757027
O O10 0.286929 0.000000 0.798653
O O11 0.500000 0.613586 0.902154
O O12 0.718459 0.500000 0.899078
O O13 0.673935 0.599234 0.000000
O O14 0.275021 0.133737 0.500000
O O15 0.500000 0.105770 0.572958
O O16 0.275976 0.170616 0.630738
O O17 0.277641 0.000000 0.582955
O O18 0.500000 0.241459 0.691123
O O19 0.754562 0.327253 0.687772
O O20 0.205239 0.500000 0.354268
O O21 0.000000 0.381504 0.369220
#
# Coordination Sequence:
#
# PCOD9386186 Si02
#       7
#     4   8   8   8   8   8   8
#     4   9  17  31  53  79 106 141 188 237 279 320
#     4  10  21  36  56  84 115 146 185 234 285 341
#     4  10  22  40  60  82 110 145 186 233 285 343
#     4   8  14  27  50  80 113 147 180 215 260 318
#     4   8  14  26  47  77 109 136 167 213 266 315
#     4  10  20  34  56  83 109 140 184 230 271 326
#     4  10  21  36  53  77 113 153 189 228 278 334
#
# _framework density 18.853770999999998
#
# number of rings (size 3 to 8) (size 9 to 14) (size 15 to 20)
#    0.000    2.692    0.000    2.538    1.077    6.154 
#    0.000    3.846    0.000    2.308    0.000    1.077 
#    0.000    0.000    0.000    0.000    0.000    0.000 
#
# Total GULP energy -290101.044075 kJ/mol
# GULP energy per Si atom -5578.866232 kJ/mol
# Density = 1.881086 g / cm^3
# Si number density = 18.853771 Si / 1000 Ang^3
#
#
#
# Elastic Constant Matrix: (Units=GPa)
#
#
# Indices 1 2 3 4 5 6 
#
# 1 40.2452 52.7302 40.9951 0.0000 0.0000 0.0000
# 2 52.7302 110.9536 60.8738 0.0000 0.0000 0.0000
# 3 40.9951 60.8738 73.9846 0.0000 0.0000 0.0000
# 4 0.0000 0.0000 0.0000 32.2214 0.0000 0.0000
# 5 0.0000 0.0000 0.0000 0.0000 18.0809 0.0000
# 6 0.0000 0.0000 0.0000 0.0000 0.0000 1.8394
#
#
#
# Elastic Compliance Matrix: (Units=1/GPa)
#
#
# Indices 1 2 3 4 5 6 
#
# 1 0.086215 -0.026912 -0.025629 0.000000 0.000000 0.000000
# 2 -0.026912 0.024830 -0.005518 0.000000 0.000000 0.000000
# 3 -0.025629 -0.005518 0.032257 0.000000 0.000000 0.000000
# 4 0.000000 0.000000 0.000000 0.031035 0.000000 0.000000
# 5 0.000000 0.000000 0.000000 0.000000 0.055307 0.000000
# 6 0.000000 0.000000 0.000000 0.000000 0.000000 0.543657
#
#
# Mechanical properties :
#
#
# Convention : Reuss Voigt Hill
#
# Bulk Modulus (GPa) = 36.78540 59.37575 48.08057
# Shear Modulus (GPa) = 5.56495 15.13396 10.34945
#
# Velocity S-wave (km/s) = 1.71990 2.83627 2.34547
# Velocity P-wave (km/s) = 4.84740 6.50285 5.73517
#
# Compressibility (1/GPa) = 0.02718470
#
# Stress axis : x y z
#
# Youngs Moduli (GPa) = 11.59886 40.27386 31.00077
#
# Poissons Ratio (x) = 1.08387 0.79452
# Poissons Ratio (y) = 0.31215 0.17105
# Poissons Ratio (z) = 0.29727 0.22222
#
# Static dielectric constant tensor:
#      x y z
#    x 1.624300 0.000000 0.000000 
#    y 0.000000 1.674500 0.000000 
#    z 0.000000 0.000000 1.653550 
# 
# From -- ./inp_files/29579.got.cif
#   From: 2010.05.17/outbox.cif.g08.bks.cpg/sg47_15_cif.got.tgz:29579.got - 2010.06.03 20:15:42.
