data_PCOD9386603
_publ_section_title
;
Structure prediction by ZEFSAII (Michael W. Deem and Ramdas Pophale) SiO2 
 PCOD9386603
Probable space group: P M M M
;
_chemical_formula_sum "Si O2"
_cell_formula_units_Z 64
_cell_length_a 19.858111
_cell_length_b 20.125013
_cell_length_c 8.244925
_cell_angle_alpha 90.000000
_cell_angle_beta 90.000000
_cell_angle_gamma 90.000000
_cell_volume 3295.040925
_symmetry_space_group_name_H-M "P M M M"
_symmetry_group_IT_number 47
_symmetry_cell_setting 'orthorhombic'
loop_
_space_group_symop_operation_xyz
x,y,z
-x,-y,z
x,-y,-z
-x,y,-z
-x,-y,-z
x,y,-z
-x,y,z
x,-y,z
loop_
_atom_site_type_symbol
_atom_site_label
_atom_site_fract_x
_atom_site_fract_y
_atom_site_fract_z
Si Si1 0.335712 0.695749 0.301872
Si Si2 0.193126 0.161810 0.685302
Si Si3 0.577599 0.427459 0.697790
Si Si4 0.922554 0.575865 0.195335
Si Si5 0.076417 0.079370 0.811200
Si Si6 0.819443 0.690092 0.695628
Si Si7 0.682290 0.924339 0.192605
Si Si8 0.577361 0.822594 0.694914
O O1 0.335906 0.697545 0.500000
O O2 0.379082 0.633568 0.244805
O O3 0.258734 0.683348 0.253828
O O4 0.373480 0.762856 0.247163
O O5 0.215325 0.172770 0.500000
O O6 0.130103 0.113482 0.698444
O O7 0.167907 0.233436 0.748450
O O8 0.255325 0.124476 0.768470
O O9 0.578462 0.426289 0.500000
O O10 0.500000 0.420666 0.746365
O O11 0.602608 0.500000 0.748675
O O12 0.905056 0.500000 0.249883
O O13 0.870010 0.633117 0.244477
O O14 0.000000 0.589658 0.249578
O O15 0.923591 0.574481 0.000000
O O16 0.000000 0.100236 0.777218
O O17 0.079679 0.000000 0.796460
O O18 0.091879 0.095321 0.000000
O O19 0.823151 0.687187 0.500000
O O20 0.614905 0.890733 0.261607
O O21 0.693867 0.000000 0.253372
O O22 0.676029 0.927474 0.000000
O O23 0.574526 0.817113 0.500000
O O24 0.500000 0.817680 0.754444
#
# Coordination Sequence:
#
# PCOD9386603 Si02
#       8
#     8   8   8   8   8   8   8   8
#     4   9  16  30  48  72 108 145 179 219 269 325
#     4  11  22  37  56  82 115 147 183 233 285 336
#     4   8  13  21  37  65  99 135 174 211 250 303
#     4   9  20  40  62  83 111 149 193 237 277 323
#     4   9  19  36  56  79 109 145 185 226 270 329
#     4  10  21  35  54  82 115 144 178 226 276 326
#     4  11  24  40  58  80 108 145 188 236 291 347
#     4  10  20  36  59  83 109 145 187 233 287 343
#
# _framework density 19.423127000000001
#
# number of rings (size 3 to 8) (size 9 to 14) (size 15 to 20)
#    0.000    2.375    1.250    2.625    0.000    7.500 
#    0.000    6.250    0.000    0.000    0.000    0.000 
#    0.000    0.000    0.000    6.625    0.000    5.750 
#
# Total GULP energy -356777.302498 kJ/mol
# GULP energy per Si atom -5574.645352 kJ/mol
# Density = 1.937892 g / cm^3
# Si number density = 19.423127 Si / 1000 Ang^3
#
#
#
# Elastic Constant Matrix: (Units=GPa)
#
#
# Indices 1 2 3 4 5 6 
#
# 1 115.2070 82.0568 23.6362 0.0000 0.0000 0.0000
# 2 82.0568 131.5040 19.5442 0.0000 0.0000 0.0000
# 3 23.6362 19.5442 9.5741 0.0000 0.0000 0.0000
# 4 0.0000 0.0000 0.0000 6.8158 0.0000 0.0000
# 5 0.0000 0.0000 0.0000 0.0000 169.8586 0.0000
# 6 0.0000 0.0000 0.0000 0.0000 0.0000 41.5106
#
#
#
# Elastic Compliance Matrix: (Units=1/GPa)
#
#
# Indices 1 2 3 4 5 6 
#
# 1 0.022533 -0.008316 -0.038654 0.000000 0.000000 0.000000
# 2 -0.008316 0.013985 -0.008019 0.000000 0.000000 0.000000
# 3 -0.038654 -0.008019 0.216245 0.000000 0.000000 0.000000
# 4 0.000000 0.000000 0.000000 0.146717 0.000000 0.000000
# 5 0.000000 0.000000 0.000000 0.000000 0.005887 0.000000
# 6 0.000000 0.000000 0.000000 0.000000 0.000000 0.024090
#
#
# Mechanical properties :
#
#
# Convention : Reuss Voigt Hill
#
# Bulk Modulus (GPa) = 7.00346 56.30661 31.65504
# Shear Modulus (GPa) = 8.51743 52.37353 30.44548
#
# Velocity S-wave (km/s) = 2.09636 5.19837 3.96344
# Velocity P-wave (km/s) = 3.07786 8.06741 6.10559
#
# Compressibility (1/GPa) = 0.14278650
#
# Stress axis : x y z
#
# Youngs Moduli (GPa) = 44.37862 71.50515 4.62437
#
# Poissons Ratio (x) = 0.59462 0.17875
# Poissons Ratio (y) = 0.36904 0.03708
# Poissons Ratio (z) = 1.71542 0.57338
#
# Static dielectric constant tensor:
#      x y z
#    x 1.665020 0.000000 0.000000 
#    y 0.000000 1.695760 0.000000 
#    z 0.000000 0.000000 1.709570 
# 
# From -- ./inp_files/11644.got.cif
#   From: 2010.05.17/outbox.cif.g08.bks.cpg/sg47_6_cif.got.tgz:11644.got - 2010.06.03 20:15:42.
