data_PCOD9386802
_publ_section_title
;
Structure prediction by ZEFSAII (Michael W. Deem and Ramdas Pophale) SiO2 
 PCOD9386802
Probable space group: P M M M
;
_chemical_formula_sum "Si O2"
_cell_formula_units_Z 64
_cell_length_a 32.317533
_cell_length_b 14.867159
_cell_length_c 8.276675
_cell_angle_alpha 90.000000
_cell_angle_beta 90.000000
_cell_angle_gamma 90.000000
_cell_volume 3976.693223
_symmetry_space_group_name_H-M "P M M M"
_symmetry_group_IT_number 47
_symmetry_cell_setting 'orthorhombic'
loop_
_space_group_symop_operation_xyz
x,y,z
-x,-y,z
x,-y,-z
-x,y,-z
-x,-y,-z
x,y,-z
-x,y,z
x,-y,z
loop_
_atom_site_type_symbol
_atom_site_label
_atom_site_fract_x
_atom_site_fract_y
_atom_site_fract_z
Si Si1 0.953110 0.602964 0.194958
Si Si2 0.286125 0.712549 0.807514
Si Si3 0.125079 0.712831 0.306884
Si Si4 0.544504 0.608929 0.308488
Si Si5 0.794690 0.396420 0.804663
Si Si6 0.159157 0.099963 0.696906
Si Si7 0.255454 0.100677 0.694862
Si Si8 0.634659 0.396324 0.695215
O O1 0.944094 0.500000 0.247280
O O2 0.917969 0.669807 0.253549
O O3 0.000000 0.625296 0.247453
O O4 0.952797 0.602950 0.000000
O O5 0.245369 0.659060 0.746051
O O6 0.281590 0.816350 0.758979
O O7 0.327445 0.665508 0.744894
O O8 0.285961 0.705879 0.000000
O O9 0.126345 0.714512 0.500000
O O10 0.163281 0.651929 0.248116
O O11 0.132908 0.814760 0.246943
O O12 0.543817 0.630725 0.500000
O O13 0.500000 0.639336 0.239184
O O14 0.545045 0.500000 0.298163
O O15 0.589475 0.636874 0.243962
O O16 0.793224 0.500000 0.749553
O O17 0.793866 0.396825 0.000000
O O18 0.158384 0.099317 0.500000
O O19 0.207276 0.113217 0.743710
O O20 0.146116 0.000000 0.750604
O O21 0.256449 0.102730 0.500000
O O22 0.268158 0.000000 0.746593
O O23 0.632495 0.398460 0.500000
O O24 0.641267 0.500000 0.749574
#
# Coordination Sequence:
#
# PCOD9386802 Si02
#       8
#     8   8   8   8   8   8   8   8
#     4   9  19  36  54  69  91 126 157 178 213 269
#     4  11  21  31  44  63  92 126 157 191 227 269
#     4  11  20  30  50  76  95 112 145 192 231 261
#     4   7  10  19  37  60  83 108 145 194 239 272
#     4  10  21  34  44  58  88 129 161 181 211 261
#     4   8  15  29  48  69  93 118 143 177 224 273
#     4   9  17  32  52  68  86 116 153 192 232 273
#     4   9  17  28  43  63  88 122 161 196 230 273
#
# _framework density 16.093774
#
# number of rings (size 3 to 8) (size 9 to 14) (size 15 to 20)
#    0.000    2.750    1.250    3.750    0.000    3.750 
#    0.000    0.625    0.000    2.250    0.000    4.375 
#    0.000    0.500    0.000    5.750    0.000    1.875 
#
# Total GULP energy -356556.044416 kJ/mol
# GULP energy per Si atom -5571.188194 kJ/mol
# Density = 1.605714 g / cm^3
# Si number density = 16.093774 Si / 1000 Ang^3
#
#
#
# Elastic Constant Matrix: (Units=GPa)
#
#
# Indices 1 2 3 4 5 6 
#
# 1 139.8529 87.0829 14.9475 0.0000 0.0000 0.0000
# 2 87.0829 128.9394 15.8378 0.0000 0.0000 0.0000
# 3 14.9475 15.8378 10.1848 0.0000 0.0000 0.0000
# 4 0.0000 0.0000 0.0000 6.0635 0.0000 0.0000
# 5 0.0000 0.0000 0.0000 0.0000 4.1437 0.0000
# 6 0.0000 0.0000 0.0000 0.0000 0.0000 7.2587
#
#
#
# Elastic Compliance Matrix: (Units=1/GPa)
#
#
# Indices 1 2 3 4 5 6 
#
# 1 0.012683 -0.007762 -0.006544 0.000000 0.000000 0.000000
# 2 -0.007762 0.014337 -0.010903 0.000000 0.000000 0.000000
# 3 -0.006544 -0.010903 0.124744 0.000000 0.000000 0.000000
# 4 0.000000 0.000000 0.000000 0.164921 0.000000 0.000000
# 5 0.000000 0.000000 0.000000 0.000000 0.241331 0.000000
# 6 0.000000 0.000000 0.000000 0.000000 0.000000 0.137766
#
#
# Mechanical properties :
#
#
# Convention : Reuss Voigt Hill
#
# Bulk Modulus (GPa) = 9.86709 57.19036 33.52873
# Shear Modulus (GPa) = 6.41041 14.23378 10.32209
#
# Velocity S-wave (km/s) = 1.99795 2.97716 2.53528
# Velocity P-wave (km/s) = 3.38625 6.88700 5.42667
#
# Compressibility (1/GPa) = 0.10134695
#
# Stress axis : x y z
#
# Youngs Moduli (GPa) = 78.84585 69.74891 8.01640
#
# Poissons Ratio (x) = 0.54139 0.05246
# Poissons Ratio (y) = 0.61201 0.08740
# Poissons Ratio (z) = 0.51593 0.76048
#
# Static dielectric constant tensor:
#      x y z
#    x 1.548620 0.000000 0.000000 
#    y 0.000000 1.536150 0.000000 
#    z 0.000000 0.000000 1.561720 
# 
# From -- ./inp_files/14327.got.cif
#   From: 2010.05.17/outbox.cif.g08.bks.cpg/sg47_8_cif.got.tgz:14327.got - 2010.06.03 20:15:42.
