data_PCOD9386008
_publ_section_title
;
Structure prediction by ZEFSAII (Michael W. Deem and Ramdas Pophale) SiO2 
 PCOD9386008
Probable space group: P M M M
;
_chemical_formula_sum "Si O2"
_cell_formula_units_Z 48
_cell_length_a 32.048288
_cell_length_b 9.322016
_cell_length_c 7.817797
_cell_angle_alpha 90.000000
_cell_angle_beta 90.000000
_cell_angle_gamma 90.000000
_cell_volume 2335.603234
_symmetry_space_group_name_H-M "P M M M"
_symmetry_group_IT_number 47
_symmetry_cell_setting 'orthorhombic'
loop_
_space_group_symop_operation_xyz
x,y,z
-x,-y,z
x,-y,-z
-x,y,-z
-x,-y,-z
x,y,-z
-x,y,z
x,-y,z
loop_
_atom_site_type_symbol
_atom_site_label
_atom_site_fract_x
_atom_site_fract_y
_atom_site_fract_z
Si Si1 0.500000 0.834374 0.290533
Si Si2 0.172935 0.837867 0.703555
Si Si3 0.090647 0.335231 0.793062
Si Si4 0.000000 0.325281 0.198047
Si Si5 0.417878 0.663919 0.293787
Si Si6 0.334625 0.836755 0.793862
Si Si7 0.745314 0.662104 0.795701
O O1 0.500000 0.834507 0.500000
O O2 0.458537 0.750879 0.233779
O O3 0.500000 0.000000 0.235768
O O4 0.176555 0.844730 0.500000
O O5 0.128928 0.764717 0.745761
O O6 0.211105 0.741481 0.766922
O O7 0.175363 0.000000 0.773111
O O8 0.097932 0.500000 0.735727
O O9 0.045055 0.284910 0.727389
O O10 0.087943 0.339403 0.000000
O O11 0.000000 0.500000 0.196557
O O12 0.000000 0.276701 0.000000
O O13 0.420407 0.658331 0.500000
O O14 0.417317 0.500000 0.230284
O O15 0.375863 0.747464 0.248191
O O16 0.293444 0.755190 0.728185
O O17 0.337149 0.000000 0.729136
O O18 0.331529 0.843939 0.000000
O O19 0.745705 0.500000 0.726402
O O20 0.739587 0.651942 0.000000
#
# Coordination Sequence:
#
# PCOD9386008 Si02
#       7
#     4   8   8   4   8   8   8
#     4   9  17  31  52  77 106 141 180 222 266 311
#     4  11  24  38  51  73 107 143 176 212 257 308
#     4   9  17  32  56  82 105 133 172 216 261 309
#     4   7  12  26  50  79 106 130 164 213 260 303
#     4  10  20  34  54  80 109 142 180 220 262 310
#     4  10  21  37  57  81 109 140 173 212 261 315
#     4  10  21  38  60  82 102 130 171 216 262 313
#
# _framework density 20.551435999999999
#
# number of rings (size 3 to 8) (size 9 to 14) (size 15 to 20)
#    0.000    2.333    0.000    3.750    0.000    8.333 
#    0.000    1.250    0.000    6.500    0.000    0.000 
#    0.000    0.000    0.000    0.000    0.000    0.000 
#
# Total GULP energy -268016.288441 kJ/mol
# GULP energy per Si atom -5583.672676 kJ/mol
# Density = 2.050466 g / cm^3
# Si number density = 20.551436 Si / 1000 Ang^3
#
#
#
# Elastic Constant Matrix: (Units=GPa)
#
#
# Indices 1 2 3 4 5 6 
#
# 1 208.7671 121.9556 -3.3550 0.0000 0.0000 0.0000
# 2 121.9556 200.5301 7.9225 0.0000 0.0000 0.0000
# 3 -3.3550 7.9225 24.4765 0.0000 0.0000 0.0000
# 4 0.0000 0.0000 0.0000 23.6147 0.0000 0.0000
# 5 0.0000 0.0000 0.0000 0.0000 28.1399 0.0000
# 6 0.0000 0.0000 0.0000 0.0000 0.0000 60.6991
#
#
#
# Elastic Compliance Matrix: (Units=1/GPa)
#
#
# Indices 1 2 3 4 5 6 
#
# 1 0.007585 -0.004715 0.002566 0.000000 0.000000 0.000000
# 2 -0.004715 0.007982 -0.003230 0.000000 0.000000 0.000000
# 3 0.002566 -0.003230 0.042253 0.000000 0.000000 0.000000
# 4 0.000000 0.000000 0.000000 0.042346 0.000000 0.000000
# 5 0.000000 0.000000 0.000000 0.000000 0.035537 0.000000
# 6 0.000000 0.000000 0.000000 0.000000 0.000000 0.016475
#
#
# Mechanical properties :
#
#
# Convention : Reuss Voigt Hill
#
# Bulk Modulus (GPa) = 21.24831 76.31333 48.78082
# Shear Modulus (GPa) = 27.99208 42.97412 35.48310
#
# Velocity S-wave (km/s) = 3.69460 4.57776 4.15969
# Velocity P-wave (km/s) = 5.34431 8.07184 6.84530
#
# Compressibility (1/GPa) = 0.04706257
#
# Stress axis : x y z
#
# Youngs Moduli (GPa) = 131.83326 125.28833 23.66717
#
# Poissons Ratio (x) = 0.59067 -0.06072
# Poissons Ratio (y) = 0.62153 0.07644
# Poissons Ratio (z) = -0.33825 0.40464
#
# Static dielectric constant tensor:
#      x y z
#    x 1.706750 0.000000 0.000000 
#    y 0.000000 1.719810 0.000000 
#    z 0.000000 0.000000 1.767370 
# 
# From -- ./inp_files/2762.got.cif
#   From: 2010.05.17/outbox.cif.g08.bks.cpg/sg47_2_cif.got.tgz:2762.got - 2010.06.03 20:15:42.
