data_PCOD9386357
_publ_section_title
;
Structure prediction by ZEFSAII (Michael W. Deem and Ramdas Pophale) SiO2 
 PCOD9386357
Probable space group: P M M M
;
_chemical_formula_sum "Si O2"
_cell_formula_units_Z 52
_cell_length_a 14.459486
_cell_length_b 20.721974
_cell_length_c 9.491095
_cell_angle_alpha 90.000000
_cell_angle_beta 90.000000
_cell_angle_gamma 90.000000
_cell_volume 2843.808186
_symmetry_space_group_name_H-M "P M M M"
_symmetry_group_IT_number 47
_symmetry_cell_setting 'orthorhombic'
loop_
_space_group_symop_operation_xyz
x,y,z
-x,-y,z
x,-y,-z
-x,y,-z
-x,-y,-z
x,y,-z
-x,y,z
x,-y,z
loop_
_atom_site_type_symbol
_atom_site_label
_atom_site_fract_x
_atom_site_fract_y
_atom_site_fract_z
Si Si1 0.708411 0.072929 0.282679
Si Si2 0.399799 0.076480 0.000000
Si Si3 0.391037 0.799615 0.345998
Si Si4 0.277962 0.697937 0.170189
Si Si5 0.104827 0.884345 0.831028
Si Si6 0.394322 0.427623 0.829123
Si Si7 0.894070 0.252202 0.332712
O O1 0.666934 0.134217 0.361250
O O2 0.817065 0.075853 0.250195
O O3 0.683701 0.000000 0.329698
O O4 0.659760 0.088238 0.135050
O O5 0.500000 0.108607 0.000000
O O6 0.412945 0.000000 0.000000
O O7 0.385702 0.766527 0.500000
O O8 0.500000 0.812653 0.317984
O O9 0.343884 0.755234 0.228086
O O10 0.326847 0.630427 0.207873
O O11 0.181941 0.704896 0.254201
O O12 0.266618 0.702828 0.000000
O O13 0.108478 0.814868 0.754623
O O14 0.000000 0.909385 0.816412
O O15 0.123818 0.879908 0.000000
O O16 0.500000 0.414864 0.782557
O O17 0.367829 0.500000 0.782390
O O18 0.396234 0.428765 0.000000
O O19 0.873254 0.242593 0.500000
O O20 0.000000 0.276358 0.323605
#
# Coordination Sequence:
#
# PCOD9386357 Si02
#       7
#     8   4   8   8   8   8   8
#     4  11  22  36  54  76 103 141 184 230 284 339
#     4   9  18  32  49  71  99 133 175 223 275 330
#     4  11  25  41  56  78 110 148 188 232 280 330
#     4  11  21  34  59  91 117 145 185 231 278 327
#     4  10  20  35  56  81 108 139 180 231 286 344
#     4   8  15  30  53  84 122 157 186 219 264 320
#     4  10  21  37  57  80 110 149 188 228 278 333
#
# _framework density 18.285340999999999
#
# number of rings (size 3 to 8) (size 9 to 14) (size 15 to 20)
#    0.000    1.923    2.308    2.308    1.077    3.385 
#    0.000    1.538    0.000    2.308    0.000   11.846 
#    0.000    0.000    0.000    0.000    0.000    0.000 
#
# Total GULP energy -289654.887495 kJ/mol
# GULP energy per Si atom -5570.286298 kJ/mol
# Density = 1.824372 g / cm^3
# Si number density = 18.285341 Si / 1000 Ang^3
#
#
#
# Elastic Constant Matrix: (Units=GPa)
#
#
# Indices 1 2 3 4 5 6 
#
# 1 125.9670 54.3078 34.5076 0.0000 0.0000 0.0000
# 2 54.3078 102.8931 26.8201 0.0000 0.0000 0.0000
# 3 34.5076 26.8201 85.6703 0.0000 0.0000 0.0000
# 4 0.0000 0.0000 0.0000 -10.7906 0.0000 0.0000
# 5 0.0000 0.0000 0.0000 0.0000 24.9508 0.0000
# 6 0.0000 0.0000 0.0000 0.0000 0.0000 29.8498
#
#
#
# Elastic Compliance Matrix: (Units=1/GPa)
#
#
# Indices 1 2 3 4 5 6 
#
# 1 0.010865 -0.005002 -0.002810 0.000000 0.000000 0.000000
# 2 -0.005002 0.012885 -0.002019 0.000000 0.000000 0.000000
# 3 -0.002810 -0.002019 0.013437 0.000000 0.000000 0.000000
# 4 0.000000 0.000000 0.000000 -0.092673 0.000000 0.000000
# 5 0.000000 0.000000 0.000000 0.000000 0.040079 0.000000
# 6 0.000000 0.000000 0.000000 0.000000 0.000000 0.033501
#
#
# Mechanical properties :
#
#
# Convention : Reuss Voigt Hill
#
# Bulk Modulus (GPa) = 57.06487 60.64460 58.85473
# Shear Modulus (GPa) = 114.68350 22.06166 68.37258
#
# Velocity S-wave (km/s) = 7.92811 3.47727 6.12154
# Velocity P-wave (km/s) = 10.72765 7.02564 9.06758
#
# Compressibility (1/GPa) = 0.01752392
#
# Stress axis : x y z
#
# Youngs Moduli (GPa) = 92.03860 77.60813 74.42263
#
# Poissons Ratio (x) = 0.38820 0.20916
# Poissons Ratio (y) = 0.46038 0.15026
# Poissons Ratio (z) = 0.25867 0.15670
#
# Static dielectric constant tensor:
#      x y z
#    x 1.669370 0.000000 0.000000 
#    y 0.000000 1.624420 0.000000 
#    z 0.000000 0.000000 1.448470 
# 
# From -- ./inp_files/7085.got.cif
#   From: 2010.05.17/outbox.cif.g08.bks.cpg/sg47_4_cif.got.tgz:7085.got - 2010.06.03 20:15:42.
