data_PCOD9386854
_publ_section_title
;
Structure prediction by ZEFSAII (Michael W. Deem and Ramdas Pophale) SiO2 
 PCOD9386854
Probable space group: P M M M
;
_chemical_formula_sum "Si O2"
_cell_formula_units_Z 40
_cell_length_a 9.491724
_cell_length_b 7.854783
_cell_length_c 28.811051
_cell_angle_alpha 90.000000
_cell_angle_beta 90.000000
_cell_angle_gamma 90.000000
_cell_volume 2148.020363
_symmetry_space_group_name_H-M "P M M M"
_symmetry_group_IT_number 47
_symmetry_cell_setting 'orthorhombic'
loop_
_space_group_symop_operation_xyz
x,y,z
-x,-y,z
x,-y,-z
-x,y,-z
-x,-y,-z
x,y,-z
-x,y,z
x,-y,z
loop_
_atom_site_type_symbol
_atom_site_label
_atom_site_fract_x
_atom_site_fract_y
_atom_site_fract_z
Si Si1 0.328361 0.804302 0.119876
Si Si2 0.338823 0.295997 0.399727
Si Si3 0.672046 0.500000 0.946615
Si Si4 0.339533 0.205144 0.776476
Si Si5 0.338511 0.202728 0.500000
Si Si6 0.840808 0.295455 0.687178
O O1 0.500000 0.807767 0.120004
O O2 0.283275 0.668659 0.081443
O O3 0.289258 0.745125 0.171936
O O4 0.282009 0.000000 0.112046
O O5 0.500000 0.228845 0.397708
O O6 0.346894 0.500000 0.395382
O O7 0.276841 0.258433 0.450711
O O8 0.246885 0.229570 0.357059
O O9 0.500000 0.500000 0.946557
O O10 0.717913 0.500000 0.000000
O O11 0.500000 0.268331 0.769227
O O12 0.240742 0.258574 0.734634
O O13 0.345413 0.000000 0.777425
O O14 0.500000 0.272009 0.500000
O O15 0.343796 0.000000 0.500000
O O16 0.847803 0.500000 0.682435
O O17 0.000000 0.228897 0.688122
#
# Coordination Sequence:
#
# PCOD9386854 Si02
#       6
#     8   8   4   8   4   8
#     4   8  15  27  41  62  93 126 164 208 248 294
#     4   9  17  31  50  70  93 124 160 195 237 289
#     4   9  16  24  38  64  95 131 169 200 245 302
#     4   9  18  32  50  71  94 126 168 207 246 293
#     4   9  17  29  48  73  94 114 150 201 244 279
#     4  10  21  34  48  71 101 129 160 200 247 298
#
# _framework density 18.6218
#
# number of rings (size 3 to 8) (size 9 to 14) (size 15 to 20)
#    0.000    3.000    0.000    2.100    1.400    4.000 
#    0.000    4.500    0.000    3.000    0.000    0.000 
#    0.000    1.600    0.000    4.400    0.000    4.400 
#
# Total GULP energy -222899.832233 kJ/mol
# GULP energy per Si atom -5572.495806 kJ/mol
# Density = 1.857942 g / cm^3
# Si number density = 18.621800 Si / 1000 Ang^3
#
#
#
# Elastic Constant Matrix: (Units=GPa)
#
#
# Indices 1 2 3 4 5 6 
#
# 1 56.6256 18.3786 67.4512 0.0000 0.0000 0.0000
# 2 18.3786 47.1295 49.9114 0.0000 0.0000 0.0000
# 3 67.4512 49.9114 209.6701 0.0000 0.0000 0.0000
# 4 0.0000 0.0000 0.0000 78.1831 0.0000 0.0000
# 5 0.0000 0.0000 0.0000 0.0000 -5.4703 0.0000
# 6 0.0000 0.0000 0.0000 0.0000 0.0000 8.6829
#
#
#
# Elastic Compliance Matrix: (Units=1/GPa)
#
#
# Indices 1 2 3 4 5 6 
#
# 1 0.028758 -0.001894 -0.008800 0.000000 0.000000 0.000000
# 2 -0.001894 0.028495 -0.006174 0.000000 0.000000 0.000000
# 3 -0.008800 -0.006174 0.009070 0.000000 0.000000 0.000000
# 4 0.000000 0.000000 0.000000 0.012790 0.000000 0.000000
# 5 0.000000 0.000000 0.000000 0.000000 -0.182805 0.000000
# 6 0.000000 0.000000 0.000000 0.000000 0.000000 0.115169
#
#
# Mechanical properties :
#
#
# Convention : Reuss Voigt Hill
#
# Bulk Modulus (GPa) = 30.68843 64.98974 47.83909
# Shear Modulus (GPa) = 89.16478 28.12474 58.64476
#
# Velocity S-wave (km/s) = 6.92718 3.89049 5.61791
# Velocity P-wave (km/s) = 8.97200 7.42676 8.23570
#
# Compressibility (1/GPa) = 0.03258557
#
# Stress axis : x y z
#
# Youngs Moduli (GPa) = 34.77350 35.09386 110.25208
#
# Poissons Ratio (x) = 0.06648 0.97026
# Poissons Ratio (y) = 0.06588 0.68066
# Poissons Ratio (z) = 0.30602 0.21666
#
# Static dielectric constant tensor:
#      x y z
#    x 1.626370 0.000000 0.000000 
#    y 0.000000 1.667160 0.000000 
#    z 0.000000 0.000000 1.650830 
# 
# From -- ./inp_files/1689.got.cif
#   From: 2010.05.17/outbox.cif.g08.bks.cpg/sg47_1_cif.got.tgz:1689.got - 2010.06.03 20:15:42.
