data_PCOD9386761
_publ_section_title
;
Structure prediction by ZEFSAII (Michael W. Deem and Ramdas Pophale) SiO2 
 PCOD9386761
Probable space group: P M M M
;
_chemical_formula_sum "Si O2"
_cell_formula_units_Z 34
_cell_length_a 9.666992
_cell_length_b 9.779643
_cell_length_c 19.930014
_cell_angle_alpha 90.000000
_cell_angle_beta 90.000000
_cell_angle_gamma 90.000000
_cell_volume 1884.178155
_symmetry_space_group_name_H-M "P M M M"
_symmetry_group_IT_number 47
_symmetry_cell_setting 'orthorhombic'
loop_
_space_group_symop_operation_xyz
x,y,z
-x,-y,z
x,-y,-z
-x,y,-z
-x,-y,-z
x,y,-z
-x,y,z
x,-y,z
loop_
_atom_site_type_symbol
_atom_site_label
_atom_site_fract_x
_atom_site_fract_y
_atom_site_fract_z
Si Si1 0.749743 0.717852 0.000000
Si Si2 0.000000 0.500000 0.000000
Si Si3 0.840024 0.339390 0.763365
Si Si4 0.162641 0.660133 0.603278
Si Si5 0.500000 0.500000 0.000000
Si Si6 0.663488 0.840489 0.137372
Si Si7 0.665812 0.163548 0.500000
O O1 0.736873 0.807356 0.932919
O O2 0.881060 0.620268 0.000000
O O3 0.619038 0.618219 0.000000
O O4 0.821765 0.500000 0.779486
O O5 0.821262 0.323649 0.683386
O O6 0.735272 0.250334 0.805859
O O7 0.000000 0.304186 0.779089
O O8 0.191245 0.500000 0.587123
O O9 0.261321 0.761591 0.562974
O O10 0.000000 0.684664 0.587320
O O11 0.500000 0.808450 0.132123
O O12 0.677136 0.000000 0.153524
O O13 0.500000 0.184750 0.500000
O O14 0.691069 0.000000 0.500000
#
# Coordination Sequence:
#
# PCOD9386761 Si02
#       7
#     4   1   8   8   1   8   4
#     4  11  23  41  60  89 115 150 191 245 294 345
#     4  10  28  38  62  94 116 138 190 252 304 326
#     4   9  21  39  62  87 117 148 191 241 289 339
#     4   9  19  39  62  87 113 149 192 241 288 339
#     4  10  20  38  66  86 108 150 198 236 292 342
#     4  11  24  40  59  84 119 158 193 234 285 346
#     4  11  24  37  54  84 122 157 190 235 284 340
#
# _framework density 18.045003000000001
#
# number of rings (size 3 to 8) (size 9 to 14) (size 15 to 20)
#    0.000    2.000    1.176    2.471    4.941    6.588 
#    0.000    7.647    0.000    0.000    0.000    0.000 
#    0.000    0.000    0.000    0.000    0.000    0.000 
#
# Total GULP energy -189288.920757 kJ/mol
# GULP energy per Si atom -5567.321199 kJ/mol
# Density = 1.800393 g / cm^3
# Si number density = 18.045003 Si / 1000 Ang^3
#
#
#
# Elastic Constant Matrix: (Units=GPa)
#
#
# Indices 1 2 3 4 5 6 
#
# 1 149.2573 89.4780 61.2047 0.0000 0.0000 0.0000
# 2 89.4780 110.9507 63.3456 0.0000 0.0000 0.0000
# 3 61.2047 63.3456 85.4317 0.0000 0.0000 0.0000
# 4 0.0000 0.0000 0.0000 -34.9333 0.0000 0.0000
# 5 0.0000 0.0000 0.0000 0.0000 -31.2808 0.0000
# 6 0.0000 0.0000 0.0000 0.0000 0.0000 43.6630
#
#
#
# Elastic Compliance Matrix: (Units=1/GPa)
#
#
# Indices 1 2 3 4 5 6 
#
# 1 0.013330 -0.009187 -0.002738 0.000000 0.000000 0.000000
# 2 -0.009187 0.021961 -0.009702 0.000000 0.000000 0.000000
# 3 -0.002738 -0.009702 0.020861 0.000000 0.000000 0.000000
# 4 0.000000 0.000000 0.000000 -0.028626 0.000000 0.000000
# 5 0.000000 0.000000 0.000000 0.000000 -0.031968 0.000000
# 6 0.000000 0.000000 0.000000 0.000000 0.000000 0.022903
#
#
# Mechanical properties :
#
#
# Convention : Reuss Voigt Hill
#
# Bulk Modulus (GPa) = 77.53164 85.96624 81.74894
# Shear Modulus (GPa) = 75.74201 4.26386 40.00294
#
# Velocity S-wave (km/s) = 6.48576 1.53884 4.71344
# Velocity P-wave (km/s) = 9.95720 7.13447 8.66160
#
# Compressibility (1/GPa) = 0.01289796
#
# Stress axis : x y z
#
# Youngs Moduli (GPa) = 75.01806 45.53458 47.93745
#
# Poissons Ratio (x) = 0.41833 0.13125
# Poissons Ratio (y) = 0.68920 0.46509
# Poissons Ratio (z) = 0.20539 0.44178
#
# Static dielectric constant tensor:
#      x y z
#    x 1.590720 0.000000 0.000000 
#    y 0.000000 1.589360 0.000000 
#    z 0.000000 0.000000 1.638590 
# 
# From -- ./inp_files/10517.got.cif
#   From: 2010.05.17/outbox.cif.g08.bks.cpg/sg47_6_cif.got.tgz:10517.got - 2010.06.03 20:15:42.
