data_PCOD9386316
_publ_section_title
;
Structure prediction by ZEFSAII (Michael W. Deem and Ramdas Pophale) SiO2 
 PCOD9386316
Probable space group: P M M M
;
_chemical_formula_sum "Si O2"
_cell_formula_units_Z 44
_cell_length_a 7.493026
_cell_length_b 14.543468
_cell_length_c 20.251872
_cell_angle_alpha 90.000000
_cell_angle_beta 90.000000
_cell_angle_gamma 90.000000
_cell_volume 2206.939323
_symmetry_space_group_name_H-M "P M M M"
_symmetry_group_IT_number 47
_symmetry_cell_setting 'orthorhombic'
loop_
_space_group_symop_operation_xyz
x,y,z
-x,-y,z
x,-y,-z
-x,y,-z
-x,-y,-z
x,y,-z
-x,y,z
x,-y,z
loop_
_atom_site_type_symbol
_atom_site_label
_atom_site_fract_x
_atom_site_fract_y
_atom_site_fract_z
Si Si1 0.282786 0.897338 0.277123
Si Si2 0.704535 0.288775 0.660563
Si Si3 0.208580 0.701701 0.071554
Si Si4 0.715809 0.102870 0.875736
Si Si5 0.216566 0.392554 0.205164
Si Si6 0.000000 0.607707 0.421165
O O1 0.500000 0.895557 0.276477
O O2 0.226436 0.813937 0.323303
O O3 0.227784 0.883024 0.200759
O O4 0.227195 0.000000 0.296976
O O5 0.500000 0.284558 0.637711
O O6 0.710564 0.340530 0.731066
O O7 0.829171 0.343036 0.610574
O O8 0.220590 0.811258 0.082214
O O9 0.281979 0.653448 0.137116
O O10 0.000000 0.676077 0.069842
O O11 0.286500 0.677403 0.000000
O O12 0.500000 0.104013 0.877111
O O13 0.772385 0.000000 0.896152
O O14 0.261287 0.500000 0.206751
O O15 0.000000 0.384307 0.208219
O O16 0.000000 0.500000 0.402440
O O17 0.000000 0.614673 0.500000
#
# Coordination Sequence:
#
# PCOD9386316 Si02
#       6
#     8   8   8   8   8   4
#     4   8  15  30  55  87 118 147 187 242 297 348
#     4  11  21  37  66  95 121 157 200 245 293 348
#     4  10  21  34  48  70 104 146 190 240 296 350
#     4   9  17  31  50  71  99 138 183 230 285 348
#     4  10  20  35  55  78 108 146 192 247 299 348
#     4  11  26  46  65  91 130 166 196 237 287 345
#
# _framework density 19.937114999999999
#
# number of rings (size 3 to 8) (size 9 to 14) (size 15 to 20)
#    0.000    2.273    2.727    1.636    0.000    3.273 
#    0.000    5.000    0.000    1.091    0.000    5.091 
#    0.000    0.000    0.000    0.000    0.000    0.000 
#
# Total GULP energy -245747.073075 kJ/mol
# GULP energy per Si atom -5585.160752 kJ/mol
# Density = 1.989174 g / cm^3
# Si number density = 19.937115 Si / 1000 Ang^3
#
#
#
# Elastic Constant Matrix: (Units=GPa)
#
#
# Indices 1 2 3 4 5 6 
#
# 1 71.8534 14.8646 21.3473 0.0000 0.0000 0.0000
# 2 14.8646 112.0685 45.6817 0.0000 0.0000 0.0000
# 3 21.3473 45.6817 76.7260 0.0000 0.0000 0.0000
# 4 0.0000 0.0000 0.0000 -22.8157 0.0000 0.0000
# 5 0.0000 0.0000 0.0000 0.0000 -22.1147 0.0000
# 6 0.0000 0.0000 0.0000 0.0000 0.0000 20.2502
#
#
#
# Elastic Compliance Matrix: (Units=1/GPa)
#
#
# Indices 1 2 3 4 5 6 
#
# 1 0.015184 -0.000385 -0.003995 0.000000 0.000000 0.000000
# 2 -0.000385 0.011792 -0.006914 0.000000 0.000000 0.000000
# 3 -0.003995 -0.006914 0.018261 0.000000 0.000000 0.000000
# 4 0.000000 0.000000 0.000000 -0.043829 0.000000 0.000000
# 5 0.000000 0.000000 0.000000 0.000000 -0.045219 0.000000
# 6 0.000000 0.000000 0.000000 0.000000 0.000000 0.049382
#
#
# Mechanical properties :
#
#
# Convention : Reuss Voigt Hill
#
# Bulk Modulus (GPa) = 44.15219 47.15944 45.65581
# Shear Modulus (GPa) = 140.01601 6.98091 73.49846
#
# Velocity S-wave (km/s) = 8.38936 1.87325 6.07825
# Velocity P-wave (km/s) = 10.77198 5.32768 8.49764
#
# Compressibility (1/GPa) = 0.02264893
#
# Stress axis : x y z
#
# Youngs Moduli (GPa) = 65.85925 84.79977 54.76044
#
# Poissons Ratio (x) = 0.03269 0.21877
# Poissons Ratio (y) = 0.02539 0.37861
# Poissons Ratio (z) = 0.26311 0.58629
#
# Static dielectric constant tensor:
#      x y z
#    x 1.767930 0.000000 0.000000 
#    y 0.000000 1.700840 0.000000 
#    z 0.000000 0.000000 1.671790 
# 
# From -- ./inp_files/26353.got.cif
#   From: 2010.05.17/outbox.cif.g08.bks.cpg/sg47_14_cif.got.tgz:26353.got - 2010.06.03 20:15:42.
