data_PCOD9386149
_publ_section_title
;
Structure prediction by ZEFSAII (Michael W. Deem and Ramdas Pophale) SiO2 
 PCOD9386149
Probable space group: P M M M
;
_chemical_formula_sum "Si O2"
_cell_formula_units_Z 52
_cell_length_a 16.176278
_cell_length_b 8.464156
_cell_length_c 19.928535
_cell_angle_alpha 90.000000
_cell_angle_beta 90.000000
_cell_angle_gamma 90.000000
_cell_volume 2728.585926
_symmetry_space_group_name_H-M "P M M M"
_symmetry_group_IT_number 47
_symmetry_cell_setting 'orthorhombic'
loop_
_space_group_symop_operation_xyz
x,y,z
-x,-y,z
x,-y,-z
-x,y,-z
-x,-y,-z
x,y,-z
-x,y,z
x,-y,z
loop_
_atom_site_type_symbol
_atom_site_label
_atom_site_fract_x
_atom_site_fract_y
_atom_site_fract_z
Si Si1 0.409315 0.812509 0.216459
Si Si2 0.640687 0.312281 0.924171
Si Si3 0.248068 0.311685 0.707111
Si Si4 0.500000 0.180218 0.418340
Si Si5 0.319471 0.191109 0.576584
Si Si6 0.826293 0.812700 0.075702
Si Si7 0.092080 0.690990 0.206482
O O1 0.500000 0.758019 0.240933
O O2 0.402648 0.774081 0.137374
O O3 0.330444 0.737197 0.252484
O O4 0.404358 0.000000 0.226691
O O5 0.626996 0.500000 0.918130
O O6 0.738468 0.275650 0.917299
O O7 0.616343 0.263399 0.000000
O O8 0.244835 0.500000 0.704633
O O9 0.255908 0.245678 0.632222
O O10 0.166471 0.253431 0.745714
O O11 0.500000 0.170396 0.500000
O O12 0.588861 0.251993 0.401954
O O13 0.500000 0.000000 0.391794
O O14 0.302712 0.241141 0.500000
O O15 0.324297 0.000000 0.576380
O O16 0.887558 0.753723 0.132527
O O17 0.810959 0.000000 0.083455
O O18 0.856889 0.784824 0.000000
O O19 0.094714 0.500000 0.204925
O O20 0.000000 0.739405 0.227621
#
# Coordination Sequence:
#
# PCOD9386149 Si02
#       7
#     8   8   8   4   8   8   8
#     4  11  24  39  56  80 112 152 195 236 280 334
#     4  10  20  35  56  80 109 147 190 237 287 334
#     4  11  23  38  58  84 115 148 184 234 286 334
#     4   7  12  26  49  77 107 141 180 215 252 309
#     4   9  18  34  57  83 113 151 190 226 270 330
#     4  10  20  34  55  83 113 145 183 230 285 343
#     4  10  22  40  60  82 110 148 191 233 286 347
#
# _framework density 19.057490999999999
#
# number of rings (size 3 to 8) (size 9 to 14) (size 15 to 20)
#    0.000    2.077    1.538    2.769    1.077    4.923 
#    0.000    3.077    0.000    1.846    0.000    3.231 
#    0.000    0.000    0.000    0.000    0.000    0.000 
#
# Total GULP energy -290326.468165 kJ/mol
# GULP energy per Si atom -5583.201311 kJ/mol
# Density = 1.901412 g / cm^3
# Si number density = 19.057491 Si / 1000 Ang^3
#
#
#
# Elastic Constant Matrix: (Units=GPa)
#
#
# Indices 1 2 3 4 5 6 
#
# 1 118.8586 17.0407 64.9449 0.0000 0.0000 0.0000
# 2 17.0407 17.6997 17.4178 0.0000 0.0000 0.0000
# 3 64.9449 17.4178 112.6405 0.0000 0.0000 0.0000
# 4 0.0000 0.0000 0.0000 29.8495 0.0000 0.0000
# 5 0.0000 0.0000 0.0000 0.0000 16.2086 0.0000
# 6 0.0000 0.0000 0.0000 0.0000 0.0000 22.4382
#
#
#
# Elastic Compliance Matrix: (Units=1/GPa)
#
#
# Indices 1 2 3 4 5 6 
#
# 1 0.012796 -0.005967 -0.006455 0.000000 0.000000 0.000000
# 2 -0.005967 0.069421 -0.007294 0.000000 0.000000 0.000000
# 3 -0.006455 -0.007294 0.013727 0.000000 0.000000 0.000000
# 4 0.000000 0.000000 0.000000 0.033501 0.000000 0.000000
# 5 0.000000 0.000000 0.000000 0.000000 0.061696 0.000000
# 6 0.000000 0.000000 0.000000 0.000000 0.000000 0.044567
#
#
# Mechanical properties :
#
#
# Convention : Reuss Voigt Hill
#
# Bulk Modulus (GPa) = 17.69544 49.77840 33.73692
# Shear Modulus (GPa) = 17.00804 23.68562 20.34683
#
# Velocity S-wave (km/s) = 2.99065 3.52923 3.27104
# Velocity P-wave (km/s) = 4.60768 6.54096 5.65751
#
# Compressibility (1/GPa) = 0.05651175
#
# Stress axis : x y z
#
# Youngs Moduli (GPa) = 78.14989 14.40479 72.84678
#
# Poissons Ratio (x) = 0.08596 0.47022
# Poissons Ratio (y) = 0.46635 0.53136
# Poissons Ratio (z) = 0.50446 0.10507
#
# Static dielectric constant tensor:
#      x y z
#    x 1.676380 0.000000 0.000000 
#    y 0.000000 1.652660 0.000000 
#    z 0.000000 0.000000 1.675650 
# 
# From -- ./inp_files/25037.got.cif
#   From: 2010.05.17/outbox.cif.g08.bks.cpg/sg47_13_cif.got.tgz:25037.got - 2010.06.03 20:15:42.
