data_PCOD9386072
_publ_section_title
;
Structure prediction by ZEFSAII (Michael W. Deem and Ramdas Pophale) SiO2 
 PCOD9386072
Probable space group: P M M M
;
_chemical_formula_sum "Si O2"
_cell_formula_units_Z 64
_cell_length_a 8.660475
_cell_length_b 14.860424
_cell_length_c 25.819824
_cell_angle_alpha 90.000000
_cell_angle_beta 90.000000
_cell_angle_gamma 90.000000
_cell_volume 3322.968244
_symmetry_space_group_name_H-M "P M M M"
_symmetry_group_IT_number 47
_symmetry_cell_setting 'orthorhombic'
loop_
_space_group_symop_operation_xyz
x,y,z
-x,-y,z
x,-y,-z
-x,y,-z
-x,-y,-z
x,y,-z
-x,y,z
x,-y,z
loop_
_atom_site_type_symbol
_atom_site_label
_atom_site_fract_x
_atom_site_fract_y
_atom_site_fract_z
Si Si1 0.686218 0.284046 0.557312
Si Si2 0.684038 0.603145 0.846368
Si Si3 0.183103 0.281012 0.245840
Si Si4 0.186838 0.706110 0.939119
Si Si5 0.183667 0.903698 0.062703
Si Si6 0.684417 0.101120 0.284000
Si Si7 0.814947 0.101147 0.599633
Si Si8 0.687084 0.395232 0.658048
O O1 0.735408 0.314172 0.500000
O O2 0.500000 0.282725 0.558495
O O3 0.745073 0.183242 0.567759
O O4 0.736657 0.348574 0.604208
O O5 0.500000 0.611343 0.841130
O O6 0.727173 0.500000 0.835530
O O7 0.765400 0.668396 0.805760
O O8 0.736602 0.631913 0.903429
O O9 0.251946 0.181023 0.249222
O O10 0.247059 0.338012 0.294474
O O11 0.000000 0.276025 0.249106
O O12 0.242003 0.805865 0.920691
O O13 0.000000 0.703114 0.934232
O O14 0.222315 0.696096 0.000000
O O15 0.000000 0.904428 0.073829
O O16 0.248876 0.000000 0.081296
O O17 0.196966 0.903353 0.000000
O O18 0.500000 0.109192 0.288890
O O19 0.757108 0.111095 0.341236
O O20 0.721327 0.000000 0.265476
O O21 0.000000 0.106789 0.598570
O O22 0.769968 0.000000 0.582201
O O23 0.500000 0.391548 0.660721
O O24 0.732528 0.500000 0.660702
#
# Coordination Sequence:
#
# PCOD9386072 Si02
#       8
#     8   8   8   8   8   8   8   8
#     4  10  21  36  55  81 114 154 198 242 290 348
#     4  11  25  43  61  82 112 153 200 247 295 349
#     4  12  24  39  63  91 118 148 187 238 293 349
#     4   9  18  34  58  88 120 154 193 239 293 350
#     4   7  10  20  43  76 111 145 181 220 264 319
#     4  10  20  36  61  90 120 154 189 228 279 342
#     4  10  20  34  54  82 115 152 193 236 286 342
#     4  10  21  38  60  84 112 149 193 240 293 353
#
# _framework density 19.259888
#
# number of rings (size 3 to 8) (size 9 to 14) (size 15 to 20)
#    0.000    2.125    1.250    3.750    0.000    5.500 
#    0.000    4.375    0.000    2.625    0.000    3.500 
#    0.000    0.000    0.000    0.000    0.000    0.000 
#
# Total GULP energy -357207.505137 kJ/mol
# GULP energy per Si atom -5581.367268 kJ/mol
# Density = 1.921605 g / cm^3
# Si number density = 19.259888 Si / 1000 Ang^3
#
#
#
# Elastic Constant Matrix: (Units=GPa)
#
#
# Indices 1 2 3 4 5 6 
#
# 1 16.4950 18.5545 13.8956 0.0000 0.0000 0.0000
# 2 18.5545 95.1930 35.3922 0.0000 0.0000 0.0000
# 3 13.8956 35.3922 55.6128 0.0000 0.0000 0.0000
# 4 0.0000 0.0000 0.0000 11.1856 0.0000 0.0000
# 5 0.0000 0.0000 0.0000 0.0000 25.5802 0.0000
# 6 0.0000 0.0000 0.0000 0.0000 0.0000 19.8411
#
#
#
# Elastic Compliance Matrix: (Units=1/GPa)
#
#
# Indices 1 2 3 4 5 6 
#
# 1 0.085286 -0.011397 -0.014057 0.000000 0.000000 0.000000
# 2 -0.011397 0.015284 -0.006879 0.000000 0.000000 0.000000
# 3 -0.014057 -0.006879 0.025872 0.000000 0.000000 0.000000
# 4 0.000000 0.000000 0.000000 0.089401 0.000000 0.000000
# 5 0.000000 0.000000 0.000000 0.000000 0.039093 0.000000
# 6 0.000000 0.000000 0.000000 0.000000 0.000000 0.050401
#
#
# Mechanical properties :
#
#
# Convention : Reuss Voigt Hill
#
# Bulk Modulus (GPa) = 16.18759 33.66506 24.92632
# Shear Modulus (GPa) = 12.80101 17.95192 15.37647
#
# Velocity S-wave (km/s) = 2.58087 3.05632 2.82860
# Velocity P-wave (km/s) = 4.15984 5.47468 4.86191
#
# Compressibility (1/GPa) = 0.06177572
#
# Stress axis : x y z
#
# Youngs Moduli (GPa) = 11.72523 65.42755 38.65245
#
# Poissons Ratio (x) = 0.74570 0.54332
# Poissons Ratio (y) = 0.13364 0.26589
# Poissons Ratio (z) = 0.16482 0.45008
#
# Static dielectric constant tensor:
#      x y z
#    x 1.650720 0.000000 0.000000 
#    y 0.000000 1.691020 0.000000 
#    z 0.000000 0.000000 1.667640 
# 
# From -- ./inp_files/12727.got.cif
#   From: 2010.05.17/outbox.cif.g08.bks.cpg/sg47_7_cif.got.tgz:12727.got - 2010.06.03 20:15:42.
