data_PCOD9386599
_publ_section_title
;
Structure prediction by ZEFSAII (Michael W. Deem and Ramdas Pophale) SiO2 
 PCOD9386599
Probable space group: P M M M
;
_chemical_formula_sum "Si O2"
_cell_formula_units_Z 48
_cell_length_a 18.953658
_cell_length_b 15.733522
_cell_length_c 8.883080
_cell_angle_alpha 90.000000
_cell_angle_beta 90.000000
_cell_angle_gamma 90.000000
_cell_volume 2649.003701
_symmetry_space_group_name_H-M "P M M M"
_symmetry_group_IT_number 47
_symmetry_cell_setting 'orthorhombic'
loop_
_space_group_symop_operation_xyz
x,y,z
-x,-y,z
x,-y,-z
-x,y,-z
-x,-y,-z
x,y,-z
-x,y,z
x,-y,z
loop_
_atom_site_type_symbol
_atom_site_label
_atom_site_fract_x
_atom_site_fract_y
_atom_site_fract_z
Si Si1 0.919020 0.000000 0.683607
Si Si2 0.831444 0.654623 0.820595
Si Si3 0.583263 0.000000 0.179965
Si Si4 0.082386 0.500000 0.680377
Si Si5 0.334664 0.342059 0.180132
Si Si6 0.830365 0.163770 0.319556
Si Si7 0.335766 0.840857 0.320327
Si Si8 0.416537 0.500000 0.679473
O O1 0.877716 0.084686 0.730506
O O2 0.918254 0.000000 0.500000
O O3 0.000000 0.000000 0.732820
O O4 0.878269 0.582664 0.744165
O O5 0.748224 0.641386 0.785688
O O6 0.849633 0.748312 0.760388
O O7 0.839664 0.650612 0.000000
O O8 0.619721 0.916655 0.248993
O O9 0.500000 0.000000 0.213680
O O10 0.592350 0.000000 0.000000
O O11 0.086816 0.500000 0.500000
O O12 0.000000 0.500000 0.723739
O O13 0.353757 0.250664 0.249841
O O14 0.380765 0.416964 0.249401
O O15 0.342426 0.339450 0.000000
O O16 0.838148 0.174545 0.500000
O O17 0.747760 0.145032 0.290495
O O18 0.345753 0.838840 0.500000
O O19 0.500000 0.500000 0.709059
O O20 0.405397 0.500000 0.500000
#
# Coordination Sequence:
#
# PCOD9386599 Si02
#       8
#     4   8   4   4   8   8   8   4
#     4   9  17  30  51  79 110 143 178 218 262 309
#     4  10  21  37  58  84 111 141 180 227 277 326
#     4  11  24  39  55  79 112 147 182 226 282 339
#     4  11  24  39  56  80 110 147 188 227 272 328
#     4  10  21  38  60  85 112 144 183 226 276 333
#     4   9  18  34  56  82 110 142 183 226 267 316
#     4  10  20  36  59  83 108 142 185 231 274 322
#     4  11  24  39  56  82 114 147 184 225 270 322
#
# _framework density 18.12002
#
# number of rings (size 3 to 8) (size 9 to 14) (size 15 to 20)
#    0.000    2.000    0.000    3.250    0.000    9.333 
#    0.000    2.083    0.000    0.500    0.000    0.000 
#    0.000    0.000    0.000    0.000    0.000    0.000 
#
# Total GULP energy -268179.713650 kJ/mol
# GULP energy per Si atom -5587.077368 kJ/mol
# Density = 1.807878 g / cm^3
# Si number density = 18.120020 Si / 1000 Ang^3
#
#
#
# Elastic Constant Matrix: (Units=GPa)
#
#
# Indices 1 2 3 4 5 6 
#
# 1 115.7085 133.4662 74.0171 0.0000 0.0000 0.0000
# 2 133.4662 212.1250 85.7904 0.0000 0.0000 0.0000
# 3 74.0171 85.7904 65.4732 0.0000 0.0000 0.0000
# 4 0.0000 0.0000 0.0000 -41.4777 0.0000 0.0000
# 5 0.0000 0.0000 0.0000 0.0000 24.5050 0.0000
# 6 0.0000 0.0000 0.0000 0.0000 0.0000 -20.8549
#
#
#
# Elastic Compliance Matrix: (Units=1/GPa)
#
#
# Indices 1 2 3 4 5 6 
#
# 1 0.053516 -0.019579 -0.034845 0.000000 0.000000 0.000000
# 2 -0.019579 0.017192 -0.000393 0.000000 0.000000 0.000000
# 3 -0.034845 -0.000393 0.055180 0.000000 0.000000 0.000000
# 4 0.000000 0.000000 0.000000 -0.024109 0.000000 0.000000
# 5 0.000000 0.000000 0.000000 0.000000 0.040808 0.000000
# 6 0.000000 0.000000 0.000000 0.000000 0.000000 -0.047950
#
#
# Mechanical properties :
#
#
# Convention : Reuss Voigt Hill
#
# Bulk Modulus (GPa) = 61.52132 108.87267 85.19700
# Shear Modulus (GPa) = 23.84503 -0.89665 11.47419
#
# Velocity S-wave (km/s) = 3.63154 -0.70421 2.51914
# Velocity P-wave (km/s) = 7.18400 7.71709 7.45531
#
# Compressibility (1/GPa) = 0.01625453
#
# Stress axis : x y z
#
# Youngs Moduli (GPa) = 18.68598 58.16650 18.12265
#
# Poissons Ratio (x) = 1.13886 0.63148
# Poissons Ratio (y) = 0.36586 0.00712
# Poissons Ratio (z) = 0.65111 0.02284
#
# Static dielectric constant tensor:
#      x y z
#    x 1.604530 0.000000 0.000000 
#    y 0.000000 1.583120 0.000000 
#    z 0.000000 0.000000 1.601040 
# 
# From -- ./inp_files/9300.got.cif
#   From: 2010.05.17/outbox.cif.g08.bks.cpg/sg47_5_cif.got.tgz:9300.got - 2010.06.03 20:15:42.
