data_PCOD9386272
_publ_section_title
;
Structure prediction by ZEFSAII (Michael W. Deem and Ramdas Pophale) SiO2 
 PCOD9386272
Probable space group: P M M M
;
_chemical_formula_sum "Si O2"
_cell_formula_units_Z 44
_cell_length_a 32.690187
_cell_length_b 8.205315
_cell_length_c 7.681415
_cell_angle_alpha 90.000000
_cell_angle_beta 90.000000
_cell_angle_gamma 90.000000
_cell_volume 2060.411154
_symmetry_space_group_name_H-M "P M M M"
_symmetry_group_IT_number 47
_symmetry_cell_setting 'orthorhombic'
loop_
_space_group_symop_operation_xyz
x,y,z
-x,-y,z
x,-y,-z
-x,y,-z
-x,-y,-z
x,y,-z
-x,y,z
x,-y,z
loop_
_atom_site_type_symbol
_atom_site_label
_atom_site_fract_x
_atom_site_fract_y
_atom_site_fract_z
Si Si1 0.000000 0.699833 0.796177
Si Si2 0.912150 0.314141 0.790440
Si Si3 0.547492 0.682605 0.212147
Si Si4 0.309278 0.000000 0.794322
Si Si5 0.597871 0.000000 0.213968
Si Si6 0.176144 0.819317 0.709035
Si Si7 0.741042 0.675407 0.290816
O O1 0.955903 0.752237 0.723169
O O2 0.000000 0.500000 0.789983
O O3 0.000000 0.747240 0.000000
O O4 0.907767 0.500000 0.726954
O O5 0.870351 0.223968 0.750794
O O6 0.915859 0.319508 0.000000
O O7 0.500000 0.704670 0.263057
O O8 0.560647 0.500000 0.267516
O O9 0.574617 0.835171 0.269786
O O10 0.548296 0.682774 0.000000
O O11 0.285034 0.835630 0.748323
O O12 0.355405 0.000000 0.723379
O O13 0.313197 0.000000 0.000000
O O14 0.597340 0.000000 0.000000
O O15 0.178829 0.820654 0.500000
O O16 0.212230 0.702314 0.772508
O O17 0.185441 0.000000 0.774882
O O18 0.742398 0.667276 0.500000
O O19 0.725293 0.500000 0.226202
#
# Coordination Sequence:
#
# PCOD9386272 Si02
#       7
#     4   8   8   4   4   8   8
#     4   7  12  26  46  67  96 132 164 195 236 294
#     4   9  17  30  50  75 100 128 164 204 248 302
#     4   8  13  22  38  60  89 132 183 222 251 299
#     4  11  23  36  53  82 118 147 175 222 280 335
#     4   9  17  27  40  63 100 142 173 207 264 323
#     4  10  20  35  54  74  98 128 165 213 264 311
#     4  10  21  40  63  79  99 140 188 229 271 325
#
# _framework density 21.354960999999999
#
# number of rings (size 3 to 8) (size 9 to 14) (size 15 to 20)
#    0.000    2.818    0.909    2.727    0.000    4.364 
#    0.000    2.727    0.000    4.364    0.000    0.000 
#    0.000    5.818    0.000   16.000    0.000   13.091 
#
# Total GULP energy -245329.093465 kJ/mol
# GULP energy per Si atom -5575.661215 kJ/mol
# Density = 2.130636 g / cm^3
# Si number density = 21.354961 Si / 1000 Ang^3
#
#
#
# Elastic Constant Matrix: (Units=GPa)
#
#
# Indices 1 2 3 4 5 6 
#
# 1 156.3200 103.5288 5.6698 0.0000 0.0000 0.0000
# 2 103.5288 170.1326 10.3034 0.0000 0.0000 0.0000
# 3 5.6698 10.3034 34.6773 0.0000 0.0000 0.0000
# 4 0.0000 0.0000 0.0000 6.3402 0.0000 0.0000
# 5 0.0000 0.0000 0.0000 0.0000 20.4214 0.0000
# 6 0.0000 0.0000 0.0000 0.0000 0.0000 -5.7904
#
#
#
# Elastic Compliance Matrix: (Units=1/GPa)
#
#
# Indices 1 2 3 4 5 6 
#
# 1 0.010717 -0.006533 0.000189 0.000000 0.000000 0.000000
# 2 -0.006533 0.009968 -0.001894 0.000000 0.000000 0.000000
# 3 0.000189 -0.001894 0.029369 0.000000 0.000000 0.000000
# 4 0.000000 0.000000 0.000000 0.157723 0.000000 0.000000
# 5 0.000000 0.000000 0.000000 0.000000 0.048968 0.000000
# 6 0.000000 0.000000 0.000000 0.000000 0.000000 -0.172701
#
#
# Mechanical properties :
#
#
# Convention : Reuss Voigt Hill
#
# Bulk Modulus (GPa) = 29.78082 66.68153 48.23117
# Shear Modulus (GPa) = 44.75784 20.30278 32.53031
#
# Velocity S-wave (km/s) = 4.58307 3.08673 3.90720
# Velocity P-wave (km/s) = 6.47934 6.63302 6.55663
#
# Compressibility (1/GPa) = 0.03357866
#
# Stress axis : x y z
#
# Youngs Moduli (GPa) = 93.31025 100.32277 34.04944
#
# Poissons Ratio (x) = 0.65540 -0.00643
# Poissons Ratio (y) = 0.60959 0.06447
# Poissons Ratio (z) = -0.01762 0.18996
#
# Static dielectric constant tensor:
#      x y z
#    x 1.775670 0.000000 0.000000 
#    y 0.000000 1.765840 0.000000 
#    z 0.000000 0.000000 1.798060 
# 
# From -- ./inp_files/13772.got.cif
#   From: 2010.05.17/outbox.cif.g08.bks.cpg/sg47_7_cif.got.tgz:13772.got - 2010.06.03 20:15:42.
