data_PCOD9386516
_publ_section_title
;
Structure prediction by ZEFSAII (Michael W. Deem and Ramdas Pophale) SiO2 
 PCOD9386516
Probable space group: P M M M
;
_chemical_formula_sum "Si O2"
_cell_formula_units_Z 48
_cell_length_a 13.870154
_cell_length_b 9.238993
_cell_length_c 18.972650
_cell_angle_alpha 90.000000
_cell_angle_beta 90.000000
_cell_angle_gamma 90.000000
_cell_volume 2431.274058
_symmetry_space_group_name_H-M "P M M M"
_symmetry_group_IT_number 47
_symmetry_cell_setting 'orthorhombic'
loop_
_space_group_symop_operation_xyz
x,y,z
-x,-y,z
x,-y,-z
-x,y,-z
-x,-y,-z
x,y,-z
-x,y,z
x,-y,z
loop_
_atom_site_type_symbol
_atom_site_label
_atom_site_fract_x
_atom_site_fract_y
_atom_site_fract_z
Si Si1 0.887206 0.827382 0.782090
Si Si2 0.617789 0.333197 0.000000
Si Si3 0.226400 0.825629 0.360067
Si Si4 0.382617 0.165816 0.141001
Si Si5 0.614868 0.669311 0.714005
Si Si6 0.882574 0.669323 0.922128
Si Si7 0.110785 0.176145 0.500000
O O1 0.834442 0.787880 0.709956
O O2 0.849087 0.754671 0.853441
O O3 0.000000 0.788961 0.774777
O O4 0.880919 0.000000 0.790024
O O5 0.647889 0.251430 0.071089
O O6 0.648814 0.500000 0.000000
O O7 0.500000 0.333908 0.000000
O O8 0.327134 0.745509 0.348577
O O9 0.168297 0.781852 0.429710
O O10 0.239265 0.000000 0.361376
O O11 0.500000 0.160718 0.137993
O O12 0.359864 0.248386 0.213239
O O13 0.347922 0.000000 0.142210
O O14 0.500000 0.681527 0.704498
O O15 0.639351 0.500000 0.719864
O O16 0.858485 0.500000 0.915510
O O17 0.000000 0.679358 0.922246
O O18 0.851283 0.720483 0.000000
O O19 0.000000 0.226865 0.500000
O O20 0.107361 0.000000 0.500000
#
# Coordination Sequence:
#
# PCOD9386516 Si02
#       7
#     8   4   8   8   8   8   4
#     4   9  17  29  48  77 110 141 175 218 269 326
#     4   9  15  23  39  67 103 141 182 229 284 345
#     4  10  20  35  58  86 114 145 184 227 275 334
#     4   9  16  27  46  72 101 136 182 236 289 338
#     4  10  21  37  56  78 107 146 190 236 288 342
#     4   8  14  25  42  66  98 138 182 223 264 314
#     4   9  18  36  64  95 124 152 181 219 272 335
#
# _framework density 19.742735
#
# number of rings (size 3 to 8) (size 9 to 14) (size 15 to 20)
#    0.000    2.833    0.000    2.250    0.000    7.000 
#    0.000    2.500    1.833    4.500    0.000    0.000 
#    0.000    0.000    0.000    0.000    0.000    0.000 
#
# Total GULP energy -268113.401566 kJ/mol
# GULP energy per Si atom -5585.695866 kJ/mol
# Density = 1.969780 g / cm^3
# Si number density = 19.742735 Si / 1000 Ang^3
#
#
#
# Elastic Constant Matrix: (Units=GPa)
#
#
# Indices 1 2 3 4 5 6 
#
# 1 79.9153 39.1627 60.0071 0.0000 0.0000 0.0000
# 2 39.1627 77.7222 66.8713 0.0000 0.0000 0.0000
# 3 60.0071 66.8713 170.3787 0.0000 0.0000 0.0000
# 4 0.0000 0.0000 0.0000 -30.6407 0.0000 0.0000
# 5 0.0000 0.0000 0.0000 0.0000 36.7529 0.0000
# 6 0.0000 0.0000 0.0000 0.0000 0.0000 15.0648
#
#
#
# Elastic Compliance Matrix: (Units=1/GPa)
#
#
# Indices 1 2 3 4 5 6 
#
# 1 0.018503 -0.005611 -0.004314 0.000000 0.000000 0.000000
# 2 -0.005611 0.021128 -0.006316 0.000000 0.000000 0.000000
# 3 -0.004314 -0.006316 0.009868 0.000000 0.000000 0.000000
# 4 0.000000 0.000000 0.000000 -0.032636 0.000000 0.000000
# 5 0.000000 0.000000 0.000000 0.000000 0.027209 0.000000
# 6 0.000000 0.000000 0.000000 0.000000 0.000000 0.066380
#
#
# Mechanical properties :
#
#
# Convention : Reuss Voigt Hill
#
# Bulk Modulus (GPa) = 58.77125 73.34428 66.05776
# Shear Modulus (GPa) = 33.64604 15.03373 24.33988
#
# Velocity S-wave (km/s) = 4.13270 2.76249 3.51501
# Velocity P-wave (km/s) = 7.25296 6.88519 7.07147
#
# Compressibility (1/GPa) = 0.01701512
#
# Stress axis : x y z
#
# Youngs Moduli (GPa) = 54.04673 47.33032 101.33968
#
# Poissons Ratio (x) = 0.26558 0.43721
# Poissons Ratio (y) = 0.30326 0.64009
# Poissons Ratio (z) = 0.23317 0.29895
#
# Static dielectric constant tensor:
#      x y z
#    x 1.761850 0.000000 0.000000 
#    y 0.000000 1.658000 0.000000 
#    z 0.000000 0.000000 1.655460 
# 
# From -- ./inp_files/28003.got.cif
#   From: 2010.05.17/outbox.cif.g08.bks.cpg/sg47_15_cif.got.tgz:28003.got - 2010.06.03 20:15:42.
