data_PCOD9386870
_publ_section_title
;
Structure prediction by ZEFSAII (Michael W. Deem and Ramdas Pophale) SiO2 
 PCOD9386870
Probable space group: P M M M
;
_chemical_formula_sum "Si O2"
_cell_formula_units_Z 52
_cell_length_a 18.579508
_cell_length_b 19.432604
_cell_length_c 8.037966
_cell_angle_alpha 90.000000
_cell_angle_beta 90.000000
_cell_angle_gamma 90.000000
_cell_volume 2902.093329
_symmetry_space_group_name_H-M "P M M M"
_symmetry_group_IT_number 47
_symmetry_cell_setting 'orthorhombic'
loop_
_space_group_symop_operation_xyz
x,y,z
-x,-y,z
x,-y,-z
-x,y,-z
-x,-y,-z
x,y,-z
-x,y,z
x,-y,z
loop_
_atom_site_type_symbol
_atom_site_label
_atom_site_fract_x
_atom_site_fract_y
_atom_site_fract_z
Si Si1 0.912507 0.078773 0.000000
Si Si2 0.345461 0.784654 0.699994
Si Si3 0.726990 0.576260 0.802268
Si Si4 0.579386 0.352550 0.299185
Si Si5 0.417643 0.076377 0.200103
Si Si6 0.799575 0.713057 0.300711
Si Si7 0.086113 0.822924 0.695380
O O1 0.892081 0.119700 0.168566
O O2 0.000000 0.076823 0.000000
O O3 0.886507 0.000000 0.000000
O O4 0.344217 0.782538 0.500000
O O5 0.401501 0.725472 0.755462
O O6 0.368245 0.860447 0.749901
O O7 0.267487 0.759518 0.761224
O O8 0.741878 0.500000 0.733570
O O9 0.647077 0.601030 0.750645
O O10 0.783376 0.635512 0.753506
O O11 0.727562 0.572759 0.000000
O O12 0.577719 0.352801 0.500000
O O13 0.500000 0.373296 0.238855
O O14 0.500000 0.088218 0.258426
O O15 0.395145 0.000000 0.258011
O O16 0.419501 0.074654 0.000000
O O17 0.795725 0.711941 0.500000
O O18 0.872602 0.752619 0.257893
O O19 0.103443 0.839715 0.500000
O O20 0.000000 0.814690 0.704772
#
# Coordination Sequence:
#
# PCOD9386870 Si02
#       7
#     4   8   8   8   8   8   8
#     4   9  18  32  52  82 115 145 178 213 257 313
#     4   9  17  30  47  67  91 118 155 203 248 295
#     4  10  21  34  49  73 102 132 167 208 257 313
#     4   9  18  32  49  69  94 126 165 208 255 308
#     4   9  18  31  44  60  86 120 158 200 245 293
#     4   9  19  35  54  75  99 131 169 209 255 309
#     4   9  18  34  57  83 110 143 183 224 264 310
#
# _framework density 17.918099999999999
#
# number of rings (size 3 to 8) (size 9 to 14) (size 15 to 20)
#    0.000    2.846    0.000    2.308    1.077    5.846 
#    0.000    4.615    0.000    3.231    0.000    3.231 
#    0.000    0.000    0.000    0.000    0.000    0.000 
#
# Total GULP energy -289656.683656 kJ/mol
# GULP energy per Si atom -5570.320840 kJ/mol
# Density = 1.787732 g / cm^3
# Si number density = 17.918100 Si / 1000 Ang^3
#
#
#
# Elastic Constant Matrix: (Units=GPa)
#
#
# Indices 1 2 3 4 5 6 
#
# 1 44.4205 50.2904 29.5503 0.0000 0.0000 0.0000
# 2 50.2904 166.9878 38.7330 0.0000 0.0000 0.0000
# 3 29.5503 38.7330 41.4040 0.0000 0.0000 0.0000
# 4 0.0000 0.0000 0.0000 27.1323 0.0000 0.0000
# 5 0.0000 0.0000 0.0000 0.0000 12.9562 0.0000
# 6 0.0000 0.0000 0.0000 0.0000 0.0000 12.1823
#
#
#
# Elastic Compliance Matrix: (Units=1/GPa)
#
#
# Indices 1 2 3 4 5 6 
#
# 1 0.051525 -0.008924 -0.028425 0.000000 0.000000 0.000000
# 2 -0.008924 0.009194 -0.002231 0.000000 0.000000 0.000000
# 3 -0.028425 -0.002231 0.046527 0.000000 0.000000 0.000000
# 4 0.000000 0.000000 0.000000 0.036856 0.000000 0.000000
# 5 0.000000 0.000000 0.000000 0.000000 0.077183 0.000000
# 6 0.000000 0.000000 0.000000 0.000000 0.000000 0.082086
#
#
# Mechanical properties :
#
#
# Convention : Reuss Voigt Hill
#
# Bulk Modulus (GPa) = 35.60732 54.43997 45.02364
# Shear Modulus (GPa) = 12.75851 19.40340 16.08095
#
# Velocity S-wave (km/s) = 2.67131 3.29431 2.99903
# Velocity P-wave (km/s) = 5.42494 6.70213 6.09707
#
# Compressibility (1/GPa) = 0.02808411
#
# Stress axis : x y z
#
# Youngs Moduli (GPa) = 19.40796 108.77088 21.49283
#
# Poissons Ratio (x) = 0.97069 0.61094
# Poissons Ratio (y) = 0.17320 0.04796
# Poissons Ratio (z) = 0.55168 0.24271
#
# Static dielectric constant tensor:
#      x y z
#    x 1.617500 0.000000 0.000000 
#    y 0.000000 1.627090 0.000000 
#    z 0.000000 0.000000 1.636680 
# 
# From -- ./inp_files/9582.got.cif
#   From: 2010.05.17/outbox.cif.g08.bks.cpg/sg47_5_cif.got.tgz:9582.got - 2010.06.03 20:15:42.
