data_PCOD9386809
_publ_section_title
;
Structure prediction by ZEFSAII (Michael W. Deem and Ramdas Pophale) SiO2 
 PCOD9386809
Probable space group: P M M M
;
_chemical_formula_sum "Si O2"
_cell_formula_units_Z 56
_cell_length_a 19.803537
_cell_length_b 19.457796
_cell_length_c 7.993181
_cell_angle_alpha 90.000000
_cell_angle_beta 90.000000
_cell_angle_gamma 90.000000
_cell_volume 3080.037877
_symmetry_space_group_name_H-M "P M M M"
_symmetry_group_IT_number 47
_symmetry_cell_setting 'orthorhombic'
loop_
_space_group_symop_operation_xyz
x,y,z
-x,-y,z
x,-y,-z
-x,y,-z
-x,-y,-z
x,y,-z
-x,y,z
x,-y,z
loop_
_atom_site_type_symbol
_atom_site_label
_atom_site_fract_x
_atom_site_fract_y
_atom_site_fract_z
Si Si1 0.577543 0.075889 0.201419
Si Si2 0.218328 0.718509 0.701636
Si Si3 0.075159 0.722951 0.307700
Si Si4 0.643449 0.217061 0.700852
Si Si5 0.284557 0.576781 0.801091
Si Si6 0.424723 0.356428 0.702732
Si Si7 0.080971 0.574393 0.190739
O O1 0.500000 0.084869 0.259426
O O2 0.620352 0.141371 0.253169
O O3 0.600879 0.000000 0.258565
O O4 0.576327 0.074582 0.000000
O O5 0.214868 0.724745 0.500000
O O6 0.146419 0.745824 0.769980
O O7 0.282361 0.761943 0.763825
O O8 0.237555 0.638943 0.737355
O O9 0.071609 0.746165 0.500000
O O10 0.088375 0.640762 0.303696
O O11 0.000000 0.735008 0.232467
O O12 0.645271 0.221261 0.500000
O O13 0.592833 0.278043 0.756143
O O14 0.270605 0.500000 0.734930
O O15 0.362057 0.597470 0.761023
O O16 0.276759 0.575237 0.000000
O O17 0.424372 0.358335 0.500000
O O18 0.500000 0.376094 0.759465
O O19 0.106960 0.500000 0.247898
O O20 0.000000 0.568336 0.178114
O O21 0.105848 0.586791 0.000000
#
# Coordination Sequence:
#
# PCOD9386809 Si02
#       7
#     8   8   8   8   8   8   8
#     4   9  18  31  46  68  99 129 152 175 206 244
#     4   9  19  34  48  63  86 116 148 183 226 275
#     4   9  17  29  45  63  81 103 135 176 220 266
#     4   9  17  30  47  66  90 119 150 181 211 250
#     4  10  21  34  46  62  84 111 148 193 234 272
#     4   9  18  32  49  68  89 115 148 185 227 273
#     4   8  14  24  36  51  74 102 128 159 207 263
#
# _framework density 18.181594
#
# number of rings (size 3 to 8) (size 9 to 14) (size 15 to 20)
#    0.000    3.000    0.000    2.571    0.000    6.571 
#    0.000    6.429    0.000    0.000    0.000    0.000 
#    0.000    0.571    0.000    7.143    0.000    1.143 
#
# Total GULP energy -311787.502430 kJ/mol
# GULP energy per Si atom -5567.633972 kJ/mol
# Density = 1.814021 g / cm^3
# Si number density = 18.181594 Si / 1000 Ang^3
#
#
#
# Elastic Constant Matrix: (Units=GPa)
#
#
# Indices 1 2 3 4 5 6 
#
# 1 145.9116 35.2598 5.6624 0.0000 0.0000 0.0000
# 2 35.2598 81.4647 -1.9304 0.0000 0.0000 0.0000
# 3 5.6624 -1.9304 12.8444 0.0000 0.0000 0.0000
# 4 0.0000 0.0000 0.0000 16.7542 0.0000 0.0000
# 5 0.0000 0.0000 0.0000 0.0000 1.8798 0.0000
# 6 0.0000 0.0000 0.0000 0.0000 0.0000 5.5088
#
#
#
# Elastic Compliance Matrix: (Units=1/GPa)
#
#
# Indices 1 2 3 4 5 6 
#
# 1 0.007852 -0.003493 -0.003987 0.000000 0.000000 0.000000
# 2 -0.003493 0.013873 0.003625 0.000000 0.000000 0.000000
# 3 -0.003987 0.003625 0.080157 0.000000 0.000000 0.000000
# 4 0.000000 0.000000 0.000000 0.059687 0.000000 0.000000
# 5 0.000000 0.000000 0.000000 0.000000 0.531983 0.000000
# 6 0.000000 0.000000 0.000000 0.000000 0.000000 0.181529
#
#
# Mechanical properties :
#
#
# Convention : Reuss Voigt Hill
#
# Bulk Modulus (GPa) = 10.61877 35.35602 22.98740
# Shear Modulus (GPa) = 5.46937 18.24380 11.85659
#
# Velocity S-wave (km/s) = 1.73630 3.17112 2.55643
# Velocity P-wave (km/s) = 3.14209 5.73553 4.62434
#
# Compressibility (1/GPa) = 0.09417284
#
# Stress axis : x y z
#
# Youngs Moduli (GPa) = 127.35135 72.08213 12.47550
#
# Poissons Ratio (x) = 0.25179 0.04974
# Poissons Ratio (y) = 0.44485 -0.04522
# Poissons Ratio (z) = 0.50770 -0.26129
#
# Static dielectric constant tensor:
#      x y z
#    x 1.699410 0.000000 0.000000 
#    y 0.000000 1.616550 0.000000 
#    z 0.000000 0.000000 1.653750 
# 
# From -- ./inp_files/11526.got.cif
#   From: 2010.05.17/outbox.cif.g08.bks.cpg/sg47_6_cif.got.tgz:11526.got - 2010.06.03 20:15:42.
