data_PCOD9386813
_publ_section_title
;
Structure prediction by ZEFSAII (Michael W. Deem and Ramdas Pophale) SiO2 
 PCOD9386813
Probable space group: P M M M
;
_chemical_formula_sum "Si O2"
_cell_formula_units_Z 64
_cell_length_a 7.444252
_cell_length_b 21.878753
_cell_length_c 18.985635
_cell_angle_alpha 90.000000
_cell_angle_beta 90.000000
_cell_angle_gamma 90.000000
_cell_volume 3092.208424
_symmetry_space_group_name_H-M "P M M M"
_symmetry_group_IT_number 47
_symmetry_cell_setting 'orthorhombic'
loop_
_space_group_symop_operation_xyz
x,y,z
-x,-y,z
x,-y,-z
-x,y,-z
-x,-y,-z
x,y,-z
-x,y,z
x,-y,z
loop_
_atom_site_type_symbol
_atom_site_label
_atom_site_fract_x
_atom_site_fract_y
_atom_site_fract_z
Si Si1 0.210529 0.934048 0.853616
Si Si2 0.282220 0.934353 0.313639
Si Si3 0.213568 0.680831 0.078824
Si Si4 0.216727 0.801178 0.842967
Si Si5 0.280916 0.431329 0.658535
Si Si6 0.280091 0.690236 0.580555
Si Si7 0.284339 0.432098 0.180048
Si Si8 0.714041 0.801709 0.323776
O O1 0.225610 0.934300 0.768401
O O2 0.284563 0.866902 0.871735
O O3 0.000000 0.934449 0.872820
O O4 0.286647 0.000000 0.877575
O O5 0.500000 0.933609 0.314716
O O6 0.218425 0.869644 0.344052
O O7 0.223948 0.000000 0.344074
O O8 0.285087 0.742177 0.115658
O O9 0.238319 0.621849 0.127434
O O10 0.000000 0.689738 0.073516
O O11 0.284822 0.671965 0.000000
O O12 0.256598 0.794208 0.759886
O O13 0.000000 0.803404 0.848428
O O14 0.500000 0.431325 0.657838
O O15 0.224862 0.500000 0.637840
O O16 0.221793 0.375519 0.610212
O O17 0.224272 0.420556 0.739604
O O18 0.225857 0.699307 0.500000
O O19 0.500000 0.690005 0.582189
O O20 0.216906 0.745057 0.631008
O O21 0.500000 0.434353 0.182723
O O22 0.220883 0.500000 0.158672
O O23 0.500000 0.802508 0.334625
#
# Coordination Sequence:
#
# PCOD9386813 Si02
#       8
#     8   8   8   8   8   8   8   8
#     4   8  13  22  38  60  83 105 133 173 216 252
#     4   8  13  21  34  54  79 104 132 169 211 251
#     4  10  21  34  46  63  90 121 147 173 209 254
#     4   9  17  29  45  64  86 113 145 179 214 254
#     4   8  14  25  41  61  84 108 134 167 207 247
#     4   9  16  24  36  57  84 112 140 169 202 243
#     4   9  18  33  52  71  89 110 140 180 220 254
#     4   9  16  26  42  62  83 109 141 177 214 250
#
# _framework density 20.697182000000002
#
# number of rings (size 3 to 8) (size 9 to 14) (size 15 to 20)
#    0.000    3.250    0.000    1.500    0.000    2.500 
#    0.000    2.500    0.000    1.125    0.000    5.250 
#    0.000    0.000    0.000   52.375    0.000   29.000 
#
# Total GULP energy -356615.351039 kJ/mol
# GULP energy per Si atom -5572.114860 kJ/mol
# Density = 2.065007 g / cm^3
# Si number density = 20.697182 Si / 1000 Ang^3
#
#
#
# Elastic Constant Matrix: (Units=GPa)
#
#
# Indices 1 2 3 4 5 6 
#
# 1 62.0719 37.0789 23.4177 0.0000 0.0000 0.0000
# 2 37.0789 -522.9212 -476.4622 0.0000 0.0000 0.0000
# 3 23.4177 -476.4622 -358.7391 0.0000 0.0000 0.0000
# 4 0.0000 0.0000 0.0000 -9.3531 0.0000 0.0000
# 5 0.0000 0.0000 0.0000 0.0000 8.7003 0.0000
# 6 0.0000 0.0000 0.0000 0.0000 0.0000 -38.3087
#
#
#
# Elastic Compliance Matrix: (Units=1/GPa)
#
#
# Indices 1 2 3 4 5 6 
#
# 1 0.015804 -0.000859 0.002173 0.000000 0.000000 0.000000
# 2 -0.000859 0.009146 -0.012204 0.000000 0.000000 0.000000
# 3 0.002173 -0.012204 0.013563 0.000000 0.000000 0.000000
# 4 0.000000 0.000000 0.000000 -0.106916 0.000000 0.000000
# 5 0.000000 0.000000 0.000000 0.000000 0.114938 0.000000
# 6 0.000000 0.000000 0.000000 0.000000 0.000000 -0.026104
#
#
# Mechanical properties :
#
#
# Convention : Reuss Voigt Hill
#
# Bulk Modulus (GPa) = 59.76275 -183.50218 -61.86971
# Shear Modulus (GPa) = 104.62720 -34.70048 34.96336
#
# Velocity S-wave (km/s) = 7.11767 -4.09905 4.11455
# Velocity P-wave (km/s) = 9.82272 10.54779 2.71755
#
# Compressibility (1/GPa) = 0.01673283
#
# Stress axis : x y z
#
# Youngs Moduli (GPa) = 63.27551 109.33443 73.73080
#
# Poissons Ratio (x) = 0.09397 -0.16023
# Poissons Ratio (y) = 0.05438 0.89979
# Poissons Ratio (z) = -0.13751 1.33429
#
# Static dielectric constant tensor:
#      x y z
#    x 1.793190 0.000000 0.000000 
#    y 0.000000 1.792210 0.000000 
#    z 0.000000 0.000000 1.680700 
# 
# From -- ./inp_files/10002.got.cif
#   From: 2010.05.17/outbox.cif.g08.bks.cpg/sg47_6_cif.got.tgz:10002.got - 2010.06.03 20:15:42.
