data_PCOD9386345
_publ_section_title
;
Structure prediction by ZEFSAII (Michael W. Deem and Ramdas Pophale) SiO2 
 PCOD9386345
Probable space group: P M M M
;
_chemical_formula_sum "Si O2"
_cell_formula_units_Z 44
_cell_length_a 8.263356
_cell_length_b 7.497159
_cell_length_c 31.892217
_cell_angle_alpha 90.000000
_cell_angle_beta 90.000000
_cell_angle_gamma 90.000000
_cell_volume 1975.776862
_symmetry_space_group_name_H-M "P M M M"
_symmetry_group_IT_number 47
_symmetry_cell_setting 'orthorhombic'
loop_
_space_group_symop_operation_xyz
x,y,z
-x,-y,z
x,-y,-z
-x,y,-z
-x,-y,-z
x,y,-z
-x,y,z
x,-y,z
loop_
_atom_site_type_symbol
_atom_site_label
_atom_site_fract_x
_atom_site_fract_y
_atom_site_fract_z
Si Si1 0.500000 0.718488 0.218137
Si Si2 0.500000 0.717408 0.684656
Si Si3 0.174396 0.293644 0.174974
Si Si4 0.689257 0.282953 0.453681
Si Si5 0.820535 0.717986 0.365174
Si Si6 0.319589 0.209516 0.909149
Si Si7 0.816577 0.286967 0.000000
O O1 0.500000 0.500000 0.215309
O O2 0.500000 0.767737 0.266771
O O3 0.663423 0.782938 0.195534
O O4 0.500000 0.500000 0.682684
O O5 0.334842 0.776119 0.661764
O O6 0.168781 0.500000 0.188447
O O7 0.199973 0.290709 0.124871
O O8 0.000000 0.212476 0.185431
O O9 0.743050 0.223875 0.500000
O O10 0.500000 0.233628 0.448376
O O11 0.693481 0.500000 0.453868
O O12 0.789348 0.225868 0.413298
O O13 0.819273 0.500000 0.364372
O O14 0.000000 0.774128 0.351069
O O15 0.500000 0.283498 0.902768
O O16 0.322025 0.000000 0.900309
O O17 0.269949 0.231975 0.957253
O O18 0.821347 0.500000 0.000000
O O19 0.000000 0.217729 0.000000
#
# Coordination Sequence:
#
# PCOD9386345 Si02
#       7
#     4   4   8   8   8   8   4
#     4   9  18  32  49  67  90 118 151 199 249 298
#     4   9  16  26  37  51  73  98 127 171 230 286
#     4  10  20  35  56  79 102 133 172 209 253 308
#     4   8  12  18  27  37  53  81 117 158 207 266
#     4   9  15  21  30  44  63  89 122 163 216 278
#     4  11  23  38  57  82 111 143 179 216 257 302
#     4  11  24  39  56  82 114 149 186 218 253 299
#
# _framework density 22.269722999999999
#
# number of rings (size 3 to 8) (size 9 to 14) (size 15 to 20)
#    0.000    2.455    1.818    2.182    0.000    6.545 
#    0.000    5.455    0.000    0.000    0.000    0.000 
#    0.000    0.000    0.000    0.000    0.000    0.000 
#
# Total GULP energy -245716.500642 kJ/mol
# GULP energy per Si atom -5584.465924 kJ/mol
# Density = 2.221904 g / cm^3
# Si number density = 22.269723 Si / 1000 Ang^3
#
#
#
# Elastic Constant Matrix: (Units=GPa)
#
#
# Indices 1 2 3 4 5 6 
#
# 1 206.8657 7.8875 88.2012 0.0000 0.0000 0.0000
# 2 7.8875 64.5284 -4.7031 0.0000 0.0000 0.0000
# 3 88.2012 -4.7031 133.6801 0.0000 0.0000 0.0000
# 4 0.0000 0.0000 0.0000 12.1987 0.0000 0.0000
# 5 0.0000 0.0000 0.0000 0.0000 9.2395 0.0000
# 6 0.0000 0.0000 0.0000 0.0000 0.0000 44.3679
#
#
#
# Elastic Compliance Matrix: (Units=1/GPa)
#
#
# Indices 1 2 3 4 5 6 
#
# 1 0.006812 -0.001163 -0.004536 0.000000 0.000000 0.000000
# 2 -0.001163 0.015736 0.001321 0.000000 0.000000 0.000000
# 3 -0.004536 0.001321 0.010520 0.000000 0.000000 0.000000
# 4 0.000000 0.000000 0.000000 0.081976 0.000000 0.000000
# 5 0.000000 0.000000 0.000000 0.000000 0.108230 0.000000
# 6 0.000000 0.000000 0.000000 0.000000 0.000000 0.022539
#
#
# Mechanical properties :
#
#
# Convention : Reuss Voigt Hill
#
# Bulk Modulus (GPa) = 41.13216 65.31617 53.22416
# Shear Modulus (GPa) = 19.03513 34.07379 26.55446
#
# Velocity S-wave (km/s) = 2.92679 3.91583 3.45686
# Velocity P-wave (km/s) = 5.47097 7.05962 6.31545
#
# Compressibility (1/GPa) = 0.02431188
#
# Stress axis : x y z
#
# Youngs Moduli (GPa) = 146.79443 63.55044 95.06081
#
# Poissons Ratio (x) = 0.07393 0.43116
# Poissons Ratio (y) = 0.17076 -0.12559
# Poissons Ratio (z) = 0.66580 -0.08396
#
# Static dielectric constant tensor:
#      x y z
#    x 1.824240 0.000000 0.000000 
#    y 0.000000 1.849430 0.000000 
#    z 0.000000 0.000000 1.788260 
# 
# From -- ./inp_files/33969.got.cif
#   From: 2010.05.17/outbox.cif.g08.bks.cpg/sg47_17_cif.got.tgz:33969.got - 2010.06.03 20:15:42.
