data_PCOD9386560
_publ_section_title
;
Structure prediction by ZEFSAII (Michael W. Deem and Ramdas Pophale) SiO2 
 PCOD9386560
Probable space group: P M M M
;
_chemical_formula_sum "Si O2"
_cell_formula_units_Z 64
_cell_length_a 7.997575
_cell_length_b 25.329587
_cell_length_c 15.386310
_cell_angle_alpha 90.000000
_cell_angle_beta 90.000000
_cell_angle_gamma 90.000000
_cell_volume 3116.885930
_symmetry_space_group_name_H-M "P M M M"
_symmetry_group_IT_number 47
_symmetry_cell_setting 'orthorhombic'
loop_
_space_group_symop_operation_xyz
x,y,z
-x,-y,z
x,-y,-z
-x,y,-z
-x,-y,-z
x,y,-z
-x,y,z
x,-y,z
loop_
_atom_site_type_symbol
_atom_site_label
_atom_site_fract_x
_atom_site_fract_y
_atom_site_fract_z
Si Si1 0.295985 0.560015 0.899622
Si Si2 0.799812 0.918850 0.905607
Si Si3 0.201440 0.942799 0.713548
Si Si4 0.306595 0.363739 0.749093
Si Si5 0.195552 0.752300 0.275134
Si Si6 0.697571 0.157374 0.402038
Si Si7 0.200547 0.792505 0.093170
Si Si8 0.799198 0.438048 0.401589
O O1 0.500000 0.560115 0.896380
O O2 0.243443 0.500000 0.875173
O O3 0.237358 0.605164 0.833523
O O4 0.247667 0.569129 0.000000
O O5 0.734318 0.938708 0.813184
O O6 0.779794 0.855555 0.903306
O O7 0.000000 0.929841 0.906656
O O8 0.733691 0.937071 0.000000
O O9 0.245418 0.892078 0.656485
O O10 0.000000 0.942756 0.718916
O O11 0.254836 0.000000 0.677263
O O12 0.500000 0.350505 0.765971
O O13 0.217076 0.310241 0.720402
O O14 0.292463 0.404602 0.670429
O O15 0.267476 0.787927 0.351959
O O16 0.270421 0.768650 0.181420
O O17 0.000000 0.765882 0.273760
O O18 0.769950 0.156622 0.500000
O O19 0.500000 0.152318 0.409085
O O20 0.000000 0.782319 0.092189
O O21 0.268287 0.773440 0.000000
O O22 0.755348 0.422227 0.500000
O O23 0.762131 0.500000 0.391942
O O24 0.000000 0.431683 0.391705
#
# Coordination Sequence:
#
# PCOD9386560 Si02
#       8
#     8   8   8   8   8   8   8   8
#     4   8  15  30  52  78 112 156 200 236 273 322
#     4   8  13  25  49  82 117 148 179 217 261 311
#     4  10  20  35  59  91 121 149 186 229 271 325
#     4  11  22  34  53  84 118 149 186 231 278 332
#     4  11  22  38  60  83 110 146 186 230 281 334
#     4  11  25  44  63  81 106 143 187 236 291 346
#     4   8  14  27  51  80 107 138 177 220 265 315
#     4   9  19  37  59  81 107 141 181 226 278 334
#
# _framework density 20.533315999999999
#
# number of rings (size 3 to 8) (size 9 to 14) (size 15 to 20)
#    0.000    2.500    1.250    3.000    0.000    3.750 
#    0.000    3.125    0.000    3.375    0.000    5.250 
#    0.000    0.000    0.000    0.000    0.000    0.000 
#
# Total GULP energy -356945.318289 kJ/mol
# GULP energy per Si atom -5577.270598 kJ/mol
# Density = 2.048658 g / cm^3
# Si number density = 20.533316 Si / 1000 Ang^3
#
#
#
# Elastic Constant Matrix: (Units=GPa)
#
#
# Indices 1 2 3 4 5 6 
#
# 1 18.4868 6.7150 12.8326 0.0000 0.0000 0.0000
# 2 6.7150 87.1404 68.9102 0.0000 0.0000 0.0000
# 3 12.8326 68.9102 143.3685 0.0000 0.0000 0.0000
# 4 0.0000 0.0000 0.0000 -14.9689 0.0000 0.0000
# 5 0.0000 0.0000 0.0000 0.0000 -108.8043 0.0000
# 6 0.0000 0.0000 0.0000 0.0000 0.0000 2.8525
#
#
#
# Elastic Compliance Matrix: (Units=1/GPa)
#
#
# Indices 1 2 3 4 5 6 
#
# 1 0.057695 -0.000584 -0.004883 0.000000 0.000000 0.000000
# 2 -0.000584 0.018518 -0.008848 0.000000 0.000000 0.000000
# 3 -0.004883 -0.008848 0.011665 0.000000 0.000000 0.000000
# 4 0.000000 0.000000 0.000000 -0.066805 0.000000 0.000000
# 5 0.000000 0.000000 0.000000 0.000000 -0.009191 0.000000
# 6 0.000000 0.000000 0.000000 0.000000 0.000000 0.350569
#
#
# Mechanical properties :
#
#
# Convention : Reuss Voigt Hill
#
# Bulk Modulus (GPa) = 16.87882 47.32348 32.10115
# Shear Modulus (GPa) = 12.17045 -13.48160 -0.65558
#
# Velocity S-wave (km/s) = 2.43722 -2.56515 -0.56566
# Velocity P-wave (km/s) = 4.01971 3.78469 3.90397
#
# Compressibility (1/GPa) = 0.05924586
#
# Stress axis : x y z
#
# Youngs Moduli (GPa) = 17.33266 54.00137 85.72551
#
# Poissons Ratio (x) = 0.03154 0.41863
# Poissons Ratio (y) = 0.01012 0.75854
# Poissons Ratio (z) = 0.08464 0.47783
#
# Static dielectric constant tensor:
#      x y z
#    x 1.757440 0.000000 0.000000 
#    y 0.000000 1.713430 0.000000 
#    z 0.000000 0.000000 1.761220 
# 
# From -- ./inp_files/21905.got.cif
#   From: 2010.05.17/outbox.cif.g08.bks.cpg/sg47_11_cif.got.tgz:21905.got - 2010.06.03 20:15:42.
