data_PCOD9386051
_publ_section_title
;
Structure prediction by ZEFSAII (Michael W. Deem and Ramdas Pophale) SiO2 
 PCOD9386051
Probable space group: P M M M
;
_chemical_formula_sum "Si O2"
_cell_formula_units_Z 48
_cell_length_a 9.096031
_cell_length_b 31.754094
_cell_length_c 9.101390
_cell_angle_alpha 90.000000
_cell_angle_beta 90.000000
_cell_angle_gamma 90.000000
_cell_volume 2628.811115
_symmetry_space_group_name_H-M "P M M M"
_symmetry_group_IT_number 47
_symmetry_cell_setting 'orthorhombic'
loop_
_space_group_symop_operation_xyz
x,y,z
-x,-y,z
x,-y,-z
-x,y,-z
-x,-y,-z
x,y,-z
-x,y,z
x,-y,z
loop_
_atom_site_type_symbol
_atom_site_label
_atom_site_fract_x
_atom_site_fract_y
_atom_site_fract_z
Si Si1 0.326255 0.746313 0.176070
Si Si2 0.675462 0.086280 0.325713
Si Si3 0.830722 0.500000 0.178756
Si Si4 0.173619 0.666535 0.675420
Si Si5 0.173489 0.165706 0.175513
Si Si6 0.326395 0.586514 0.176838
Si Si7 0.321057 0.000000 0.169167
O O1 0.500000 0.746509 0.207038
O O2 0.247891 0.708073 0.257774
O O3 0.254718 0.791011 0.217305
O O4 0.307126 0.740988 0.000000
O O5 0.697714 0.083796 0.500000
O O6 0.500000 0.091038 0.298709
O O7 0.758259 0.126009 0.258068
O O8 0.724891 0.042680 0.250510
O O9 0.747553 0.457495 0.223704
O O10 0.000000 0.500000 0.227624
O O11 0.830574 0.500000 0.000000
O O12 0.191999 0.665965 0.500000
O O13 0.249085 0.625685 0.745912
O O14 0.000000 0.666450 0.709073
O O15 0.000000 0.169411 0.204506
O O16 0.193926 0.159922 0.000000
O O17 0.500000 0.586032 0.208091
O O18 0.308760 0.590516 0.000000
O O19 0.500000 0.000000 0.171525
O O20 0.273535 0.000000 0.000000
#
# Coordination Sequence:
#
# PCOD9386051 Si02
#       7
#     8   8   4   8   8   8   4
#     4  10  21  38  61  86 109 138 180 227 273 323
#     4  10  20  34  54  81 112 145 181 222 270 324
#     4   9  17  31  54  83 112 143 180 224 274 325
#     4  11  24  39  55  79 112 148 184 223 270 324
#     4  10  21  37  57  81 109 142 180 222 269 321
#     4  10  20  35  57  84 112 143 182 227 273 323
#     4   9  17  31  54  81 108 141 182 228 274 319
#
# _framework density 18.259205999999999
#
# number of rings (size 3 to 8) (size 9 to 14) (size 15 to 20)
#    0.000    2.000    0.000    3.500    0.000   10.000 
#    0.000    0.833    0.000    5.000    0.000    0.000 
#    0.000    0.000    0.000    0.000    0.000    0.000 
#
# Total GULP energy -268166.641014 kJ/mol
# GULP energy per Si atom -5586.805021 kJ/mol
# Density = 1.821765 g / cm^3
# Si number density = 18.259206 Si / 1000 Ang^3
#
#
#
# Elastic Constant Matrix: (Units=GPa)
#
#
# Indices 1 2 3 4 5 6 
#
# 1 136.1741 119.6193 78.6575 0.0000 0.0000 0.0000
# 2 119.6193 228.0982 85.6412 0.0000 0.0000 0.0000
# 3 78.6575 85.6412 55.7600 0.0000 0.0000 0.0000
# 4 0.0000 0.0000 0.0000 -29.2711 0.0000 0.0000
# 5 0.0000 0.0000 0.0000 0.0000 25.5499 0.0000
# 6 0.0000 0.0000 0.0000 0.0000 0.0000 315.6322
#
#
#
# Elastic Compliance Matrix: (Units=1/GPa)
#
#
# Indices 1 2 3 4 5 6 
#
# 1 0.039680 0.000489 -0.056724 0.000000 0.000000 0.000000
# 2 0.000489 0.010362 -0.016604 0.000000 0.000000 0.000000
# 3 -0.056724 -0.016604 0.123455 0.000000 0.000000 0.000000
# 4 0.000000 0.000000 0.000000 -0.034163 0.000000 0.000000
# 5 0.000000 0.000000 0.000000 0.000000 0.039139 0.000000
# 6 0.000000 0.000000 0.000000 0.000000 0.000000 0.003168
#
#
# Mechanical properties :
#
#
# Convention : Reuss Voigt Hill
#
# Bulk Modulus (GPa) = 35.95065 109.76315 72.85690
# Shear Modulus (GPa) = 14.85478 71.45649 43.15564
#
# Velocity S-wave (km/s) = 2.85537 6.26254 4.86686
# Velocity P-wave (km/s) = 5.53197 10.60834 8.45990
#
# Compressibility (1/GPa) = 0.02781591
#
# Stress axis : x y z
#
# Youngs Moduli (GPa) = 25.20193 96.50681 8.10015
#
# Poissons Ratio (x) = -0.04718 0.45948
# Poissons Ratio (y) = -0.01232 0.13450
# Poissons Ratio (z) = 1.42957 1.60244
#
# Static dielectric constant tensor:
#      x y z
#    x 1.609230 0.000000 0.000000 
#    y 0.000000 1.588160 0.000000 
#    z 0.000000 0.000000 1.607570 
# 
# From -- ./inp_files/2570.got.cif
#   From: 2010.05.17/outbox.cif.g08.bks.cpg/sg47_2_cif.got.tgz:2570.got - 2010.06.03 20:15:42.
