data_PCOD9386185
_publ_section_title
;
Structure prediction by ZEFSAII (Michael W. Deem and Ramdas Pophale) SiO2 
 PCOD9386185
Probable space group: P M M M
;
_chemical_formula_sum "Si O2"
_cell_formula_units_Z 64
_cell_length_a 8.041581
_cell_length_b 16.015308
_cell_length_c 24.744154
_cell_angle_alpha 90.000000
_cell_angle_beta 90.000000
_cell_angle_gamma 90.000000
_cell_volume 3186.759917
_symmetry_space_group_name_H-M "P M M M"
_symmetry_group_IT_number 47
_symmetry_cell_setting 'orthorhombic'
loop_
_space_group_symop_operation_xyz
x,y,z
-x,-y,z
x,-y,-z
-x,y,-z
-x,-y,-z
x,y,-z
-x,y,z
x,-y,z
loop_
_atom_site_type_symbol
_atom_site_label
_atom_site_fract_x
_atom_site_fract_y
_atom_site_fract_z
Si Si1 0.200511 0.849817 0.440429
Si Si2 0.700605 0.751703 0.256671
Si Si3 0.798766 0.591683 0.325348
Si Si4 0.697636 0.749891 0.865807
Si Si5 0.301383 0.909268 0.675226
Si Si6 0.799431 0.093963 0.938091
Si Si7 0.799578 0.593989 0.061749
Si Si8 0.202123 0.347061 0.559090
O O1 0.255394 0.879390 0.500000
O O2 0.269408 0.895304 0.388211
O O3 0.243088 0.751309 0.436266
O O4 0.000000 0.855878 0.438896
O O5 0.500000 0.757961 0.255107
O O6 0.742895 0.666873 0.287691
O O7 0.765016 0.751229 0.195349
O O8 0.765509 0.830938 0.290865
O O9 0.744268 0.500000 0.306827
O O10 0.740017 0.607384 0.386969
O O11 0.000000 0.592797 0.326360
O O12 0.500000 0.748607 0.862150
O O13 0.746309 0.832657 0.898627
O O14 0.749479 0.667273 0.898259
O O15 0.500000 0.910453 0.683131
O O16 0.234256 0.000000 0.691665
O O17 0.000000 0.093083 0.938899
O O18 0.743570 0.000000 0.922777
O O19 0.743748 0.110016 0.000000
O O20 0.743129 0.500000 0.076833
O O21 0.000000 0.592408 0.060538
O O22 0.742835 0.610819 0.000000
O O23 0.260016 0.377082 0.500000
O O24 0.000000 0.352642 0.558576
#
# Coordination Sequence:
#
# PCOD9386185 Si02
#       8
#     8   8   8   8   8   8   8   8
#     4   9  17  31  53  79 106 135 166 208 267 328
#     4  10  23  41  55  72 105 147 184 222 270 317
#     4  10  20  34  56  83 106 134 177 225 268 315
#     4  11  23  36  55  83 112 146 188 230 273 320
#     4  10  21  37  56  75  98 135 182 225 265 313
#     4   9  19  37  60  86 117 150 181 216 264 323
#     4   9  19  37  60  85 114 148 183 220 268 325
#     4   8  14  27  49  77 107 134 161 204 265 325
#
# _framework density 20.083093999999999
#
# number of rings (size 3 to 8) (size 9 to 14) (size 15 to 20)
#    0.000    2.500    1.250    2.250    0.000    5.750 
#    0.000    7.500    0.000    0.375    0.000    0.875 
#    0.000    0.000    0.000    0.000    0.000    0.000 
#
# Total GULP energy -357137.340581 kJ/mol
# GULP energy per Si atom -5580.270947 kJ/mol
# Density = 2.003738 g / cm^3
# Si number density = 20.083094 Si / 1000 Ang^3
#
#
#
# Elastic Constant Matrix: (Units=GPa)
#
#
# Indices 1 2 3 4 5 6 
#
# 1 13.1979 14.2014 11.0331 0.0000 0.0000 0.0000
# 2 14.2014 181.2324 121.1684 0.0000 0.0000 0.0000
# 3 11.0331 121.1684 162.1197 0.0000 0.0000 0.0000
# 4 0.0000 0.0000 0.0000 -8.1684 0.0000 0.0000
# 5 0.0000 0.0000 0.0000 0.0000 21.1716 0.0000
# 6 0.0000 0.0000 0.0000 0.0000 0.0000 236.5105
#
#
#
# Elastic Compliance Matrix: (Units=1/GPa)
#
#
# Indices 1 2 3 4 5 6 
#
# 1 0.082947 -0.005448 -0.001573 0.000000 0.000000 0.000000
# 2 -0.005448 0.011387 -0.008140 0.000000 0.000000 0.000000
# 3 -0.001573 -0.008140 0.012359 0.000000 0.000000 0.000000
# 4 0.000000 0.000000 0.000000 -0.122424 0.000000 0.000000
# 5 0.000000 0.000000 0.000000 0.000000 0.047233 0.000000
# 6 0.000000 0.000000 0.000000 0.000000 0.000000 0.004228
#
#
# Mechanical properties :
#
#
# Convention : Reuss Voigt Hill
#
# Bulk Modulus (GPa) = 13.09394 72.15066 42.62230
# Shear Modulus (GPa) = 54.63932 63.91254 59.27593
#
# Velocity S-wave (km/s) = 5.22166 5.64740 5.43870
# Velocity P-wave (km/s) = 6.54891 8.86162 7.79155
#
# Compressibility (1/GPa) = 0.07637123
#
# Stress axis : x y z
#
# Youngs Moduli (GPa) = 12.05585 87.82168 80.91303
#
# Poissons Ratio (x) = 0.47845 0.12729
# Poissons Ratio (y) = 0.06568 0.65861
# Poissons Ratio (z) = 0.01897 0.71484
#
# Static dielectric constant tensor:
#      x y z
#    x 1.723630 0.000000 0.000000 
#    y 0.000000 1.718200 0.000000 
#    z 0.000000 0.000000 1.703270 
# 
# From -- ./inp_files/7823.got.cif
#   From: 2010.05.17/outbox.cif.g08.bks.cpg/sg47_4_cif.got.tgz:7823.got - 2010.06.03 20:15:42.
