data_PCOD9386234
_publ_section_title
;
Structure prediction by ZEFSAII (Michael W. Deem and Ramdas Pophale) SiO2 
 PCOD9386234
Probable space group: P M M M
;
_chemical_formula_sum "Si O2"
_cell_formula_units_Z 56
_cell_length_a 8.470448
_cell_length_b 14.882463
_cell_length_c 21.876855
_cell_angle_alpha 90.000000
_cell_angle_beta 90.000000
_cell_angle_gamma 90.000000
_cell_volume 2757.821039
_symmetry_space_group_name_H-M "P M M M"
_symmetry_group_IT_number 47
_symmetry_cell_setting 'orthorhombic'
loop_
_space_group_symop_operation_xyz
x,y,z
-x,-y,z
x,-y,-z
-x,y,-z
-x,-y,-z
x,y,-z
-x,y,z
x,-y,z
loop_
_atom_site_type_symbol
_atom_site_label
_atom_site_fract_x
_atom_site_fract_y
_atom_site_fract_z
Si Si1 0.809074 0.603402 0.314748
Si Si2 0.309984 0.101105 0.755008
Si Si3 0.316517 0.289268 0.068829
Si Si4 0.691171 0.708962 0.567225
Si Si5 0.691444 0.099191 0.388831
Si Si6 0.187556 0.287215 0.196518
Si Si7 0.820758 0.901837 0.073032
O O1 0.757569 0.500000 0.313495
O O2 0.753114 0.651757 0.376265
O O3 0.751014 0.656228 0.254522
O O4 0.000000 0.605254 0.313797
O O5 0.500000 0.104112 0.760834
O O6 0.271566 0.112287 0.682996
O O7 0.239367 0.183987 0.791944
O O8 0.257000 0.000000 0.771434
O O9 0.500000 0.311858 0.068065
O O10 0.240309 0.326183 0.130838
O O11 0.293048 0.182327 0.079447
O O12 0.251518 0.309293 0.000000
O O13 0.739463 0.676010 0.500000
O O14 0.500000 0.708346 0.569744
O O15 0.744542 0.812590 0.575701
O O16 0.500000 0.096819 0.393384
O O17 0.748581 0.000000 0.408035
O O18 0.000000 0.289834 0.197702
O O19 0.000000 0.883815 0.096237
O O20 0.766308 0.000000 0.094681
O O21 0.835957 0.908856 0.000000
#
# Coordination Sequence:
#
# PCOD9386234 Si02
#       7
#     8   8   8   8   8   8   8
#     4  10  23  43  63  83 109 144 187 232 282 341
#     4   9  17  31  53  79 109 148 190 230 274 327
#     4  10  21  35  52  76 106 140 176 217 271 336
#     4  10  20  34  57  90 123 153 189 234 278 322
#     4   8  14  27  49  78 114 154 191 227 269 317
#     4  11  22  36  58  83 107 141 185 234 282 329
#     4   8  14  26  44  66  96 136 180 223 263 305
#
# _framework density 20.305886999999998
#
# number of rings (size 3 to 8) (size 9 to 14) (size 15 to 20)
#    0.000    2.571    1.429    2.143    0.000    3.714 
#    0.000    4.286    0.000    0.857    0.000    4.000 
#    0.000    0.000    0.000    0.000    0.000    0.000 
#
# Total GULP energy -312174.990701 kJ/mol
# GULP energy per Si atom -5574.553405 kJ/mol
# Density = 2.025967 g / cm^3
# Si number density = 20.305887 Si / 1000 Ang^3
#
#
#
# Elastic Constant Matrix: (Units=GPa)
#
#
# Indices 1 2 3 4 5 6 
#
# 1 14.8620 11.2445 22.9741 0.0000 0.0000 0.0000
# 2 11.2445 84.1776 69.2785 0.0000 0.0000 0.0000
# 3 22.9741 69.2785 172.5017 0.0000 0.0000 0.0000
# 4 0.0000 0.0000 0.0000 -2.4984 0.0000 0.0000
# 5 0.0000 0.0000 0.0000 0.0000 24.5640 0.0000
# 6 0.0000 0.0000 0.0000 0.0000 0.0000 17.8917
#
#
#
# Elastic Compliance Matrix: (Units=1/GPa)
#
#
# Indices 1 2 3 4 5 6 
#
# 1 0.085251 -0.003053 -0.010128 0.000000 0.000000 0.000000
# 2 -0.003053 0.017854 -0.006764 0.000000 0.000000 0.000000
# 3 -0.010128 -0.006764 0.009862 0.000000 0.000000 0.000000
# 4 0.000000 0.000000 0.000000 -0.400256 0.000000 0.000000
# 5 0.000000 0.000000 0.000000 0.000000 0.040710 0.000000
# 6 0.000000 0.000000 0.000000 0.000000 0.000000 0.055892
#
#
# Mechanical properties :
#
#
# Convention : Reuss Voigt Hill
#
# Bulk Modulus (GPa) = 13.68382 53.17061 33.42722
# Shear Modulus (GPa) = -39.54511 19.19440 -10.17536
#
# Velocity S-wave (km/s) = -4.41780 3.07785 -2.24096
# Velocity P-wave (km/s) = 4.38967 6.23478 3.13076
#
# Compressibility (1/GPa) = 0.07307900
#
# Stress axis : x y z
#
# Youngs Moduli (GPa) = 11.73000 56.00964 101.39587
#
# Poissons Ratio (x) = 0.17098 1.02694
# Poissons Ratio (y) = 0.03581 0.68582
# Poissons Ratio (z) = 0.11880 0.37884
#
# Static dielectric constant tensor:
#      x y z
#    x 1.717200 0.000000 0.000000 
#    y 0.000000 1.728250 0.000000 
#    z 0.000000 0.000000 1.774270 
# 
# From -- ./inp_files/29720.got.cif
#   From: 2010.05.17/outbox.cif.g08.bks.cpg/sg47_15_cif.got.tgz:29720.got - 2010.06.03 20:15:42.
