data_PCOD9386170
_publ_section_title
;
Structure prediction by ZEFSAII (Michael W. Deem and Ramdas Pophale) SiO2 
 PCOD9386170
Probable space group: P M M M
;
_chemical_formula_sum "Si O2"
_cell_formula_units_Z 56
_cell_length_a 14.353817
_cell_length_b 21.743821
_cell_length_c 8.910123
_cell_angle_alpha 90.000000
_cell_angle_beta 90.000000
_cell_angle_gamma 90.000000
_cell_volume 2780.910222
_symmetry_space_group_name_H-M "P M M M"
_symmetry_group_IT_number 47
_symmetry_cell_setting 'orthorhombic'
loop_
_space_group_symop_operation_xyz
x,y,z
-x,-y,z
x,-y,-z
-x,y,-z
-x,-y,-z
x,y,-z
-x,y,z
x,-y,z
loop_
_atom_site_type_symbol
_atom_site_label
_atom_site_fract_x
_atom_site_fract_y
_atom_site_fract_z
Si Si1 0.891745 0.257060 0.821985
Si Si2 0.299068 0.932030 0.679706
Si Si3 0.611229 0.187801 0.825442
Si Si4 0.293935 0.570149 0.176194
Si Si5 0.896833 0.573406 0.330937
Si Si6 0.707792 0.694571 0.322280
Si Si7 0.105100 0.875543 0.677557
O O1 0.814823 0.295318 0.732035
O O2 0.879068 0.185961 0.773543
O O3 0.000000 0.271107 0.787759
O O4 0.877028 0.264613 0.000000
O O5 0.313442 0.928558 0.500000
O O6 0.350939 0.875337 0.755554
O O7 0.188643 0.922240 0.706669
O O8 0.328232 0.000000 0.731057
O O9 0.500000 0.189062 0.813886
O O10 0.653781 0.246908 0.743542
O O11 0.638366 0.190773 0.000000
O O12 0.318375 0.500000 0.226913
O O13 0.183770 0.578703 0.209015
O O14 0.332967 0.629862 0.261002
O O15 0.313447 0.574073 0.000000
O O16 0.870797 0.595816 0.500000
O O17 0.904980 0.500000 0.345808
O O18 0.000000 0.596511 0.291587
O O19 0.703363 0.695491 0.500000
O O20 0.110250 0.858760 0.500000
O O21 0.000000 0.898395 0.705990
#
# Coordination Sequence:
#
# PCOD9386170 Si02
#       7
#     8   8   8   8   8   8   8
#     4  10  20  34  55  84 119 159 204 254 303 353
#     4  10  21  37  60  93 131 170 209 250 299 353
#     4  11  25  45  68  92 119 154 199 251 309 371
#     4  10  21  36  55  81 114 152 193 239 294 356
#     4   8  14  26  44  67 100 144 192 239 285 336
#     4  12  24  39  63  90 119 157 200 249 305 364
#     4   9  17  31  53  83 122 167 211 251 294 347
#
# _framework density 20.137291000000001
#
# number of rings (size 3 to 8) (size 9 to 14) (size 15 to 20)
#    0.000    2.000    1.429    3.000    0.000    4.571 
#    0.000    4.286    0.000    0.429    0.000    6.000 
#    0.000    0.000    0.000    0.000    0.000    0.000 
#
# Total GULP energy -312510.930820 kJ/mol
# GULP energy per Si atom -5580.552336 kJ/mol
# Density = 2.009146 g / cm^3
# Si number density = 20.137291 Si / 1000 Ang^3
#
#
#
# Elastic Constant Matrix: (Units=GPa)
#
#
# Indices 1 2 3 4 5 6 
#
# 1 34.9851 42.6750 30.7150 0.0000 0.0000 0.0000
# 2 42.6750 181.8021 76.3557 0.0000 0.0000 0.0000
# 3 30.7150 76.3557 87.0674 0.0000 0.0000 0.0000
# 4 0.0000 0.0000 0.0000 24.9627 0.0000 0.0000
# 5 0.0000 0.0000 0.0000 0.0000 23.5821 0.0000
# 6 0.0000 0.0000 0.0000 0.0000 0.0000 -0.7680
#
#
#
# Elastic Compliance Matrix: (Units=1/GPa)
#
#
# Indices 1 2 3 4 5 6 
#
# 1 0.045470 -0.006232 -0.010576 0.000000 0.000000 0.000000
# 2 -0.006232 0.009562 -0.006187 0.000000 0.000000 0.000000
# 3 -0.010576 -0.006187 0.020642 0.000000 0.000000 0.000000
# 4 0.000000 0.000000 0.000000 0.040060 0.000000 0.000000
# 5 0.000000 0.000000 0.000000 0.000000 0.042405 0.000000
# 6 0.000000 0.000000 0.000000 0.000000 0.000000 -1.302030
#
#
# Mechanical properties :
#
#
# Convention : Reuss Voigt Hill
#
# Bulk Modulus (GPa) = 33.68694 67.03845 50.36270
# Shear Modulus (GPa) = -4.59555 19.82928 7.61686
#
# Velocity S-wave (km/s) = -1.51230 3.14140 1.94697
# Velocity P-wave (km/s) = 3.70345 6.82062 5.48800
#
# Compressibility (1/GPa) = 0.02968509
#
# Stress axis : x y z
#
# Youngs Moduli (GPa) = 21.99263 104.58300 48.44485
#
# Poissons Ratio (x) = 0.65172 0.51233
# Poissons Ratio (y) = 0.13705 0.29973
# Poissons Ratio (z) = 0.23258 0.64706
#
# Static dielectric constant tensor:
#      x y z
#    x 1.723940 0.000000 0.000000 
#    y 0.000000 1.751520 0.000000 
#    z 0.000000 0.000000 1.692990 
# 
# From -- ./inp_files/7355.got.cif
#   From: 2010.05.17/outbox.cif.g08.bks.cpg/sg47_4_cif.got.tgz:7355.got - 2010.06.03 20:15:42.
