data_PCOD9386110
_publ_section_title
;
Structure prediction by ZEFSAII (Michael W. Deem and Ramdas Pophale) SiO2 
 PCOD9386110
Probable space group: P M M M
;
_chemical_formula_sum "Si O2"
_cell_formula_units_Z 64
_cell_length_a 25.935911
_cell_length_b 8.073765
_cell_length_c 15.222411
_cell_angle_alpha 90.000000
_cell_angle_beta 90.000000
_cell_angle_gamma 90.000000
_cell_volume 3187.579721
_symmetry_space_group_name_H-M "P M M M"
_symmetry_group_IT_number 47
_symmetry_cell_setting 'orthorhombic'
loop_
_space_group_symop_operation_xyz
x,y,z
-x,-y,z
x,-y,-z
-x,y,-z
-x,-y,-z
x,y,-z
-x,y,z
x,-y,z
loop_
_atom_site_type_symbol
_atom_site_label
_atom_site_fract_x
_atom_site_fract_y
_atom_site_fract_z
Si Si1 0.942135 0.699756 0.898378
Si Si2 0.692411 0.302718 0.903872
Si Si3 0.748702 0.802921 0.728504
Si Si4 0.657447 0.302885 0.600135
Si Si5 0.134839 0.199943 0.251840
Si Si6 0.575639 0.194680 0.095632
Si Si7 0.058164 0.797858 0.400618
Si Si8 0.556118 0.799883 0.708873
O O1 0.942684 0.500000 0.896994
O O2 0.895365 0.756717 0.837307
O O3 0.000000 0.755907 0.869081
O O4 0.935707 0.751859 0.000000
O O5 0.683700 0.500000 0.896157
O O6 0.724923 0.241749 0.822592
O O7 0.637236 0.214454 0.901780
O O8 0.716217 0.270822 0.000000
O O9 0.709089 0.742280 0.653967
O O10 0.807243 0.737494 0.731874
O O11 0.750777 0.000000 0.718980
O O12 0.657444 0.235665 0.500000
O O13 0.655847 0.500000 0.595081
O O14 0.606335 0.250624 0.654098
O O15 0.098579 0.262173 0.330154
O O16 0.137117 0.000000 0.255529
O O17 0.558139 0.262686 0.189857
O O18 0.562061 0.000000 0.094551
O O19 0.559282 0.264875 0.000000
O O20 0.070275 0.747340 0.500000
O O21 0.000000 0.745233 0.379362
O O22 0.058469 0.000000 0.399282
O O23 0.500000 0.750530 0.671320
O O24 0.557452 0.000000 0.712896
#
# Coordination Sequence:
#
# PCOD9386110 Si02
#       8
#     8   8   8   8   8   8   8   8
#     4   9  19  36  56  79 112 156 200 238 282 337
#     4  10  20  34  55  81 109 145 187 228 272 326
#     4  11  23  38  57  83 114 149 189 235 290 348
#     4  11  25  44  64  84 109 147 195 243 293 349
#     4  10  21  34  53  83 113 142 183 234 283 334
#     4   9  17  31  54  84 118 153 185 219 264 323
#     4   8  14  27  49  76 105 135 167 209 265 326
#     4  10  21  37  60  91 123 154 189 231 283 343
#
# _framework density 20.077929000000001
#
# number of rings (size 3 to 8) (size 9 to 14) (size 15 to 20)
#    0.000    2.250    1.250    2.250    0.000    5.500 
#    0.000    6.875    0.000    0.375    0.000    4.375 
#    0.000    0.000    0.000    0.000    0.000    0.000 
#
# Total GULP energy -356977.253794 kJ/mol
# GULP energy per Si atom -5577.769591 kJ/mol
# Density = 2.003223 g / cm^3
# Si number density = 20.077929 Si / 1000 Ang^3
#
#
#
# Elastic Constant Matrix: (Units=GPa)
#
#
# Indices 1 2 3 4 5 6 
#
# 1 172.9163 17.4366 111.6242 0.0000 0.0000 0.0000
# 2 17.4366 22.2945 11.1261 0.0000 0.0000 0.0000
# 3 111.6242 11.1261 151.3860 0.0000 0.0000 0.0000
# 4 0.0000 0.0000 0.0000 17.3707 0.0000 0.0000
# 5 0.0000 0.0000 0.0000 0.0000 -78.5305 0.0000
# 6 0.0000 0.0000 0.0000 0.0000 0.0000 -24.3796
#
#
#
# Elastic Compliance Matrix: (Units=1/GPa)
#
#
# Indices 1 2 3 4 5 6 
#
# 1 0.011542 -0.004962 -0.008146 0.000000 0.000000 0.000000
# 2 -0.004962 0.048695 0.000080 0.000000 0.000000 0.000000
# 3 -0.008146 0.000080 0.012606 0.000000 0.000000 0.000000
# 4 0.000000 0.000000 0.000000 0.057568 0.000000 0.000000
# 5 0.000000 0.000000 0.000000 0.000000 -0.012734 0.000000
# 6 0.000000 0.000000 0.000000 0.000000 0.000000 -0.041018
#
#
# Mechanical properties :
#
#
# Convention : Reuss Voigt Hill
#
# Bulk Modulus (GPa) = 21.37334 69.66341 45.51837
# Shear Modulus (GPa) = 42.26163 -3.34725 19.45719
#
# Velocity S-wave (km/s) = 4.59287 -1.29257 3.11639
# Velocity P-wave (km/s) = 6.22851 5.70475 5.97237
#
# Compressibility (1/GPa) = 0.04678727
#
# Stress axis : x y z
#
# Youngs Moduli (GPa) = 86.64127 20.53601 79.32738
#
# Poissons Ratio (x) = 0.10190 0.64618
# Poissons Ratio (y) = 0.42989 -0.00632
# Poissons Ratio (z) = 0.70575 -0.00164
#
# Static dielectric constant tensor:
#      x y z
#    x 1.710730 0.000000 0.000000 
#    y 0.000000 1.720500 0.000000 
#    z 0.000000 0.000000 1.721570 
# 
# From -- ./inp_files/25572.got.cif
#   From: 2010.05.17/outbox.cif.g08.bks.cpg/sg47_13_cif.got.tgz:25572.got - 2010.06.03 20:15:42.
