data_PCOD9386202
_publ_section_title
;
Structure prediction by ZEFSAII (Michael W. Deem and Ramdas Pophale) SiO2 
 PCOD9386202
Probable space group: P M M M
;
_chemical_formula_sum "Si O2"
_cell_formula_units_Z 64
_cell_length_a 24.619980
_cell_length_b 8.414495
_cell_length_c 15.969966
_cell_angle_alpha 90.000000
_cell_angle_beta 90.000000
_cell_angle_gamma 90.000000
_cell_volume 3308.413193
_symmetry_space_group_name_H-M "P M M M"
_symmetry_group_IT_number 47
_symmetry_cell_setting 'orthorhombic'
loop_
_space_group_symop_operation_xyz
x,y,z
-x,-y,z
x,-y,-z
-x,y,-z
-x,-y,-z
x,y,-z
-x,y,z
x,-y,z
loop_
_atom_site_type_symbol
_atom_site_label
_atom_site_fract_x
_atom_site_fract_y
_atom_site_fract_z
Si Si1 0.673786 0.691724 0.407790
Si Si2 0.741759 0.189541 0.749569
Si Si3 0.675344 0.688972 0.091541
Si Si4 0.937319 0.308126 0.095197
Si Si5 0.937336 0.806319 0.405320
Si Si6 0.865809 0.192014 0.248663
Si Si7 0.440004 0.691674 0.666506
Si Si8 0.560479 0.810775 0.856549
O O1 0.690309 0.748558 0.500000
O O2 0.675001 0.500000 0.407894
O O3 0.711346 0.749425 0.332837
O O4 0.611513 0.739360 0.388329
O O5 0.708178 0.238385 0.831563
O O6 0.803715 0.249200 0.753135
O O7 0.742958 0.000000 0.745763
O O8 0.681685 0.500000 0.095614
O O9 0.611748 0.729660 0.100921
O O10 0.694208 0.745783 0.000000
O O11 0.935718 0.500000 0.097460
O O12 0.898144 0.242413 0.166021
O O13 0.000000 0.259716 0.110991
O O14 0.923075 0.258970 0.000000
O O15 0.922369 0.756288 0.500000
O O16 0.897850 0.751291 0.331598
O O17 0.000000 0.758886 0.389579
O O18 0.936554 0.000000 0.405001
O O19 0.865096 0.000000 0.251612
O O20 0.500000 0.728851 0.631801
O O21 0.437355 0.500000 0.678018
O O22 0.435632 0.770589 0.757772
O O23 0.500000 0.759076 0.884359
O O24 0.564345 0.000000 0.868477
#
# Coordination Sequence:
#
# PCOD9386202 Si02
#       8
#     8   8   8   8   8   8   8   8
#     4  10  21  37  58  83 112 149 192 235 281 338
#     4  11  24  40  57  80 112 150 192 240 290 336
#     4  11  24  41  61  82 106 143 190 236 284 341
#     4   9  19  36  57  83 116 151 184 220 270 333
#     4   8  14  27  50  80 112 143 175 215 264 318
#     4  10  21  35  55  83 111 144 189 235 277 325
#     4   9  17  31  54  82 112 146 183 225 274 332
#     4  10  20  34  56  86 117 145 174 218 280 344
#
# _framework density 19.344621
#
# number of rings (size 3 to 8) (size 9 to 14) (size 15 to 20)
#    0.000    2.250    1.250    2.250    0.000    5.500 
#    0.000    6.875    0.000    0.375    0.000    4.375 
#    0.000    0.000    0.000    0.000    0.000    0.000 
#
# Total GULP energy -357240.341755 kJ/mol
# GULP energy per Si atom -5581.880340 kJ/mol
# Density = 1.930059 g / cm^3
# Si number density = 19.344621 Si / 1000 Ang^3
#
#
#
# Elastic Constant Matrix: (Units=GPa)
#
#
# Indices 1 2 3 4 5 6 
#
# 1 144.4211 19.3079 105.4438 0.0000 0.0000 0.0000
# 2 19.3079 10.6400 19.8690 0.0000 0.0000 0.0000
# 3 105.4438 19.8690 167.1656 0.0000 0.0000 0.0000
# 4 0.0000 0.0000 0.0000 173.4506 0.0000 0.0000
# 5 0.0000 0.0000 0.0000 0.0000 -7.0632 0.0000
# 6 0.0000 0.0000 0.0000 0.0000 0.0000 15.1077
#
#
#
# Elastic Compliance Matrix: (Units=1/GPa)
#
#
# Indices 1 2 3 4 5 6 
#
# 1 0.013819 -0.011309 -0.007372 0.000000 0.000000 0.000000
# 2 -0.011309 0.130052 -0.008324 0.000000 0.000000 0.000000
# 3 -0.007372 -0.008324 0.011622 0.000000 0.000000 0.000000
# 4 0.000000 0.000000 0.000000 0.005765 0.000000 0.000000
# 5 0.000000 0.000000 0.000000 0.000000 -0.141578 0.000000
# 6 0.000000 0.000000 0.000000 0.000000 0.000000 0.066191
#
#
# Mechanical properties :
#
#
# Convention : Reuss Voigt Hill
#
# Bulk Modulus (GPa) = 9.85403 67.94088 38.89746
# Shear Modulus (GPa) = 28.78356 48.13942 38.46149
#
# Velocity S-wave (km/s) = 3.86156 4.99392 4.46379
# Velocity P-wave (km/s) = 4.99872 8.27344 6.83509
#
# Compressibility (1/GPa) = 0.10148136
#
# Stress axis : x y z
#
# Youngs Moduli (GPa) = 72.36520 7.68920 86.04535
#
# Poissons Ratio (x) = 0.08696 0.63436
# Poissons Ratio (y) = 0.81840 0.71626
# Poissons Ratio (z) = 0.53350 0.06401
#
# Static dielectric constant tensor:
#      x y z
#    x 1.669550 0.000000 0.000000 
#    y 0.000000 1.664260 0.000000 
#    z 0.000000 0.000000 1.672880 
# 
# From -- ./inp_files/25576.got.cif
#   From: 2010.05.17/outbox.cif.g08.bks.cpg/sg47_13_cif.got.tgz:25576.got - 2010.06.03 20:15:42.
