data_PCOD9386687
_publ_section_title
;
Structure prediction by ZEFSAII (Michael W. Deem and Ramdas Pophale) SiO2 
 PCOD9386687
Probable space group: P M M M
;
_chemical_formula_sum "Si O2"
_cell_formula_units_Z 52
_cell_length_a 14.707241
_cell_length_b 21.787790
_cell_length_c 7.758704
_cell_angle_alpha 90.000000
_cell_angle_beta 90.000000
_cell_angle_gamma 90.000000
_cell_volume 2486.185752
_symmetry_space_group_name_H-M "P M M M"
_symmetry_group_IT_number 47
_symmetry_cell_setting 'orthorhombic'
loop_
_space_group_symop_operation_xyz
x,y,z
-x,-y,z
x,-y,-z
-x,y,-z
-x,-y,-z
x,y,-z
-x,y,z
x,-y,z
loop_
_atom_site_type_symbol
_atom_site_label
_atom_site_fract_x
_atom_site_fract_y
_atom_site_fract_z
Si Si1 0.097618 0.266577 0.206929
Si Si2 0.604349 0.262798 0.705526
Si Si3 0.102350 0.929191 0.292617
Si Si4 0.290489 0.616633 0.701515
Si Si5 0.753731 0.826720 0.794976
Si Si6 0.097726 0.405820 0.697986
Si Si7 0.607019 0.500000 0.196082
O O1 0.177613 0.225138 0.274457
O O2 0.095164 0.331873 0.296228
O O3 0.000000 0.235896 0.234310
O O4 0.107517 0.276431 0.000000
O O5 0.599341 0.272165 0.500000
O O6 0.500000 0.264057 0.771375
O O7 0.666276 0.320100 0.774533
O O8 0.655479 0.197682 0.734485
O O9 0.098681 0.928120 0.500000
O O10 0.190438 0.888814 0.244021
O O11 0.000000 0.909635 0.231084
O O12 0.114086 0.000000 0.237429
O O13 0.269843 0.628684 0.500000
O O14 0.197481 0.586744 0.778214
O O15 0.361617 0.562140 0.714289
O O16 0.750572 0.822659 0.000000
O O17 0.098569 0.427955 0.500000
O O18 0.000000 0.425983 0.774723
O O19 0.500000 0.500000 0.190619
O O20 0.642023 0.500000 0.000000
#
# Coordination Sequence:
#
# PCOD9386687 Si02
#       7
#     8   8   8   8   8   8   4
#     4   9  17  28  43  69 106 142 172 204 249 307
#     4  10  21  37  57  81 109 142 185 236 285 335
#     4   9  19  36  57  82 114 153 194 232 271 321
#     4  10  20  37  60  83 109 142 180 224 275 329
#     4  11  21  32  51  80 114 149 184 225 277 334
#     4   9  17  30  51  79 107 135 170 212 257 309
#     4  11  25  41  58  81 106 136 181 233 282 335
#
# _framework density 20.915572999999998
#
# number of rings (size 3 to 8) (size 9 to 14) (size 15 to 20)
#    0.000    2.231    1.538    2.077    0.000    4.615 
#    0.000    2.692    0.000    2.769    0.000    3.231 
#    0.000    0.000    0.000    0.000    0.000    0.000 
#
# Total GULP energy -289575.327025 kJ/mol
# GULP energy per Si atom -5568.756289 kJ/mol
# Density = 2.086797 g / cm^3
# Si number density = 20.915573 Si / 1000 Ang^3
#
#
#
# Elastic Constant Matrix: (Units=GPa)
#
#
# Indices 1 2 3 4 5 6 
#
# 1 159.7089 47.6885 16.8605 0.0000 0.0000 0.0000
# 2 47.6885 100.4907 -0.6871 0.0000 0.0000 0.0000
# 3 16.8605 -0.6871 35.1099 0.0000 0.0000 0.0000
# 4 0.0000 0.0000 0.0000 14.6673 0.0000 0.0000
# 5 0.0000 0.0000 0.0000 0.0000 10.7388 0.0000
# 6 0.0000 0.0000 0.0000 0.0000 0.0000 19.4706
#
#
#
# Elastic Compliance Matrix: (Units=1/GPa)
#
#
# Indices 1 2 3 4 5 6 
#
# 1 0.007772 -0.003714 -0.003805 0.000000 0.000000 0.000000
# 2 -0.003714 0.011728 0.002013 0.000000 0.000000 0.000000
# 3 -0.003805 0.002013 0.030349 0.000000 0.000000 0.000000
# 4 0.000000 0.000000 0.000000 0.068179 0.000000 0.000000
# 5 0.000000 0.000000 0.000000 0.000000 0.093120 0.000000
# 6 0.000000 0.000000 0.000000 0.000000 0.000000 0.051360
#
#
# Mechanical properties :
#
#
# Convention : Reuss Voigt Hill
#
# Bulk Modulus (GPa) = 25.74927 47.00370 36.37648
# Shear Modulus (GPa) = 17.45416 24.40518 20.92967
#
# Velocity S-wave (km/s) = 2.89191 3.41961 3.16678
# Velocity P-wave (km/s) = 4.84651 6.17362 5.54987
#
# Compressibility (1/GPa) = 0.03883606
#
# Stress axis : x y z
#
# Youngs Moduli (GPa) = 128.66397 85.26891 32.95040
#
# Poissons Ratio (x) = 0.31672 0.12538
# Poissons Ratio (y) = 0.47790 -0.06634
# Poissons Ratio (z) = 0.48957 -0.17166
#
# Static dielectric constant tensor:
#      x y z
#    x 1.856750 0.000000 0.000000 
#    y 0.000000 1.745920 0.000000 
#    z 0.000000 0.000000 1.784070 
# 
# From -- ./inp_files/7001.got.cif
#   From: 2010.05.17/outbox.cif.g08.bks.cpg/sg47_4_cif.got.tgz:7001.got - 2010.06.03 20:15:42.
