data_PCOD9386878
_publ_section_title
;
Structure prediction by ZEFSAII (Michael W. Deem and Ramdas Pophale) SiO2 
 PCOD9386878
Probable space group: P M M M
;
_chemical_formula_sum "Si O2"
_cell_formula_units_Z 64
_cell_length_a 24.992627
_cell_length_b 9.171238
_cell_length_c 14.470090
_cell_angle_alpha 90.000000
_cell_angle_beta 90.000000
_cell_angle_gamma 90.000000
_cell_volume 3316.737521
_symmetry_space_group_name_H-M "P M M M"
_symmetry_group_IT_number 47
_symmetry_cell_setting 'orthorhombic'
loop_
_space_group_symop_operation_xyz
x,y,z
-x,-y,z
x,-y,-z
-x,y,-z
-x,-y,-z
x,y,-z
-x,y,z
x,-y,z
loop_
_atom_site_type_symbol
_atom_site_label
_atom_site_fract_x
_atom_site_fract_y
_atom_site_fract_z
Si Si1 0.559796 0.675644 0.769446
Si Si2 0.264150 0.832135 0.612840
Si Si3 0.340608 0.322127 0.106735
Si Si4 0.884986 0.825139 0.105124
Si Si5 0.615849 0.175411 0.392081
Si Si6 0.059760 0.824380 0.289441
Si Si7 0.157470 0.668621 0.611648
Si Si8 0.775872 0.332319 0.887270
O O1 0.500000 0.714760 0.801025
O O2 0.562309 0.500000 0.763148
O O3 0.607731 0.724715 0.836404
O O4 0.572950 0.746112 0.671157
O O5 0.263883 0.833327 0.500000
O O6 0.323749 0.779598 0.637443
O O7 0.213973 0.736731 0.643506
O O8 0.257334 0.000000 0.642699
O O9 0.338735 0.500000 0.107936
O O10 0.282234 0.274386 0.143396
O O11 0.346028 0.277374 0.000000
O O12 0.928451 0.786969 0.182204
O O13 0.827995 0.759885 0.135848
O O14 0.880699 0.000000 0.103203
O O15 0.896556 0.775618 0.000000
O O16 0.609081 0.210120 0.500000
O O17 0.613114 0.000000 0.382677
O O18 0.107004 0.754233 0.348357
O O19 0.000000 0.777616 0.316415
O O20 0.062568 0.000000 0.298050
O O21 0.156476 0.677854 0.500000
O O22 0.154494 0.500000 0.638349
O O23 0.782633 0.500000 0.857313
O O24 0.772840 0.333683 0.000000
#
# Coordination Sequence:
#
# PCOD9386878 Si02
#       8
#     8   8   8   8   8   8   8   8
#     4  10  21  34  49  74 104 133 172 219 260 299
#     4   8  15  31  55  80 104 130 164 206 252 306
#     4   8  15  30  51  73  99 132 168 206 249 300
#     4   9  18  33  53  77 104 131 162 207 258 302
#     4   9  19  36  56  76 100 134 172 208 251 305
#     4  10  22  38  54  74 101 137 181 219 251 295
#     4  10  21  36  55  80 108 136 166 206 258 309
#     4   8  14  27  49  75 101 130 164 201 247 306
#
# _framework density 19.29607
#
# number of rings (size 3 to 8) (size 9 to 14) (size 15 to 20)
#    0.000    3.000    0.000    1.875    0.000    4.500 
#    0.000    9.375    0.000    1.125    0.000    3.500 
#    0.000    0.000    0.000    0.000    0.000    0.000 
#
# Total GULP energy -356952.738091 kJ/mol
# GULP energy per Si atom -5577.386533 kJ/mol
# Density = 1.925215 g / cm^3
# Si number density = 19.296070 Si / 1000 Ang^3
#
#
#
# Elastic Constant Matrix: (Units=GPa)
#
#
# Indices 1 2 3 4 5 6 
#
# 1 79.5704 14.0236 2.3546 0.0000 0.0000 0.0000
# 2 14.0236 9.7445 2.9138 0.0000 0.0000 0.0000
# 3 2.3546 2.9138 29.1649 0.0000 0.0000 0.0000
# 4 0.0000 0.0000 0.0000 15.5202 0.0000 0.0000
# 5 0.0000 0.0000 0.0000 0.0000 27.5066 0.0000
# 6 0.0000 0.0000 0.0000 0.0000 0.0000 18.0256
#
#
#
# Elastic Compliance Matrix: (Units=1/GPa)
#
#
# Indices 1 2 3 4 5 6 
#
# 1 0.016872 -0.024609 0.001096 0.000000 0.000000 0.000000
# 2 -0.024609 0.141675 -0.012168 0.000000 0.000000 0.000000
# 3 0.001096 -0.012168 0.035415 0.000000 0.000000 0.000000
# 4 0.000000 0.000000 0.000000 0.064432 0.000000 0.000000
# 5 0.000000 0.000000 0.000000 0.000000 0.036355 0.000000
# 6 0.000000 0.000000 0.000000 0.000000 0.000000 0.055477
#
#
# Mechanical properties :
#
#
# Convention : Reuss Voigt Hill
#
# Bulk Modulus (GPa) = 8.15647 17.45154 12.80401
# Shear Modulus (GPa) = 10.81188 18.82300 14.81744
#
# Velocity S-wave (km/s) = 2.36967 3.12666 2.77411
# Velocity P-wave (km/s) = 3.42393 4.70089 4.11228
#
# Compressibility (1/GPa) = 0.12260205
#
# Stress axis : x y z
#
# Youngs Moduli (GPa) = 59.26934 7.05838 28.23665
#
# Poissons Ratio (x) = 0.17370 -0.03096
# Poissons Ratio (y) = 1.45855 0.34358
# Poissons Ratio (z) = -0.06499 0.08589
#
# Static dielectric constant tensor:
#      x y z
#    x 1.667250 0.000000 0.000000 
#    y 0.000000 1.643210 0.000000 
#    z 0.000000 0.000000 1.707230 
# 
# From -- ./inp_files/21907.got.cif
#   From: 2010.05.17/outbox.cif.g08.bks.cpg/sg47_11_cif.got.tgz:21907.got - 2010.06.03 20:15:42.
