data_PCOD9386182
_publ_section_title
;
Structure prediction by ZEFSAII (Michael W. Deem and Ramdas Pophale) SiO2 
 PCOD9386182
Probable space group: P M M M
;
_chemical_formula_sum "Si O2"
_cell_formula_units_Z 44
_cell_length_a 7.643802
_cell_length_b 9.498537
_cell_length_c 33.195495
_cell_angle_alpha 90.000000
_cell_angle_beta 90.000000
_cell_angle_gamma 90.000000
_cell_volume 2410.156794
_symmetry_space_group_name_H-M "P M M M"
_symmetry_group_IT_number 47
_symmetry_cell_setting 'orthorhombic'
loop_
_space_group_symop_operation_xyz
x,y,z
-x,-y,z
x,-y,-z
-x,y,-z
-x,-y,-z
x,y,-z
-x,y,z
x,-y,z
loop_
_atom_site_type_symbol
_atom_site_label
_atom_site_fract_x
_atom_site_fract_y
_atom_site_fract_z
Si Si1 0.212951 0.836815 0.955418
Si Si2 0.799349 0.828776 0.333909
Si Si3 0.209265 0.840781 0.577854
Si Si4 0.292348 0.342356 0.500000
Si Si5 0.204684 0.668024 0.123323
Si Si6 0.500000 0.331089 0.812370
Si Si7 0.500000 0.829638 0.271625
O O1 0.266558 0.744976 0.917342
O O2 0.000000 0.833286 0.955815
O O3 0.264547 0.000000 0.950506
O O4 0.270957 0.789012 0.000000
O O5 0.731291 0.786103 0.378354
O O6 0.669305 0.789371 0.298269
O O7 0.000000 0.781453 0.327801
O O8 0.802013 0.000000 0.335519
O O9 0.244020 0.742907 0.540030
O O10 0.000000 0.851301 0.582046
O O11 0.277017 0.000000 0.570858
O O12 0.217049 0.500000 0.500000
O O13 0.500000 0.352933 0.500000
O O14 0.214628 0.500000 0.117197
O O15 0.330007 0.703594 0.160514
O O16 0.000000 0.704087 0.130676
O O17 0.500000 0.500000 0.805225
O O18 0.500000 0.246757 0.770984
O O19 0.500000 0.000000 0.266842
#
# Coordination Sequence:
#
# PCOD9386182 Si02
#       7
#     8   8   8   4   8   4   4
#     4   8  14  26  46  73 103 132 163 203 250 294
#     4   8  16  32  54  81 107 127 159 210 256 298
#     4   9  18  34  56  78  99 129 171 213 251 296
#     4  11  24  35  44  70 110 145 174 207 246 292
#     4   9  18  33  52  71  95 132 172 206 243 290
#     4  10  22  38  51  71 103 132 162 208 255 295
#     4  10  20  34  56  80 100 128 163 201 254 309
#
# _framework density 18.256074999999999
#
# number of rings (size 3 to 8) (size 9 to 14) (size 15 to 20)
#    0.000    3.000    0.000    2.182    1.273    4.000 
#    0.000    3.182    0.000    3.818    0.000    0.000 
#    0.000    0.000    0.000    0.000    0.000    0.000 
#
# Total GULP energy -245247.009020 kJ/mol
# GULP energy per Si atom -5573.795660 kJ/mol
# Density = 1.821452 g / cm^3
# Si number density = 18.256075 Si / 1000 Ang^3
#
#
#
# Elastic Constant Matrix: (Units=GPa)
#
#
# Indices 1 2 3 4 5 6 
#
# 1 78.3976 29.8669 71.5435 0.0000 0.0000 0.0000
# 2 29.8669 50.0285 78.9101 0.0000 0.0000 0.0000
# 3 71.5435 78.9101 218.3169 0.0000 0.0000 0.0000
# 4 0.0000 0.0000 0.0000 -40.5791 0.0000 0.0000
# 5 0.0000 0.0000 0.0000 0.0000 43.7101 0.0000
# 6 0.0000 0.0000 0.0000 0.0000 0.0000 13.1488
#
#
#
# Elastic Compliance Matrix: (Units=1/GPa)
#
#
# Indices 1 2 3 4 5 6 
#
# 1 0.018448 -0.003438 -0.004803 0.000000 0.000000 0.000000
# 2 -0.003438 0.047138 -0.015911 0.000000 0.000000 0.000000
# 3 -0.004803 -0.015911 0.011906 0.000000 0.000000 0.000000
# 4 0.000000 0.000000 0.000000 -0.024643 0.000000 0.000000
# 5 0.000000 0.000000 0.000000 0.000000 0.022878 0.000000
# 6 0.000000 0.000000 0.000000 0.000000 0.000000 0.076053
#
#
# Mechanical properties :
#
#
# Convention : Reuss Voigt Hill
#
# Bulk Modulus (GPa) = 34.26115 78.59820 56.42968
# Shear Modulus (GPa) = 23.83082 14.35080 19.09081
#
# Velocity S-wave (km/s) = 3.61690 2.80676 3.23727
# Velocity P-wave (km/s) = 6.02083 7.32465 6.70451
#
# Compressibility (1/GPa) = 0.02918758
#
# Stress axis : x y z
#
# Youngs Moduli (GPa) = 54.20562 21.21439 83.99435
#
# Poissons Ratio (x) = 0.07293 0.40343
# Poissons Ratio (y) = 0.18634 1.33646
# Poissons Ratio (z) = 0.26035 0.33755
#
# Static dielectric constant tensor:
#      x y z
#    x 1.664900 0.000000 0.000000 
#    y 0.000000 1.615910 0.000000 
#    z 0.000000 0.000000 1.626340 
# 
# From -- ./inp_files/33983.got.cif
#   From: 2010.05.17/outbox.cif.g08.bks.cpg/sg47_17_cif.got.tgz:33983.got - 2010.06.03 20:15:42.
