data_PCOD9386429
_publ_section_title
;
Structure prediction by ZEFSAII (Michael W. Deem and Ramdas Pophale) SiO2 
 PCOD9386429
Probable space group: P M M M
;
_chemical_formula_sum "Si O2"
_cell_formula_units_Z 44
_cell_length_a 9.253023
_cell_length_b 8.275801
_cell_length_c 29.704913
_cell_angle_alpha 90.000000
_cell_angle_beta 90.000000
_cell_angle_gamma 90.000000
_cell_volume 2274.688676
_symmetry_space_group_name_H-M "P M M M"
_symmetry_group_IT_number 47
_symmetry_cell_setting 'orthorhombic'
loop_
_space_group_symop_operation_xyz
x,y,z
-x,-y,z
x,-y,-z
-x,y,-z
-x,-y,-z
x,y,-z
-x,y,z
x,-y,z
loop_
_atom_site_type_symbol
_atom_site_label
_atom_site_fract_x
_atom_site_fract_y
_atom_site_fract_z
Si Si1 0.671282 0.694104 0.048684
Si Si2 0.166225 0.197713 0.766573
Si Si3 0.333483 0.194273 0.144645
Si Si4 0.165720 0.306516 0.411486
Si Si5 0.334241 0.806492 0.500000
Si Si6 0.334137 0.195411 0.322973
O O1 0.500000 0.736403 0.048630
O O2 0.681135 0.500000 0.049612
O O3 0.729208 0.759355 0.095827
O O4 0.730596 0.749746 0.000000
O O5 0.241510 0.251768 0.812813
O O6 0.255689 0.249903 0.722779
O O7 0.000000 0.249213 0.763847
O O8 0.167459 0.000000 0.766780
O O9 0.500000 0.253627 0.147863
O O10 0.338443 0.000000 0.146683
O O11 0.163003 0.500000 0.411549
O O12 0.251025 0.249880 0.455548
O O13 0.246386 0.248710 0.366697
O O14 0.000000 0.246931 0.412283
O O15 0.500000 0.746775 0.500000
O O16 0.337701 0.000000 0.500000
O O17 0.500000 0.251731 0.324826
O O18 0.336144 0.000000 0.322283
#
# Coordination Sequence:
#
# PCOD9386429 Si02
#       6
#     8   8   8   8   4   8
#     4   8  14  25  41  62  89 120 153 191 239 295
#     4   9  17  30  49  72  99 132 167 204 250 302
#     4   9  16  26  43  68  94 119 154 202 248 289
#     4  11  24  40  58  83 115 148 181 218 263 313
#     4  11  24  41  62  88 114 143 184 227 264 308
#     4  10  20  35  57  83 108 137 177 220 260 308
#
# _framework density 19.343306999999999
#
# number of rings (size 3 to 8) (size 9 to 14) (size 15 to 20)
#    0.000    2.455    0.000    3.273    0.000    9.091 
#    0.000    2.727    0.000    4.364    0.000    3.818 
#    0.000    0.000    0.000    0.000    0.000    0.000 
#
# Total GULP energy -245498.689499 kJ/mol
# GULP energy per Si atom -5579.515670 kJ/mol
# Density = 1.929928 g / cm^3
# Si number density = 19.343307 Si / 1000 Ang^3
#
#
#
# Elastic Constant Matrix: (Units=GPa)
#
#
# Indices 1 2 3 4 5 6 
#
# 1 153.1528 17.5350 113.6403 0.0000 0.0000 0.0000
# 2 17.5350 8.3920 20.1797 0.0000 0.0000 0.0000
# 3 113.6403 20.1797 239.1991 0.0000 0.0000 0.0000
# 4 0.0000 0.0000 0.0000 98.2522 0.0000 0.0000
# 5 0.0000 0.0000 0.0000 0.0000 -19.0822 0.0000
# 6 0.0000 0.0000 0.0000 0.0000 0.0000 13.1260
#
#
#
# Elastic Compliance Matrix: (Units=1/GPa)
#
#
# Indices 1 2 3 4 5 6 
#
# 1 0.011146 -0.013242 -0.004178 0.000000 0.000000 0.000000
# 2 -0.013242 0.165218 -0.007647 0.000000 0.000000 0.000000
# 3 -0.004178 -0.007647 0.006811 0.000000 0.000000 0.000000
# 4 0.000000 0.000000 0.000000 0.010178 0.000000 0.000000
# 5 0.000000 0.000000 0.000000 0.000000 -0.052405 0.000000
# 6 0.000000 0.000000 0.000000 0.000000 0.000000 0.076185
#
#
# Mechanical properties :
#
#
# Convention : Reuss Voigt Hill
#
# Bulk Modulus (GPa) = 7.51653 78.16153 42.83903
# Shear Modulus (GPa) = 16.04551 35.08514 25.56532
#
# Velocity S-wave (km/s) = 2.88325 4.26351 3.63941
# Velocity P-wave (km/s) = 3.87020 8.04562 6.31310
#
# Compressibility (1/GPa) = 0.13304011
#
# Stress axis : x y z
#
# Youngs Moduli (GPa) = 89.72109 6.05259 146.82804
#
# Poissons Ratio (x) = 0.08015 0.61345
# Poissons Ratio (y) = 1.18809 1.12284
# Poissons Ratio (z) = 0.37486 0.04629
#
# Static dielectric constant tensor:
#      x y z
#    x 1.664240 0.000000 0.000000 
#    y 0.000000 1.676770 0.000000 
#    z 0.000000 0.000000 1.669430 
# 
# From -- ./inp_files/33920.got.cif
#   From: 2010.05.17/outbox.cif.g08.bks.cpg/sg47_17_cif.got.tgz:33920.got - 2010.06.03 20:15:42.
