data_PCOD9386197
_publ_section_title
;
Structure prediction by ZEFSAII (Michael W. Deem and Ramdas Pophale) SiO2 
 PCOD9386197
Probable space group: P M M M
;
_chemical_formula_sum "Si O2"
_cell_formula_units_Z 40
_cell_length_a 8.036450
_cell_length_b 9.186378
_cell_length_c 28.152420
_cell_angle_alpha 90.000000
_cell_angle_beta 90.000000
_cell_angle_gamma 90.000000
_cell_volume 2078.376828
_symmetry_space_group_name_H-M "P M M M"
_symmetry_group_IT_number 47
_symmetry_cell_setting 'orthorhombic'
loop_
_space_group_symop_operation_xyz
x,y,z
-x,-y,z
x,-y,-z
-x,y,-z
-x,-y,-z
x,y,-z
-x,y,z
x,-y,z
loop_
_atom_site_type_symbol
_atom_site_label
_atom_site_fract_x
_atom_site_fract_y
_atom_site_fract_z
Si Si1 0.301396 0.665319 0.594713
Si Si2 0.801297 0.165439 0.500000
Si Si3 0.688660 0.174915 0.880745
Si Si4 0.798183 0.670572 0.784842
Si Si5 0.799639 0.165795 0.689419
Si Si6 0.000000 0.822887 0.054344
O O1 0.500000 0.658250 0.595783
O O2 0.234773 0.500000 0.594320
O O3 0.251595 0.749816 0.547180
O O4 0.244561 0.750108 0.641510
O O5 0.000000 0.158010 0.500000
O O6 0.734923 0.000000 0.500000
O O7 0.500000 0.205449 0.897199
O O8 0.721584 0.252248 0.830668
O O9 0.833762 0.220817 0.917173
O O10 0.703127 0.000000 0.874320
O O11 0.756732 0.500000 0.783508
O O12 0.742617 0.749071 0.736395
O O13 0.000000 0.683222 0.788138
O O14 0.000000 0.160119 0.692025
O O15 0.736624 0.000000 0.688523
O O16 0.000000 0.000000 0.053336
O O17 0.000000 0.771791 0.000000
#
# Coordination Sequence:
#
# PCOD9386197 Si02
#       6
#     8   4   8   8   8   4
#     4  11  24  40  58  83 115 149 187 232 283 339
#     4  11  24  41  62  86 110 141 186 235 284 342
#     4  10  20  34  56  85 116 153 196 241 293 351
#     4  10  20  35  57  83 113 152 194 237 289 345
#     4  10  21  37  59  86 115 149 190 235 283 338
#     4   9  18  34  57  85 119 155 193 244 297 344
#
# _framework density 19.245788000000001
#
# number of rings (size 3 to 8) (size 9 to 14) (size 15 to 20)
#    0.000    1.800    1.000    3.000    0.000    9.600 
#    0.000    2.000    0.000    1.200    0.000    1.400 
#    0.000    0.000    0.000    0.000    0.000    0.000 
#
# Total GULP energy -223488.388948 kJ/mol
# GULP energy per Si atom -5587.209724 kJ/mol
# Density = 1.920198 g / cm^3
# Si number density = 19.245788 Si / 1000 Ang^3
#
#
#
# Elastic Constant Matrix: (Units=GPa)
#
#
# Indices 1 2 3 4 5 6 
#
# 1 76.1858 48.7615 64.8370 0.0000 0.0000 0.0000
# 2 48.7615 121.6804 83.0430 0.0000 0.0000 0.0000
# 3 64.8370 83.0430 198.1716 0.0000 0.0000 0.0000
# 4 0.0000 0.0000 0.0000 -56.4491 0.0000 0.0000
# 5 0.0000 0.0000 0.0000 0.0000 -15.5653 0.0000
# 6 0.0000 0.0000 0.0000 0.0000 0.0000 17.1056
#
#
#
# Elastic Compliance Matrix: (Units=1/GPa)
#
#
# Indices 1 2 3 4 5 6 
#
# 1 0.020159 -0.005010 -0.004496 0.000000 0.000000 0.000000
# 2 -0.005010 0.012755 -0.003706 0.000000 0.000000 0.000000
# 3 -0.004496 -0.003706 0.008070 0.000000 0.000000 0.000000
# 4 0.000000 0.000000 0.000000 -0.017715 0.000000 0.000000
# 5 0.000000 0.000000 0.000000 0.000000 -0.064246 0.000000
# 6 0.000000 0.000000 0.000000 0.000000 0.000000 0.058460
#
#
# Mechanical properties :
#
#
# Convention : Reuss Voigt Hill
#
# Bulk Modulus (GPa) = 68.68042 87.70228 78.19135
# Shear Modulus (GPa) = 102.54266 2.31133 52.42699
#
# Velocity S-wave (km/s) = 7.30727 1.09707 5.22493
# Velocity P-wave (km/s) = 10.34207 6.87556 8.78156
#
# Compressibility (1/GPa) = 0.01456019
#
# Stress axis : x y z
#
# Youngs Moduli (GPa) = 49.60668 78.40084 123.91506
#
# Poissons Ratio (x) = 0.39277 0.55713
# Poissons Ratio (y) = 0.24852 0.45921
# Poissons Ratio (z) = 0.22303 0.29054
#
# Static dielectric constant tensor:
#      x y z
#    x 1.687660 0.000000 0.000000 
#    y 0.000000 1.663570 0.000000 
#    z 0.000000 0.000000 1.523350 
# 
# From -- ./inp_files/33098.got.cif
#   From: 2010.05.17/outbox.cif.g08.bks.cpg/sg47_17_cif.got.tgz:33098.got - 2010.06.03 20:15:42.
