data_PCOD9386743
_publ_section_title
;
Structure prediction by ZEFSAII (Michael W. Deem and Ramdas Pophale) SiO2 
 PCOD9386743
Probable space group: P M M M
;
_chemical_formula_sum "Si O2"
_cell_formula_units_Z 52
_cell_length_a 20.252704
_cell_length_b 15.591291
_cell_length_c 8.692141
_cell_angle_alpha 90.000000
_cell_angle_beta 90.000000
_cell_angle_gamma 90.000000
_cell_volume 2744.680870
_symmetry_space_group_name_H-M "P M M M"
_symmetry_group_IT_number 47
_symmetry_cell_setting 'orthorhombic'
loop_
_space_group_symop_operation_xyz
x,y,z
-x,-y,z
x,-y,-z
-x,y,-z
-x,-y,-z
x,y,-z
-x,y,z
x,-y,z
loop_
_atom_site_type_symbol
_atom_site_label
_atom_site_fract_x
_atom_site_fract_y
_atom_site_fract_z
Si Si1 0.771118 0.097169 0.820748
Si Si2 0.709374 0.594444 0.681863
Si Si3 0.619189 0.159525 0.831153
Si Si4 0.922797 0.597715 0.314837
Si Si5 0.577860 0.092050 0.500000
Si Si6 0.576580 0.358171 0.174733
Si Si7 0.186058 0.723347 0.815609
O O1 0.695727 0.131631 0.823744
O O2 0.810885 0.178634 0.753784
O O3 0.775254 0.000000 0.755241
O O4 0.790972 0.089869 0.000000
O O5 0.719642 0.603024 0.500000
O O6 0.733807 0.500000 0.730418
O O7 0.631818 0.599344 0.719910
O O8 0.749437 0.669854 0.763708
O O9 0.593228 0.131918 0.665017
O O10 0.600041 0.259367 0.834796
O O11 0.595035 0.124918 0.000000
O O12 0.915957 0.601021 0.500000
O O13 0.905444 0.500000 0.267070
O O14 0.875772 0.668418 0.242163
O O15 0.000000 0.611321 0.278016
O O16 0.500000 0.084346 0.500000
O O17 0.612402 0.000000 0.500000
O O18 0.500000 0.363636 0.224887
O O19 0.580325 0.392657 0.000000
O O20 0.186273 0.726950 0.000000
#
# Coordination Sequence:
#
# PCOD9386743 Si02
#       7
#     8   8   8   8   4   8   8
#     4   9  18  34  57  82 110 146 186 230 285 345
#     4  11  24  39  55  79 112 150 191 236 288 348
#     4  10  20  38  58  77 105 143 187 237 296 355
#     4   9  19  37  60  86 120 160 193 222 266 328
#     4  11  24  36  50  78 107 137 184 237 297 365
#     4  10  21  37  57  80 106 140 185 239 300 357
#     4  11  21  35  58  88 117 147 187 236 284 331
#
# _framework density 18.945736
#
# number of rings (size 3 to 8) (size 9 to 14) (size 15 to 20)
#    0.000    1.923    1.538    2.769    1.077    6.154 
#    1.385    3.077    0.000    0.462    0.000    3.231 
#    0.000    0.000    0.000    0.000    0.000    0.000 
#
# Total GULP energy -289686.119787 kJ/mol
# GULP energy per Si atom -5570.886919 kJ/mol
# Density = 1.890261 g / cm^3
# Si number density = 18.945736 Si / 1000 Ang^3
#
#
#
# Elastic Constant Matrix: (Units=GPa)
#
#
# Indices 1 2 3 4 5 6 
#
# 1 89.2002 58.5610 21.1443 0.0000 0.0000 0.0000
# 2 58.5610 145.6679 37.0507 0.0000 0.0000 0.0000
# 3 21.1443 37.0507 73.9930 0.0000 0.0000 0.0000
# 4 0.0000 0.0000 0.0000 105.4789 0.0000 0.0000
# 5 0.0000 0.0000 0.0000 0.0000 19.0593 0.0000
# 6 0.0000 0.0000 0.0000 0.0000 0.0000 25.8872
#
#
#
# Elastic Compliance Matrix: (Units=1/GPa)
#
#
# Indices 1 2 3 4 5 6 
#
# 1 0.015372 -0.005801 -0.001488 0.000000 0.000000 0.000000
# 2 -0.005801 0.010056 -0.003378 0.000000 0.000000 0.000000
# 3 -0.001488 -0.003378 0.015631 0.000000 0.000000 0.000000
# 4 0.000000 0.000000 0.000000 0.009481 0.000000 0.000000
# 5 0.000000 0.000000 0.000000 0.000000 0.052468 0.000000
# 6 0.000000 0.000000 0.000000 0.000000 0.000000 0.038629
#
#
# Mechanical properties :
#
#
# Convention : Reuss Voigt Hill
#
# Bulk Modulus (GPa) = 50.69490 60.26369 55.47929
# Shear Modulus (GPa) = 29.49048 42.89210 36.19129
#
# Velocity S-wave (km/s) = 3.94963 4.76325 4.37539
# Velocity P-wave (km/s) = 6.90039 7.88220 7.40758
#
# Compressibility (1/GPa) = 0.01972585
#
# Stress axis : x y z
#
# Youngs Moduli (GPa) = 65.05289 99.43988 63.97433
#
# Poissons Ratio (x) = 0.57689 0.09518
# Poissons Ratio (y) = 0.37740 0.21609
# Poissons Ratio (z) = 0.09679 0.33588
#
# Static dielectric constant tensor:
#      x y z
#    x 1.650300 0.000000 0.000000 
#    y 0.000000 1.739880 0.000000 
#    z 0.000000 0.000000 1.537120 
# 
# From -- ./inp_files/10969.got.cif
#   From: 2010.05.17/outbox.cif.g08.bks.cpg/sg47_6_cif.got.tgz:10969.got - 2010.06.03 20:15:42.
