data_PCOD9386213
_publ_section_title
;
Structure prediction by ZEFSAII (Michael W. Deem and Ramdas Pophale) SiO2 
 PCOD9386213
Probable space group: P M M M
;
_chemical_formula_sum "Si O2"
_cell_formula_units_Z 48
_cell_length_a 29.088623
_cell_length_b 10.746533
_cell_length_c 7.891761
_cell_angle_alpha 90.000000
_cell_angle_beta 90.000000
_cell_angle_gamma 90.000000
_cell_volume 2466.979065
_symmetry_space_group_name_H-M "P M M M"
_symmetry_group_IT_number 47
_symmetry_cell_setting 'orthorhombic'
loop_
_space_group_symop_operation_xyz
x,y,z
-x,-y,z
x,-y,-z
-x,y,-z
-x,-y,-z
x,y,-z
-x,y,z
x,-y,z
loop_
_atom_site_type_symbol
_atom_site_label
_atom_site_fract_x
_atom_site_fract_y
_atom_site_fract_z
Si Si1 0.447791 0.725651 0.197885
Si Si2 0.880396 0.646236 0.694358
Si Si3 0.948075 0.649996 0.000000
Si Si4 0.646831 0.367513 0.699420
Si Si5 0.189236 0.858575 0.202794
Si Si6 0.296141 0.136794 0.294890
Si Si7 0.444542 0.000000 0.690603
O O1 0.500000 0.709547 0.264331
O O2 0.407756 0.649169 0.284528
O O3 0.434009 0.870619 0.220159
O O4 0.448392 0.694796 0.000000
O O5 0.896833 0.652381 0.500000
O O6 0.867032 0.500000 0.725628
O O7 0.839561 0.745746 0.717760
O O8 0.919047 0.681484 0.832145
O O9 0.951194 0.500000 0.000000
O O10 0.000000 0.700072 0.000000
O O11 0.657881 0.370162 0.500000
O O12 0.660669 0.500000 0.775173
O O13 0.672855 0.248595 0.772550
O O14 0.243020 0.845508 0.246394
O O15 0.175575 0.000000 0.257371
O O16 0.183628 0.852251 0.000000
O O17 0.299005 0.135478 0.500000
O O18 0.311126 0.000000 0.234466
O O19 0.500000 0.000000 0.678790
O O20 0.424892 0.000000 0.500000
#
# Coordination Sequence:
#
# PCOD9386213 Si02
#       7
#     8   8   4   8   8   8   4
#     4  10  21  36  54  78 107 137 173 217 267 324
#     4  10  20  34  56  86 118 157 204 250 300 354
#     4   9  18  34  55  83 123 163 203 255 304 349
#     4  10  22  38  55  78 108 142 182 225 271 327
#     4  10  20  35  57  85 116 151 192 237 289 349
#     4   9  19  36  56  78 106 142 183 227 278 336
#     4   9  17  31  53  79 103 129 165 207 253 305
#
# _framework density 19.456994999999999
#
# number of rings (size 3 to 8) (size 9 to 14) (size 15 to 20)
#    0.000    2.333    0.833    1.250    1.167    5.333 
#    0.000    5.000    0.000    1.000    0.000    1.167 
#    0.000    0.000    0.000    0.000    0.000    0.000 
#
# Total GULP energy -267719.562611 kJ/mol
# GULP energy per Si atom -5577.490888 kJ/mol
# Density = 1.941271 g / cm^3
# Si number density = 19.456995 Si / 1000 Ang^3
#
#
#
# Elastic Constant Matrix: (Units=GPa)
#
#
# Indices 1 2 3 4 5 6 
#
# 1 85.7887 77.6476 18.6940 0.0000 0.0000 0.0000
# 2 77.6476 139.8661 31.6245 0.0000 0.0000 0.0000
# 3 18.6940 31.6245 56.2227 0.0000 0.0000 0.0000
# 4 0.0000 0.0000 0.0000 10.1751 0.0000 0.0000
# 5 0.0000 0.0000 0.0000 0.0000 23.3468 0.0000
# 6 0.0000 0.0000 0.0000 0.0000 0.0000 14.7636
#
#
#
# Elastic Compliance Matrix: (Units=1/GPa)
#
#
# Indices 1 2 3 4 5 6 
#
# 1 0.023444 -0.012892 -0.000543 0.000000 0.000000 0.000000
# 2 -0.012892 0.015281 -0.004309 0.000000 0.000000 0.000000
# 3 -0.000543 -0.004309 0.020391 0.000000 0.000000 0.000000
# 4 0.000000 0.000000 0.000000 0.098279 0.000000 0.000000
# 5 0.000000 0.000000 0.000000 0.000000 0.042832 0.000000
# 6 0.000000 0.000000 0.000000 0.000000 0.000000 0.067734
#
#
# Mechanical properties :
#
#
# Convention : Reuss Voigt Hill
#
# Bulk Modulus (GPa) = 42.32457 59.75664 51.04061
# Shear Modulus (GPa) = 16.06039 19.91786 17.98912
#
# Velocity S-wave (km/s) = 2.87615 3.20298 3.04395
# Velocity P-wave (km/s) = 5.72972 6.66765 6.21640
#
# Compressibility (1/GPa) = 0.02362694
#
# Stress axis : x y z
#
# Youngs Moduli (GPa) = 42.65569 65.44070 49.04193
#
# Poissons Ratio (x) = 0.84366 0.02665
# Poissons Ratio (y) = 0.54992 0.21131
# Poissons Ratio (z) = 0.02318 0.28197
#
# Static dielectric constant tensor:
#      x y z
#    x 1.659230 0.000000 0.000000 
#    y 0.000000 1.719930 0.000000 
#    z 0.000000 0.000000 1.689340 
# 
# From -- ./inp_files/13887.got.cif
#   From: 2010.05.17/outbox.cif.g08.bks.cpg/sg47_7_cif.got.tgz:13887.got - 2010.06.03 20:15:42.
