data_PCOD9386853
_publ_section_title
;
Structure prediction by ZEFSAII (Michael W. Deem and Ramdas Pophale) SiO2 
 PCOD9386853
Probable space group: P M M M
;
_chemical_formula_sum "Si O2"
_cell_formula_units_Z 40
_cell_length_a 28.647603
_cell_length_b 7.899115
_cell_length_c 9.699749
_cell_angle_alpha 90.000000
_cell_angle_beta 90.000000
_cell_angle_gamma 90.000000
_cell_volume 2194.963094
_symmetry_space_group_name_H-M "P M M M"
_symmetry_group_IT_number 47
_symmetry_cell_setting 'orthorhombic'
loop_
_space_group_symop_operation_xyz
x,y,z
-x,-y,z
x,-y,-z
-x,y,-z
-x,-y,-z
x,y,-z
-x,y,z
x,-y,z
loop_
_atom_site_type_symbol
_atom_site_label
_atom_site_fract_x
_atom_site_fract_y
_atom_site_fract_z
Si Si1 0.053695 0.500000 0.668236
Si Si2 0.413549 0.797418 0.157456
Si Si3 0.310501 0.298348 0.156264
Si Si4 0.500000 0.792161 0.658627
Si Si5 0.879868 0.195225 0.331906
Si Si6 0.223665 0.203318 0.655999
O O1 0.053771 0.500000 0.500000
O O2 0.081650 0.331361 0.711566
O O3 0.000000 0.500000 0.713245
O O4 0.361167 0.761005 0.207729
O O5 0.454120 0.735355 0.258018
O O6 0.418744 0.000000 0.149727
O O7 0.417943 0.730867 0.000000
O O8 0.312043 0.500000 0.149884
O O9 0.266991 0.248851 0.249418
O O10 0.304980 0.230609 0.000000
O O11 0.500000 0.737466 0.500000
O O12 0.500000 0.000000 0.657821
O O13 0.879230 0.192470 0.500000
O O14 0.827700 0.254640 0.291125
O O15 0.888049 0.000000 0.287747
O O16 0.230150 0.269232 0.500000
O O17 0.221216 0.000000 0.648092
#
# Coordination Sequence:
#
# PCOD9386853 Si02
#       6
#     4   8   8   4   8   8
#     4   9  16  24  38  62  91 129 171 204 245 298
#     4   9  17  31  50  68  89 121 157 192 236 289
#     4  10  21  34  48  71 101 129 160 200 245 294
#     4   9  17  29  48  73  94 114 150 201 244 279
#     4   8  15  27  41  61  91 124 162 207 250 298
#     4   9  18  32  50  71  94 126 166 203 245 297
#
# _framework density 18.22354
#
# number of rings (size 3 to 8) (size 9 to 14) (size 15 to 20)
#    0.000    3.000    0.000    2.100    1.400    4.000 
#    0.000    4.500    0.000    3.000    0.000    0.000 
#    0.000    1.600    0.000    4.400    0.000    4.400 
#
# Total GULP energy -222894.820345 kJ/mol
# GULP energy per Si atom -5572.370509 kJ/mol
# Density = 1.818206 g / cm^3
# Si number density = 18.223540 Si / 1000 Ang^3
#
#
#
# Elastic Constant Matrix: (Units=GPa)
#
#
# Indices 1 2 3 4 5 6 
#
# 1 209.1619 51.2311 72.8327 0.0000 0.0000 0.0000
# 2 51.2311 46.3744 19.7929 0.0000 0.0000 0.0000
# 3 72.8327 19.7929 45.9245 0.0000 0.0000 0.0000
# 4 0.0000 0.0000 0.0000 11.0390 0.0000 0.0000
# 5 0.0000 0.0000 0.0000 0.0000 91.0355 0.0000
# 6 0.0000 0.0000 0.0000 0.0000 0.0000 54.3027
#
#
#
# Elastic Compliance Matrix: (Units=1/GPa)
#
#
# Indices 1 2 3 4 5 6 
#
# 1 0.012012 -0.006298 -0.016335 0.000000 0.000000 0.000000
# 2 -0.006298 0.029726 -0.002824 0.000000 0.000000 0.000000
# 3 -0.016335 -0.002824 0.048899 0.000000 0.000000 0.000000
# 4 0.000000 0.000000 0.000000 0.090588 0.000000 0.000000
# 5 0.000000 0.000000 0.000000 0.000000 0.010985 0.000000
# 6 0.000000 0.000000 0.000000 0.000000 0.000000 0.018415
#
#
# Mechanical properties :
#
#
# Convention : Reuss Voigt Hill
#
# Bulk Modulus (GPa) = 25.17480 65.46379 45.31930
# Shear Modulus (GPa) = 18.19640 41.78237 29.98939
#
# Velocity S-wave (km/s) = 3.16335 4.79348 4.06105
# Velocity P-wave (km/s) = 5.21410 8.16316 6.84924
#
# Compressibility (1/GPa) = 0.03972226
#
# Stress axis : x y z
#
# Youngs Moduli (GPa) = 83.25243 33.64050 20.45040
#
# Poissons Ratio (x) = 0.21185 0.33407
# Poissons Ratio (y) = 0.52429 0.05776
# Poissons Ratio (z) = 1.35996 0.09501
#
# Static dielectric constant tensor:
#      x y z
#    x 1.627650 0.000000 0.000000 
#    y 0.000000 1.644770 0.000000 
#    z 0.000000 0.000000 3.392800 
# 
# From -- ./inp_files/1703.got.cif
#   From: 2010.05.17/outbox.cif.g08.bks.cpg/sg47_1_cif.got.tgz:1703.got - 2010.06.03 20:15:42.
