data_PCOD9386237
_publ_section_title
;
Structure prediction by ZEFSAII (Michael W. Deem and Ramdas Pophale) SiO2 
 PCOD9386237
Probable space group: P M M M
;
_chemical_formula_sum "Si O2"
_cell_formula_units_Z 64
_cell_length_a 15.310620
_cell_length_b 25.033334
_cell_length_c 7.750778
_cell_angle_alpha 90.000000
_cell_angle_beta 90.000000
_cell_angle_gamma 90.000000
_cell_volume 2970.686136
_symmetry_space_group_name_H-M "P M M M"
_symmetry_group_IT_number 47
_symmetry_cell_setting 'orthorhombic'
loop_
_space_group_symop_operation_xyz
x,y,z
-x,-y,z
x,-y,-z
-x,y,-z
-x,-y,-z
x,y,-z
-x,y,z
x,-y,z
loop_
_atom_site_type_symbol
_atom_site_label
_atom_site_fract_x
_atom_site_fract_y
_atom_site_fract_z
Si Si1 0.403707 0.132242 0.203037
Si Si2 0.761788 0.939248 0.706638
Si Si3 0.596466 0.634576 0.796454
Si Si4 0.099518 0.644974 0.289565
Si Si5 0.099611 0.852086 0.795589
Si Si6 0.398890 0.248432 0.243119
Si Si7 0.208955 0.749310 0.702762
Si Si8 0.759173 0.560731 0.291640
O O1 0.500000 0.108157 0.232063
O O2 0.324810 0.092648 0.237468
O O3 0.398186 0.187218 0.310421
O O4 0.399323 0.148753 0.000000
O O5 0.761776 0.940407 0.500000
O O6 0.846045 0.905831 0.763894
O O7 0.761682 0.000000 0.771722
O O8 0.500000 0.611174 0.766974
O O9 0.602685 0.690079 0.692255
O O10 0.673056 0.593840 0.756907
O O11 0.601924 0.650080 0.000000
O O12 0.097258 0.644214 0.500000
O O13 0.150200 0.699134 0.242919
O O14 0.157101 0.594656 0.232137
O O15 0.000000 0.644436 0.228360
O O16 0.153064 0.803065 0.715598
O O17 0.000000 0.854778 0.731394
O O18 0.097278 0.842463 0.000000
O O19 0.500000 0.248596 0.173618
O O20 0.297005 0.247683 0.186001
O O21 0.234404 0.742344 0.500000
O O22 0.762548 0.559128 0.500000
O O23 0.757397 0.500000 0.227737
#
# Coordination Sequence:
#
# PCOD9386237 Si02
#       8
#     8   8   8   8   8   8   8   8
#     4  10  21  38  62  91 123 159 198 241 292 354
#     4  11  25  43  63  89 121 159 203 250 298 349
#     4  10  21  37  58  84 116 154 193 235 288 352
#     4   9  18  34  56  84 116 148 187 237 292 349
#     4  11  25  43  64  91 121 155 197 246 301 359
#     4  10  20  34  58  93 126 153 189 234 287 349
#     4  11  21  36  61  91 124 159 191 233 292 356
#     4  10  21  37  56  80 111 149 197 249 297 345
#
# _framework density 21.543845000000001
#
# number of rings (size 3 to 8) (size 9 to 14) (size 15 to 20)
#    0.000    1.750    2.500    1.500    0.000    6.500 
#    0.000    7.500    0.000    0.375    0.000    0.875 
#    0.000    0.000    0.000    0.000    0.000    0.000 
#
# Total GULP energy -356586.238682 kJ/mol
# GULP energy per Si atom -5571.659979 kJ/mol
# Density = 2.149481 g / cm^3
# Si number density = 21.543845 Si / 1000 Ang^3
#
#
#
# Elastic Constant Matrix: (Units=GPa)
#
#
# Indices 1 2 3 4 5 6 
#
# 1 245.2574 105.5822 20.3798 0.0000 0.0000 0.0000
# 2 105.5822 175.7919 13.1396 0.0000 0.0000 0.0000
# 3 20.3798 13.1396 70.3463 0.0000 0.0000 0.0000
# 4 0.0000 0.0000 0.0000 -6.7150 0.0000 0.0000
# 5 0.0000 0.0000 0.0000 0.0000 11.3158 0.0000
# 6 0.0000 0.0000 0.0000 0.0000 0.0000 5.1243
#
#
#
# Elastic Compliance Matrix: (Units=1/GPa)
#
#
# Indices 1 2 3 4 5 6 
#
# 1 0.005568 -0.003269 -0.001002 0.000000 0.000000 0.000000
# 2 -0.003269 0.007689 -0.000489 0.000000 0.000000 0.000000
# 3 -0.001002 -0.000489 0.014597 0.000000 0.000000 0.000000
# 4 0.000000 0.000000 0.000000 -0.148920 0.000000 0.000000
# 5 0.000000 0.000000 0.000000 0.000000 0.088372 0.000000
# 6 0.000000 0.000000 0.000000 0.000000 0.000000 0.195148
#
#
# Mechanical properties :
#
#
# Convention : Reuss Voigt Hill
#
# Bulk Modulus (GPa) = 54.54821 85.51095 70.02958
# Shear Modulus (GPa) = 28.07637 25.43129 26.75383
#
# Velocity S-wave (km/s) = 3.61393 3.43949 3.52779
# Velocity P-wave (km/s) = 6.54130 7.45327 7.01212
#
# Compressibility (1/GPa) = 0.01833241
#
# Stress axis : x y z
#
# Youngs Moduli (GPa) = 179.59556 130.06160 68.50654
#
# Poissons Ratio (x) = 0.42521 0.06867
# Poissons Ratio (y) = 0.58715 0.03350
# Poissons Ratio (z) = 0.18004 0.06360
#
# Static dielectric constant tensor:
#      x y z
#    x 1.749410 0.000000 0.000000 
#    y 0.000000 1.740900 0.000000 
#    z 0.000000 0.000000 1.975040 
# 
# From -- ./inp_files/7913.got.cif
#   From: 2010.05.17/outbox.cif.g08.bks.cpg/sg47_4_cif.got.tgz:7913.got - 2010.06.03 20:15:42.
