data_PCOD9386215
_publ_section_title
;
Structure prediction by ZEFSAII (Michael W. Deem and Ramdas Pophale) SiO2 
 PCOD9386215
Probable space group: P M M M
;
_chemical_formula_sum "Si O2"
_cell_formula_units_Z 64
_cell_length_a 14.958656
_cell_length_b 8.131798
_cell_length_c 26.093265
_cell_angle_alpha 90.000000
_cell_angle_beta 90.000000
_cell_angle_gamma 90.000000
_cell_volume 3174.004819
_symmetry_space_group_name_H-M "P M M M"
_symmetry_group_IT_number 47
_symmetry_cell_setting 'orthorhombic'
loop_
_space_group_symop_operation_xyz
x,y,z
-x,-y,z
x,-y,-z
-x,y,-z
-x,-y,-z
x,y,-z
-x,y,z
x,-y,z
loop_
_atom_site_type_symbol
_atom_site_label
_atom_site_fract_x
_atom_site_fract_y
_atom_site_fract_z
Si Si1 0.095701 0.694441 0.437777
Si Si2 0.099552 0.695227 0.208767
Si Si3 0.600341 0.802023 0.346313
Si Si4 0.710154 0.305889 0.943620
Si Si5 0.281432 0.800846 0.748052
Si Si6 0.899838 0.806306 0.907567
Si Si7 0.601752 0.196648 0.155100
Si Si8 0.290168 0.699079 0.558812
O O1 0.096781 0.702870 0.500000
O O2 0.094507 0.500000 0.424772
O O3 0.192370 0.761406 0.422138
O O4 0.000000 0.765866 0.420493
O O5 0.102859 0.500000 0.199332
O O6 0.180163 0.743142 0.245436
O O7 0.111218 0.781731 0.153632
O O8 0.000000 0.736677 0.228102
O O9 0.500000 0.741448 0.336535
O O10 0.669324 0.742632 0.303177
O O11 0.634691 0.754087 0.402169
O O12 0.598490 0.000000 0.342935
O O13 0.693516 0.500000 0.942929
O O14 0.815517 0.276924 0.934022
O O15 0.653312 0.230607 0.897570
O O16 0.686515 0.239984 0.000000
O O17 0.338703 0.742149 0.797301
O O18 0.281171 0.000000 0.748498
O O19 0.000000 0.744950 0.920858
O O20 0.896530 0.000000 0.919089
O O21 0.500000 0.261241 0.155128
O O22 0.596280 0.000000 0.161291
O O23 0.304335 0.752721 0.500000
O O24 0.286396 0.500000 0.558220
#
# Coordination Sequence:
#
# PCOD9386215 Si02
#       8
#     8   8   8   8   8   8   8   8
#     4   7  10  20  42  71 100 131 169 212 258 309
#     4  10  20  34  56  87 120 150 180 219 271 332
#     4  10  22  39  57  79 109 145 185 230 281 334
#     4  11  24  39  55  80 116 153 188 232 286 341
#     4  10  20  37  61  85 110 143 184 231 279 330
#     4  10  20  35  57  84 113 148 190 232 275 329
#     4  10  21  38  61  85 106 137 186 239 289 341
#     4   9  18  33  54  81 112 146 186 231 276 324
#
# _framework density 20.163800999999999
#
# number of rings (size 3 to 8) (size 9 to 14) (size 15 to 20)
#    0.000    2.375    1.250    2.625    0.000    6.000 
#    0.000    4.375    0.000    4.875    0.000    1.750 
#    0.000    0.000    0.000    0.000    0.000    0.000 
#
# Total GULP energy -357065.794451 kJ/mol
# GULP energy per Si atom -5579.153038 kJ/mol
# Density = 2.011791 g / cm^3
# Si number density = 20.163801 Si / 1000 Ang^3
#
#
#
# Elastic Constant Matrix: (Units=GPa)
#
#
# Indices 1 2 3 4 5 6 
#
# 1 116.7600 4.8722 51.6343 0.0000 0.0000 0.0000
# 2 4.8722 12.1842 2.0216 0.0000 0.0000 0.0000
# 3 51.6343 2.0216 88.1890 0.0000 0.0000 0.0000
# 4 0.0000 0.0000 0.0000 22.5043 0.0000 0.0000
# 5 0.0000 0.0000 0.0000 0.0000 10.0286 0.0000
# 6 0.0000 0.0000 0.0000 0.0000 0.0000 11.1908
#
#
#
# Elastic Compliance Matrix: (Units=1/GPa)
#
#
# Indices 1 2 3 4 5 6 
#
# 1 0.011709 -0.003558 -0.006774 0.000000 0.000000 0.000000
# 2 -0.003558 0.083468 0.000170 0.000000 0.000000 0.000000
# 3 -0.006774 0.000170 0.015301 0.000000 0.000000 0.000000
# 4 0.000000 0.000000 0.000000 0.044436 0.000000 0.000000
# 5 0.000000 0.000000 0.000000 0.000000 0.099715 0.000000
# 6 0.000000 0.000000 0.000000 0.000000 0.000000 0.089359
#
#
# Mechanical properties :
#
#
# Convention : Reuss Voigt Hill
#
# Bulk Modulus (GPa) = 11.09209 37.13217 24.11213
# Shear Modulus (GPa) = 12.67862 19.31838 15.99850
#
# Velocity S-wave (km/s) = 2.51027 3.09863 2.81984
# Velocity P-wave (km/s) = 3.73027 5.59082 4.75248
#
# Compressibility (1/GPa) = 0.09015437
#
# Stress axis : x y z
#
# Youngs Moduli (GPa) = 85.40735 11.98057 65.35347
#
# Poissons Ratio (x) = 0.04263 0.44269
# Poissons Ratio (y) = 0.30389 -0.01110
# Poissons Ratio (z) = 0.57853 -0.00203
#
# Static dielectric constant tensor:
#      x y z
#    x 1.738360 0.000000 0.000000 
#    y 0.000000 1.719090 0.000000 
#    z 0.000000 0.000000 1.698000 
# 
# From -- ./inp_files/12741.got.cif
#   From: 2010.05.17/outbox.cif.g08.bks.cpg/sg47_7_cif.got.tgz:12741.got - 2010.06.03 20:15:42.
