data_PCOD9386827
_publ_section_title
;
Structure prediction by ZEFSAII (Michael W. Deem and Ramdas Pophale) SiO2 
 PCOD9386827
Probable space group: P M M M
;
_chemical_formula_sum "Si O2"
_cell_formula_units_Z 56
_cell_length_a 29.762679
_cell_length_b 9.592493
_cell_length_c 13.940622
_cell_angle_alpha 90.000000
_cell_angle_beta 90.000000
_cell_angle_gamma 90.000000
_cell_volume 3980.023742
_symmetry_space_group_name_H-M "P M M M"
_symmetry_group_IT_number 47
_symmetry_cell_setting 'orthorhombic'
loop_
_space_group_symop_operation_xyz
x,y,z
-x,-y,z
x,-y,-z
-x,y,-z
-x,-y,-z
x,y,-z
-x,y,z
x,-y,z
loop_
_atom_site_type_symbol
_atom_site_label
_atom_site_fract_x
_atom_site_fract_y
_atom_site_fract_z
Si Si1 0.911505 0.164321 0.611660
Si Si2 0.872046 0.164954 0.889621
Si Si3 0.549732 0.837568 0.383397
Si Si4 0.947988 0.664951 0.786138
Si Si5 0.634651 0.660850 0.616773
Si Si6 0.735290 0.332201 0.613180
Si Si7 0.814992 0.836599 0.294121
O O1 0.919280 0.194010 0.500000
O O2 0.939036 0.261507 0.683627
O O3 0.858966 0.184231 0.638778
O O4 0.921542 0.000000 0.629123
O O5 0.914502 0.257351 0.858723
O O6 0.832774 0.194829 0.813068
O O7 0.883065 0.000000 0.877568
O O8 0.859792 0.188564 0.000000
O O9 0.550110 0.831375 0.500000
O O10 0.500000 0.787354 0.353066
O O11 0.592561 0.751063 0.349224
O O12 0.553891 0.000000 0.357497
O O13 0.938123 0.500000 0.781056
O O14 0.000000 0.682403 0.813164
O O15 0.634555 0.663089 0.500000
O O16 0.629176 0.500000 0.645586
O O17 0.684712 0.709306 0.644264
O O18 0.740441 0.298356 0.500000
O O19 0.738159 0.500000 0.621628
O O20 0.774076 0.257101 0.671844
O O21 0.802923 0.000000 0.299570
#
# Coordination Sequence:
#
# PCOD9386827 Si02
#       7
#     8   8   8   8   8   8   8
#     4   9  18  32  48  65  86 113 144 173 197 228
#     4   9  19  36  54  68  83 105 133 165 200 240
#     4   8  13  20  29  42  61  86 120 164 208 241
#     4  10  21  34  47  67  93 114 133 162 199 238
#     4   8  14  23  32  44  65  94 129 164 194 228
#     4   9  17  27  38  55  81 110 136 163 197 236
#     4   9  17  29  45  64  82 100 128 164 199 236
#
# _framework density 14.070266999999999
#
# number of rings (size 3 to 8) (size 9 to 14) (size 15 to 20)
#    0.000    3.143    0.000    3.000    0.000    6.286 
#    0.000    5.714    0.000    0.000    0.000    0.000 
#    0.000    0.000    0.000    0.000    0.000    0.714 
#
# Total GULP energy -311757.830271 kJ/mol
# GULP energy per Si atom -5567.104112 kJ/mol
# Density = 1.403824 g / cm^3
# Si number density = 14.070267 Si / 1000 Ang^3
#
#
#
# Elastic Constant Matrix: (Units=GPa)
#
#
# Indices 1 2 3 4 5 6 
#
# 1 107.9135 60.1664 28.5361 0.0000 0.0000 0.0000
# 2 60.1664 51.4195 24.8084 0.0000 0.0000 0.0000
# 3 28.5361 24.8084 53.3700 0.0000 0.0000 0.0000
# 4 0.0000 0.0000 0.0000 10.6063 0.0000 0.0000
# 5 0.0000 0.0000 0.0000 0.0000 7.5404 0.0000
# 6 0.0000 0.0000 0.0000 0.0000 0.0000 32.2323
#
#
#
# Elastic Compliance Matrix: (Units=1/GPa)
#
#
# Indices 1 2 3 4 5 6 
#
# 1 0.026662 -0.031351 0.000317 0.000000 0.000000 0.000000
# 2 -0.031351 0.061934 -0.012027 0.000000 0.000000 0.000000
# 3 0.000317 -0.012027 0.024158 0.000000 0.000000 0.000000
# 4 0.000000 0.000000 0.000000 0.094283 0.000000 0.000000
# 5 0.000000 0.000000 0.000000 0.000000 0.132618 0.000000
# 6 0.000000 0.000000 0.000000 0.000000 0.000000 0.031025
#
#
# Mechanical properties :
#
#
# Convention : Reuss Voigt Hill
#
# Bulk Modulus (GPa) = 37.54605 48.85831 43.20218
# Shear Modulus (GPa) = 10.73701 16.68862 13.71281
#
# Velocity S-wave (km/s) = 2.76542 3.44770 3.12524
# Velocity P-wave (km/s) = 6.07777 7.11679 6.61771
#
# Compressibility (1/GPa) = 0.02663396
#
# Stress axis : x y z
#
# Youngs Moduli (GPa) = 37.50631 16.14618 41.39416
#
# Poissons Ratio (x) = 0.50619 -0.01313
# Poissons Ratio (y) = 1.17585 0.49783
# Poissons Ratio (z) = -0.01190 0.19418
#
# Static dielectric constant tensor:
#      x y z
#    x 1.466210 0.000000 0.000000 
#    y 0.000000 1.467160 0.000000 
#    z 0.000000 0.000000 1.446820 
# 
# From -- ./inp_files/8176.got.cif
#   From: 2010.05.17/outbox.cif.g08.bks.cpg/sg47_5_cif.got.tgz:8176.got - 2010.06.03 20:15:42.
