data_PCOD9386079
_publ_section_title
;
Structure prediction by ZEFSAII (Michael W. Deem and Ramdas Pophale) SiO2 
 PCOD9386079
Probable space group: P M M M
;
_chemical_formula_sum "Si O2"
_cell_formula_units_Z 52
_cell_length_a 22.083843
_cell_length_b 15.448758
_cell_length_c 8.345963
_cell_angle_alpha 90.000000
_cell_angle_beta 90.000000
_cell_angle_gamma 90.000000
_cell_volume 2847.375056
_symmetry_space_group_name_H-M "P M M M"
_symmetry_group_IT_number 47
_symmetry_cell_setting 'orthorhombic'
loop_
_space_group_symop_operation_xyz
x,y,z
-x,-y,z
x,-y,-z
-x,y,-z
-x,-y,-z
x,y,-z
-x,y,z
x,-y,z
loop_
_atom_site_type_symbol
_atom_site_label
_atom_site_fract_x
_atom_site_fract_y
_atom_site_fract_z
Si Si1 0.067704 0.101155 0.000000
Si Si2 0.139831 0.337155 0.188846
Si Si3 0.071981 0.500000 0.687386
Si Si4 0.500000 0.601334 0.307502
Si Si5 0.429073 0.097828 0.693350
Si Si6 0.386707 0.716316 0.807736
Si Si7 0.274618 0.400413 0.194648
Si Si8 0.926846 0.820961 0.326447
O O1 0.093788 0.126418 0.829177
O O2 0.000000 0.140903 0.000000
O O3 0.062427 0.000000 0.000000
O O4 0.097850 0.419071 0.217761
O O5 0.208002 0.364532 0.232228
O O6 0.110787 0.265991 0.303659
O O7 0.138041 0.310912 0.000000
O O8 0.092169 0.500000 0.500000
O O9 0.000000 0.500000 0.686873
O O10 0.500000 0.500000 0.253228
O O11 0.500000 0.600743 0.500000
O O12 0.557859 0.655835 0.248829
O O13 0.427080 0.098433 0.500000
O O14 0.500000 0.106830 0.740932
O O15 0.394897 0.184144 0.751678
O O16 0.409221 0.000000 0.744877
O O17 0.326146 0.666511 0.750812
O O18 0.386514 0.717695 0.000000
O O19 0.282640 0.500000 0.251593
O O20 0.277894 0.403945 0.000000
O O21 0.914938 0.861390 0.500000
O O22 0.000000 0.806052 0.320611
#
# Coordination Sequence:
#
# PCOD9386079 Si02
#       8
#     4   8   4   4   8   8   8   8
#     4   9  18  34  56  83 113 145 185 231 284 349
#     4  11  20  35  57  77 106 150 196 234 277 336
#     4  11  23  35  49  77 115 148 185 239 291 333
#     4  11  23  37  52  75 112 151 187 228 274 331
#     4   9  18  34  56  81 113 148 177 217 277 339
#     4  11  21  34  57  85 111 142 184 234 288 334
#     4   9  19  36  55  77 108 147 190 235 278 331
#     4  10  20  34  54  83 117 148 182 231 289 346
#
# _framework density 18.262435
#
# number of rings (size 3 to 8) (size 9 to 14) (size 15 to 20)
#    0.000    1.923    2.308    2.769    0.000    4.308 
#    0.000    5.385    0.000    0.923    0.000    0.000 
#    0.000    0.000    0.000    0.000    0.000    0.000 
#
# Total GULP energy -289704.300502 kJ/mol
# GULP energy per Si atom -5571.236548 kJ/mol
# Density = 1.822087 g / cm^3
# Si number density = 18.262435 Si / 1000 Ang^3
#
#
#
# Elastic Constant Matrix: (Units=GPa)
#
#
# Indices 1 2 3 4 5 6 
#
# 1 75.9160 30.2093 25.7917 0.0000 0.0000 0.0000
# 2 30.2093 107.7058 43.7713 0.0000 0.0000 0.0000
# 3 25.7917 43.7713 81.3909 0.0000 0.0000 0.0000
# 4 0.0000 0.0000 0.0000 9.0876 0.0000 0.0000
# 5 0.0000 0.0000 0.0000 0.0000 -2.8588 0.0000
# 6 0.0000 0.0000 0.0000 0.0000 0.0000 25.0091
#
#
#
# Elastic Compliance Matrix: (Units=1/GPa)
#
#
# Indices 1 2 3 4 5 6 
#
# 1 0.015487 -0.003006 -0.003291 0.000000 0.000000 0.000000
# 2 -0.003006 0.012465 -0.005751 0.000000 0.000000 0.000000
# 3 -0.003291 -0.005751 0.016422 0.000000 0.000000 0.000000
# 4 0.000000 0.000000 0.000000 0.110040 0.000000 0.000000
# 5 0.000000 0.000000 0.000000 0.000000 -0.349800 0.000000
# 6 0.000000 0.000000 0.000000 0.000000 0.000000 0.039985
#
#
# Mechanical properties :
#
#
# Convention : Reuss Voigt Hill
#
# Bulk Modulus (GPa) = 49.31529 51.61748 50.46638
# Shear Modulus (GPa) = -40.14584 17.26361 -11.44112
#
# Velocity S-wave (km/s) = -4.69366 3.07792 -2.50568
# Velocity P-wave (km/s) = 1.52041 6.39977 4.39576
#
# Compressibility (1/GPa) = 0.02027769
#
# Stress axis : x y z
#
# Youngs Moduli (GPa) = 64.57116 80.22529 60.89416
#
# Poissons Ratio (x) = 0.24119 0.20039
# Poissons Ratio (y) = 0.19413 0.35019
# Poissons Ratio (z) = 0.21249 0.46136
#
# Static dielectric constant tensor:
#      x y z
#    x 1.619560 0.000000 0.000000 
#    y 0.000000 1.621240 0.000000 
#    z 0.000000 0.000000 1.684040 
# 
# From -- ./inp_files/11176.got.cif
#   From: 2010.05.17/outbox.cif.g08.bks.cpg/sg47_6_cif.got.tgz:11176.got - 2010.06.03 20:15:42.
