data_PCOD9386457
_publ_section_title
;
Structure prediction by ZEFSAII (Michael W. Deem and Ramdas Pophale) SiO2 
 PCOD9386457
Probable space group: P M M M
;
_chemical_formula_sum "Si O2"
_cell_formula_units_Z 44
_cell_length_a 9.445375
_cell_length_b 29.375035
_cell_length_c 8.012442
_cell_angle_alpha 90.000000
_cell_angle_beta 90.000000
_cell_angle_gamma 90.000000
_cell_volume 2223.117905
_symmetry_space_group_name_H-M "P M M M"
_symmetry_group_IT_number 47
_symmetry_cell_setting 'orthorhombic'
loop_
_space_group_symop_operation_xyz
x,y,z
-x,-y,z
x,-y,-z
-x,y,-z
-x,-y,-z
x,y,-z
-x,y,z
x,-y,z
loop_
_atom_site_type_symbol
_atom_site_label
_atom_site_fract_x
_atom_site_fract_y
_atom_site_fract_z
Si Si1 0.838975 0.824982 0.197794
Si Si2 0.339086 0.912251 0.300384
Si Si3 0.663162 0.262156 0.301206
Si Si4 0.836407 0.000000 0.704715
Si Si5 0.835353 0.449865 0.203626
Si Si6 0.662871 0.637482 0.201788
O O1 0.743260 0.865590 0.267771
O O2 0.763203 0.777077 0.232417
O O3 0.000000 0.826078 0.264821
O O4 0.845870 0.831405 0.000000
O O5 0.349008 0.917676 0.500000
O O6 0.500000 0.911428 0.234051
O O7 0.247474 0.955073 0.238596
O O8 0.658948 0.257435 0.500000
O O9 0.500000 0.257690 0.238065
O O10 0.714691 0.312933 0.257632
O O11 0.837498 0.000000 0.500000
O O12 0.000000 0.000000 0.758218
O O13 0.782684 0.500000 0.256710
O O14 0.749863 0.406051 0.262770
O O15 0.000000 0.446199 0.250381
O O16 0.829993 0.449524 0.000000
O O17 0.500000 0.633572 0.257130
O O18 0.665237 0.636986 0.000000
#
# Coordination Sequence:
#
# PCOD9386457 Si02
#       6
#     8   8   8   4   8   8
#     4  11  24  39  55  78 107 138 174 217 264 312
#     4  10  20  35  57  84 112 143 180 219 259 306
#     4  10  21  37  56  77 102 134 172 213 259 313
#     4   9  17  31  54  83 114 147 180 216 258 303
#     4   8  14  25  42  66  96 128 162 202 248 297
#     4   9  17  29  47  72 100 129 163 206 254 302
#
# _framework density 19.792023
#
# number of rings (size 3 to 8) (size 9 to 14) (size 15 to 20)
#    0.000    2.455    0.000    3.000    0.000    8.000 
#    0.000    4.091    0.000    3.273    0.000    3.818 
#    0.000    0.000    0.000    0.000    0.000    0.000 
#
# Total GULP energy -245573.203091 kJ/mol
# GULP energy per Si atom -5581.209161 kJ/mol
# Density = 1.974698 g / cm^3
# Si number density = 19.792023 Si / 1000 Ang^3
#
#
#
# Elastic Constant Matrix: (Units=GPa)
#
#
# Indices 1 2 3 4 5 6 
#
# 1 142.1643 107.3781 6.9672 0.0000 0.0000 0.0000
# 2 107.3781 179.5396 -3.4327 0.0000 0.0000 0.0000
# 3 6.9672 -3.4327 13.3254 0.0000 0.0000 0.0000
# 4 0.0000 0.0000 0.0000 22.9090 0.0000 0.0000
# 5 0.0000 0.0000 0.0000 0.0000 12.9827 0.0000
# 6 0.0000 0.0000 0.0000 0.0000 0.0000 45.0709
#
#
#
# Elastic Compliance Matrix: (Units=1/GPa)
#
#
# Indices 1 2 3 4 5 6 
#
# 1 0.013926 -0.008510 -0.009474 0.000000 0.000000 0.000000
# 2 -0.008510 0.010798 0.007231 0.000000 0.000000 0.000000
# 3 -0.009474 0.007231 0.081861 0.000000 0.000000 0.000000
# 4 0.000000 0.000000 0.000000 0.043651 0.000000 0.000000
# 5 0.000000 0.000000 0.000000 0.000000 0.077025 0.000000
# 6 0.000000 0.000000 0.000000 0.000000 0.000000 0.022187
#
#
# Mechanical properties :
#
#
# Convention : Reuss Voigt Hill
#
# Bulk Modulus (GPa) = 11.75373 61.87273 36.81323
# Shear Modulus (GPa) = 16.70495 31.13365 23.91930
#
# Velocity S-wave (km/s) = 2.90836 3.97046 3.48017
# Velocity P-wave (km/s) = 4.15086 7.23524 5.89823
#
# Compressibility (1/GPa) = 0.08507935
#
# Stress axis : x y z
#
# Youngs Moduli (GPa) = 71.80795 92.61286 12.21590
#
# Poissons Ratio (x) = 0.78813 0.11573
# Poissons Ratio (y) = 0.61108 -0.08833
# Poissons Ratio (z) = 0.68027 -0.66969
#
# Static dielectric constant tensor:
#      x y z
#    x 1.691900 0.000000 0.000000 
#    y 0.000000 1.671450 0.000000 
#    z 0.000000 0.000000 1.717310 
# 
# From -- ./inp_files/2256.got.cif
#   From: 2010.05.17/outbox.cif.g08.bks.cpg/sg47_2_cif.got.tgz:2256.got - 2010.06.03 20:15:42.
