data_PCOD9386187
_publ_section_title
;
Structure prediction by ZEFSAII (Michael W. Deem and Ramdas Pophale) SiO2 
 PCOD9386187
Probable space group: P M M M
;
_chemical_formula_sum "Si O2"
_cell_formula_units_Z 54
_cell_length_a 12.661388
_cell_length_b 14.098670
_cell_length_c 15.573050
_cell_angle_alpha 90.000000
_cell_angle_beta 90.000000
_cell_angle_gamma 90.000000
_cell_volume 2779.925396
_symmetry_space_group_name_H-M "P M M M"
_symmetry_group_IT_number 47
_symmetry_cell_setting 'orthorhombic'
loop_
_space_group_symop_operation_xyz
x,y,z
-x,-y,z
x,-y,-z
-x,y,-z
-x,-y,-z
x,y,-z
-x,y,z
x,-y,z
loop_
_atom_site_type_symbol
_atom_site_label
_atom_site_fract_x
_atom_site_fract_y
_atom_site_fract_z
Si Si1 0.380276 0.389183 0.345848
Si Si2 0.620919 0.888369 0.769803
Si Si3 0.126490 0.110403 0.500000
Si Si4 0.226489 0.766426 0.649594
Si Si5 0.802308 0.106591 0.898287
Si Si6 0.665366 0.611497 0.857915
Si Si7 0.500000 0.675416 0.000000
Si Si8 0.117407 0.293876 0.819264
O O1 0.500000 0.365503 0.370749
O O2 0.361467 0.500000 0.363675
O O3 0.294392 0.320562 0.387296
O O4 0.369930 0.377028 0.241763
O O5 0.500000 0.856853 0.776121
O O6 0.688500 0.829400 0.702086
O O7 0.685634 0.879347 0.858376
O O8 0.621460 0.000000 0.747247
O O9 0.169987 0.166752 0.418007
O O10 0.000000 0.112265 0.500000
O O11 0.160327 0.000000 0.500000
O O12 0.145830 0.722913 0.719309
O O13 0.873628 0.189589 0.861031
O O14 0.836836 0.000000 0.872762
O O15 0.799266 0.111619 0.000000
O O16 0.654705 0.500000 0.879215
O O17 0.787050 0.645075 0.859076
O O18 0.592259 0.666976 0.924299
O O19 0.000000 0.332782 0.830630
#
# Coordination Sequence:
#
# PCOD9386187 Si02
#       8
#     8   8   4   8   8   8   2   8
#     4   9  17  33  57  85 117 155 196 232 271 328
#     4   9  17  31  52  78 110 145 181 226 282 344
#     4  11  24  42  66  91 112 138 178 233 292 354
#     4  10  20  37  59  84 113 146 184 230 284 344
#     4   9  19  35  51  71 101 144 194 239 280 322
#     4  10  20  34  56  84 115 153 194 242 291 338
#     4  12  21  36  58  86 121 150 197 256 300 334
#     4  10  22  38  55  80 112 148 191 237 287 345
#
# _framework density 19.424982
#
# number of rings (size 3 to 8) (size 9 to 14) (size 15 to 20)
#    0.000    2.296    0.741    2.000    1.037    1.778 
#    1.333    4.074    0.000    6.222    0.000    0.000 
#    0.000    0.000    0.000    0.000    0.000    0.000 
#
# Total GULP energy -300958.872494 kJ/mol
# GULP energy per Si atom -5573.312454 kJ/mol
# Density = 1.938077 g / cm^3
# Si number density = 19.424982 Si / 1000 Ang^3
#
#
#
# Elastic Constant Matrix: (Units=GPa)
#
#
# Indices 1 2 3 4 5 6 
#
# 1 123.0125 28.2220 12.1887 0.0000 0.0000 0.0000
# 2 28.2220 65.5861 18.1372 0.0000 0.0000 0.0000
# 3 12.1887 18.1372 35.3036 0.0000 0.0000 0.0000
# 4 0.0000 0.0000 0.0000 4.8931 0.0000 0.0000
# 5 0.0000 0.0000 0.0000 0.0000 130.1093 0.0000
# 6 0.0000 0.0000 0.0000 0.0000 0.0000 13.6473
#
#
#
# Elastic Compliance Matrix: (Units=1/GPa)
#
#
# Indices 1 2 3 4 5 6 
#
# 1 0.009072 -0.003540 -0.001313 0.000000 0.000000 0.000000
# 2 -0.003540 0.019154 -0.008618 0.000000 0.000000 0.000000
# 3 -0.001313 -0.008618 0.033207 0.000000 0.000000 0.000000
# 4 0.000000 0.000000 0.000000 0.204370 0.000000 0.000000
# 5 0.000000 0.000000 0.000000 0.000000 0.007686 0.000000
# 6 0.000000 0.000000 0.000000 0.000000 0.000000 0.073274
#
#
# Mechanical properties :
#
#
# Convention : Reuss Voigt Hill
#
# Bulk Modulus (GPa) = 28.99471 37.88867 33.44169
# Shear Modulus (GPa) = 12.98021 40.75356 26.86689
#
# Velocity S-wave (km/s) = 2.58780 4.58536 3.72305
# Velocity P-wave (km/s) = 4.88752 6.89793 5.97785
#
# Compressibility (1/GPa) = 0.03448905
#
# Stress axis : x y z
#
# Youngs Moduli (GPa) = 110.23384 52.20895 30.11450
#
# Poissons Ratio (x) = 0.18484 0.03954
# Poissons Ratio (y) = 0.39027 0.25952
# Poissons Ratio (z) = 0.14475 0.44993
#
# Static dielectric constant tensor:
#      x y z
#    x 1.668680 0.000000 0.000000 
#    y 0.000000 1.715970 0.000000 
#    z 0.000000 0.000000 1.676110 
# 
# From -- ./inp_files/22808.got.cif
#   From: 2010.05.17/outbox.cif.g08.bks.cpg/sg47_12_cif.got.tgz:22808.got - 2010.06.03 20:15:42.
