data_PCOD9386881
_publ_section_title
;
Structure prediction by ZEFSAII (Michael W. Deem and Ramdas Pophale) SiO2 
 PCOD9386881
Probable space group: P M M M
;
_chemical_formula_sum "Si O2"
_cell_formula_units_Z 32
_cell_length_a 7.881129
_cell_length_b 15.009983
_cell_length_c 12.932107
_cell_angle_alpha 90.000000
_cell_angle_beta 90.000000
_cell_angle_gamma 90.000000
_cell_volume 1529.811516
_symmetry_space_group_name_H-M "P M M M"
_symmetry_group_IT_number 47
_symmetry_cell_setting 'orthorhombic'
loop_
_space_group_symop_operation_xyz
x,y,z
-x,-y,z
x,-y,-z
-x,y,-z
-x,-y,-z
x,y,-z
-x,y,z
x,-y,z
loop_
_atom_site_type_symbol
_atom_site_label
_atom_site_fract_x
_atom_site_fract_y
_atom_site_fract_z
Si Si1 0.797640 0.249367 0.883534
Si Si2 0.798128 0.897879 0.500000
Si Si3 0.194599 0.608633 0.500000
Si Si4 0.791444 0.397167 0.725562
Si Si5 0.701518 0.101652 0.276741
O O1 0.731731 0.331840 0.815294
O O2 0.768267 0.161446 0.815928
O O3 0.000000 0.261824 0.891203
O O4 0.728854 0.244291 0.000000
O O5 0.743994 0.858811 0.609940
O O6 0.000000 0.900898 0.500000
O O7 0.728639 0.000000 0.500000
O O8 0.187436 0.500000 0.500000
O O9 0.270038 0.632166 0.611273
O O10 0.000000 0.642299 0.500000
O O11 0.744098 0.500000 0.743017
O O12 0.000000 0.394954 0.721771
O O13 0.500000 0.097737 0.268159
O O14 0.769807 0.000000 0.273036
#
# Coordination Sequence:
#
# PCOD9386881 Si02
#       5
#     8   4   4   8   8
#     4  10  21  34  49  74 105 138 182 230 269 308
#     4   9  17  32  57  86 111 133 162 206 261 317
#     4   7  10  19  38  65  95 125 158 197 245 304
#     4   8  14  26  45  70 101 134 168 213 269 323
#     4  10  21  37  56  77 104 139 176 214 260 317
#
# _framework density 20.917608999999999
#
# number of rings (size 3 to 8) (size 9 to 14) (size 15 to 20)
#    0.000    3.000    0.000    2.625    0.000    5.500 
#    0.000    7.500    0.000    0.750    0.000    1.750 
#    0.000    5.000    0.000    0.000    0.000    0.000 
#
# Total GULP energy -178471.748016 kJ/mol
# GULP energy per Si atom -5577.242125 kJ/mol
# Density = 2.087000 g / cm^3
# Si number density = 20.917609 Si / 1000 Ang^3
#
#
#
# Elastic Constant Matrix: (Units=GPa)
#
#
# Indices 1 2 3 4 5 6 
#
# 1 22.7614 -1.6758 8.7070 0.0000 0.0000 0.0000
# 2 -1.6758 103.4380 91.8668 0.0000 0.0000 0.0000
# 3 8.7070 91.8668 246.6153 0.0000 0.0000 0.0000
# 4 0.0000 0.0000 0.0000 33.6015 0.0000 0.0000
# 5 0.0000 0.0000 0.0000 0.0000 0.6243 0.0000
# 6 0.0000 0.0000 0.0000 0.0000 0.0000 -14.7775
#
#
#
# Elastic Compliance Matrix: (Units=1/GPa)
#
#
# Indices 1 2 3 4 5 6 
#
# 1 0.045240 0.003215 -0.002795 0.000000 0.000000 0.000000
# 2 0.003215 0.014676 -0.005580 0.000000 0.000000 0.000000
# 3 -0.002795 -0.005580 0.006232 0.000000 0.000000 0.000000
# 4 0.000000 0.000000 0.000000 0.029761 0.000000 0.000000
# 5 0.000000 0.000000 0.000000 0.000000 1.601723 0.000000
# 6 0.000000 0.000000 0.000000 0.000000 0.000000 -0.067671
#
#
# Mechanical properties :
#
#
# Convention : Reuss Voigt Hill
#
# Bulk Modulus (GPa) = 17.91226 63.40119 40.65673
# Shear Modulus (GPa) = 3.01406 22.15079 12.58243
#
# Velocity S-wave (km/s) = 1.20169 3.25769 2.45526
# Velocity P-wave (km/s) = 3.24149 6.67277 5.24562
#
# Compressibility (1/GPa) = 0.05582767
#
# Stress axis : x y z
#
# Youngs Moduli (GPa) = 22.10444 68.13896 160.45321
#
# Poissons Ratio (x) = -0.21908 0.44845
# Poissons Ratio (y) = -0.07107 0.89540
# Poissons Ratio (z) = 0.06178 0.38025
#
# Static dielectric constant tensor:
#      x y z
#    x 1.756660 0.000000 0.000000 
#    y 0.000000 1.775080 0.000000 
#    z 0.000000 0.000000 1.768970 
# 
# From -- ./inp_files/14694.got.cif
#   From: 2010.05.17/outbox.cif.g08.bks.cpg/sg47_8_cif.got.tgz:14694.got - 2010.06.03 20:15:42.
