data_PCOD9386972
_publ_section_title
;
Structure prediction by ZEFSAII (Michael W. Deem and Ramdas Pophale) SiO2 
 PCOD9386972
Probable space group: P M M M
;
_chemical_formula_sum "Si O2"
_cell_formula_units_Z 64
_cell_length_a 8.595991
_cell_length_b 25.460554
_cell_length_c 14.932078
_cell_angle_alpha 90.000000
_cell_angle_beta 90.000000
_cell_angle_gamma 90.000000
_cell_volume 3268.015075
_symmetry_space_group_name_H-M "P M M M"
_symmetry_group_IT_number 47
_symmetry_cell_setting 'orthorhombic'
loop_
_space_group_symop_operation_xyz
x,y,z
-x,-y,z
x,-y,-z
-x,y,-z
-x,-y,-z
x,y,-z
-x,y,z
x,-y,z
loop_
_atom_site_type_symbol
_atom_site_label
_atom_site_fract_x
_atom_site_fract_y
_atom_site_fract_z
Si Si1 0.689560 0.061212 0.899418
Si Si2 0.183919 0.556405 0.159215
Si Si3 0.814580 0.214514 0.604086
Si Si4 0.684926 0.442705 0.355991
Si Si5 0.676478 0.326172 0.606440
Si Si6 0.821883 0.230766 0.892003
Si Si7 0.326628 0.663097 0.104340
Si Si8 0.318270 0.148252 0.764832
O O1 0.500000 0.064145 0.899454
O O2 0.744861 0.096502 0.816288
O O3 0.731570 0.000000 0.889956
O O4 0.739831 0.078919 0.000000
O O5 0.208020 0.500000 0.112937
O O6 0.280202 0.555029 0.250937
O O7 0.243333 0.607547 0.110544
O O8 0.000000 0.560827 0.178554
O O9 0.761310 0.206363 0.500000
O O10 0.760012 0.272716 0.636135
O O11 0.757228 0.170725 0.674212
O O12 0.000000 0.214435 0.603153
O O13 0.500000 0.441453 0.375962
O O14 0.742843 0.500000 0.391781
O O15 0.747405 0.384679 0.380685
O O16 0.667245 0.320791 0.500000
O O17 0.500000 0.326579 0.643072
O O18 0.779085 0.289682 0.861342
O O19 0.706852 0.192452 0.840756
O O20 0.000000 0.218487 0.867503
O O21 0.809212 0.226167 0.000000
O O22 0.500000 0.661470 0.144570
O O23 0.344351 0.674766 0.000000
O O24 0.500000 0.140547 0.746477
#
# Coordination Sequence:
#
# PCOD9386972 Si02
#       8
#     8   8   8   8   8   8   8   8
#     4   8  15  30  54  87 126 161 191 226 269 320
#     4  10  21  35  50  68  92 125 164 207 257 317
#     4  10  22  39  56  76 107 148 193 240 289 339
#     4   9  18  32  50  72  98 127 161 207 263 326
#     4   9  18  33  53  76 101 129 166 216 274 335
#     4  10  21  36  53  77 112 148 181 220 267 326
#     4  10  21  36  53  72  95 125 164 213 266 318
#     4  11  21  33  57  88 115 149 190 232 279 329
#
# _framework density 19.583752
#
# number of rings (size 3 to 8) (size 9 to 14) (size 15 to 20)
#    0.000    2.375    0.000    2.625    1.750    4.500 
#    0.000    2.500    0.000    1.875    0.000   10.500 
#    0.000    0.000    0.000    0.000    0.000    0.000 
#
# Total GULP energy -356488.876481 kJ/mol
# GULP energy per Si atom -5570.138695 kJ/mol
# Density = 1.953918 g / cm^3
# Si number density = 19.583752 Si / 1000 Ang^3
#
#
#
# Elastic Constant Matrix: (Units=GPa)
#
#
# Indices 1 2 3 4 5 6 
#
# 1 17.3679 13.4179 14.4380 0.0000 0.0000 0.0000
# 2 13.4179 113.8570 49.4103 0.0000 0.0000 0.0000
# 3 14.4380 49.4103 83.9352 0.0000 0.0000 0.0000
# 4 0.0000 0.0000 0.0000 33.8737 0.0000 0.0000
# 5 0.0000 0.0000 0.0000 0.0000 17.6667 0.0000
# 6 0.0000 0.0000 0.0000 0.0000 0.0000 -16.4055
#
#
#
# Elastic Compliance Matrix: (Units=1/GPa)
#
#
# Indices 1 2 3 4 5 6 
#
# 1 0.068498 -0.003974 -0.009443 0.000000 0.000000 0.000000
# 2 -0.003974 0.012027 -0.006396 0.000000 0.000000 0.000000
# 3 -0.009443 -0.006396 0.017304 0.000000 0.000000 0.000000
# 4 0.000000 0.000000 0.000000 0.029521 0.000000 0.000000
# 5 0.000000 0.000000 0.000000 0.000000 0.056604 0.000000
# 6 0.000000 0.000000 0.000000 0.000000 0.000000 -0.060955
#
#
# Mechanical properties :
#
#
# Convention : Reuss Voigt Hill
#
# Bulk Modulus (GPa) = 17.18179 41.07693 29.12936
# Shear Modulus (GPa) = 27.46854 16.21990 21.84422
#
# Velocity S-wave (km/s) = 3.74922 2.88103 3.34342
# Velocity P-wave (km/s) = 5.24735 5.66459 5.45996
#
# Compressibility (1/GPa) = 0.05820114
#
# Stress axis : x y z
#
# Youngs Moduli (GPa) = 14.59901 83.14513 57.79128
#
# Poissons Ratio (x) = 0.33045 0.54572
# Poissons Ratio (y) = 0.05802 0.36966
# Poissons Ratio (z) = 0.13786 0.53183
#
# Static dielectric constant tensor:
#      x y z
#    x 1.696150 0.000000 0.000000 
#    y 0.000000 1.722210 0.000000 
#    z 0.000000 0.000000 1.711240 
# 
# From -- ./inp_files/21894.got.cif
#   From: 2010.05.17/outbox.cif.g08.bks.cpg/sg47_11_cif.got.tgz:21894.got - 2010.06.03 20:15:42.
