data_PCOD9386333
_publ_section_title
;
Structure prediction by ZEFSAII (Michael W. Deem and Ramdas Pophale) SiO2 
 PCOD9386333
Probable space group: P M M M
;
_chemical_formula_sum "Si O2"
_cell_formula_units_Z 52
_cell_length_a 12.443337
_cell_length_b 18.670021
_cell_length_c 13.429587
_cell_angle_alpha 90.000000
_cell_angle_beta 90.000000
_cell_angle_gamma 90.000000
_cell_volume 3119.926239
_symmetry_space_group_name_H-M "P M M M"
_symmetry_group_IT_number 47
_symmetry_cell_setting 'orthorhombic'
loop_
_space_group_symop_operation_xyz
x,y,z
-x,-y,z
x,-y,-z
-x,y,-z
-x,-y,-z
x,y,-z
-x,y,z
x,-y,z
loop_
_atom_site_type_symbol
_atom_site_label
_atom_site_fract_x
_atom_site_fract_y
_atom_site_fract_z
Si Si1 0.750985 0.805661 0.751455
Si Si2 0.628800 0.687802 0.881478
Si Si3 0.000000 0.413208 0.887891
Si Si4 0.215294 0.585483 0.769176
Si Si5 0.871037 0.919529 0.115405
Si Si6 0.871082 0.310418 0.382584
Si Si7 0.629093 0.918714 0.616086
O O1 0.679611 0.755486 0.823501
O O2 0.822292 0.857849 0.818306
O O3 0.824488 0.755310 0.681735
O O4 0.679534 0.857241 0.682786
O O5 0.500000 0.686689 0.870946
O O6 0.684578 0.620256 0.826810
O O7 0.653833 0.688604 0.000000
O O8 0.891389 0.392830 0.831792
O O9 0.000000 0.500000 0.891274
O O10 0.000000 0.385226 0.000000
O O11 0.222740 0.500000 0.764499
O O12 0.191881 0.621076 0.662302
O O13 0.000000 0.917010 0.119838
O O14 0.837748 0.000000 0.146449
O O15 0.839473 0.910303 0.000000
O O16 0.851048 0.301213 0.500000
O O17 0.000000 0.318002 0.369078
O O18 0.658636 0.908877 0.500000
O O19 0.500000 0.915613 0.622433
O O20 0.661614 0.000000 0.645004
#
# Coordination Sequence:
#
# PCOD9386333 Si02
#       7
#     8   8   4   8   8   8   8
#     4  11  19  32  53  75 100 136 177 215 253 302
#     4  10  22  37  52  75 107 141 174 209 254 310
#     4   9  16  28  49  77 103 123 151 198 250 295
#     4  10  20  35  56  78 101 131 169 210 256 305
#     4   9  18  32  50  74 104 137 173 214 261 311
#     4  10  21  35  51  75 107 138 169 208 257 312
#     4   9  18  32  50  73  99 128 168 218 265 303
#
# _framework density 16.667061
#
# number of rings (size 3 to 8) (size 9 to 14) (size 15 to 20)
#    0.000    2.231    0.769    3.692    0.000    1.538 
#    0.000    1.538    0.000    4.154    0.000   17.231 
#    0.000    0.000    0.000    0.000    0.000    0.000 
#
# Total GULP energy -289965.850735 kJ/mol
# GULP energy per Si atom -5576.266360 kJ/mol
# Density = 1.662913 g / cm^3
# Si number density = 16.667061 Si / 1000 Ang^3
#
#
#
# Elastic Constant Matrix: (Units=GPa)
#
#
# Indices 1 2 3 4 5 6 
#
# 1 68.3363 48.0434 59.8094 0.0000 0.0000 0.0000
# 2 48.0434 133.1135 76.9135 0.0000 0.0000 0.0000
# 3 59.8094 76.9135 122.3673 0.0000 0.0000 0.0000
# 4 0.0000 0.0000 0.0000 23.5583 0.0000 0.0000
# 5 0.0000 0.0000 0.0000 0.0000 29.9748 0.0000
# 6 0.0000 0.0000 0.0000 0.0000 0.0000 23.1969
#
#
#
# Elastic Compliance Matrix: (Units=1/GPa)
#
#
# Indices 1 2 3 4 5 6 
#
# 1 0.026445 -0.003260 -0.010876 0.000000 0.000000 0.000000
# 2 -0.003260 0.012199 -0.006074 0.000000 0.000000 0.000000
# 3 -0.010876 -0.006074 0.017306 0.000000 0.000000 0.000000
# 4 0.000000 0.000000 0.000000 0.042448 0.000000 0.000000
# 5 0.000000 0.000000 0.000000 0.000000 0.033361 0.000000
# 6 0.000000 0.000000 0.000000 0.000000 0.000000 0.043109
#
#
# Mechanical properties :
#
#
# Convention : Reuss Voigt Hill
#
# Bulk Modulus (GPa) = 64.39753 77.03885 70.71819
# Shear Modulus (GPa) = 22.67945 24.61606 23.64775
#
# Velocity S-wave (km/s) = 3.69282 3.84725 3.77082
# Velocity P-wave (km/s) = 7.54347 8.12759 7.84097
#
# Compressibility (1/GPa) = 0.01552855
#
# Stress axis : x y z
#
# Youngs Moduli (GPa) = 37.81493 81.97699 57.78413
#
# Poissons Ratio (x) = 0.26725 0.62847
# Poissons Ratio (y) = 0.12328 0.35098
# Poissons Ratio (z) = 0.41128 0.49792
#
# Static dielectric constant tensor:
#      x y z
#    x 1.539550 0.000000 0.000000 
#    y 0.000000 1.555730 0.000000 
#    z 0.000000 0.000000 1.557330 
# 
# From -- ./inp_files/22880.got.cif
#   From: 2010.05.17/outbox.cif.g08.bks.cpg/sg47_12_cif.got.tgz:22880.got - 2010.06.03 20:15:42.
