data_PCOD9386650
_publ_section_title
;
Structure prediction by ZEFSAII (Michael W. Deem and Ramdas Pophale) SiO2 
 PCOD9386650
Probable space group: P M M M
;
_chemical_formula_sum "Si O2"
_cell_formula_units_Z 40
_cell_length_a 8.428271
_cell_length_b 7.561293
_cell_length_c 30.023192
_cell_angle_alpha 90.000000
_cell_angle_beta 90.000000
_cell_angle_gamma 90.000000
_cell_volume 1913.336790
_symmetry_space_group_name_H-M "P M M M"
_symmetry_group_IT_number 47
_symmetry_cell_setting 'orthorhombic'
loop_
_space_group_symop_operation_xyz
x,y,z
-x,-y,z
x,-y,-z
-x,y,-z
-x,-y,-z
x,y,-z
-x,y,z
x,-y,z
loop_
_atom_site_type_symbol
_atom_site_label
_atom_site_fract_x
_atom_site_fract_y
_atom_site_fract_z
Si Si1 0.310374 0.000000 0.050818
Si Si2 0.674576 0.711961 0.602730
Si Si3 0.819430 0.283927 0.693683
Si Si4 0.810454 0.296141 0.883478
Si Si5 0.000000 0.790496 0.450021
Si Si6 0.316765 0.284619 0.212338
O O1 0.253821 0.829316 0.078142
O O2 0.500000 0.000000 0.049995
O O3 0.250935 0.000000 0.000000
O O4 0.500000 0.776564 0.586990
O O5 0.664280 0.500000 0.604333
O O6 0.708422 0.774966 0.653212
O O7 0.834797 0.746396 0.574815
O O8 0.814698 0.500000 0.694167
O O9 0.768923 0.223888 0.742728
O O10 0.000000 0.231861 0.684011
O O11 0.755419 0.500000 0.888670
O O12 0.756912 0.230296 0.834681
O O13 0.000000 0.295162 0.884628
O O14 0.000000 0.713943 0.500000
O O15 0.000000 0.000000 0.453255
O O16 0.500000 0.233301 0.213998
O O17 0.308281 0.500000 0.212747
#
# Coordination Sequence:
#
# PCOD9386650 Si02
#       6
#     4   8   8   8   4   8
#     4  11  25  43  63  87 117 155 199 253 311 364
#     4  10  20  36  61  91 119 149 191 247 305 357
#     4   9  15  26  49  82 118 153 190 234 288 351
#     4  10  21  38  61  88 119 157 200 247 301 361
#     4  11  25  43  61  81 113 159 203 245 297 360
#     4   9  16  27  48  81 118 155 194 234 281 346
#
# _framework density 20.905887
#
# number of rings (size 3 to 8) (size 9 to 14) (size 15 to 20)
#    0.000    2.200    1.000    2.400    0.000    8.800 
#    0.000    4.000    2.200    0.000    0.000    0.000 
#    0.000    0.000    0.000    0.000    0.000    0.000 
#
# Total GULP energy -223340.152248 kJ/mol
# GULP energy per Si atom -5583.503806 kJ/mol
# Density = 2.085830 g / cm^3
# Si number density = 20.905887 Si / 1000 Ang^3
#
#
#
# Elastic Constant Matrix: (Units=GPa)
#
#
# Indices 1 2 3 4 5 6 
#
# 1 141.3442 23.9899 76.1215 0.0000 0.0000 0.0000
# 2 23.9899 65.9734 32.5530 0.0000 0.0000 0.0000
# 3 76.1215 32.5530 166.9457 0.0000 0.0000 0.0000
# 4 0.0000 0.0000 0.0000 42.9053 0.0000 0.0000
# 5 0.0000 0.0000 0.0000 0.0000 21.9221 0.0000
# 6 0.0000 0.0000 0.0000 0.0000 0.0000 4.4300
#
#
#
# Elastic Compliance Matrix: (Units=1/GPa)
#
#
# Indices 1 2 3 4 5 6 
#
# 1 0.009503 -0.001458 -0.004049 0.000000 0.000000 0.000000
# 2 -0.001458 0.016995 -0.002649 0.000000 0.000000 0.000000
# 3 -0.004049 -0.002649 0.008353 0.000000 0.000000 0.000000
# 4 0.000000 0.000000 0.000000 0.023307 0.000000 0.000000
# 5 0.000000 0.000000 0.000000 0.000000 0.045616 0.000000
# 6 0.000000 0.000000 0.000000 0.000000 0.000000 0.225732
#
#
# Mechanical properties :
#
#
# Convention : Reuss Voigt Hill
#
# Bulk Modulus (GPa) = 53.94029 71.06581 62.50305
# Shear Modulus (GPa) = 14.20469 29.95806 22.08137
#
# Velocity S-wave (km/s) = 2.60947 3.78960 3.25349
# Velocity P-wave (km/s) = 5.91072 7.29487 6.63896
#
# Compressibility (1/GPa) = 0.01853902
#
# Stress axis : x y z
#
# Youngs Moduli (GPa) = 105.23224 58.84120 119.72316
#
# Poissons Ratio (x) = 0.08578 0.48472
# Poissons Ratio (y) = 0.15340 0.31717
# Poissons Ratio (z) = 0.42605 0.15588
#
# Static dielectric constant tensor:
#      x y z
#    x 1.791070 0.000000 0.000000 
#    y 0.000000 1.785070 0.000000 
#    z 0.000000 0.000000 1.737660 
# 
# From -- ./inp_files/33012.got.cif
#   From: 2010.05.17/outbox.cif.g08.bks.cpg/sg47_17_cif.got.tgz:33012.got - 2010.06.03 20:15:42.
