data_PCOD9386400
_publ_section_title
;
Structure prediction by ZEFSAII (Michael W. Deem and Ramdas Pophale) SiO2 
 PCOD9386400
Probable space group: P M M M
;
_chemical_formula_sum "Si O2"
_cell_formula_units_Z 37
_cell_length_a 14.504094
_cell_length_b 7.594078
_cell_length_c 18.983715
_cell_angle_alpha 90.000000
_cell_angle_beta 90.000000
_cell_angle_gamma 90.000000
_cell_volume 2090.965487
_symmetry_space_group_name_H-M "P M M M"
_symmetry_group_IT_number 47
_symmetry_cell_setting 'orthorhombic'
loop_
_space_group_symop_operation_xyz
x,y,z
-x,-y,z
x,-y,-z
-x,y,-z
-x,-y,-z
x,y,-z
-x,y,z
x,-y,z
loop_
_atom_site_type_symbol
_atom_site_label
_atom_site_fract_x
_atom_site_fract_y
_atom_site_fract_z
Si Si1 0.896192 0.711023 0.295065
Si Si2 0.762950 0.788755 0.420614
Si Si3 0.308069 0.000000 0.922460
Si Si4 0.394400 0.214002 0.684993
Si Si5 0.262556 0.295029 0.811429
Si Si6 0.500000 0.000000 0.000000
O O1 0.899578 0.500000 0.288657
O O2 0.849145 0.749746 0.370073
O O3 0.825731 0.770160 0.234084
O O4 0.000000 0.780227 0.289662
O O5 0.770865 0.720055 0.500000
O O6 0.671986 0.726569 0.378697
O O7 0.755807 0.000000 0.424736
O O8 0.281073 0.829691 0.877245
O O9 0.262923 0.000000 0.000000
O O10 0.417275 0.000000 0.939682
O O11 0.500000 0.269279 0.677323
O O12 0.347595 0.279432 0.756806
O O13 0.392205 0.000000 0.686945
O O14 0.250346 0.500000 0.830553
#
# Coordination Sequence:
#
# PCOD9386400 Si02
#       6
#     8   8   4   8   8   1
#     4   9  19  35  54  77 101 133 180 225 269 318
#     4   9  18  31  45  69 104 139 177 223 272 321
#     4  10  22  40  57  82 117 144 171 208 251 312
#     4   9  17  29  49  72 100 139 182 225 267 314
#     4  10  20  35  57  81 108 142 179 220 263 311
#     4   8  24  40  58  84 122 150 170 208 250 312
#
# _framework density 17.695174999999999
#
# number of rings (size 3 to 8) (size 9 to 14) (size 15 to 20)
#    0.324    2.378    1.081    0.000    3.027    2.595 
#    0.000    4.865    0.000    1.297    0.000    9.081 
#    0.000    0.000    0.000    0.000    0.000    0.000 
#
# Total GULP energy -205980.288977 kJ/mol
# GULP energy per Si atom -5567.034837 kJ/mol
# Density = 1.765490 g / cm^3
# Si number density = 17.695175 Si / 1000 Ang^3
#
#
#
# Elastic Constant Matrix: (Units=GPa)
#
#
# Indices 1 2 3 4 5 6 
#
# 1 146.2198 23.0010 69.9783 0.0000 0.0000 0.0000
# 2 23.0010 66.4217 44.9855 0.0000 0.0000 0.0000
# 3 69.9783 44.9855 160.5937 0.0000 0.0000 0.0000
# 4 0.0000 0.0000 0.0000 -2.0065 0.0000 0.0000
# 5 0.0000 0.0000 0.0000 0.0000 8.7576 0.0000
# 6 0.0000 0.0000 0.0000 0.0000 0.0000 11.9984
#
#
#
# Elastic Compliance Matrix: (Units=1/GPa)
#
#
# Indices 1 2 3 4 5 6 
#
# 1 0.008657 -0.000547 -0.003619 0.000000 0.000000 0.000000
# 2 -0.000547 0.018615 -0.004976 0.000000 0.000000 0.000000
# 3 -0.003619 -0.004976 0.009198 0.000000 0.000000 0.000000
# 4 0.000000 0.000000 0.000000 -0.498374 0.000000 0.000000
# 5 0.000000 0.000000 0.000000 0.000000 0.114186 0.000000
# 6 0.000000 0.000000 0.000000 0.000000 0.000000 0.083344
#
#
# Mechanical properties :
#
#
# Convention : Reuss Voigt Hill
#
# Bulk Modulus (GPa) = 54.98807 72.12940 63.55874
# Shear Modulus (GPa) = -20.83089 19.43460 -0.69815
#
# Velocity S-wave (km/s) = -3.43477 3.31766 -0.62881
# Velocity P-wave (km/s) = 3.92587 7.45161 5.95562
#
# Compressibility (1/GPa) = 0.01818576
#
# Stress axis : x y z
#
# Youngs Moduli (GPa) = 115.51231 53.72051 108.72095
#
# Poissons Ratio (x) = 0.02937 0.39348
# Poissons Ratio (y) = 0.06315 0.54101
# Poissons Ratio (z) = 0.41806 0.26732
#
# Static dielectric constant tensor:
#      x y z
#    x 1.604030 0.000000 0.000000 
#    y 0.000000 1.648730 0.000000 
#    z 0.000000 0.000000 1.585880 
# 
# From -- ./inp_files/8870.got.cif
#   From: 2010.05.17/outbox.cif.g08.bks.cpg/sg47_5_cif.got.tgz:8870.got - 2010.06.03 20:15:42.
