data_PCOD9386410
_publ_section_title
;
Structure prediction by ZEFSAII (Michael W. Deem and Ramdas Pophale) SiO2 
 PCOD9386410
Probable space group: P M M M
;
_chemical_formula_sum "Si O2"
_cell_formula_units_Z 44
_cell_length_a 30.927579
_cell_length_b 7.740526
_cell_length_c 9.402388
_cell_angle_alpha 90.000000
_cell_angle_beta 90.000000
_cell_angle_gamma 90.000000
_cell_volume 2250.891533
_symmetry_space_group_name_H-M "P M M M"
_symmetry_group_IT_number 47
_symmetry_cell_setting 'orthorhombic'
loop_
_space_group_symop_operation_xyz
x,y,z
-x,-y,z
x,-y,-z
-x,y,-z
-x,-y,-z
x,y,-z
-x,y,z
x,-y,z
loop_
_atom_site_type_symbol
_atom_site_label
_atom_site_fract_x
_atom_site_fract_y
_atom_site_fract_z
Si Si1 0.632379 0.203980 0.839828
Si Si2 0.049175 0.000000 0.672654
Si Si3 0.451229 0.291339 0.662706
Si Si4 0.715472 0.704934 0.659975
Si Si5 0.202474 0.710873 0.162968
Si Si6 0.884654 0.296955 0.670289
O O1 0.585893 0.234460 0.768996
O O2 0.670235 0.274253 0.740208
O O3 0.639308 0.000000 0.847878
O O4 0.634419 0.276267 0.000000
O O5 0.076422 0.829754 0.712343
O O6 0.047302 0.000000 0.500000
O O7 0.000000 0.000000 0.725729
O O8 0.442102 0.234758 0.500000
O O9 0.500000 0.234271 0.699975
O O10 0.451348 0.500000 0.661746
O O11 0.714058 0.776935 0.500000
O O12 0.723136 0.500000 0.647725
O O13 0.755162 0.774343 0.753549
O O14 0.204106 0.500000 0.159918
O O15 0.158853 0.754619 0.247239
O O16 0.201918 0.770254 0.000000
O O17 0.877566 0.279958 0.500000
O O18 0.893700 0.500000 0.698470
#
# Coordination Sequence:
#
# PCOD9386410 Si02
#       6
#     8   4   8   8   8   8
#     4  11  24  38  51  74 110 145 177 215 261 316
#     4   9  18  32  51  79 111 141 181 231 278 325
#     4   9  19  37  60  83 104 130 171 220 266 316
#     4  10  20  35  57  82 106 136 177 222 267 319
#     4   9  17  31  53  79 106 137 174 216 264 318
#     4   9  17  31  52  77 106 141 182 227 274 327
#
# _framework density 19.547809999999998
#
# number of rings (size 3 to 8) (size 9 to 14) (size 15 to 20)
#    0.000    2.455    0.000    2.727    0.000    8.364 
#    1.636    5.000    0.000    1.091    0.000    2.545 
#    0.000    0.000    0.000    0.000    0.000    0.000 
#
# Total GULP energy -245592.142705 kJ/mol
# GULP energy per Si atom -5581.639607 kJ/mol
# Density = 1.950332 g / cm^3
# Si number density = 19.547810 Si / 1000 Ang^3
#
#
#
# Elastic Constant Matrix: (Units=GPa)
#
#
# Indices 1 2 3 4 5 6 
#
# 1 159.7001 25.9832 92.6473 0.0000 0.0000 0.0000
# 2 25.9832 44.9183 26.5789 0.0000 0.0000 0.0000
# 3 92.6473 26.5789 129.0386 0.0000 0.0000 0.0000
# 4 0.0000 0.0000 0.0000 50.2341 0.0000 0.0000
# 5 0.0000 0.0000 0.0000 0.0000 -71.6458 0.0000
# 6 0.0000 0.0000 0.0000 0.0000 0.0000 67.6634
#
#
#
# Elastic Compliance Matrix: (Units=1/GPa)
#
#
# Indices 1 2 3 4 5 6 
#
# 1 0.010873 -0.001902 -0.007415 0.000000 0.000000 0.000000
# 2 -0.001902 0.025685 -0.003925 0.000000 0.000000 0.000000
# 3 -0.007415 -0.003925 0.013882 0.000000 0.000000 0.000000
# 4 0.000000 0.000000 0.000000 0.019907 0.000000 0.000000
# 5 0.000000 0.000000 0.000000 0.000000 -0.013958 0.000000
# 6 0.000000 0.000000 0.000000 0.000000 0.000000 0.014779
#
#
# Mechanical properties :
#
#
# Convention : Reuss Voigt Hill
#
# Bulk Modulus (GPa) = 41.74240 69.34174 55.54207
# Shear Modulus (GPa) = 47.33218 21.81352 34.57285
#
# Velocity S-wave (km/s) = 4.92606 3.34414 4.21007
# Velocity P-wave (km/s) = 7.33179 7.10359 7.21859
#
# Compressibility (1/GPa) = 0.02395646
#
# Stress axis : x y z
#
# Youngs Moduli (GPa) = 91.97405 38.93278 72.03779
#
# Poissons Ratio (x) = 0.07405 0.53413
# Poissons Ratio (y) = 0.17493 0.28275
# Poissons Ratio (z) = 0.68195 0.15281
#
# Static dielectric constant tensor:
#      x y z
#    x 1.648500 0.000000 0.000000 
#    y 0.000000 1.711140 0.000000 
#    z 0.000000 0.000000 1.681970 
# 
# From -- ./inp_files/2106.got.cif
#   From: 2010.05.17/outbox.cif.g08.bks.cpg/sg47_2_cif.got.tgz:2106.got - 2010.06.03 20:15:42.
