data_PCOD9386196
_publ_section_title
;
Structure prediction by ZEFSAII (Michael W. Deem and Ramdas Pophale) SiO2 
 PCOD9386196
Probable space group: P M M M
;
_chemical_formula_sum "Si O2"
_cell_formula_units_Z 44
_cell_length_a 7.953972
_cell_length_b 30.758873
_cell_length_c 9.343630
_cell_angle_alpha 90.000000
_cell_angle_beta 90.000000
_cell_angle_gamma 90.000000
_cell_volume 2285.967803
_symmetry_space_group_name_H-M "P M M M"
_symmetry_group_IT_number 47
_symmetry_cell_setting 'orthorhombic'
loop_
_space_group_symop_operation_xyz
x,y,z
-x,-y,z
x,-y,-z
-x,y,-z
-x,-y,-z
x,y,-z
-x,y,z
x,-y,z
loop_
_atom_site_type_symbol
_atom_site_label
_atom_site_fract_x
_atom_site_fract_y
_atom_site_fract_z
Si Si1 0.300454 0.866827 0.338559
Si Si2 0.691632 0.389010 0.828851
Si Si3 0.203120 0.951040 0.164506
Si Si4 0.204469 0.697864 0.666693
Si Si5 0.000000 0.549604 0.826083
Si Si6 0.201116 0.217282 0.161742
O O1 0.231202 0.864181 0.500000
O O2 0.500000 0.861775 0.345374
O O3 0.262384 0.913221 0.267902
O O4 0.234034 0.827935 0.240678
O O5 0.500000 0.403849 0.804129
O O6 0.724640 0.344217 0.746488
O O7 0.833214 0.423749 0.784248
O O8 0.711184 0.381539 0.000000
O O9 0.000000 0.950804 0.164944
O O10 0.257944 0.000000 0.204133
O O11 0.256971 0.942774 0.000000
O O12 0.251723 0.698603 0.500000
O O13 0.262527 0.741743 0.746034
O O14 0.000000 0.695838 0.674130
O O15 0.000000 0.500000 0.774324
O O16 0.000000 0.548193 0.000000
O O17 0.000000 0.222184 0.152569
O O18 0.269139 0.217306 0.000000
#
# Coordination Sequence:
#
# PCOD9386196 Si02
#       6
#     8   8   8   8   4   8
#     4  11  24  38  52  76 112 148 181 222 272 327
#     4  10  20  34  56  85 116 153 195 239 290 346
#     4   9  19  37  60  83 105 133 175 225 274 328
#     4  10  20  35  57  83 112 148 188 231 283 340
#     4   9  18  34  57  85 119 155 193 245 296 339
#     4  10  21  37  59  84 109 142 185 231 277 328
#
# _framework density 19.247865999999998
#
# number of rings (size 3 to 8) (size 9 to 14) (size 15 to 20)
#    0.000    2.091    0.909    2.727    0.000    8.000 
#    0.000    4.545    0.000    1.091    0.000    1.273 
#    0.000    0.000    0.000    0.000    0.000    0.000 
#
# Total GULP energy -245706.845935 kJ/mol
# GULP energy per Si atom -5584.246499 kJ/mol
# Density = 1.920406 g / cm^3
# Si number density = 19.247866 Si / 1000 Ang^3
#
#
#
# Elastic Constant Matrix: (Units=GPa)
#
#
# Indices 1 2 3 4 5 6 
#
# 1 56.0500 39.4359 40.0265 0.0000 0.0000 0.0000
# 2 39.4359 158.5910 83.6776 0.0000 0.0000 0.0000
# 3 40.0265 83.6776 115.5945 0.0000 0.0000 0.0000
# 4 0.0000 0.0000 0.0000 -42.4253 0.0000 0.0000
# 5 0.0000 0.0000 0.0000 0.0000 11.0724 0.0000
# 6 0.0000 0.0000 0.0000 0.0000 0.0000 -17.1618
#
#
#
# Elastic Compliance Matrix: (Units=1/GPa)
#
#
# Indices 1 2 3 4 5 6 
#
# 1 0.024347 -0.002598 -0.006549 0.000000 0.000000 0.000000
# 2 -0.002598 0.010480 -0.006686 0.000000 0.000000 0.000000
# 3 -0.006549 -0.006686 0.015759 0.000000 0.000000 0.000000
# 4 0.000000 0.000000 0.000000 -0.023571 0.000000 0.000000
# 5 0.000000 0.000000 0.000000 0.000000 0.090315 0.000000
# 6 0.000000 0.000000 0.000000 0.000000 0.000000 -0.058269
#
#
# Mechanical properties :
#
#
# Convention : Reuss Voigt Hill
#
# Bulk Modulus (GPa) = 52.86327 72.94614 62.90471
# Shear Modulus (GPa) = 51.52855 1.43676 26.48266
#
# Velocity S-wave (km/s) = 5.17969 0.86491 3.71330
# Velocity P-wave (km/s) = 7.95590 6.24324 7.15103
#
# Compressibility (1/GPa) = 0.01891673
#
# Stress axis : x y z
#
# Youngs Moduli (GPa) = 41.07365 95.42391 63.45622
#
# Poissons Ratio (x) = 0.24795 0.41560
# Poissons Ratio (y) = 0.10673 0.42429
# Poissons Ratio (z) = 0.26901 0.63803
#
# Static dielectric constant tensor:
#      x y z
#    x 1.691640 0.000000 0.000000 
#    y 0.000000 1.630760 0.000000 
#    z 0.000000 0.000000 1.664850 
# 
# From -- ./inp_files/2315.got.cif
#   From: 2010.05.17/outbox.cif.g08.bks.cpg/sg47_2_cif.got.tgz:2315.got - 2010.06.03 20:15:42.
