data_PCOD9386970
_publ_section_title
;
Structure prediction by ZEFSAII (Michael W. Deem and Ramdas Pophale) SiO2 
 PCOD9386970
Probable space group: P M M M
;
_chemical_formula_sum "Si O2"
_cell_formula_units_Z 64
_cell_length_a 14.775823
_cell_length_b 29.938145
_cell_length_c 8.470111
_cell_angle_alpha 90.000000
_cell_angle_beta 90.000000
_cell_angle_gamma 90.000000
_cell_volume 3746.844498
_symmetry_space_group_name_H-M "P M M M"
_symmetry_group_IT_number 47
_symmetry_cell_setting 'orthorhombic'
loop_
_space_group_symop_operation_xyz
x,y,z
-x,-y,z
x,-y,-z
-x,y,-z
-x,-y,-z
x,y,-z
-x,y,z
x,-y,z
loop_
_atom_site_type_symbol
_atom_site_label
_atom_site_fract_x
_atom_site_fract_y
_atom_site_fract_z
Si Si1 0.895115 0.645757 0.308915
Si Si2 0.890427 0.548020 0.313153
Si Si3 0.103452 0.913335 0.312639
Si Si4 0.607098 0.134278 0.187688
Si Si5 0.282839 0.048769 0.189153
Si Si6 0.218867 0.271231 0.188422
Si Si7 0.396358 0.767668 0.687968
Si Si8 0.893570 0.814943 0.187557
O O1 0.895962 0.644276 0.500000
O O2 0.863118 0.596648 0.250225
O O3 0.830899 0.685385 0.254624
O O4 0.000000 0.653144 0.258439
O O5 0.867920 0.547423 0.500000
O O6 0.859707 0.500000 0.245255
O O7 0.000000 0.548406 0.304102
O O8 0.107786 0.920291 0.500000
O O9 0.178212 0.943170 0.229107
O O10 0.124756 0.861567 0.273447
O O11 0.000000 0.921524 0.259668
O O12 0.500000 0.126348 0.207613
O O13 0.661829 0.091609 0.249541
O O14 0.629320 0.181414 0.267128
O O15 0.625260 0.139348 0.000000
O O16 0.312042 0.000000 0.249144
O O17 0.294549 0.048645 0.000000
O O18 0.322502 0.265101 0.238838
O O19 0.165565 0.226660 0.243739
O O20 0.212387 0.272188 0.000000
O O21 0.395132 0.763186 0.500000
O O22 0.500000 0.760724 0.744066
O O23 0.000000 0.804430 0.207739
O O24 0.877072 0.821844 0.000000
#
# Coordination Sequence:
#
# PCOD9386970 Si02
#       8
#     8   8   8   8   8   8   8   8
#     4   9  17  28  43  66  97 132 168 204 240 277
#     4   7  10  19  37  60  86 120 164 208 242 271
#     4  10  21  35  50  68  89 115 149 188 226 261
#     4   9  18  34  55  76  97 119 143 175 218 269
#     4  10  21  35  51  72  95 119 147 177 213 260
#     4  11  21  31  46  68  96 128 158 191 233 280
#     4  10  21  36  53  72  93 118 151 191 232 276
#     4   9  18  32  48  66  90 121 154 184 217 262
#
# _framework density 17.081039000000001
#
# number of rings (size 3 to 8) (size 9 to 14) (size 15 to 20)
#    0.000    2.625    0.000    3.375    0.000    7.500 
#    0.000    3.750    0.000    0.375    0.000    4.375 
#    0.000    0.500    0.000    5.750    0.000    1.875 
#
# Total GULP energy -356828.482885 kJ/mol
# GULP energy per Si atom -5575.445045 kJ/mol
# Density = 1.704216 g / cm^3
# Si number density = 17.081039 Si / 1000 Ang^3
#
#
#
# Elastic Constant Matrix: (Units=GPa)
#
#
# Indices 1 2 3 4 5 6 
#
# 1 57.5954 51.0164 8.5185 0.0000 0.0000 0.0000
# 2 51.0164 86.1914 8.7820 0.0000 0.0000 0.0000
# 3 8.5185 8.7820 7.0409 0.0000 0.0000 0.0000
# 4 0.0000 0.0000 0.0000 17.4788 0.0000 0.0000
# 5 0.0000 0.0000 0.0000 0.0000 16.8076 0.0000
# 6 0.0000 0.0000 0.0000 0.0000 0.0000 15.7316
#
#
#
# Elastic Compliance Matrix: (Units=1/GPa)
#
#
# Indices 1 2 3 4 5 6 
#
# 1 0.039055 -0.020967 -0.021100 0.000000 0.000000 0.000000
# 2 -0.020967 0.024547 -0.005250 0.000000 0.000000 0.000000
# 3 -0.021100 -0.005250 0.174104 0.000000 0.000000 0.000000
# 4 0.000000 0.000000 0.000000 0.057212 0.000000 0.000000
# 5 0.000000 0.000000 0.000000 0.000000 0.059497 0.000000
# 6 0.000000 0.000000 0.000000 0.000000 0.000000 0.063566
#
#
# Mechanical properties :
#
#
# Convention : Reuss Voigt Hill
#
# Bulk Modulus (GPa) = 6.98946 31.94015 19.46480
# Shear Modulus (GPa) = 8.92369 15.50432 12.21401
#
# Velocity S-wave (km/s) = 2.28816 3.01606 2.67697
# Velocity P-wave (km/s) = 3.32892 5.55595 4.57986
#
# Compressibility (1/GPa) = 0.14307258
#
# Stress axis : x y z
#
# Youngs Moduli (GPa) = 25.60501 40.73801 5.74368
#
# Poissons Ratio (x) = 0.85414 0.12119
# Poissons Ratio (y) = 0.53685 0.03016
# Poissons Ratio (z) = 0.54026 0.21389
#
# Static dielectric constant tensor:
#      x y z
#    x 1.576290 0.000000 0.000000 
#    y 0.000000 1.601030 0.000000 
#    z 0.000000 0.000000 1.588790 
# 
# From -- ./inp_files/8299.got.cif
#   From: 2010.05.17/outbox.cif.g08.bks.cpg/sg47_5_cif.got.tgz:8299.got - 2010.06.03 20:15:42.
