data_PCOD9386066
_publ_section_title
;
Structure prediction by ZEFSAII (Michael W. Deem and Ramdas Pophale) SiO2 
 PCOD9386066
Probable space group: P M M M
;
_chemical_formula_sum "Si O2"
_cell_formula_units_Z 56
_cell_length_a 23.587184
_cell_length_b 14.562954
_cell_length_c 8.738318
_cell_angle_alpha 90.000000
_cell_angle_beta 90.000000
_cell_angle_gamma 90.000000
_cell_volume 3001.604155
_symmetry_space_group_name_H-M "P M M M"
_symmetry_group_IT_number 47
_symmetry_cell_setting 'orthorhombic'
loop_
_space_group_symop_operation_xyz
x,y,z
-x,-y,z
x,-y,-z
-x,y,-z
-x,-y,-z
x,y,-z
-x,y,z
x,-y,z
loop_
_atom_site_type_symbol
_atom_site_label
_atom_site_fract_x
_atom_site_fract_y
_atom_site_fract_z
Si Si1 0.214002 0.390426 0.180073
Si Si2 0.656502 0.603353 0.813560
Si Si3 0.500000 0.106199 0.316731
Si Si4 0.110418 0.280578 0.682272
Si Si5 0.608539 0.208673 0.183063
Si Si6 0.717053 0.109954 0.320962
Si Si7 0.159420 0.105588 0.817105
Si Si8 0.000000 0.394174 0.313279
O O1 0.204681 0.500000 0.192341
O O2 0.278695 0.373620 0.232166
O O3 0.166860 0.335856 0.271456
O O4 0.209979 0.365529 0.000000
O O5 0.642641 0.500000 0.761834
O O6 0.615067 0.685002 0.767237
O O7 0.657370 0.601432 0.000000
O O8 0.500000 0.106638 0.500000
O O9 0.555733 0.157437 0.257169
O O10 0.500000 0.000000 0.264763
O O11 0.107666 0.271154 0.500000
O O12 0.115490 0.180248 0.756048
O O13 0.056118 0.339253 0.734760
O O14 0.666756 0.159598 0.232145
O O15 0.602896 0.205686 0.000000
O O16 0.715866 0.135139 0.500000
O O17 0.778757 0.129710 0.251193
O O18 0.708598 0.000000 0.309562
O O19 0.146731 0.000000 0.772510
O O20 0.162668 0.109950 0.000000
O O21 0.000000 0.500000 0.261065
O O22 0.000000 0.396298 0.500000
#
# Coordination Sequence:
#
# PCOD9386066 Si02
#       8
#     8   8   4   8   8   8   8   4
#     4   9  17  31  53  81 113 146 178 216 265 323
#     4   8  16  32  53  78 108 139 170 208 259 317
#     4  11  25  43  58  73 102 144 183 223 272 323
#     4  11  21  34  55  79 106 143 184 228 276 325
#     4  11  21  34  57  84 108 140 182 226 269 315
#     4  10  20  34  54  82 115 147 177 214 266 326
#     4  10  21  37  56  79 109 143 179 223 273 325
#     4   9  20  38  56  77 108 144 181 221 268 325
#
# _framework density 18.656692
#
# number of rings (size 3 to 8) (size 9 to 14) (size 15 to 20)
#    0.000    2.143    0.000    4.500    0.000    6.000 
#    0.000    2.857    0.000   10.286    0.000    0.000 
#    0.000    0.000    0.000    0.000    0.000    0.000 
#
# Total GULP energy -312732.007506 kJ/mol
# GULP energy per Si atom -5584.500134 kJ/mol
# Density = 1.861423 g / cm^3
# Si number density = 18.656692 Si / 1000 Ang^3
#
#
#
# Elastic Constant Matrix: (Units=GPa)
#
#
# Indices 1 2 3 4 5 6 
#
# 1 91.5209 102.0297 26.1628 0.0000 0.0000 0.0000
# 2 102.0297 138.7259 35.8483 0.0000 0.0000 0.0000
# 3 26.1628 35.8483 41.0717 0.0000 0.0000 0.0000
# 4 0.0000 0.0000 0.0000 21.6159 0.0000 0.0000
# 5 0.0000 0.0000 0.0000 0.0000 28.3188 0.0000
# 6 0.0000 0.0000 0.0000 0.0000 0.0000 33.6303
#
#
#
# Elastic Compliance Matrix: (Units=1/GPa)
#
#
# Indices 1 2 3 4 5 6 
#
# 1 0.060683 -0.044731 0.000387 0.000000 0.000000 0.000000
# 2 -0.044731 0.042280 -0.008409 0.000000 0.000000 0.000000
# 3 0.000387 -0.008409 0.031441 0.000000 0.000000 0.000000
# 4 0.000000 0.000000 0.000000 0.046262 0.000000 0.000000
# 5 0.000000 0.000000 0.000000 0.000000 0.035312 0.000000
# 6 0.000000 0.000000 0.000000 0.000000 0.000000 0.029735
#
#
# Mechanical properties :
#
#
# Convention : Reuss Voigt Hill
#
# Bulk Modulus (GPa) = 34.60506 66.60000 50.60253
# Shear Modulus (GPa) = 13.85605 23.86484 18.86044
#
# Velocity S-wave (km/s) = 2.72818 3.58041 3.18295
# Velocity P-wave (km/s) = 5.33972 7.27101 6.37888
#
# Compressibility (1/GPa) = 0.02889751
#
# Stress axis : x y z
#
# Youngs Moduli (GPa) = 16.47903 23.65172 31.80565
#
# Poissons Ratio (x) = 1.05797 -0.01231
# Poissons Ratio (y) = 0.73713 0.26746
# Poissons Ratio (z) = -0.00638 0.19889
#
# Static dielectric constant tensor:
#      x y z
#    x 1.610960 0.000000 0.000000 
#    y 0.000000 1.670420 0.000000 
#    z 0.000000 0.000000 1.628690 
# 
# From -- ./inp_files/11326.got.cif
#   From: 2010.05.17/outbox.cif.g08.bks.cpg/sg47_6_cif.got.tgz:11326.got - 2010.06.03 20:15:42.
