data_PCOD9386830
_publ_section_title
;
Structure prediction by ZEFSAII (Michael W. Deem and Ramdas Pophale) SiO2 
 PCOD9386830
Probable space group: P M M M
;
_chemical_formula_sum "Si O2"
_cell_formula_units_Z 44
_cell_length_a 7.879821
_cell_length_b 14.197759
_cell_length_c 22.264521
_cell_angle_alpha 90.000000
_cell_angle_beta 90.000000
_cell_angle_gamma 90.000000
_cell_volume 2490.861088
_symmetry_space_group_name_H-M "P M M M"
_symmetry_group_IT_number 47
_symmetry_cell_setting 'orthorhombic'
loop_
_space_group_symop_operation_xyz
x,y,z
-x,-y,z
x,-y,-z
-x,y,-z
-x,-y,-z
x,y,-z
-x,y,z
x,-y,z
loop_
_atom_site_type_symbol
_atom_site_label
_atom_site_fract_x
_atom_site_fract_y
_atom_site_fract_z
Si Si1 0.705701 0.605792 0.872754
Si Si2 0.201194 0.202320 0.066767
Si Si3 0.196734 0.385338 0.500000
Si Si4 0.295564 0.707517 0.751960
Si Si5 0.204544 0.607548 0.369804
Si Si6 0.701140 0.895603 0.188342
O O1 0.500000 0.606488 0.874298
O O2 0.763295 0.500000 0.886745
O O3 0.766419 0.688492 0.916421
O O4 0.759395 0.636878 0.805412
O O5 0.277964 0.140062 0.120025
O O6 0.000000 0.186079 0.067340
O O7 0.267117 0.182001 0.000000
O O8 0.196039 0.500000 0.500000
O O9 0.271002 0.358702 0.564897
O O10 0.000000 0.353886 0.500000
O O11 0.500000 0.709947 0.754759
O O12 0.246875 0.671298 0.686772
O O13 0.229919 0.811161 0.770141
O O14 0.264885 0.500000 0.359238
O O15 0.000000 0.603372 0.374847
O O16 0.500000 0.900912 0.200181
O O17 0.774037 0.000000 0.196536
#
# Coordination Sequence:
#
# PCOD9386830 Si02
#       6
#     8   8   4   8   8   8
#     4   9  18  32  48  65  88 121 157 187 215 254
#     4  10  21  34  47  67  94 118 141 177 226 273
#     4   7  12  24  39  57  86 123 158 184 203 235
#     4   9  17  29  45  66  90 112 139 181 227 263
#     4   9  16  26  42  64  91 124 156 180 206 247
#     4   9  19  36  54  68  84 111 147 184 223 270
#
# _framework density 17.664573000000001
#
# number of rings (size 3 to 8) (size 9 to 14) (size 15 to 20)
#    0.000    3.000    0.000    3.273    0.000    6.909 
#    0.000    4.091    0.000    1.636    0.000    0.636 
#    0.000    5.091    0.000    0.000    0.000    0.000 
#
# Total GULP energy -245141.825603 kJ/mol
# GULP energy per Si atom -5571.405127 kJ/mol
# Density = 1.762437 g / cm^3
# Si number density = 17.664573 Si / 1000 Ang^3
#
#
#
# Elastic Constant Matrix: (Units=GPa)
#
#
# Indices 1 2 3 4 5 6 
#
# 1 14.3293 -0.1512 -5.9356 0.0000 0.0000 0.0000
# 2 -0.1512 84.8130 33.2428 0.0000 0.0000 0.0000
# 3 -5.9356 33.2428 122.3735 0.0000 0.0000 0.0000
# 4 0.0000 0.0000 0.0000 8.3326 0.0000 0.0000
# 5 0.0000 0.0000 0.0000 0.0000 25.4942 0.0000
# 6 0.0000 0.0000 0.0000 0.0000 0.0000 1.2226
#
#
#
# Elastic Compliance Matrix: (Units=1/GPa)
#
#
# Indices 1 2 3 4 5 6 
#
# 1 0.071361 -0.001376 0.003835 0.000000 0.000000 0.000000
# 2 -0.001376 0.013222 -0.003659 0.000000 0.000000 0.000000
# 3 0.003835 -0.003659 0.009352 0.000000 0.000000 0.000000
# 4 0.000000 0.000000 0.000000 0.120011 0.000000 0.000000
# 5 0.000000 0.000000 0.000000 0.000000 0.039225 0.000000
# 6 0.000000 0.000000 0.000000 0.000000 0.000000 0.817904
#
#
# Mechanical properties :
#
#
# Convention : Reuss Voigt Hill
#
# Bulk Modulus (GPa) = 10.92464 30.64754 20.78609
# Shear Modulus (GPa) = 4.52904 19.96719 12.24812
#
# Velocity S-wave (km/s) = 1.60296 3.36572 2.63605
# Velocity P-wave (km/s) = 3.10224 5.70013 4.58886
#
# Compressibility (1/GPa) = 0.09153622
#
# Stress axis : x y z
#
# Youngs Moduli (GPa) = 14.01319 75.63050 106.93400
#
# Poissons Ratio (x) = 0.10407 -0.41010
# Poissons Ratio (y) = 0.01928 0.39122
# Poissons Ratio (z) = -0.05374 0.27670
#
# Static dielectric constant tensor:
#      x y z
#    x 1.646380 0.000000 0.000000 
#    y 0.000000 1.606180 0.000000 
#    z 0.000000 0.000000 1.616570 
# 
# From -- ./inp_files/10856.got.cif
#   From: 2010.05.17/outbox.cif.g08.bks.cpg/sg47_6_cif.got.tgz:10856.got - 2010.06.03 20:15:42.
