data_PCOD9386155
_publ_section_title
;
Structure prediction by ZEFSAII (Michael W. Deem and Ramdas Pophale) SiO2 
 PCOD9386155
Probable space group: P M M M
;
_chemical_formula_sum "Si O2"
_cell_formula_units_Z 56
_cell_length_a 21.908640
_cell_length_b 14.657295
_cell_length_c 8.260268
_cell_angle_alpha 90.000000
_cell_angle_beta 90.000000
_cell_angle_gamma 90.000000
_cell_volume 2652.548821
_symmetry_space_group_name_H-M "P M M M"
_symmetry_group_IT_number 47
_symmetry_cell_setting 'orthorhombic'
loop_
_space_group_symop_operation_xyz
x,y,z
-x,-y,z
x,-y,-z
-x,y,-z
-x,-y,-z
x,y,-z
-x,y,z
x,-y,z
loop_
_atom_site_type_symbol
_atom_site_label
_atom_site_fract_x
_atom_site_fract_y
_atom_site_fract_z
Si Si1 0.068294 0.299029 0.303742
Si Si2 0.926920 0.096576 0.315140
Si Si3 0.387269 0.896922 0.808245
Si Si4 0.194861 0.711096 0.806137
Si Si5 0.750493 0.103913 0.307365
Si Si6 0.566803 0.709058 0.308953
Si Si7 0.685498 0.603314 0.194260
O O1 0.067041 0.295602 0.500000
O O2 0.077920 0.195661 0.237612
O O3 0.132876 0.339777 0.250702
O O4 0.000000 0.331320 0.254084
O O5 0.901355 0.099618 0.500000
O O6 0.000000 0.090485 0.332407
O O7 0.907284 0.000000 0.239611
O O8 0.315088 0.881901 0.776749
O O9 0.423117 0.816371 0.722444
O O10 0.401636 0.000000 0.752705
O O11 0.398571 0.891576 0.000000
O O12 0.204614 0.815037 0.743586
O O13 0.254914 0.657436 0.746284
O O14 0.194724 0.713887 0.000000
O O15 0.741330 0.108713 0.500000
O O16 0.770096 0.000000 0.268155
O O17 0.567995 0.692313 0.500000
O O18 0.500000 0.681966 0.244796
O O19 0.623516 0.656070 0.233668
O O20 0.683736 0.500000 0.256807
O O21 0.690909 0.599978 0.000000
#
# Coordination Sequence:
#
# PCOD9386155 Si02
#       7
#     8   8   8   8   8   8   8
#     4   9  18  32  51  77 110 149 191 235 288 353
#     4   7  10  19  37  61  90 127 173 220 261 307
#     4  10  20  35  57  86 122 164 208 250 291 338
#     4  11  22  36  58  86 116 151 192 244 300 354
#     4  10  20  34  55  83 116 156 200 245 293 348
#     4  11  24  40  61  92 128 163 199 243 296 353
#     4  10  23  44  67  89 114 150 198 248 302 366
#
# _framework density 21.11177
#
# number of rings (size 3 to 8) (size 9 to 14) (size 15 to 20)
#    0.000    2.286    1.429    3.000    0.000    5.143 
#    0.000    4.286    0.000    0.429    0.000    6.000 
#    0.000    0.000    0.000    0.000    0.000    0.000 
#
# Total GULP energy -312235.969199 kJ/mol
# GULP energy per Si atom -5575.642307 kJ/mol
# Density = 2.106372 g / cm^3
# Si number density = 21.111770 Si / 1000 Ang^3
#
#
#
# Elastic Constant Matrix: (Units=GPa)
#
#
# Indices 1 2 3 4 5 6 
#
# 1 152.3413 44.2831 8.4184 0.0000 0.0000 0.0000
# 2 44.2831 64.6220 7.8801 0.0000 0.0000 0.0000
# 3 8.4184 7.8801 20.3617 0.0000 0.0000 0.0000
# 4 0.0000 0.0000 0.0000 -4.7378 0.0000 0.0000
# 5 0.0000 0.0000 0.0000 0.0000 31.0159 0.0000
# 6 0.0000 0.0000 0.0000 0.0000 0.0000 -2.2494
#
#
#
# Elastic Compliance Matrix: (Units=1/GPa)
#
#
# Indices 1 2 3 4 5 6 
#
# 1 0.008229 -0.005483 -0.001280 0.000000 0.000000 0.000000
# 2 -0.005483 0.019894 -0.005432 0.000000 0.000000 0.000000
# 3 -0.001280 -0.005432 0.051744 0.000000 0.000000 0.000000
# 4 0.000000 0.000000 0.000000 -0.211067 0.000000 0.000000
# 5 0.000000 0.000000 0.000000 0.000000 0.032242 0.000000
# 6 0.000000 0.000000 0.000000 0.000000 0.000000 -0.444557
#
#
# Mechanical properties :
#
#
# Convention : Reuss Voigt Hill
#
# Bulk Modulus (GPa) = 18.02591 39.83201 28.92896
# Shear Modulus (GPa) = -9.98735 16.58861 3.30063
#
# Velocity S-wave (km/s) = -2.17738 2.80617 1.25172
# Velocity P-wave (km/s) = 1.49518 5.42288 3.97764
#
# Compressibility (1/GPa) = 0.05547570
#
# Stress axis : x y z
#
# Youngs Moduli (GPa) = 121.52618 50.26606 19.32607
#
# Poissons Ratio (x) = 0.27559 0.02474
# Poissons Ratio (y) = 0.66629 0.10499
# Poissons Ratio (z) = 0.15558 0.27307
#
# Static dielectric constant tensor:
#      x y z
#    x 1.816980 0.000000 0.000000 
#    y 0.000000 1.812440 0.000000 
#    z 0.000000 0.000000 1.736320 
# 
# From -- ./inp_files/11230.got.cif
#   From: 2010.05.17/outbox.cif.g08.bks.cpg/sg47_6_cif.got.tgz:11230.got - 2010.06.03 20:15:42.
