data_PCOD9386936
_publ_section_title
;
Structure prediction by ZEFSAII (Michael W. Deem and Ramdas Pophale) SiO2 
 PCOD9386936
Probable space group: P M M M
;
_chemical_formula_sum "Si O2"
_cell_formula_units_Z 52
_cell_length_a 9.121039
_cell_length_b 13.959848
_cell_length_c 27.326957
_cell_angle_alpha 90.000000
_cell_angle_beta 90.000000
_cell_angle_gamma 90.000000
_cell_volume 3479.495472
_symmetry_space_group_name_H-M "P M M M"
_symmetry_group_IT_number 47
_symmetry_cell_setting 'orthorhombic'
loop_
_space_group_symop_operation_xyz
x,y,z
-x,-y,z
x,-y,-z
-x,y,-z
-x,-y,-z
x,y,-z
-x,y,z
x,-y,z
loop_
_atom_site_type_symbol
_atom_site_label
_atom_site_fract_x
_atom_site_fract_y
_atom_site_fract_z
Si Si1 0.677322 0.106449 0.601576
Si Si2 0.676958 0.305208 0.555626
Si Si3 0.174889 0.390133 0.649933
Si Si4 0.324140 0.887380 0.801014
Si Si5 0.676792 0.785700 0.700512
Si Si6 0.330890 0.116798 0.000000
Si Si7 0.831028 0.883406 0.098857
O O1 0.500000 0.101910 0.599169
O O2 0.719571 0.194329 0.566515
O O3 0.714393 0.140157 0.656701
O O4 0.733819 0.000000 0.590527
O O5 0.712359 0.331458 0.500000
O O6 0.500000 0.312293 0.561952
O O7 0.755818 0.367517 0.596799
O O8 0.205538 0.500000 0.663376
O O9 0.247058 0.313662 0.686526
O O10 0.000000 0.376402 0.648090
O O11 0.500000 0.880963 0.806776
O O12 0.281547 0.828037 0.753016
O O13 0.247720 0.854347 0.850947
O O14 0.289139 0.000000 0.793258
O O15 0.500000 0.774038 0.699266
O O16 0.250740 0.148404 0.950407
O O17 0.500000 0.145888 0.000000
O O18 0.327552 0.000000 0.000000
O O19 0.000000 0.853872 0.098244
O O20 0.827142 0.000000 0.098399
#
# Coordination Sequence:
#
# PCOD9386936 Si02
#       7
#     8   8   8   8   8   4   8
#     4   8  13  23  41  64  87 109 134 164 197 234
#     4   9  18  31  47  68  89 108 134 167 201 239
#     4  10  21  35  49  64  82 106 135 167 208 256
#     4   9  16  26  41  62  87 113 142 175 209 246
#     4   9  17  29  46  66  85 107 137 172 207 244
#     4   9  15  23  35  49  69 103 148 193 228 253
#     4   9  16  24  34  51  77 110 147 183 217 252
#
# _framework density 14.944694999999999
#
# number of rings (size 3 to 8) (size 9 to 14) (size 15 to 20)
#    0.000    3.000    0.000    2.538    0.000    7.385 
#    0.000    3.077    0.000   11.077    0.000    4.308 
#    0.000    0.000    0.000    0.692    0.000   13.000 
#
# Total GULP energy -289609.857919 kJ/mol
# GULP energy per Si atom -5569.420345 kJ/mol
# Density = 1.491068 g / cm^3
# Si number density = 14.944695 Si / 1000 Ang^3
#
#
#
# Elastic Constant Matrix: (Units=GPa)
#
#
# Indices 1 2 3 4 5 6 
#
# 1 42.6893 23.6630 46.9621 0.0000 0.0000 0.0000
# 2 23.6630 51.9585 22.6843 0.0000 0.0000 0.0000
# 3 46.9621 22.6843 118.5232 0.0000 0.0000 0.0000
# 4 0.0000 0.0000 0.0000 9.1521 0.0000 0.0000
# 5 0.0000 0.0000 0.0000 0.0000 10.1747 0.0000
# 6 0.0000 0.0000 0.0000 0.0000 0.0000 12.2207
#
#
#
# Elastic Compliance Matrix: (Units=1/GPa)
#
#
# Indices 1 2 3 4 5 6 
#
# 1 0.051127 -0.015757 -0.017242 0.000000 0.000000 0.000000
# 2 -0.015757 0.025857 0.001294 0.000000 0.000000 0.000000
# 3 -0.017242 0.001294 0.015021 0.000000 0.000000 0.000000
# 4 0.000000 0.000000 0.000000 0.109265 0.000000 0.000000
# 5 0.000000 0.000000 0.000000 0.000000 0.098283 0.000000
# 6 0.000000 0.000000 0.000000 0.000000 0.000000 0.081828
#
#
# Mechanical properties :
#
#
# Convention : Reuss Voigt Hill
#
# Bulk Modulus (GPa) = 34.96950 44.42107 39.69529
# Shear Modulus (GPa) = 11.00539 14.30027 12.65283
#
# Velocity S-wave (km/s) = 2.71663 3.09670 2.91287
# Velocity P-wave (km/s) = 5.76976 6.52490 6.15891
#
# Compressibility (1/GPa) = 0.02859635
#
# Stress axis : x y z
#
# Youngs Moduli (GPa) = 19.55902 38.67439 66.57212
#
# Poissons Ratio (x) = 0.60938 1.14786
# Poissons Ratio (y) = 0.30819 -0.08617
# Poissons Ratio (z) = 0.33724 -0.05006
#
# Static dielectric constant tensor:
#      x y z
#    x 1.498160 0.000000 0.000000 
#    y 0.000000 1.481990 0.000000 
#    z 0.000000 0.000000 1.489230 
# 
# From -- ./inp_files/33382.got.cif
#   From: 2010.05.17/outbox.cif.g08.bks.cpg/sg47_17_cif.got.tgz:33382.got - 2010.06.03 20:15:42.
