data_PCOD9386869
_publ_section_title
;
Structure prediction by ZEFSAII (Michael W. Deem and Ramdas Pophale) SiO2 
 PCOD9386869
Probable space group: P M M M
;
_chemical_formula_sum "Si O2"
_cell_formula_units_Z 64
_cell_length_a 18.990706
_cell_length_b 7.314925
_cell_length_c 20.098415
_cell_angle_alpha 90.000000
_cell_angle_beta 90.000000
_cell_angle_gamma 90.000000
_cell_volume 2791.983180
_symmetry_space_group_name_H-M "P M M M"
_symmetry_group_IT_number 47
_symmetry_cell_setting 'orthorhombic'
loop_
_space_group_symop_operation_xyz
x,y,z
-x,-y,z
x,-y,-z
-x,y,-z
-x,-y,-z
x,y,-z
-x,y,z
x,-y,z
loop_
_atom_site_type_symbol
_atom_site_label
_atom_site_fract_x
_atom_site_fract_y
_atom_site_fract_z
Si Si1 0.184644 0.779430 0.815510
Si Si2 0.581930 0.722651 0.690930
Si Si3 0.580921 0.720470 0.159478
Si Si4 0.709018 0.789548 0.924827
Si Si5 0.079346 0.776342 0.705647
Si Si6 0.687437 0.281498 0.424277
Si Si7 0.079602 0.221056 0.929564
Si Si8 0.148585 0.782347 0.574078
O O1 0.250982 0.711931 0.859151
O O2 0.148791 0.716809 0.747139
O O3 0.122882 0.729283 0.866536
O O4 0.193462 0.000000 0.808373
O O5 0.500000 0.775529 0.680397
O O6 0.582917 0.500000 0.690760
O O7 0.603943 0.779076 0.765796
O O8 0.634232 0.785861 0.632732
O O9 0.500000 0.776041 0.152233
O O10 0.583313 0.500000 0.158590
O O11 0.628974 0.787056 0.099545
O O12 0.734204 0.000000 0.929621
O O13 0.717044 0.713514 0.000000
O O14 0.095734 0.717599 0.630597
O O15 0.000000 0.720610 0.727224
O O16 0.078831 0.000000 0.709667
O O17 0.674549 0.213239 0.500000
O O18 0.678480 0.500000 0.426599
O O19 0.769225 0.246313 0.407830
O O20 0.000000 0.285143 0.926498
O O21 0.077718 0.000000 0.929847
O O22 0.111600 0.278831 0.000000
O O23 0.138045 0.707702 0.500000
O O24 0.138683 0.000000 0.570938
#
# Coordination Sequence:
#
# PCOD9386869 Si02
#       8
#     8   8   8   8   8   8   8   8
#     4   9  16  26  40  61  92 123 149 187 236 283
#     4   8  15  29  49  73 100 128 161 203 245 284
#     4   9  19  36  55  73  95 127 166 204 241 283
#     4  10  21  34  49  73 102 129 157 195 246 298
#     4   9  17  28  44  67  92 123 165 205 238 278
#     4   9  17  29  48  74 101 130 164 200 240 289
#     4   8  12  18  31  51  77 113 149 176 212 267
#     4   9  18  31  46  67  97 131 164 201 244 285
#
# _framework density 22.922772999999999
#
# number of rings (size 3 to 8) (size 9 to 14) (size 15 to 20)
#    0.000    3.125    0.000    1.875    1.750    4.250 
#    0.000    3.750    0.000    1.500    0.000    3.500 
#    0.000    1.500    0.000    6.125    0.000    6.250 
#
# Total GULP energy -356732.042372 kJ/mol
# GULP energy per Si atom -5573.938162 kJ/mol
# Density = 2.287060 g / cm^3
# Si number density = 22.922773 Si / 1000 Ang^3
#
#
#
# Elastic Constant Matrix: (Units=GPa)
#
#
# Indices 1 2 3 4 5 6 
#
# 1 78.2228 -2.9456 62.2359 0.0000 0.0000 0.0000
# 2 -2.9456 90.4638 2.3748 0.0000 0.0000 0.0000
# 3 62.2359 2.3748 114.5951 0.0000 0.0000 0.0000
# 4 0.0000 0.0000 0.0000 -20.3249 0.0000 0.0000
# 5 0.0000 0.0000 0.0000 0.0000 15.7772 0.0000
# 6 0.0000 0.0000 0.0000 0.0000 0.0000 11.7624
#
#
#
# Elastic Compliance Matrix: (Units=1/GPa)
#
#
# Indices 1 2 3 4 5 6 
#
# 1 0.022612 0.001059 -0.012302 0.000000 0.000000 0.000000
# 2 0.001059 0.011110 -0.000805 0.000000 0.000000 0.000000
# 3 -0.012302 -0.000805 0.015424 0.000000 0.000000 0.000000
# 4 0.000000 0.000000 0.000000 -0.049201 0.000000 0.000000
# 5 0.000000 0.000000 0.000000 0.000000 0.063382 0.000000
# 6 0.000000 0.000000 0.000000 0.000000 0.000000 0.085017
#
#
# Mechanical properties :
#
#
# Convention : Reuss Voigt Hill
#
# Bulk Modulus (GPa) = 39.92195 45.17909 42.55052
# Shear Modulus (GPa) = 27.65618 16.21738 21.93678
#
# Velocity S-wave (km/s) = 3.47723 2.66273 3.09688
# Velocity P-wave (km/s) = 5.79441 5.40422 5.60271
#
# Compressibility (1/GPa) = 0.02504888
#
# Stress axis : x y z
#
# Youngs Moduli (GPa) = 44.22444 90.01081 64.83233
#
# Poissons Ratio (x) = -0.09534 0.79759
# Poissons Ratio (y) = -0.04684 0.05222
# Poissons Ratio (z) = 0.54406 0.07250
#
# Static dielectric constant tensor:
#      x y z
#    x 1.846940 0.000000 0.000000 
#    y 0.000000 2.018280 0.000000 
#    z 0.000000 0.000000 1.872070 
# 
# From -- ./inp_files/11592.got.cif
#   From: 2010.05.17/outbox.cif.g08.bks.cpg/sg47_6_cif.got.tgz:11592.got - 2010.06.03 20:15:42.
