data_PCOD9386097
_publ_section_title
;
Structure prediction by ZEFSAII (Michael W. Deem and Ramdas Pophale) SiO2 
 PCOD9386097
Probable space group: P M M M
;
_chemical_formula_sum "Si O2"
_cell_formula_units_Z 64
_cell_length_a 9.091467
_cell_length_b 32.289388
_cell_length_c 14.473277
_cell_angle_alpha 90.000000
_cell_angle_beta 90.000000
_cell_angle_gamma 90.000000
_cell_volume 4248.744881
_symmetry_space_group_name_H-M "P M M M"
_symmetry_group_IT_number 47
_symmetry_cell_setting 'orthorhombic'
loop_
_space_group_symop_operation_xyz
x,y,z
-x,-y,z
x,-y,-z
-x,y,-z
-x,-y,-z
x,y,-z
-x,y,z
x,-y,z
loop_
_atom_site_type_symbol
_atom_site_label
_atom_site_fract_x
_atom_site_fract_y
_atom_site_fract_z
Si Si1 0.827063 0.662443 0.395914
Si Si2 0.670784 0.871905 0.112306
Si Si3 0.175298 0.702046 0.795297
Si Si4 0.324936 0.426081 0.605760
Si Si5 0.826640 0.045126 0.888156
Si Si6 0.673331 0.622905 0.110508
Si Si7 0.174741 0.546545 0.787843
Si Si8 0.677786 0.220131 0.109178
O O1 0.805339 0.678666 0.500000
O O2 0.796969 0.694054 0.313446
O O3 0.728095 0.621582 0.385076
O O4 0.000000 0.650041 0.387688
O O5 0.500000 0.874930 0.137650
O O6 0.752379 0.912891 0.146437
O O7 0.725679 0.826179 0.139242
O O8 0.677840 0.871914 0.000000
O O9 0.245529 0.662817 0.847759
O O10 0.247761 0.743670 0.833316
O O11 0.000000 0.702737 0.810316
O O12 0.292847 0.438971 0.500000
O O13 0.500000 0.429237 0.620253
O O14 0.237933 0.450378 0.684143
O O15 0.000000 0.046665 0.868812
O O16 0.769178 0.000000 0.856267
O O17 0.810725 0.045264 0.000000
O O18 0.500000 0.624620 0.133632
O O19 0.744511 0.581757 0.153459
O O20 0.688219 0.622837 0.000000
O O21 0.200607 0.500000 0.823562
O O22 0.000000 0.554343 0.787094
O O23 0.500000 0.222079 0.117027
O O24 0.712190 0.225371 0.000000
#
# Coordination Sequence:
#
# PCOD9386097 Si02
#       8
#     8   8   8   8   8   8   8   8
#     4   9  18  33  52  73  98 124 147 176 218 265
#     4   8  14  24  36  50  71 103 144 186 225 265
#     4  11  21  32  51  76  96 118 150 185 221 265
#     4  10  20  34  55  81 104 126 152 181 215 259
#     4   8  13  20  30  46  69  98 134 179 230 275
#     4  11  24  40  57  75  96 123 152 186 228 267
#     4  11  24  40  57  77 100 126 154 184 221 264
#     4   9  18  31  44  60  87 122 155 189 231 271
#
# _framework density 15.063272
#
# number of rings (size 3 to 8) (size 9 to 14) (size 15 to 20)
#    0.000    2.375    1.250    3.000    0.000    6.250 
#    0.000    5.000    0.000    0.000    0.000    0.000 
#    0.000    0.000    0.000    0.000    0.000    0.625 
#
# Total GULP energy -356743.788611 kJ/mol
# GULP energy per Si atom -5574.121697 kJ/mol
# Density = 1.502899 g / cm^3
# Si number density = 15.063272 Si / 1000 Ang^3
#
#
#
# Elastic Constant Matrix: (Units=GPa)
#
#
# Indices 1 2 3 4 5 6 
#
# 1 51.5798 55.1648 30.4960 0.0000 0.0000 0.0000
# 2 55.1648 141.1530 45.2279 0.0000 0.0000 0.0000
# 3 30.4960 45.2279 50.4852 0.0000 0.0000 0.0000
# 4 0.0000 0.0000 0.0000 -0.6155 0.0000 0.0000
# 5 0.0000 0.0000 0.0000 0.0000 19.6437 0.0000
# 6 0.0000 0.0000 0.0000 0.0000 0.0000 29.0320
#
#
#
# Elastic Compliance Matrix: (Units=1/GPa)
#
#
# Indices 1 2 3 4 5 6 
#
# 1 0.039286 -0.010870 -0.013993 0.000000 0.000000 0.000000
# 2 -0.010870 0.012945 -0.005030 0.000000 0.000000 0.000000
# 3 -0.013993 -0.005030 0.032767 0.000000 0.000000 0.000000
# 4 0.000000 0.000000 0.000000 -1.624746 0.000000 0.000000
# 5 0.000000 0.000000 0.000000 0.000000 0.050907 0.000000
# 6 0.000000 0.000000 0.000000 0.000000 0.000000 0.034445
#
#
# Mechanical properties :
#
#
# Convention : Reuss Voigt Hill
#
# Bulk Modulus (GPa) = 39.66572 56.11058 47.88815
# Shear Modulus (GPa) = -3.60697 17.10065 6.74684
#
# Velocity S-wave (km/s) = -1.54911 3.37301 2.11866
# Velocity P-wave (km/s) = 4.81563 7.24571 6.15185
#
# Compressibility (1/GPa) = 0.02521069
#
# Stress axis : x y z
#
# Youngs Moduli (GPa) = 25.45420 77.25278 30.51850
#
# Poissons Ratio (x) = 0.83974 0.42705
# Poissons Ratio (y) = 0.27669 0.15352
# Poissons Ratio (z) = 0.35618 0.38861
#
# Static dielectric constant tensor:
#      x y z
#    x 1.503690 0.000000 0.000000 
#    y 0.000000 1.508390 0.000000 
#    z 0.000000 0.000000 1.491230 
# 
# From -- ./inp_files/8212.got.cif
#   From: 2010.05.17/outbox.cif.g08.bks.cpg/sg47_5_cif.got.tgz:8212.got - 2010.06.03 20:15:42.
