data_PCOD9386921
_publ_section_title
;
Structure prediction by ZEFSAII (Michael W. Deem and Ramdas Pophale) SiO2 
 PCOD9386921
Probable space group: P M M M
;
_chemical_formula_sum "Si O2"
_cell_formula_units_Z 53
_cell_length_a 14.901993
_cell_length_b 22.119203
_cell_length_c 9.130638
_cell_angle_alpha 90.000000
_cell_angle_beta 90.000000
_cell_angle_gamma 90.000000
_cell_volume 3009.642799
_symmetry_space_group_name_H-M "P M M M"
_symmetry_group_IT_number 47
_symmetry_cell_setting 'orthorhombic'
loop_
_space_group_symop_operation_xyz
x,y,z
-x,-y,z
x,-y,-z
-x,y,-z
-x,-y,-z
x,y,-z
-x,y,z
x,-y,z
loop_
_atom_site_type_symbol
_atom_site_label
_atom_site_fract_x
_atom_site_fract_y
_atom_site_fract_z
Si Si1 0.896096 0.348863 0.673935
Si Si2 0.812977 0.000000 0.162187
Si Si3 0.392814 0.668234 0.827761
Si Si4 0.230377 0.123747 0.675101
Si Si5 0.396154 0.793922 0.325154
Si Si6 0.729619 0.569521 0.675829
Si Si7 0.107463 0.222628 0.171709
Si Si8 0.000000 0.000000 0.000000
O O1 0.888884 0.335193 0.500000
O O2 0.827781 0.402669 0.707146
O O3 0.871839 0.288776 0.763650
O O4 0.000000 0.364094 0.704434
O O5 0.785935 0.059775 0.249240
O O6 0.919424 0.000000 0.125355
O O7 0.769531 0.000000 0.000000
O O8 0.500000 0.661227 0.808152
O O9 0.367797 0.732373 0.755463
O O10 0.341188 0.613598 0.751541
O O11 0.373038 0.669556 0.000000
O O12 0.221406 0.119124 0.500000
O O13 0.328056 0.152187 0.708958
O O14 0.159295 0.171680 0.738962
O O15 0.391752 0.783057 0.500000
O O16 0.500000 0.806896 0.287080
O O17 0.717067 0.571785 0.500000
O O18 0.721929 0.500000 0.722808
O O19 0.000000 0.214008 0.185284
O O20 0.130608 0.219098 0.000000
#
# Coordination Sequence:
#
# PCOD9386921 Si02
#       8
#     8   4   8   8   8   8   8   1
#     4   9  18  34  53  75 103 134 173 222 271 319
#     4  10  23  41  60  78 112 151 188 220 259 312
#     4  10  21  36  55  80 109 139 176 222 272 321
#     4  11  22  36  57  85 112 141 183 226 266 312
#     4   9  19  37  60  84 111 143 177 218 269 323
#     4  10  21  35  52  75 103 138 179 220 267 325
#     4  10  21  34  52  77 108 142 176 216 269 326
#     4   8  24  44  62  76 110 160 198 216 254 324
#
# _framework density 17.610063
#
# number of rings (size 3 to 8) (size 9 to 14) (size 15 to 20)
#    0.226    1.962    0.000    2.491    1.057    8.151 
#    0.000    3.774    0.000    2.264    0.000    3.170 
#    0.000    0.000    0.000    0.000    0.000    0.000 
#
# Total GULP energy -295564.226010 kJ/mol
# GULP energy per Si atom -5576.683510 kJ/mol
# Density = 1.756998 g / cm^3
# Si number density = 17.610063 Si / 1000 Ang^3
#
#
#
# Elastic Constant Matrix: (Units=GPa)
#
#
# Indices 1 2 3 4 5 6 
#
# 1 81.6913 83.1962 57.7238 0.0000 0.0000 0.0000
# 2 83.1962 157.8900 73.9875 0.0000 0.0000 0.0000
# 3 57.7238 73.9875 68.9471 0.0000 0.0000 0.0000
# 4 0.0000 0.0000 0.0000 -54.8880 0.0000 0.0000
# 5 0.0000 0.0000 0.0000 0.0000 24.6416 0.0000
# 6 0.0000 0.0000 0.0000 0.0000 0.0000 -3.2359
#
#
#
# Elastic Compliance Matrix: (Units=1/GPa)
#
#
# Indices 1 2 3 4 5 6 
#
# 1 0.036219 -0.009806 -0.019800 0.000000 0.000000 0.000000
# 2 -0.009806 0.015395 -0.008310 0.000000 0.000000 0.000000
# 3 -0.019800 -0.008310 0.039999 0.000000 0.000000 0.000000
# 4 0.000000 0.000000 0.000000 -0.018219 0.000000 0.000000
# 5 0.000000 0.000000 0.000000 0.000000 0.040582 0.000000
# 6 0.000000 0.000000 0.000000 0.000000 0.000000 -0.309033
#
#
# Mechanical properties :
#
#
# Convention : Reuss Voigt Hill
#
# Bulk Modulus (GPa) = 63.37426 82.03814 72.70620
# Shear Modulus (GPa) = -43.87365 -0.45507 -22.16436
#
# Velocity S-wave (km/s) = -4.99680 -0.50890 -3.55155
# Velocity P-wave (km/s) = 1.66581 6.80748 4.95564
#
# Compressibility (1/GPa) = 0.01577928
#
# Stress axis : x y z
#
# Youngs Moduli (GPa) = 27.60965 64.95598 25.00081
#
# Poissons Ratio (x) = 0.63699 0.49502
# Poissons Ratio (y) = 0.27075 0.20777
# Poissons Ratio (z) = 0.54667 0.53981
#
# Static dielectric constant tensor:
#      x y z
#    x 1.607910 0.000000 0.000000 
#    y 0.000000 1.565360 0.000000 
#    z 0.000000 0.000000 1.587350 
# 
# From -- ./inp_files/7123.got.cif
#   From: 2010.05.17/outbox.cif.g08.bks.cpg/sg47_4_cif.got.tgz:7123.got - 2010.06.03 20:15:42.
