data_PCOD9386542
_publ_section_title
;
Structure prediction by ZEFSAII (Michael W. Deem and Ramdas Pophale) SiO2 
 PCOD9386542
Probable space group: P M M M
;
_chemical_formula_sum "Si O2"
_cell_formula_units_Z 25
_cell_length_a 19.749202
_cell_length_b 9.202938
_cell_length_c 7.302093
_cell_angle_alpha 90.000000
_cell_angle_beta 90.000000
_cell_angle_gamma 90.000000
_cell_volume 1327.160380
_symmetry_space_group_name_H-M "P M M M"
_symmetry_group_IT_number 47
_symmetry_cell_setting 'orthorhombic'
loop_
_space_group_symop_operation_xyz
x,y,z
-x,-y,z
x,-y,-z
-x,y,-z
-x,-y,-z
x,y,-z
-x,y,z
x,-y,z
loop_
_atom_site_type_symbol
_atom_site_label
_atom_site_fract_x
_atom_site_fract_y
_atom_site_fract_z
Si Si1 0.135827 0.167394 0.777085
Si Si2 0.500000 0.000000 0.500000
Si Si3 0.000000 0.332206 0.776507
Si Si4 0.640065 0.839326 0.500000
Si Si5 0.273908 0.671055 0.218807
O O1 0.067710 0.248864 0.718008
O O2 0.203249 0.254171 0.724547
O O3 0.137367 0.000000 0.717999
O O4 0.134870 0.166897 0.000000
O O5 0.439249 0.124465 0.500000
O O6 0.000000 0.500000 0.719480
O O7 0.000000 0.331770 0.000000
O O8 0.666151 0.751080 0.674873
O O9 0.673675 0.000000 0.500000
O O10 0.272294 0.500000 0.260385
O O11 0.281167 0.687941 0.000000
#
# Coordination Sequence:
#
# PCOD9386542 Si02
#       5
#     8   1   4   4   8
#     4   9  16  26  43  71 106 148 196 242 285 333
#     4   8  24  44  64  92 116 148 186 224 278 344
#     4   9  15  23  37  62 103 150 194 243 292 332
#     4  10  21  41  63  86 114 149 186 228 282 339
#     4  10  20  35  58  88 119 152 193 239 287 339
#
# _framework density 18.837212999999998
#
# number of rings (size 3 to 8) (size 9 to 14) (size 15 to 20)
#    0.480    2.080    0.000    2.880    0.000    7.680 
#    0.000    3.200    0.000    2.880    0.000    6.720 
#    0.000    0.000    0.000    0.000    0.000    0.000 
#
# Total GULP energy -139285.198900 kJ/mol
# GULP energy per Si atom -5571.407956 kJ/mol
# Density = 1.879434 g / cm^3
# Si number density = 18.837213 Si / 1000 Ang^3
#
#
#
# Elastic Constant Matrix: (Units=GPa)
#
#
# Indices 1 2 3 4 5 6 
#
# 1 198.7277 111.3845 41.0371 0.0000 0.0000 0.0000
# 2 111.3845 199.4156 45.7429 0.0000 0.0000 0.0000
# 3 41.0371 45.7429 79.9641 0.0000 0.0000 0.0000
# 4 0.0000 0.0000 0.0000 9.0413 0.0000 0.0000
# 5 0.0000 0.0000 0.0000 0.0000 7.4105 0.0000
# 6 0.0000 0.0000 0.0000 0.0000 0.0000 15.8747
#
#
#
# Elastic Compliance Matrix: (Units=1/GPa)
#
#
# Indices 1 2 3 4 5 6 
#
# 1 0.007515 -0.003813 -0.001675 0.000000 0.000000 0.000000
# 2 -0.003813 0.007707 -0.002452 0.000000 0.000000 0.000000
# 3 -0.001675 -0.002452 0.014768 0.000000 0.000000 0.000000
# 4 0.000000 0.000000 0.000000 0.110603 0.000000 0.000000
# 5 0.000000 0.000000 0.000000 0.000000 0.134944 0.000000
# 6 0.000000 0.000000 0.000000 0.000000 0.000000 0.062993
#
#
# Mechanical properties :
#
#
# Convention : Reuss Voigt Hill
#
# Bulk Modulus (GPa) = 70.87573 97.15962 84.01767
# Shear Modulus (GPa) = 13.92312 25.12816 19.52564
#
# Velocity S-wave (km/s) = 2.72164 3.65631 3.22304
# Velocity P-wave (km/s) = 6.89808 8.33758 7.65176
#
# Compressibility (1/GPa) = 0.01410920
#
# Stress axis : x y z
#
# Youngs Moduli (GPa) = 133.06082 129.75122 67.71441
#
# Poissons Ratio (x) = 0.49480 0.11345
# Poissons Ratio (y) = 0.50742 0.16602
# Poissons Ratio (z) = 0.22293 0.31812
#
# Static dielectric constant tensor:
#      x y z
#    x 1.597830 0.000000 0.000000 
#    y 0.000000 1.628450 0.000000 
#    z 0.000000 0.000000 1.734100 
# 
# From -- ./inp_files/8392.got.cif
#   From: 2010.05.17/outbox.cif.g08.bks.cpg/sg47_5_cif.got.tgz:8392.got - 2010.06.03 20:15:42.
