data_PCOD9386091
_publ_section_title
;
Structure prediction by ZEFSAII (Michael W. Deem and Ramdas Pophale) SiO2 
 PCOD9386091
Probable space group: P M M M
;
_chemical_formula_sum "Si O2"
_cell_formula_units_Z 56
_cell_length_a 21.937604
_cell_length_b 16.678431
_cell_length_c 8.165670
_cell_angle_alpha 90.000000
_cell_angle_beta 90.000000
_cell_angle_gamma 90.000000
_cell_volume 2987.694654
_symmetry_space_group_name_H-M "P M M M"
_symmetry_group_IT_number 47
_symmetry_cell_setting 'orthorhombic'
loop_
_space_group_symop_operation_xyz
x,y,z
-x,-y,z
x,-y,-z
-x,y,-z
-x,-y,-z
x,y,-z
-x,y,z
x,-y,z
loop_
_atom_site_type_symbol
_atom_site_label
_atom_site_fract_x
_atom_site_fract_y
_atom_site_fract_z
Si Si1 0.601792 0.253947 0.177804
Si Si2 0.072286 0.409485 0.197533
Si Si3 0.573393 0.911564 0.688330
Si Si4 0.261009 0.314154 0.179402
Si Si5 0.706287 0.407969 0.500000
Si Si6 0.928451 0.909905 0.197778
Si Si7 0.857726 0.248946 0.691609
Si Si8 0.432651 0.651016 0.500000
O O1 0.593354 0.159783 0.197921
O O2 0.673496 0.271853 0.182365
O O3 0.571348 0.295777 0.334768
O O4 0.578297 0.281543 0.000000
O O5 0.092559 0.500000 0.249203
O O6 0.105890 0.331748 0.269642
O O7 0.000000 0.403783 0.234183
O O8 0.078953 0.405913 0.000000
O O9 0.593146 0.896677 0.500000
O O10 0.500000 0.912104 0.686778
O O11 0.594330 0.000000 0.737473
O O12 0.264794 0.370932 0.336605
O O13 0.204702 0.255137 0.206834
O O14 0.254252 0.353709 0.000000
O O15 0.719216 0.500000 0.500000
O O16 0.632151 0.395681 0.500000
O O17 0.893968 0.832084 0.264912
O O18 0.000000 0.903635 0.241633
O O19 0.907529 0.000000 0.249385
O O20 0.924543 0.907393 0.000000
O O21 0.843524 0.247603 0.500000
O O22 0.500000 0.610832 0.500000
#
# Coordination Sequence:
#
# PCOD9386091 Si02
#       8
#     8   8   8   8   4   8   8   4
#     4  10  20  34  55  78 105 146 190 229 277 333
#     4   9  19  36  56  79 110 149 190 231 283 347
#     4   9  17  29  47  74 108 143 177 217 269 325
#     4  10  22  41  60  81 112 150 191 238 283 334
#     4  10  22  41  62  87 116 145 187 232 275 344
#     4   9  19  37  60  85 115 154 200 248 300 358
#     4  12  23  35  56  85 116 151 195 246 294 348
#     4  10  20  35  57  84 114 144 175 224 281 334
#
# _framework density 18.743549000000002
#
# number of rings (size 3 to 8) (size 9 to 14) (size 15 to 20)
#    0.000    2.143    1.429    3.429    0.000    5.286 
#    0.000    2.857    0.000    0.857    0.000    4.000 
#    0.000    0.000    0.000    0.000    0.000    0.000 
#
# Total GULP energy -312174.400118 kJ/mol
# GULP energy per Si atom -5574.542859 kJ/mol
# Density = 1.870089 g / cm^3
# Si number density = 18.743549 Si / 1000 Ang^3
#
#
#
# Elastic Constant Matrix: (Units=GPa)
#
#
# Indices 1 2 3 4 5 6 
#
# 1 59.4630 29.0339 27.0529 0.0000 0.0000 0.0000
# 2 29.0339 102.5806 41.8296 0.0000 0.0000 0.0000
# 3 27.0529 41.8296 112.1358 0.0000 0.0000 0.0000
# 4 0.0000 0.0000 0.0000 8.3441 0.0000 0.0000
# 5 0.0000 0.0000 0.0000 0.0000 25.4356 0.0000
# 6 0.0000 0.0000 0.0000 0.0000 0.0000 74.2340
#
#
#
# Elastic Compliance Matrix: (Units=1/GPa)
#
#
# Indices 1 2 3 4 5 6 
#
# 1 0.020487 -0.004462 -0.003278 0.000000 0.000000 0.000000
# 2 -0.004462 0.012469 -0.003575 0.000000 0.000000 0.000000
# 3 -0.003278 -0.003575 0.011042 0.000000 0.000000 0.000000
# 4 0.000000 0.000000 0.000000 0.119845 0.000000 0.000000
# 5 0.000000 0.000000 0.000000 0.000000 0.039315 0.000000
# 6 0.000000 0.000000 0.000000 0.000000 0.000000 0.013471
#
#
# Mechanical properties :
#
#
# Convention : Reuss Voigt Hill
#
# Bulk Modulus (GPa) = 46.79764 52.22358 49.51061
# Shear Modulus (GPa) = 20.29372 33.35361 26.82367
#
# Velocity S-wave (km/s) = 3.29402 4.22295 3.78708
# Velocity P-wave (km/s) = 6.28402 7.19030 6.75238
#
# Compressibility (1/GPa) = 0.02136860
#
# Stress axis : x y z
#
# Youngs Moduli (GPa) = 48.81108 80.19878 90.56228
#
# Poissons Ratio (x) = 0.35783 0.29688
# Poissons Ratio (y) = 0.21779 0.32375
# Poissons Ratio (z) = 0.16001 0.28670
#
# Static dielectric constant tensor:
#      x y z
#    x 1.641300 0.000000 0.000000 
#    y 0.000000 1.635050 0.000000 
#    z 0.000000 0.000000 1.644700 
# 
# From -- ./inp_files/11323.got.cif
#   From: 2010.05.17/outbox.cif.g08.bks.cpg/sg47_6_cif.got.tgz:11323.got - 2010.06.03 20:15:42.
