data_PCOD9386491
_publ_section_title
;
Structure prediction by ZEFSAII (Michael W. Deem and Ramdas Pophale) SiO2 
 PCOD9386491
Probable space group: P M M M
;
_chemical_formula_sum "Si O2"
_cell_formula_units_Z 44
_cell_length_a 14.549576
_cell_length_b 8.818086
_cell_length_c 18.406789
_cell_angle_alpha 90.000000
_cell_angle_beta 90.000000
_cell_angle_gamma 90.000000
_cell_volume 2361.580213
_symmetry_space_group_name_H-M "P M M M"
_symmetry_group_IT_number 47
_symmetry_cell_setting 'orthorhombic'
loop_
_space_group_symop_operation_xyz
x,y,z
-x,-y,z
x,-y,-z
-x,y,-z
-x,-y,-z
x,y,-z
-x,y,z
x,-y,z
loop_
_atom_site_type_symbol
_atom_site_label
_atom_site_fract_x
_atom_site_fract_y
_atom_site_fract_z
Si Si1 0.893447 0.682504 0.215303
Si Si2 0.783493 0.181358 0.918520
Si Si3 0.605000 0.181258 0.691398
Si Si4 0.892012 0.181951 0.500000
Si Si5 0.604909 0.318933 0.853017
Si Si6 0.786319 0.682119 0.362699
O O1 0.888382 0.500000 0.209166
O O2 0.848772 0.753835 0.143963
O O3 0.836476 0.725676 0.287107
O O4 0.000000 0.725815 0.223165
O O5 0.682024 0.246327 0.903250
O O6 0.781019 0.000000 0.913265
O O7 0.813344 0.223722 0.000000
O O8 0.500000 0.213235 0.667984
O O9 0.615722 0.250653 0.772175
O O10 0.683186 0.253956 0.641741
O O11 0.616730 0.000000 0.695127
O O12 0.842553 0.249273 0.570701
O O13 0.000000 0.222186 0.500000
O O14 0.884242 0.000000 0.500000
O O15 0.500000 0.288556 0.876727
O O16 0.617959 0.500000 0.849221
O O17 0.785124 0.500000 0.367577
#
# Coordination Sequence:
#
# PCOD9386491 Si02
#       6
#     8   8   8   4   8   8
#     4  10  22  40  62  87 114 151 199 247 299 358
#     4  11  24  39  56  82 117 156 199 249 304 359
#     4  10  20  35  59  91 125 160 198 241 291 351
#     4  11  25  43  64  93 128 165 203 246 300 355
#     4  10  20  35  57  85 116 153 198 245 295 353
#     4  11  22  39  65  94 124 159 200 246 296 354
#
# _framework density 18.631594
#
# number of rings (size 3 to 8) (size 9 to 14) (size 15 to 20)
#    0.000    1.545    1.818    3.000    0.000    6.909 
#    0.000    4.091    0.000    2.727    0.000    0.000 
#    0.000    0.000    0.000    0.000    0.000    0.000 
#
# Total GULP energy -245917.264610 kJ/mol
# GULP energy per Si atom -5589.028741 kJ/mol
# Density = 1.858919 g / cm^3
# Si number density = 18.631594 Si / 1000 Ang^3
#
#
#
# Elastic Constant Matrix: (Units=GPa)
#
#
# Indices 1 2 3 4 5 6 
#
# 1 136.3296 51.9736 81.1516 0.0000 0.0000 0.0000
# 2 51.9736 50.3471 51.0572 0.0000 0.0000 0.0000
# 3 81.1516 51.0572 130.3102 0.0000 0.0000 0.0000
# 4 0.0000 0.0000 0.0000 32.9265 0.0000 0.0000
# 5 0.0000 0.0000 0.0000 0.0000 9.1703 0.0000
# 6 0.0000 0.0000 0.0000 0.0000 0.0000 29.4646
#
#
#
# Elastic Compliance Matrix: (Units=1/GPa)
#
#
# Indices 1 2 3 4 5 6 
#
# 1 0.013817 -0.009188 -0.005005 0.000000 0.000000 0.000000
# 2 -0.009188 0.039067 -0.009585 0.000000 0.000000 0.000000
# 3 -0.005005 -0.009585 0.014546 0.000000 0.000000 0.000000
# 4 0.000000 0.000000 0.000000 0.030371 0.000000 0.000000
# 5 0.000000 0.000000 0.000000 0.000000 0.109048 0.000000
# 6 0.000000 0.000000 0.000000 0.000000 0.000000 0.033939
#
#
# Mechanical properties :
#
#
# Convention : Reuss Voigt Hill
#
# Bulk Modulus (GPa) = 50.31482 76.15019 63.23250
# Shear Modulus (GPa) = 16.95092 23.16590 20.05841
#
# Velocity S-wave (km/s) = 3.01955 3.52997 3.28469
# Velocity P-wave (km/s) = 6.26264 7.58778 6.95684
#
# Compressibility (1/GPa) = 0.01987486
#
# Stress axis : x y z
#
# Youngs Moduli (GPa) = 72.37409 25.59677 68.74649
#
# Poissons Ratio (x) = 0.23519 0.34405
# Poissons Ratio (y) = 0.66499 0.65894
# Poissons Ratio (z) = 0.36220 0.24535
#
# Static dielectric constant tensor:
#      x y z
#    x 1.642620 0.000000 0.000000 
#    y 0.000000 1.620450 0.000000 
#    z 0.000000 0.000000 1.617700 
# 
# From -- ./inp_files/9016.got.cif
#   From: 2010.05.17/outbox.cif.g08.bks.cpg/sg47_5_cif.got.tgz:9016.got - 2010.06.03 20:15:42.
