data_PCOD9386041
_publ_section_title
;
Structure prediction by ZEFSAII (Michael W. Deem and Ramdas Pophale) SiO2 
 PCOD9386041
Probable space group: P M M M
;
_chemical_formula_sum "Si O2"
_cell_formula_units_Z 48
_cell_length_a 14.524391
_cell_length_b 8.769827
_cell_length_c 21.006718
_cell_angle_alpha 90.000000
_cell_angle_beta 90.000000
_cell_angle_gamma 90.000000
_cell_volume 2675.760038
_symmetry_space_group_name_H-M "P M M M"
_symmetry_group_IT_number 47
_symmetry_cell_setting 'orthorhombic'
loop_
_space_group_symop_operation_xyz
x,y,z
-x,-y,z
x,-y,-z
-x,y,-z
-x,-y,-z
x,y,-z
-x,y,z
x,-y,z
loop_
_atom_site_type_symbol
_atom_site_label
_atom_site_fract_x
_atom_site_fract_y
_atom_site_fract_z
Si Si1 0.207426 0.318155 0.877792
Si Si2 0.603564 0.816049 0.320429
Si Si3 0.106650 0.182531 0.000000
Si Si4 0.792806 0.816386 0.622481
Si Si5 0.893444 0.682462 0.500000
Si Si6 0.890867 0.181468 0.755596
Si Si7 0.396417 0.683891 0.820679
O O1 0.204757 0.500000 0.885992
O O2 0.158501 0.241411 0.937494
O O3 0.154804 0.271624 0.813334
O O4 0.313691 0.269721 0.866963
O O5 0.500000 0.770730 0.340143
O O6 0.686568 0.769502 0.366488
O O7 0.619855 0.751212 0.249691
O O8 0.606231 0.000000 0.316094
O O9 0.000000 0.234735 0.000000
O O10 0.106522 0.000000 0.000000
O O11 0.841498 0.742078 0.562448
O O12 0.845879 0.778155 0.687944
O O13 0.796084 0.000000 0.615046
O O14 0.893206 0.500000 0.500000
O O15 0.000000 0.735246 0.500000
O O16 0.000000 0.207589 0.753777
O O17 0.875143 0.000000 0.765786
O O18 0.500000 0.728708 0.840549
O O19 0.393904 0.500000 0.815734
#
# Coordination Sequence:
#
# PCOD9386041 Si02
#       7
#     8   8   4   8   4   8   8
#     4  11  22  36  57  84 112 144 184 228 274 325
#     4   9  17  31  55  86 114 141 178 225 272 318
#     4  11  25  43  60  77 106 150 191 229 278 333
#     4  10  20  36  58  82 110 146 186 225 273 333
#     4  11  25  41  56  77 108 146 189 237 284 329
#     4  10  20  34  54  81 111 142 181 228 275 327
#     4   9  18  33  54  82 115 148 179 216 270 330
#
# _framework density 17.938828999999998
#
# number of rings (size 3 to 8) (size 9 to 14) (size 15 to 20)
#    0.000    2.000    1.667    2.000    0.000    6.333 
#    0.000    0.833    0.000    5.000    0.000    0.000 
#    0.000    0.000    0.000    0.000    0.000    0.000 
#
# Total GULP energy -267948.096281 kJ/mol
# GULP energy per Si atom -5582.252006 kJ/mol
# Density = 1.789800 g / cm^3
# Si number density = 17.938829 Si / 1000 Ang^3
#
#
#
# Elastic Constant Matrix: (Units=GPa)
#
#
# Indices 1 2 3 4 5 6 
#
# 1 177.4091 45.1184 93.5652 0.0000 0.0000 0.0000
# 2 45.1184 23.3755 38.8924 0.0000 0.0000 0.0000
# 3 93.5652 38.8924 131.2242 0.0000 0.0000 0.0000
# 4 0.0000 0.0000 0.0000 50.0456 0.0000 0.0000
# 5 0.0000 0.0000 0.0000 0.0000 30.7906 0.0000
# 6 0.0000 0.0000 0.0000 0.0000 0.0000 22.8158
#
#
#
# Elastic Compliance Matrix: (Units=1/GPa)
#
#
# Indices 1 2 3 4 5 6 
#
# 1 0.011740 -0.017228 -0.003265 0.000000 0.000000 0.000000
# 2 -0.017228 0.109680 -0.020223 0.000000 0.000000 0.000000
# 3 -0.003265 -0.020223 0.015942 0.000000 0.000000 0.000000
# 4 0.000000 0.000000 0.000000 0.019982 0.000000 0.000000
# 5 0.000000 0.000000 0.000000 0.000000 0.032477 0.000000
# 6 0.000000 0.000000 0.000000 0.000000 0.000000 0.043829
#
#
# Mechanical properties :
#
#
# Convention : Reuss Voigt Hill
#
# Bulk Modulus (GPa) = 17.87940 76.35120 47.11530
# Shear Modulus (GPa) = 14.98234 31.02591 23.00413
#
# Velocity S-wave (km/s) = 2.89310 4.16328 3.58490
# Velocity P-wave (km/s) = 4.59876 8.10956 6.59217
#
# Compressibility (1/GPa) = 0.05593028
#
# Stress axis : x y z
#
# Youngs Moduli (GPa) = 85.17996 9.11741 62.72669
#
# Poissons Ratio (x) = 0.15707 0.20478
# Poissons Ratio (y) = 1.46747 1.26855
# Poissons Ratio (z) = 0.27809 0.18439
#
# Static dielectric constant tensor:
#      x y z
#    x 1.645370 0.000000 0.000000 
#    y 0.000000 1.606100 0.000000 
#    z 0.000000 0.000000 1.562490 
# 
# From -- ./inp_files/6442.got.cif
#   From: 2010.05.17/outbox.cif.g08.bks.cpg/sg47_4_cif.got.tgz:6442.got - 2010.06.03 20:15:42.
