data_PCOD9386463
_publ_section_title
;
Structure prediction by ZEFSAII (Michael W. Deem and Ramdas Pophale) SiO2 
 PCOD9386463
Probable space group: P M M M
;
_chemical_formula_sum "Si O2"
_cell_formula_units_Z 48
_cell_length_a 33.133813
_cell_length_b 8.246130
_cell_length_c 9.114389
_cell_angle_alpha 90.000000
_cell_angle_beta 90.000000
_cell_angle_gamma 90.000000
_cell_volume 2490.285583
_symmetry_space_group_name_H-M "P M M M"
_symmetry_group_IT_number 47
_symmetry_cell_setting 'orthorhombic'
loop_
_space_group_symop_operation_xyz
x,y,z
-x,-y,z
x,-y,-z
-x,y,-z
-x,-y,-z
x,y,-z
-x,y,z
x,-y,z
loop_
_atom_site_type_symbol
_atom_site_label
_atom_site_fract_x
_atom_site_fract_y
_atom_site_fract_z
Si Si1 0.413553 0.693689 0.829215
Si Si2 0.500000 0.193724 0.171629
Si Si3 0.666359 0.193085 0.331221
Si Si4 0.824808 0.809237 0.328104
Si Si5 0.046483 0.000000 0.821225
Si Si6 0.096658 0.318179 0.823043
Si Si7 0.254361 0.692389 0.168897
O O1 0.410255 0.500000 0.828370
O O2 0.457573 0.742376 0.768239
O O3 0.376773 0.766513 0.738851
O O4 0.410990 0.749397 0.000000
O O5 0.500000 0.000000 0.177713
O O6 0.500000 0.246441 0.000000
O O7 0.667909 0.248656 0.500000
O O8 0.702273 0.272211 0.238985
O O9 0.672335 0.000000 0.328510
O O10 0.824640 0.768155 0.500000
O O11 0.859200 0.709987 0.244252
O O12 0.781120 0.776137 0.259791
O O13 0.834227 0.000000 0.312426
O O14 0.069056 0.834235 0.775105
O O15 0.000000 0.000000 0.773576
O O16 0.046830 0.000000 0.000000
O O17 0.081932 0.500000 0.784246
O O18 0.099388 0.311153 0.000000
O O19 0.247124 0.500000 0.171827
O O20 0.253611 0.747606 0.000000
#
# Coordination Sequence:
#
# PCOD9386463 Si02
#       7
#     8   4   8   8   4   8   8
#     4  10  20  35  57  84 112 143 182 228 277 331
#     4   9  17  31  54  83 112 143 180 224 274 327
#     4  11  24  40  57  80 111 147 187 230 279 336
#     4  11  23  38  58  85 117 154 195 239 290 347
#     4   9  18  34  57  87 123 159 197 249 305 350
#     4  10  20  35  58  87 118 156 201 246 297 356
#     4  11  24  40  59  85 114 146 188 235 284 341
#
# _framework density 19.274898
#
# number of rings (size 3 to 8) (size 9 to 14) (size 15 to 20)
#    0.000    1.667    0.833    3.750    0.000   12.333 
#    0.000    2.083    0.000    3.500    0.000    1.167 
#    0.000    0.000    0.000    0.000    0.000    0.000 
#
# Total GULP energy -268156.572215 kJ/mol
# GULP energy per Si atom -5586.595254 kJ/mol
# Density = 1.923103 g / cm^3
# Si number density = 19.274898 Si / 1000 Ang^3
#
#
#
# Elastic Constant Matrix: (Units=GPa)
#
#
# Indices 1 2 3 4 5 6 
#
# 1 108.7249 34.6770 22.8153 0.0000 0.0000 0.0000
# 2 34.6770 75.9708 31.0944 0.0000 0.0000 0.0000
# 3 22.8153 31.0944 46.6350 0.0000 0.0000 0.0000
# 4 0.0000 0.0000 0.0000 15.7745 0.0000 0.0000
# 5 0.0000 0.0000 0.0000 0.0000 -60.5144 0.0000
# 6 0.0000 0.0000 0.0000 0.0000 0.0000 19.3951
#
#
#
# Elastic Compliance Matrix: (Units=1/GPa)
#
#
# Indices 1 2 3 4 5 6 
#
# 1 0.011025 -0.003885 -0.002803 0.000000 0.000000 0.000000
# 2 -0.003885 0.019472 -0.011083 0.000000 0.000000 0.000000
# 3 -0.002803 -0.011083 0.030204 0.000000 0.000000 0.000000
# 4 0.000000 0.000000 0.000000 0.063394 0.000000 0.000000
# 5 0.000000 0.000000 0.000000 0.000000 -0.016525 0.000000
# 6 0.000000 0.000000 0.000000 0.000000 0.000000 0.051559
#
#
# Mechanical properties :
#
#
# Convention : Reuss Voigt Hill
#
# Bulk Modulus (GPa) = 39.74687 45.38936 42.56811
# Shear Modulus (GPa) = 24.62350 4.44730 14.53540
#
# Velocity S-wave (km/s) = 3.57808 1.52063 2.74909
# Velocity P-wave (km/s) = 6.14296 5.16552 5.67533
#
# Compressibility (1/GPa) = 0.02515922
#
# Stress axis : x y z
#
# Youngs Moduli (GPa) = 90.70408 51.35488 33.10797
#
# Poissons Ratio (x) = 0.19951 0.09282
# Poissons Ratio (y) = 0.35238 0.36693
# Poissons Ratio (z) = 0.25428 0.56916
#
# Static dielectric constant tensor:
#      x y z
#    x 1.639080 0.000000 0.000000 
#    y 0.000000 1.679840 0.000000 
#    z 0.000000 0.000000 1.653020 
# 
# From -- ./inp_files/13925.got.cif
#   From: 2010.05.17/outbox.cif.g08.bks.cpg/sg47_7_cif.got.tgz:13925.got - 2010.06.03 20:15:42.
