data_PCOD9386285
_publ_section_title
;
Structure prediction by ZEFSAII (Michael W. Deem and Ramdas Pophale) SiO2 
 PCOD9386285
Probable space group: P M M M
;
_chemical_formula_sum "Si O2"
_cell_formula_units_Z 64
_cell_length_a 15.906418
_cell_length_b 25.580735
_cell_length_c 8.251564
_cell_angle_alpha 90.000000
_cell_angle_beta 90.000000
_cell_angle_gamma 90.000000
_cell_volume 3357.543763
_symmetry_space_group_name_H-M "P M M M"
_symmetry_group_IT_number 47
_symmetry_cell_setting 'orthorhombic'
loop_
_space_group_symop_operation_xyz
x,y,z
-x,-y,z
x,-y,-z
-x,y,-z
-x,-y,-z
x,y,-z
-x,y,z
x,-y,z
loop_
_atom_site_type_symbol
_atom_site_label
_atom_site_fract_x
_atom_site_fract_y
_atom_site_fract_z
Si Si1 0.770280 0.058150 0.194058
Si Si2 0.629135 0.209394 0.188988
Si Si3 0.591270 0.325756 0.304542
Si Si4 0.808899 0.764058 0.307560
Si Si5 0.094801 0.440318 0.804840
Si Si6 0.094080 0.142255 0.804248
Si Si7 0.775210 0.646452 0.305176
Si Si8 0.591228 0.903561 0.309178
O O1 0.834977 0.101892 0.256261
O O2 0.673948 0.072655 0.229398
O O3 0.788370 0.000000 0.257293
O O4 0.780631 0.057270 0.000000
O O5 0.597680 0.264853 0.255804
O O6 0.729499 0.211571 0.214059
O O7 0.595877 0.158834 0.281039
O O8 0.608565 0.204612 0.000000
O O9 0.592252 0.328399 0.500000
O O10 0.500000 0.345994 0.247929
O O11 0.677763 0.352823 0.246455
O O12 0.790853 0.765920 0.500000
O O13 0.886767 0.800558 0.266259
O O14 0.813645 0.703199 0.260233
O O15 0.111081 0.500000 0.749843
O O16 0.166146 0.400106 0.753042
O O17 0.000000 0.425573 0.749531
O O18 0.093158 0.441019 0.000000
O O19 0.000000 0.124912 0.762486
O O20 0.099646 0.145523 0.000000
O O21 0.772803 0.644287 0.500000
O O22 0.595353 0.914482 0.500000
O O23 0.500000 0.922034 0.247252
#
# Coordination Sequence:
#
# PCOD9386285 Si02
#       8
#     8   8   8   8   8   8   8   8
#     4  10  22  40  60  81 106 138 178 226 273 320
#     4  11  20  31  51  79 109 140 178 222 267 315
#     4   9  18  33  51  74 110 151 185 219 263 317
#     4  10  20  35  54  78 112 149 181 216 265 321
#     4   9  19  36  56  78 106 142 184 229 277 326
#     4  10  21  37  58  84 111 141 178 219 268 327
#     4   9  19  33  52  81 111 142 182 224 266 315
#     4  11  23  37  55  79 107 141 178 217 267 326
#
# _framework density 19.061553
#
# number of rings (size 3 to 8) (size 9 to 14) (size 15 to 20)
#    0.000    2.125    1.250    3.375    0.000    7.250 
#    0.000    5.625    0.000    0.375    0.000    4.375 
#    0.000    0.000    0.000    0.000    0.000    0.000 
#
# Total GULP energy -357099.459424 kJ/mol
# GULP energy per Si atom -5579.679053 kJ/mol
# Density = 1.901817 g / cm^3
# Si number density = 19.061553 Si / 1000 Ang^3
#
#
#
# Elastic Constant Matrix: (Units=GPa)
#
#
# Indices 1 2 3 4 5 6 
#
# 1 136.1254 72.5937 11.2797 0.0000 0.0000 0.0000
# 2 72.5937 93.6801 8.7674 0.0000 0.0000 0.0000
# 3 11.2797 8.7674 11.3988 0.0000 0.0000 0.0000
# 4 0.0000 0.0000 0.0000 30.1410 0.0000 0.0000
# 5 0.0000 0.0000 0.0000 0.0000 23.9777 0.0000
# 6 0.0000 0.0000 0.0000 0.0000 0.0000 -39.7995
#
#
#
# Elastic Compliance Matrix: (Units=1/GPa)
#
#
# Indices 1 2 3 4 5 6 
#
# 1 0.012826 -0.009430 -0.005439 0.000000 0.000000 0.000000
# 2 -0.009430 0.018436 -0.004849 0.000000 0.000000 0.000000
# 3 -0.005439 -0.004849 0.096839 0.000000 0.000000 0.000000
# 4 0.000000 0.000000 0.000000 0.033177 0.000000 0.000000
# 5 0.000000 0.000000 0.000000 0.000000 0.041705 0.000000
# 6 0.000000 0.000000 0.000000 0.000000 0.000000 -0.025126
#
#
# Mechanical properties :
#
#
# Convention : Reuss Voigt Hill
#
# Bulk Modulus (GPa) = 11.27820 47.38732 29.33276
# Shear Modulus (GPa) = 20.25550 12.76807 16.51179
#
# Velocity S-wave (km/s) = 3.26335 2.59092 2.94638
# Velocity P-wave (km/s) = 4.48652 5.81933 5.19584
#
# Compressibility (1/GPa) = 0.08866660
#
# Stress axis : x y z
#
# Youngs Moduli (GPa) = 77.96957 54.24311 10.32639
#
# Poissons Ratio (x) = 0.51149 0.05616
# Poissons Ratio (y) = 0.73522 0.05007
# Poissons Ratio (z) = 0.42405 0.26300
#
# Static dielectric constant tensor:
#      x y z
#    x 1.698030 0.000000 0.000000 
#    y 0.000000 1.645620 0.000000 
#    z 0.000000 0.000000 1.665530 
# 
# From -- ./inp_files/7847.got.cif
#   From: 2010.05.17/outbox.cif.g08.bks.cpg/sg47_4_cif.got.tgz:7847.got - 2010.06.03 20:15:42.
