data_PCOD9386678
_publ_section_title
;
Structure prediction by ZEFSAII (Michael W. Deem and Ramdas Pophale) SiO2 
 PCOD9386678
Probable space group: P M M M
;
_chemical_formula_sum "Si O2"
_cell_formula_units_Z 40
_cell_length_a 7.729156
_cell_length_b 10.234670
_cell_length_c 25.652884
_cell_angle_alpha 90.000000
_cell_angle_beta 90.000000
_cell_angle_gamma 90.000000
_cell_volume 2029.280650
_symmetry_space_group_name_H-M "P M M M"
_symmetry_group_IT_number 47
_symmetry_cell_setting 'orthorhombic'
loop_
_space_group_symop_operation_xyz
x,y,z
-x,-y,z
x,-y,-z
-x,y,-z
-x,-y,-z
x,y,-z
-x,y,z
x,-y,z
loop_
_atom_site_type_symbol
_atom_site_label
_atom_site_fract_x
_atom_site_fract_y
_atom_site_fract_z
Si Si1 0.291371 0.849628 0.330052
Si Si2 0.212106 0.500000 0.059154
Si Si3 0.792370 0.255214 0.125549
Si Si4 0.704471 0.158190 0.443996
Si Si5 0.704961 0.000000 0.940324
Si Si6 0.208262 0.651168 0.762468
O O1 0.500000 0.856718 0.333799
O O2 0.224873 0.804529 0.387250
O O3 0.249238 0.745018 0.285887
O O4 0.231834 0.000000 0.319338
O O5 0.270961 0.626429 0.090007
O O6 0.000000 0.500000 0.058924
O O7 0.270170 0.500000 0.000000
O O8 0.753574 0.124158 0.094526
O O9 0.727642 0.279182 0.184308
O O10 0.000000 0.264134 0.128694
O O11 0.778345 0.202880 0.500000
O O12 0.500000 0.192057 0.444613
O O13 0.713976 0.000000 0.443872
O O14 0.500000 0.000000 0.945606
O O15 0.777707 0.000000 0.000000
O O16 0.270736 0.500000 0.758507
O O17 0.000000 0.643300 0.765639
#
# Coordination Sequence:
#
# PCOD9386678 Si02
#       6
#     8   4   8   8   4   8
#     4   9  18  31  50  79 108 134 170 213 259 311
#     4   9  16  30  57  85 101 119 162 221 260 286
#     4  10  20  37  59  81 102 132 175 215 252 298
#     4   7  10  20  41  69 100 131 164 207 255 299
#     4  11  25  41  55  79 115 143 162 197 254 313
#     4  10  21  37  54  74 103 137 175 217 258 301
#
# _framework density 19.711417999999998
#
# number of rings (size 3 to 8) (size 9 to 14) (size 15 to 20)
#    0.000    2.800    1.000    2.700    1.400    3.200 
#    0.000    0.500    0.000    3.000    0.000    7.000 
#    0.000    0.000    0.000    0.000    0.000    0.000 
#
# Total GULP energy -222832.868367 kJ/mol
# GULP energy per Si atom -5570.821709 kJ/mol
# Density = 1.966655 g / cm^3
# Si number density = 19.711418 Si / 1000 Ang^3
#
#
#
# Elastic Constant Matrix: (Units=GPa)
#
#
# Indices 1 2 3 4 5 6 
#
# 1 30.7582 4.0351 11.1841 0.0000 0.0000 0.0000
# 2 4.0351 149.2139 116.6921 0.0000 0.0000 0.0000
# 3 11.1841 116.6921 258.4076 0.0000 0.0000 0.0000
# 4 0.0000 0.0000 0.0000 30.2136 0.0000 0.0000
# 5 0.0000 0.0000 0.0000 0.0000 24.6917 0.0000
# 6 0.0000 0.0000 0.0000 0.0000 0.0000 38.6467
#
#
#
# Elastic Compliance Matrix: (Units=1/GPa)
#
#
# Indices 1 2 3 4 5 6 
#
# 1 0.033043 0.000348 -0.001587 0.000000 0.000000 0.000000
# 2 0.000348 0.010364 -0.004695 0.000000 0.000000 0.000000
# 3 -0.001587 -0.004695 0.006059 0.000000 0.000000 0.000000
# 4 0.000000 0.000000 0.000000 0.033098 0.000000 0.000000
# 5 0.000000 0.000000 0.000000 0.000000 0.040499 0.000000
# 6 0.000000 0.000000 0.000000 0.000000 0.000000 0.025875
#
#
# Mechanical properties :
#
#
# Convention : Reuss Voigt Hill
#
# Bulk Modulus (GPa) = 26.59809 78.02246 52.31028
# Shear Modulus (GPa) = 28.84488 39.14165 33.99327
#
# Velocity S-wave (km/s) = 3.82954 4.46099 4.15727
# Velocity P-wave (km/s) = 5.75125 8.13648 7.04553
#
# Compressibility (1/GPa) = 0.03759668
#
# Stress axis : x y z
#
# Youngs Moduli (GPa) = 30.26346 96.48388 165.04598
#
# Poissons Ratio (x) = -0.03354 0.26195
# Poissons Ratio (y) = -0.01052 0.77496
# Poissons Ratio (z) = 0.04803 0.45303
#
# Static dielectric constant tensor:
#      x y z
#    x 1.750290 0.000000 0.000000 
#    y 0.000000 -0.214100 0.000000 
#    z 0.000000 0.000000 1.740690 
# 
# From -- ./inp_files/32996.got.cif
#   From: 2010.05.17/outbox.cif.g08.bks.cpg/sg47_17_cif.got.tgz:32996.got - 2010.06.03 20:15:42.
