data_PCOD9386005
_publ_section_title
;
Structure prediction by ZEFSAII (Michael W. Deem and Ramdas Pophale) SiO2 
 PCOD9386005
Probable space group: P M M M
;
_chemical_formula_sum "Si O2"
_cell_formula_units_Z 52
_cell_length_a 20.055924
_cell_length_b 8.250649
_cell_length_c 16.186637
_cell_angle_alpha 90.000000
_cell_angle_beta 90.000000
_cell_angle_gamma 90.000000
_cell_volume 2678.473872
_symmetry_space_group_name_H-M "P M M M"
_symmetry_group_IT_number 47
_symmetry_cell_setting 'orthorhombic'
loop_
_space_group_symop_operation_xyz
x,y,z
-x,-y,z
x,-y,-z
-x,y,-z
-x,-y,-z
x,y,-z
-x,y,z
x,-y,z
loop_
_atom_site_type_symbol
_atom_site_label
_atom_site_fract_x
_atom_site_fract_y
_atom_site_fract_z
Si Si1 0.425226 0.307055 0.673938
Si Si2 0.924685 0.805895 0.179124
Si Si3 0.292692 0.804017 0.408045
Si Si4 0.791944 0.805576 0.747125
Si Si5 0.716399 0.308864 0.909790
Si Si6 0.919044 0.316067 0.000000
Si Si7 0.574976 0.191717 0.861389
O O1 0.500000 0.273178 0.642938
O O2 0.419324 0.500000 0.687622
O O3 0.367394 0.249416 0.613950
O O4 0.418085 0.221518 0.762939
O O5 0.867039 0.742875 0.239126
O O6 0.000000 0.741276 0.190965
O O7 0.928204 0.000000 0.187343
O O8 0.901455 0.768267 0.085664
O O9 0.273759 0.749473 0.500000
O O10 0.245674 0.742639 0.333897
O O11 0.290710 0.000000 0.406872
O O12 0.750426 0.769780 0.830124
O O13 0.795664 0.000000 0.739173
O O14 0.729580 0.500000 0.905828
O O15 0.637079 0.279069 0.903014
O O16 0.739425 0.247727 0.000000
O O17 0.894144 0.500000 0.000000
O O18 0.000000 0.318768 0.000000
O O19 0.500000 0.246415 0.884679
O O20 0.579758 0.000000 0.878143
#
# Coordination Sequence:
#
# PCOD9386005 Si02
#       7
#     8   8   8   8   8   4   8
#     4  10  20  34  54  80 109 140 176 222 275 327
#     4   9  18  33  53  77 106 141 182 223 264 316
#     4  10  21  37  57  81 108 140 181 227 274 326
#     4  10  21  37  57  79 106 144 183 222 271 325
#     4  11  24  38  53  78 111 146 184 228 274 319
#     4   9  17  29  47  75 109 141 174 213 260 313
#     4  10  20  35  56  79 105 141 185 229 272 320
#
# _framework density 19.41404
#
# number of rings (size 3 to 8) (size 9 to 14) (size 15 to 20)
#    0.000    2.077    1.538    1.615    1.077    5.538 
#    0.000    3.077    0.000    0.462    0.000    3.231 
#    0.000    0.000    0.000    6.615    0.000    7.077 
#
# Total GULP energy -290307.636771 kJ/mol
# GULP energy per Si atom -5582.839169 kJ/mol
# Density = 1.936985 g / cm^3
# Si number density = 19.414040 Si / 1000 Ang^3
#
#
#
# Elastic Constant Matrix: (Units=GPa)
#
#
# Indices 1 2 3 4 5 6 
#
# 1 118.9601 6.3832 69.3242 0.0000 0.0000 0.0000
# 2 6.3832 10.7176 5.4168 0.0000 0.0000 0.0000
# 3 69.3242 5.4168 125.6575 0.0000 0.0000 0.0000
# 4 0.0000 0.0000 0.0000 52.5931 0.0000 0.0000
# 5 0.0000 0.0000 0.0000 0.0000 15.1188 0.0000
# 6 0.0000 0.0000 0.0000 0.0000 0.0000 3.3432
#
#
#
# Elastic Compliance Matrix: (Units=1/GPa)
#
#
# Indices 1 2 3 4 5 6 
#
# 1 0.012560 -0.004067 -0.006754 0.000000 0.000000 0.000000
# 2 -0.004067 0.096700 -0.001925 0.000000 0.000000 0.000000
# 3 -0.006754 -0.001925 0.011767 0.000000 0.000000 0.000000
# 4 0.000000 0.000000 0.000000 0.019014 0.000000 0.000000
# 5 0.000000 0.000000 0.000000 0.000000 0.066143 0.000000
# 6 0.000000 0.000000 0.000000 0.000000 0.000000 0.299113
#
#
# Mechanical properties :
#
#
# Convention : Reuss Voigt Hill
#
# Bulk Modulus (GPa) = 10.46731 46.39818 28.43274
# Shear Modulus (GPa) = 8.88676 25.82509 17.35593
#
# Velocity S-wave (km/s) = 2.14183 3.65119 2.99321
# Velocity P-wave (km/s) = 3.39410 6.45957 5.15975
#
# Compressibility (1/GPa) = 0.09553556
#
# Stress axis : x y z
#
# Youngs Moduli (GPa) = 79.61519 10.34129 84.98112
#
# Poissons Ratio (x) = 0.04206 0.57398
# Poissons Ratio (y) = 0.32381 0.16356
# Poissons Ratio (z) = 0.53773 0.01990
#
# Static dielectric constant tensor:
#      x y z
#    x 1.719490 0.000000 0.000000 
#    y 0.000000 1.670110 0.000000 
#    z 0.000000 0.000000 1.675320 
# 
# From -- ./inp_files/24985.got.cif
#   From: 2010.05.17/outbox.cif.g08.bks.cpg/sg47_13_cif.got.tgz:24985.got - 2010.06.03 20:15:42.
