data_PCOD9386591
_publ_section_title
;
Structure prediction by ZEFSAII (Michael W. Deem and Ramdas Pophale) SiO2 
 PCOD9386591
Probable space group: P M M M
;
_chemical_formula_sum "Si O2"
_cell_formula_units_Z 56
_cell_length_a 16.546290
_cell_length_b 19.932406
_cell_length_c 8.019652
_cell_angle_alpha 90.000000
_cell_angle_beta 90.000000
_cell_angle_gamma 90.000000
_cell_volume 2644.940335
_symmetry_space_group_name_H-M "P M M M"
_symmetry_group_IT_number 47
_symmetry_cell_setting 'orthorhombic'
loop_
_space_group_symop_operation_xyz
x,y,z
-x,-y,z
x,-y,-z
-x,y,-z
-x,-y,-z
x,y,-z
-x,y,z
x,-y,z
loop_
_atom_site_type_symbol
_atom_site_label
_atom_site_fract_x
_atom_site_fract_y
_atom_site_fract_z
Si Si1 0.749923 0.578098 0.203943
Si Si2 0.404343 0.073067 0.200231
Si Si3 0.588282 0.349905 0.193988
Si Si4 0.095126 0.925518 0.298857
Si Si5 0.651049 0.783438 0.313168
Si Si6 0.911341 0.654125 0.797295
Si Si7 0.172023 0.212314 0.804636
O O1 0.748638 0.500000 0.247305
O O2 0.668399 0.614728 0.265479
O O3 0.833130 0.612895 0.261164
O O4 0.750196 0.583288 0.000000
O O5 0.500000 0.076097 0.237635
O O6 0.364140 0.139122 0.271317
O O7 0.373886 0.000000 0.259305
O O8 0.395792 0.074713 0.000000
O O9 0.500000 0.365450 0.268125
O O10 0.604062 0.270125 0.201924
O O11 0.585212 0.369937 0.000000
O O12 0.101356 0.922696 0.500000
O O13 0.142490 0.862946 0.225503
O O14 0.000000 0.919722 0.256492
O O15 0.122767 0.000000 0.245145
O O16 0.624085 0.769972 0.500000
O O17 0.746268 0.772442 0.292705
O O18 0.894683 0.732348 0.758975
O O19 0.000000 0.633134 0.736215
O O20 0.912744 0.648290 0.000000
O O21 0.190999 0.221313 0.000000
#
# Coordination Sequence:
#
# PCOD9386591 Si02
#       7
#     8   8   8   8   8   8   8
#     4   9  17  31  53  84 120 151 182 225 278 337
#     4   9  19  37  59  81 107 142 184 230 283 341
#     4  10  20  36  58  83 114 152 191 232 280 334
#     4   9  19  36  55  77 110 149 188 235 291 347
#     4  12  24  36  54  80 111 147 190 237 288 342
#     4   9  17  30  51  81 115 147 181 227 282 334
#     4  11  21  35  55  78 109 146 191 242 288 336
#
# _framework density 21.172498999999998
#
# number of rings (size 3 to 8) (size 9 to 14) (size 15 to 20)
#    0.000    2.143    1.429    3.429    0.000    4.857 
#    0.000    4.286    0.000    0.429    0.000    1.000 
#    0.000    1.143    0.000    0.000    0.000    0.000 
#
# Total GULP energy -312631.213695 kJ/mol
# GULP energy per Si atom -5582.700245 kJ/mol
# Density = 2.112431 g / cm^3
# Si number density = 21.172499 Si / 1000 Ang^3
#
#
#
# Elastic Constant Matrix: (Units=GPa)
#
#
# Indices 1 2 3 4 5 6 
#
# 1 146.8558 65.8312 8.6206 0.0000 0.0000 0.0000
# 2 65.8312 114.9119 2.2907 0.0000 0.0000 0.0000
# 3 8.6206 2.2907 17.2082 0.0000 0.0000 0.0000
# 4 0.0000 0.0000 0.0000 -51.8121 0.0000 0.0000
# 5 0.0000 0.0000 0.0000 0.0000 -2.8949 0.0000
# 6 0.0000 0.0000 0.0000 0.0000 0.0000 15.3491
#
#
#
# Elastic Compliance Matrix: (Units=1/GPa)
#
#
# Indices 1 2 3 4 5 6 
#
# 1 0.009431 -0.005323 -0.004016 0.000000 0.000000 0.000000
# 2 -0.005323 0.011730 0.001105 0.000000 0.000000 0.000000
# 3 -0.004016 0.001105 0.059977 0.000000 0.000000 0.000000
# 4 0.000000 0.000000 0.000000 -0.019301 0.000000 0.000000
# 5 0.000000 0.000000 0.000000 0.000000 -0.345439 0.000000
# 6 0.000000 0.000000 0.000000 0.000000 0.000000 0.065150
#
#
# Mechanical properties :
#
#
# Convention : Reuss Voigt Hill
#
# Bulk Modulus (GPa) = 15.46315 48.05122 31.75718
# Shear Modulus (GPa) = -27.71205 5.61065 -11.05070
#
# Velocity S-wave (km/s) = -3.62176 1.62964 -2.28707
# Velocity P-wave (km/s) = 3.18908 5.12692 2.83858
#
# Compressibility (1/GPa) = 0.06466989
#
# Stress axis : x y z
#
# Youngs Moduli (GPa) = 106.03009 85.25343 16.67314
#
# Poissons Ratio (x) = 0.45380 0.06696
# Poissons Ratio (y) = 0.56440 -0.01843
# Poissons Ratio (z) = 0.42583 -0.09422
#
# Static dielectric constant tensor:
#      x y z
#    x 1.763260 0.000000 0.000000 
#    y 0.000000 1.739680 0.000000 
#    z 0.000000 0.000000 1.762100 
# 
# From -- ./inp_files/7293.got.cif
#   From: 2010.05.17/outbox.cif.g08.bks.cpg/sg47_4_cif.got.tgz:7293.got - 2010.06.03 20:15:42.
