data_PCOD9386223
_publ_section_title
;
Structure prediction by ZEFSAII (Michael W. Deem and Ramdas Pophale) SiO2 
 PCOD9386223
Probable space group: P M M M
;
_chemical_formula_sum "Si O2"
_cell_formula_units_Z 56
_cell_length_a 21.592126
_cell_length_b 14.338356
_cell_length_c 9.030910
_cell_angle_alpha 90.000000
_cell_angle_beta 90.000000
_cell_angle_gamma 90.000000
_cell_volume 2795.929904
_symmetry_space_group_name_H-M "P M M M"
_symmetry_group_IT_number 47
_symmetry_cell_setting 'orthorhombic'
loop_
_space_group_symop_operation_xyz
x,y,z
-x,-y,z
x,-y,-z
-x,y,-z
-x,-y,-z
x,y,-z
-x,y,z
x,-y,z
loop_
_atom_site_type_symbol
_atom_site_label
_atom_site_fract_x
_atom_site_fract_y
_atom_site_fract_z
Si Si1 0.684770 0.611416 0.171925
Si Si2 0.929234 0.293374 0.174581
Si Si3 0.744387 0.106476 0.674528
Si Si4 0.925997 0.103674 0.666798
Si Si5 0.388344 0.106983 0.176052
Si Si6 0.804770 0.698676 0.324308
Si Si7 0.568746 0.710452 0.676451
O O1 0.682243 0.500000 0.179580
O O2 0.746562 0.647196 0.251872
O O3 0.624184 0.654236 0.248190
O O4 0.686381 0.640420 0.000000
O O5 0.919822 0.184115 0.213208
O O6 0.870151 0.335785 0.258150
O O7 0.000000 0.318039 0.222987
O O8 0.925212 0.310082 0.000000
O O9 0.727449 0.114284 0.500000
O O10 0.682916 0.119092 0.772033
O O11 0.791516 0.190588 0.705270
O O12 0.766249 0.000000 0.697969
O O13 0.902286 0.128790 0.500000
O O14 0.000000 0.096676 0.651276
O O15 0.903535 0.000000 0.704532
O O16 0.426318 0.184373 0.262954
O O17 0.405963 0.000000 0.210004
O O18 0.393565 0.120751 0.000000
O O19 0.804604 0.685389 0.500000
O O20 0.577119 0.710002 0.500000
O O21 0.500000 0.673148 0.710766
#
# Coordination Sequence:
#
# PCOD9386223 Si02
#       7
#     8   8   8   8   8   8   8
#     4  11  25  45  69  95 123 156 196 246 306 370
#     4  10  21  35  52  78 114 155 197 244 300 360
#     4   9  18  33  54  82 117 157 202 250 301 358
#     4   8  14  26  44  66  97 141 192 242 289 341
#     4  10  20  34  56  87 124 167 212 257 303 351
#     4  11  22  37  62  91 120 159 202 248 302 360
#     4  11  24  41  63  93 129 169 210 252 300 353
#
# _framework density 20.029114
#
# number of rings (size 3 to 8) (size 9 to 14) (size 15 to 20)
#    0.000    2.000    1.429    2.571    0.000    6.000 
#    0.000    5.714    0.000    0.429    0.000    3.000 
#    0.000    0.000    0.000    0.000    0.000    0.000 
#
# Total GULP energy -312565.393982 kJ/mol
# GULP energy per Si atom -5581.524893 kJ/mol
# Density = 1.998353 g / cm^3
# Si number density = 20.029114 Si / 1000 Ang^3
#
#
#
# Elastic Constant Matrix: (Units=GPa)
#
#
# Indices 1 2 3 4 5 6 
#
# 1 171.3083 44.2099 80.2054 0.0000 0.0000 0.0000
# 2 44.2099 41.8205 32.7200 0.0000 0.0000 0.0000
# 3 80.2054 32.7200 87.9463 0.0000 0.0000 0.0000
# 4 0.0000 0.0000 0.0000 20.0887 0.0000 0.0000
# 5 0.0000 0.0000 0.0000 0.0000 14.1293 0.0000
# 6 0.0000 0.0000 0.0000 0.0000 0.0000 -2.6270
#
#
#
# Elastic Compliance Matrix: (Units=1/GPa)
#
#
# Indices 1 2 3 4 5 6 
#
# 1 0.010965 -0.005315 -0.008023 0.000000 0.000000 0.000000
# 2 -0.005315 0.036306 -0.008661 0.000000 0.000000 0.000000
# 3 -0.008023 -0.008661 0.021909 0.000000 0.000000 0.000000
# 4 0.000000 0.000000 0.000000 0.049779 0.000000 0.000000
# 5 0.000000 0.000000 0.000000 0.000000 0.070775 0.000000
# 6 0.000000 0.000000 0.000000 0.000000 0.000000 -0.380658
#
#
# Mechanical properties :
#
#
# Convention : Reuss Voigt Hill
#
# Bulk Modulus (GPa) = 39.70696 68.37176 54.03936
# Shear Modulus (GPa) = -36.09263 15.91419 -10.08922
#
# Velocity S-wave (km/s) = -4.24961 2.82184 -2.24682
# Velocity P-wave (km/s) = 2.05214 6.69532 4.50644
#
# Compressibility (1/GPa) = 0.02518450
#
# Stress axis : x y z
#
# Youngs Moduli (GPa) = 91.19737 27.54354 45.64276
#
# Poissons Ratio (x) = 0.14639 0.36618
# Poissons Ratio (y) = 0.48470 0.39529
# Poissons Ratio (z) = 0.73165 0.23854
#
# Static dielectric constant tensor:
#      x y z
#    x 1.754780 0.000000 0.000000 
#    y 0.000000 1.718500 0.000000 
#    z 0.000000 0.000000 1.674090 
# 
# From -- ./inp_files/11191.got.cif
#   From: 2010.05.17/outbox.cif.g08.bks.cpg/sg47_6_cif.got.tgz:11191.got - 2010.06.03 20:15:42.
