data_PCOD9386893
_publ_section_title
;
Structure prediction by ZEFSAII (Michael W. Deem and Ramdas Pophale) SiO2 
 PCOD9386893
Probable space group: P M M M
;
_chemical_formula_sum "Si O2"
_cell_formula_units_Z 64
_cell_length_a 7.390508
_cell_length_b 14.550473
_cell_length_c 27.435983
_cell_angle_alpha 90.000000
_cell_angle_beta 90.000000
_cell_angle_gamma 90.000000
_cell_volume 2950.339053
_symmetry_space_group_name_H-M "P M M M"
_symmetry_group_IT_number 47
_symmetry_cell_setting 'orthorhombic'
loop_
_space_group_symop_operation_xyz
x,y,z
-x,-y,z
x,-y,-z
-x,y,-z
-x,-y,-z
x,y,-z
-x,y,z
x,-y,z
loop_
_atom_site_type_symbol
_atom_site_label
_atom_site_fract_x
_atom_site_fract_y
_atom_site_fract_z
Si Si1 0.707374 0.298485 0.052496
Si Si2 0.279512 0.394102 0.445102
Si Si3 0.793932 0.103488 0.084915
Si Si4 0.278787 0.895405 0.300931
Si Si5 0.719673 0.391848 0.149719
Si Si6 0.720906 0.281865 0.648061
Si Si7 0.295458 0.888751 0.805305
Si Si8 0.720160 0.607502 0.743484
O O1 0.500000 0.331417 0.051270
O O2 0.703974 0.188426 0.058387
O O3 0.788358 0.340051 0.101891
O O4 0.789844 0.322046 0.000000
O O5 0.222589 0.369067 0.500000
O O6 0.500000 0.392919 0.444902
O O7 0.226621 0.500000 0.435788
O O8 0.217580 0.328193 0.401878
O O9 0.793515 0.126867 0.142720
O O10 0.000000 0.100510 0.067913
O O11 0.717144 0.000000 0.079526
O O12 0.500000 0.896463 0.298267
O O13 0.225545 0.822955 0.341762
O O14 0.219392 0.860964 0.247135
O O15 0.219970 0.000000 0.309004
O O16 0.500000 0.384199 0.150158
O O17 0.762683 0.500000 0.146425
O O18 0.780125 0.357700 0.203122
O O19 0.500000 0.284424 0.647455
O O20 0.779876 0.338964 0.695635
O O21 0.500000 0.851773 0.809632
O O22 0.304266 0.000000 0.800928
O O23 0.500000 0.611693 0.743507
O O24 0.768967 0.500000 0.739947
#
# Coordination Sequence:
#
# PCOD9386893 Si02
#       8
#     8   8   8   8   8   8   8   8
#     4  10  21  34  50  72  93 116 148 184 222 267
#     4   8  13  20  28  39  60  94 137 180 215 250
#     4  10  21  35  50  68  91 120 151 184 224 268
#     4   8  14  22  32  51  77 102 130 167 211 254
#     4   8  15  28  45  66  92 115 134 168 221 272
#     4   9  14  18  29  47  68  98 132 169 211 252
#     4   8  14  26  44  64  85 110 141 177 217 262
#     4   8  13  20  31  51  77 100 122 154 203 258
#
# _framework density 21.692421
#
# number of rings (size 3 to 8) (size 9 to 14) (size 15 to 20)
#    0.000    3.375    0.000    2.625    1.750    3.000 
#    0.000    2.500    0.000    0.750    0.000    3.500 
#    0.000    0.000    0.000    0.000    0.000    0.625 
#
# Total GULP energy -357057.392271 kJ/mol
# GULP energy per Si atom -5579.021754 kJ/mol
# Density = 2.164305 g / cm^3
# Si number density = 21.692421 Si / 1000 Ang^3
#
#
#
# Elastic Constant Matrix: (Units=GPa)
#
#
# Indices 1 2 3 4 5 6 
#
# 1 70.4944 -1.4692 3.4463 0.0000 0.0000 0.0000
# 2 -1.4692 92.0553 88.0179 0.0000 0.0000 0.0000
# 3 3.4463 88.0179 176.7032 0.0000 0.0000 0.0000
# 4 0.0000 0.0000 0.0000 25.2900 0.0000 0.0000
# 5 0.0000 0.0000 0.0000 0.0000 -364.4054 0.0000
# 6 0.0000 0.0000 0.0000 0.0000 0.0000 -78.9406
#
#
#
# Elastic Compliance Matrix: (Units=1/GPa)
#
#
# Indices 1 2 3 4 5 6 
#
# 1 0.014242 0.000941 -0.000747 0.000000 0.000000 0.000000
# 2 0.000941 0.020804 -0.010381 0.000000 0.000000 0.000000
# 3 -0.000747 -0.010381 0.010845 0.000000 0.000000 0.000000
# 4 0.000000 0.000000 0.000000 0.039541 0.000000 0.000000
# 5 0.000000 0.000000 0.000000 0.000000 -0.002744 0.000000
# 6 0.000000 0.000000 0.000000 0.000000 0.000000 -0.012668
#
#
# Mechanical properties :
#
#
# Convention : Reuss Voigt Hill
#
# Bulk Modulus (GPa) = 39.18924 57.69368 48.44146
# Shear Modulus (GPa) = 50.55725 -66.99401 -8.21838
#
# Velocity S-wave (km/s) = 4.83291 -5.56333 -1.94854
# Velocity P-wave (km/s) = 7.01768 3.82277 4.16138
#
# Compressibility (1/GPa) = 0.02551721
#
# Stress axis : x y z
#
# Youngs Moduli (GPa) = 70.21672 48.06842 92.21167
#
# Poissons Ratio (x) = -0.04524 0.06884
# Poissons Ratio (y) = -0.06608 0.95724
# Poissons Ratio (z) = 0.05242 0.49899
#
# Static dielectric constant tensor:
#      x y z
#    x 1.710010 0.000000 0.000000 
#    y 0.000000 1.785100 0.000000 
#    z 0.000000 0.000000 1.783960 
# 
# From -- ./inp_files/34433.got.cif
#   From: 2010.05.17/outbox.cif.g08.bks.cpg/sg47_18_cif.got.tgz:34433.got - 2010.06.03 20:15:42.
