data_PCOD9386767
_publ_section_title
;
Structure prediction by ZEFSAII (Michael W. Deem and Ramdas Pophale) SiO2 
 PCOD9386767
Probable space group: P M M M
;
_chemical_formula_sum "Si O2"
_cell_formula_units_Z 48
_cell_length_a 17.816871
_cell_length_b 10.399304
_cell_length_c 13.855491
_cell_angle_alpha 90.000000
_cell_angle_beta 90.000000
_cell_angle_gamma 90.000000
_cell_volume 2567.187741
_symmetry_space_group_name_H-M "P M M M"
_symmetry_group_IT_number 47
_symmetry_cell_setting 'orthorhombic'
loop_
_space_group_symop_operation_xyz
x,y,z
-x,-y,z
x,-y,-z
-x,y,-z
-x,-y,-z
x,y,-z
-x,y,z
x,-y,z
loop_
_atom_site_type_symbol
_atom_site_label
_atom_site_fract_x
_atom_site_fract_y
_atom_site_fract_z
Si Si1 0.410817 0.640482 0.385432
Si Si2 0.082971 0.000000 0.383221
Si Si3 0.090199 0.500000 0.734096
Si Si4 0.841875 0.266144 0.615542
Si Si5 0.225312 0.500000 0.112364
Si Si6 0.500000 0.355267 0.116117
Si Si7 0.666274 0.253164 0.113345
Si Si8 0.307215 0.148540 0.691091
O O1 0.395315 0.643114 0.500000
O O2 0.500000 0.638603 0.372096
O O3 0.381160 0.500000 0.349010
O O4 0.379759 0.771830 0.341730
O O5 0.122410 0.869756 0.355635
O O6 0.080899 0.000000 0.500000
O O7 0.000000 0.000000 0.344033
O O8 0.113598 0.622747 0.669740
O O9 0.150357 0.500000 0.822486
O O10 0.000000 0.500000 0.755627
O O11 0.845618 0.284585 0.500000
O O12 0.757000 0.242413 0.648593
O O13 0.279579 0.623138 0.127080
O O14 0.202821 0.500000 0.000000
O O15 0.500000 0.500000 0.156000
O O16 0.579556 0.289016 0.137465
O O17 0.500000 0.365149 0.000000
O O18 0.693694 0.152437 0.192778
O O19 0.669631 0.216405 0.000000
O O20 0.302014 0.000000 0.657183
#
# Coordination Sequence:
#
# PCOD9386767 Si02
#       8
#     8   4   4   8   4   4   8   8
#     4   9  21  41  62  85 116 159 208 254 300 356
#     4   9  18  36  60  82 112 154 193 232 288 356
#     4  12  25  41  63  96 130 159 197 247 304 362
#     4  11  23  39  60  90 122 158 200 245 298 359
#     4  10  20  39  65  92 122 157 202 254 306 360
#     4   9  16  30  57  91 118 149 196 255 311 364
#     4  10  21  38  60  88 121 157 204 256 310 367
#     4  12  25  39  59  89 123 161 205 252 309 368
#
# _framework density 18.697502
#
# number of rings (size 3 to 8) (size 9 to 14) (size 15 to 20)
#    0.000    1.667    3.333    1.750    3.500    3.167 
#    0.000    0.833    0.000    1.500    0.000    0.000 
#    0.000    5.333    0.000    0.000    0.000    0.000 
#
# Total GULP energy -267601.327917 kJ/mol
# GULP energy per Si atom -5575.027665 kJ/mol
# Density = 1.865495 g / cm^3
# Si number density = 18.697502 Si / 1000 Ang^3
#
#
#
# Elastic Constant Matrix: (Units=GPa)
#
#
# Indices 1 2 3 4 5 6 
#
# 1 85.1498 26.8747 48.0545 0.0000 0.0000 0.0000
# 2 26.8747 95.4109 30.5838 0.0000 0.0000 0.0000
# 3 48.0545 30.5838 70.3473 0.0000 0.0000 0.0000
# 4 0.0000 0.0000 0.0000 22.5804 0.0000 0.0000
# 5 0.0000 0.0000 0.0000 0.0000 23.5377 0.0000
# 6 0.0000 0.0000 0.0000 0.0000 0.0000 19.6639
#
#
#
# Elastic Compliance Matrix: (Units=1/GPa)
#
#
# Indices 1 2 3 4 5 6 
#
# 1 0.019272 -0.001404 -0.012555 0.000000 0.000000 0.000000
# 2 -0.001404 0.012280 -0.004380 0.000000 0.000000 0.000000
# 3 -0.012555 -0.004380 0.024695 0.000000 0.000000 0.000000
# 4 0.000000 0.000000 0.000000 0.044286 0.000000 0.000000
# 5 0.000000 0.000000 0.000000 0.000000 0.042485 0.000000
# 6 0.000000 0.000000 0.000000 0.000000 0.000000 0.050855
#
#
# Mechanical properties :
#
#
# Convention : Reuss Voigt Hill
#
# Bulk Modulus (GPa) = 51.09556 51.32600 51.21078
# Shear Modulus (GPa) = 21.09038 22.84940 21.96989
#
# Velocity S-wave (km/s) = 3.36218 3.49958 3.43157
# Velocity P-wave (km/s) = 6.51607 6.62116 6.56883
#
# Compressibility (1/GPa) = 0.01957117
#
# Stress axis : x y z
#
# Youngs Moduli (GPa) = 51.88761 81.43033 40.49330
#
# Poissons Ratio (x) = 0.11434 0.50838
# Poissons Ratio (y) = 0.07286 0.17735
# Poissons Ratio (z) = 0.65143 0.35665
#
# Static dielectric constant tensor:
#      x y z
#    x 1.731670 0.000000 0.000000 
#    y 0.000000 1.656060 0.000000 
#    z 0.000000 0.000000 1.682750 
# 
# From -- ./inp_files/24553.got.cif
#   From: 2010.05.17/outbox.cif.g08.bks.cpg/sg47_13_cif.got.tgz:24553.got - 2010.06.03 20:15:42.
