data_PCOD9386803
_publ_section_title
;
Structure prediction by ZEFSAII (Michael W. Deem and Ramdas Pophale) SiO2 
 PCOD9386803
Probable space group: P M M M
;
_chemical_formula_sum "Si O2"
_cell_formula_units_Z 64
_cell_length_a 14.866714
_cell_length_b 8.300906
_cell_length_c 32.331738
_cell_angle_alpha 90.000000
_cell_angle_beta 90.000000
_cell_angle_gamma 90.000000
_cell_volume 3989.969110
_symmetry_space_group_name_H-M "P M M M"
_symmetry_group_IT_number 47
_symmetry_cell_setting 'orthorhombic'
loop_
_space_group_symop_operation_xyz
x,y,z
-x,-y,z
x,-y,-z
-x,y,-z
-x,-y,-z
x,y,-z
-x,y,z
x,-y,z
loop_
_atom_site_type_symbol
_atom_site_label
_atom_site_fract_x
_atom_site_fract_y
_atom_site_fract_z
Si Si1 0.899794 0.303686 0.747111
Si Si2 0.603991 0.195088 0.204633
Si Si3 0.285564 0.808303 0.124294
Si Si4 0.100433 0.305811 0.156757
Si Si5 0.391127 0.808797 0.455523
Si Si6 0.604120 0.194935 0.634688
Si Si7 0.711161 0.307057 0.714396
Si Si8 0.602631 0.305809 0.046779
O O1 0.900289 0.500000 0.746452
O O2 0.886540 0.256267 0.795189
O O3 0.813851 0.248753 0.721132
O O4 0.000000 0.250643 0.734114
O O5 0.500000 0.247711 0.203636
O O6 0.657767 0.253315 0.164074
O O7 0.653267 0.251907 0.246075
O O8 0.604704 0.000000 0.204542
O O9 0.182700 0.756555 0.130029
O O10 0.330511 0.750494 0.082097
O O11 0.290321 0.000000 0.125356
O O12 0.102017 0.500000 0.156097
O O13 0.000000 0.253494 0.144049
O O14 0.360361 0.740131 0.500000
O O15 0.500000 0.797412 0.455032
O O16 0.362928 0.745086 0.410555
O O17 0.370033 0.000000 0.456146
O O18 0.500000 0.247074 0.641039
O O19 0.665369 0.247359 0.672527
O O20 0.602769 0.000000 0.633122
O O21 0.712198 0.500000 0.713977
O O22 0.500000 0.251880 0.055810
O O23 0.602080 0.500000 0.046597
O O24 0.625470 0.252446 0.000000
#
# Coordination Sequence:
#
# PCOD9386803 Si02
#       8
#     8   8   8   8   8   8   8   8
#     4   8  15  29  47  64  83 110 147 190 229 263
#     4  10  21  34  44  59  90 128 157 180 212 257
#     4  11  21  32  50  75 101 125 152 190 234 278
#     4   9  17  32  53  72  92 121 157 194 231 273
#     4   7  10  19  37  58  76 101 145 190 217 248
#     4   9  17  28  41  58  86 122 150 177 220 268
#     4  11  20  29  44  64  86 114 151 189 221 260
#     4   9  19  36  56  76  98 126 160 195 228 267
#
# _framework density 16.040223000000001
#
# number of rings (size 3 to 8) (size 9 to 14) (size 15 to 20)
#    0.000    2.750    1.250    3.750    0.000    3.750 
#    0.000    0.625    0.000    2.250    0.000    4.375 
#    0.000    0.500    0.000    6.250    0.000    0.250 
#
# Total GULP energy -356553.322238 kJ/mol
# GULP energy per Si atom -5571.145660 kJ/mol
# Density = 1.600371 g / cm^3
# Si number density = 16.040223 Si / 1000 Ang^3
#
#
#
# Elastic Constant Matrix: (Units=GPa)
#
#
# Indices 1 2 3 4 5 6 
#
# 1 131.8782 17.3716 92.5330 0.0000 0.0000 0.0000
# 2 17.3716 10.3913 17.2077 0.0000 0.0000 0.0000
# 3 92.5330 17.2077 148.9700 0.0000 0.0000 0.0000
# 4 0.0000 0.0000 0.0000 3.8641 0.0000 0.0000
# 5 0.0000 0.0000 0.0000 0.0000 7.5186 0.0000
# 6 0.0000 0.0000 0.0000 0.0000 0.0000 6.1543
#
#
#
# Elastic Compliance Matrix: (Units=1/GPa)
#
#
# Indices 1 2 3 4 5 6 
#
# 1 0.014475 -0.011511 -0.007661 0.000000 0.000000 0.000000
# 2 -0.011511 0.128150 -0.007653 0.000000 0.000000 0.000000
# 3 -0.007661 -0.007653 0.012356 0.000000 0.000000 0.000000
# 4 0.000000 0.000000 0.000000 0.258795 0.000000 0.000000
# 5 0.000000 0.000000 0.000000 0.000000 0.133004 0.000000
# 6 0.000000 0.000000 0.000000 0.000000 0.000000 0.162488
#
#
# Mechanical properties :
#
#
# Convention : Reuss Voigt Hill
#
# Bulk Modulus (GPa) = 9.86874 60.60712 35.23793
# Shear Modulus (GPa) = 6.27594 14.44920 10.36257
#
# Velocity S-wave (km/s) = 1.98018 3.00461 2.54448
# Velocity P-wave (km/s) = 3.37550 7.06423 5.53613
#
# Compressibility (1/GPa) = 0.10133006
#
# Stress axis : x y z
#
# Youngs Moduli (GPa) = 69.08654 7.80337 80.93524
#
# Poissons Ratio (x) = 0.08982 0.62007
# Poissons Ratio (y) = 0.79525 0.61937
# Poissons Ratio (z) = 0.52929 0.05972
#
# Static dielectric constant tensor:
#      x y z
#    x 1.533920 0.000000 0.000000 
#    y 0.000000 1.560340 0.000000 
#    z 0.000000 0.000000 1.546540 
# 
# From -- ./inp_files/14281.got.cif
#   From: 2010.05.17/outbox.cif.g08.bks.cpg/sg47_8_cif.got.tgz:14281.got - 2010.06.03 20:15:42.
