data_PCOD9386776
_publ_section_title
;
Structure prediction by ZEFSAII (Michael W. Deem and Ramdas Pophale) SiO2 
 PCOD9386776
Probable space group: P M M M
;
_chemical_formula_sum "Si O2"
_cell_formula_units_Z 30
_cell_length_a 7.783061
_cell_length_b 9.594312
_cell_length_c 21.262440
_cell_angle_alpha 90.000000
_cell_angle_beta 90.000000
_cell_angle_gamma 90.000000
_cell_volume 1587.732639
_symmetry_space_group_name_H-M "P M M M"
_symmetry_group_IT_number 47
_symmetry_cell_setting 'orthorhombic'
loop_
_space_group_symop_operation_xyz
x,y,z
-x,-y,z
x,-y,-z
-x,y,-z
-x,-y,-z
x,y,-z
-x,y,z
x,-y,z
loop_
_atom_site_type_symbol
_atom_site_label
_atom_site_fract_x
_atom_site_fract_y
_atom_site_fract_z
Si Si1 0.500000 0.000000 0.000000
Si Si2 0.196003 0.834832 0.191403
Si Si3 0.500000 0.500000 0.000000
Si Si4 0.297537 0.339752 0.309998
Si Si5 0.500000 0.248981 0.899105
Si Si6 0.207845 0.159057 0.572002
O O1 0.500000 0.881298 0.054817
O O2 0.208598 0.757374 0.258178
O O3 0.332223 0.763644 0.145085
O O4 0.000000 0.823771 0.167709
O O5 0.236237 0.000000 0.198022
O O6 0.500000 0.619352 0.055764
O O7 0.500000 0.340381 0.295211
O O8 0.235999 0.500000 0.308739
O O9 0.272916 0.269584 0.377860
O O10 0.261167 0.187305 0.500000
O O11 0.000000 0.161358 0.573442
O O12 0.261398 0.000000 0.588006
#
# Coordination Sequence:
#
# PCOD9386776 Si02
#       6
#     1   8   1   8   4   8
#     4  10  20  42  74  90 128 168 198 238 314 342
#     4  11  23  40  67  96 124 163 213 260 305 363
#     4  10  28  42  74  94 140 168 202 242 306 366
#     4  11  24  38  56  86 124 164 206 257 315 374
#     4  11  22  46  66 100 129 170 198 256 299 361
#     4   9  19  37  59  83 115 156 206 262 316 371
#
# _framework density 18.894869
#
# number of rings (size 3 to 8) (size 9 to 14) (size 15 to 20)
#    0.000    1.600    2.667    2.400    1.867    6.933 
#    0.000    8.000    0.000    0.000    0.000    0.000 
#    0.000    0.000    0.000    0.000    0.000    0.000 
#
# Total GULP energy -167003.158557 kJ/mol
# GULP energy per Si atom -5566.771952 kJ/mol
# Density = 1.885186 g / cm^3
# Si number density = 18.894869 Si / 1000 Ang^3
#
#
#
# Elastic Constant Matrix: (Units=GPa)
#
#
# Indices 1 2 3 4 5 6 
#
# 1 76.3897 38.3978 33.9433 0.0000 0.0000 0.0000
# 2 38.3978 168.8711 78.5124 0.0000 0.0000 0.0000
# 3 33.9433 78.5124 118.0964 0.0000 0.0000 0.0000
# 4 0.0000 0.0000 0.0000 52.5776 0.0000 0.0000
# 5 0.0000 0.0000 0.0000 0.0000 -8.6859 0.0000
# 6 0.0000 0.0000 0.0000 0.0000 0.0000 12.6231
#
#
#
# Elastic Compliance Matrix: (Units=1/GPa)
#
#
# Indices 1 2 3 4 5 6 
#
# 1 0.015507 -0.002104 -0.003058 0.000000 0.000000 0.000000
# 2 -0.002104 0.008856 -0.005283 0.000000 0.000000 0.000000
# 3 -0.003058 -0.005283 0.012859 0.000000 0.000000 0.000000
# 4 0.000000 0.000000 0.000000 0.019019 0.000000 0.000000
# 5 0.000000 0.000000 0.000000 0.000000 -0.115129 0.000000
# 6 0.000000 0.000000 0.000000 0.000000 0.000000 0.079220
#
#
# Mechanical properties :
#
#
# Convention : Reuss Voigt Hill
#
# Bulk Modulus (GPa) = 61.23073 73.89604 67.56339
# Shear Modulus (GPa) = 107.13871 25.46986 66.30429
#
# Velocity S-wave (km/s) = 7.53828 3.67546 5.93021
# Velocity P-wave (km/s) = 10.40403 7.56346 9.09533
#
# Compressibility (1/GPa) = 0.01633167
#
# Stress axis : x y z
#
# Youngs Moduli (GPa) = 64.48543 112.91319 77.76709
#
# Poissons Ratio (x) = 0.23759 0.23783
# Poissons Ratio (y) = 0.13569 0.41085
# Poissons Ratio (z) = 0.19721 0.59653
#
# Static dielectric constant tensor:
#      x y z
#    x 1.692830 0.000000 0.000000 
#    y 0.000000 1.631020 0.000000 
#    z 0.000000 0.000000 1.630970 
# 
# From -- ./inp_files/932.got.cif
#   From: 2010.05.17/outbox.cif.g08.bks.cpg/sg47_1_cif.got.tgz:932.got - 2010.06.03 20:15:42.
