data_PCOD9386695
_publ_section_title
;
Structure prediction by ZEFSAII (Michael W. Deem and Ramdas Pophale) SiO2 
 PCOD9386695
Probable space group: P M M M
;
_chemical_formula_sum "Si O2"
_cell_formula_units_Z 48
_cell_length_a 9.912303
_cell_length_b 30.028420
_cell_length_c 7.697587
_cell_angle_alpha 90.000000
_cell_angle_beta 90.000000
_cell_angle_gamma 90.000000
_cell_volume 2291.192911
_symmetry_space_group_name_H-M "P M M M"
_symmetry_group_IT_number 47
_symmetry_cell_setting 'orthorhombic'
loop_
_space_group_symop_operation_xyz
x,y,z
-x,-y,z
x,-y,-z
-x,y,-z
-x,-y,-z
x,y,-z
-x,y,z
x,-y,z
loop_
_atom_site_type_symbol
_atom_site_label
_atom_site_fract_x
_atom_site_fract_y
_atom_site_fract_z
Si Si1 0.345063 0.790895 0.292264
Si Si2 0.242651 0.390059 0.792500
Si Si3 0.000000 0.449648 0.786547
Si Si4 0.156971 0.292933 0.210213
Si Si5 0.500000 0.448745 0.706492
Si Si6 0.348770 0.948746 0.209737
Si Si7 0.846126 0.130320 0.293416
O O1 0.355831 0.796818 0.500000
O O2 0.500000 0.788872 0.225288
O O3 0.256827 0.746727 0.261504
O O4 0.254638 0.831752 0.221630
O O5 0.219990 0.339919 0.727065
O O6 0.375659 0.417954 0.759335
O O7 0.126661 0.422048 0.725208
O O8 0.227183 0.386310 0.000000
O O9 0.000000 0.500000 0.727434
O O10 0.000000 0.450404 0.000000
O O11 0.000000 0.287911 0.268802
O O12 0.152407 0.293427 0.000000
O O13 0.500000 0.500000 0.776758
O O14 0.500000 0.452753 0.500000
O O15 0.500000 0.934184 0.267304
O O16 0.230499 0.916280 0.267967
O O17 0.329779 0.000000 0.265802
O O18 0.349647 0.948528 0.000000
O O19 0.856617 0.138050 0.500000
O O20 0.000000 0.131376 0.224139
#
# Coordination Sequence:
#
# PCOD9386695 Si02
#       7
#     8   8   4   8   4   8   8
#     4  10  22  39  59  83 111 147 190 231 276 334
#     4  10  20  37  60  85 111 143 184 228 274 327
#     4   9  16  30  57  87 109 135 179 229 272 319
#     4  10  21  38  59  85 115 143 178 228 281 332
#     4  11  25  41  55  79 117 153 185 225 272 325
#     4   9  19  36  57  82 114 152 193 236 283 337
#     4  10  21  37  57  82 113 149 191 238 283 332
#
# _framework density 20.949786
#
# number of rings (size 3 to 8) (size 9 to 14) (size 15 to 20)
#    0.000    2.167    0.833    2.250    1.167    6.000 
#    0.000    2.917    0.000    1.500    0.000    0.000 
#    0.000    0.000    0.000    0.000    0.000    0.000 
#
# Total GULP energy -267844.350163 kJ/mol
# GULP energy per Si atom -5580.090628 kJ/mol
# Density = 2.090210 g / cm^3
# Si number density = 20.949786 Si / 1000 Ang^3
#
#
#
# Elastic Constant Matrix: (Units=GPa)
#
#
# Indices 1 2 3 4 5 6 
#
# 1 234.9958 119.9551 1.2838 0.0000 0.0000 0.0000
# 2 119.9551 162.6847 -1.4179 0.0000 0.0000 0.0000
# 3 1.2838 -1.4179 32.8248 0.0000 0.0000 0.0000
# 4 0.0000 0.0000 0.0000 22.6559 0.0000 0.0000
# 5 0.0000 0.0000 0.0000 0.0000 -44.0077 0.0000
# 6 0.0000 0.0000 0.0000 0.0000 0.0000 36.6802
#
#
#
# Elastic Compliance Matrix: (Units=1/GPa)
#
#
# Indices 1 2 3 4 5 6 
#
# 1 0.006831 -0.005041 -0.000485 0.000000 0.000000 0.000000
# 2 -0.005041 0.009870 0.000623 0.000000 0.000000 0.000000
# 3 -0.000485 0.000623 0.030511 0.000000 0.000000 0.000000
# 4 0.000000 0.000000 0.000000 0.044139 0.000000 0.000000
# 5 0.000000 0.000000 0.000000 0.000000 -0.022723 0.000000
# 6 0.000000 0.000000 0.000000 0.000000 0.000000 0.027263
#
#
# Mechanical properties :
#
#
# Convention : Reuss Voigt Hill
#
# Bulk Modulus (GPa) = 26.73367 74.46082 50.59724
# Shear Modulus (GPa) = 42.31410 23.77798 33.04604
#
# Velocity S-wave (km/s) = 4.49908 3.37263 3.97595
# Velocity P-wave (km/s) = 6.30694 7.12642 6.72917
#
# Compressibility (1/GPa) = 0.03740602
#
# Stress axis : x y z
#
# Youngs Moduli (GPa) = 146.38189 101.32188 32.77539
#
# Poissons Ratio (x) = 0.51080 0.01589
# Poissons Ratio (y) = 0.73797 -0.02043
# Poissons Ratio (z) = 0.07099 -0.06317
#
# Static dielectric constant tensor:
#      x y z
#    x 2.135160 0.000000 0.000000 
#    y 0.000000 1.744700 0.000000 
#    z 0.000000 0.000000 1.792420 
# 
# From -- ./inp_files/2811.got.cif
#   From: 2010.05.17/outbox.cif.g08.bks.cpg/sg47_2_cif.got.tgz:2811.got - 2010.06.03 20:15:42.
