data_PCOD9386326
_publ_section_title
;
Structure prediction by ZEFSAII (Michael W. Deem and Ramdas Pophale) SiO2 
 PCOD9386326
Probable space group: P M M M
;
_chemical_formula_sum "Si O2"
_cell_formula_units_Z 48
_cell_length_a 7.599829
_cell_length_b 16.425859
_cell_length_c 17.415951
_cell_angle_alpha 90.000000
_cell_angle_beta 90.000000
_cell_angle_gamma 90.000000
_cell_volume 2174.097943
_symmetry_space_group_name_H-M "P M M M"
_symmetry_group_IT_number 47
_symmetry_cell_setting 'orthorhombic'
loop_
_space_group_symop_operation_xyz
x,y,z
-x,-y,z
x,-y,-z
-x,y,-z
-x,-y,-z
x,y,-z
-x,y,z
x,-y,z
loop_
_atom_site_type_symbol
_atom_site_label
_atom_site_fract_x
_atom_site_fract_y
_atom_site_fract_z
Si Si1 0.215311 0.252304 0.088994
Si Si2 0.710942 0.406777 0.500000
Si Si3 0.793784 0.326750 0.662027
Si Si4 0.703865 0.902914 0.500000
Si Si5 0.214526 0.590055 0.815808
Si Si6 0.299545 0.143590 0.664071
Si Si7 0.795217 0.088991 0.829472
O O1 0.273609 0.334027 0.132629
O O2 0.279302 0.169512 0.129862
O O3 0.000000 0.252246 0.093272
O O4 0.264500 0.253458 0.000000
O O5 0.775023 0.500000 0.500000
O O6 0.500000 0.407443 0.500000
O O7 0.769109 0.361653 0.577210
O O8 0.736994 0.389719 0.727778
O O9 0.701021 0.240629 0.672892
O O10 0.000000 0.310266 0.674864
O O11 0.500000 0.871925 0.500000
O O12 0.782563 0.874355 0.580692
O O13 0.702217 0.000000 0.500000
O O14 0.275820 0.500000 0.838421
O O15 0.000000 0.588675 0.819578
O O16 0.500000 0.112252 0.662520
O O17 0.212597 0.103988 0.738126
O O18 0.000000 0.085915 0.852234
O O19 0.717432 0.000000 0.847313
#
# Coordination Sequence:
#
# PCOD9386326 Si02
#       7
#     8   4   8   4   8   8   8
#     4   9  17  31  52  80 114 146 180 229 287 344
#     4  11  24  39  54  80 118 155 198 246 289 340
#     4  11  21  36  57  80 112 151 194 239 288 341
#     4   9  19  34  50  72 102 135 176 224 267 319
#     4   9  17  30  51  80 112 144 181 229 283 338
#     4  11  21  35  57  81 109 146 189 234 287 342
#     4  10  20  35  55  81 114 149 188 234 284 340
#
# _framework density 22.078123000000001
#
# number of rings (size 3 to 8) (size 9 to 14) (size 15 to 20)
#    0.000    2.000    1.667    2.750    0.000    3.667 
#    0.000    4.583    0.000    3.500    0.000    1.167 
#    0.000    1.333    0.000    0.000    0.000    0.000 
#
# Total GULP energy -268177.768734 kJ/mol
# GULP energy per Si atom -5587.036849 kJ/mol
# Density = 2.202787 g / cm^3
# Si number density = 22.078123 Si / 1000 Ang^3
#
#
#
# Elastic Constant Matrix: (Units=GPa)
#
#
# Indices 1 2 3 4 5 6 
#
# 1 51.9560 1.5208 -1.4480 0.0000 0.0000 0.0000
# 2 1.5208 195.2565 84.6749 0.0000 0.0000 0.0000
# 3 -1.4480 84.6749 145.3731 0.0000 0.0000 0.0000
# 4 0.0000 0.0000 0.0000 15.2674 0.0000 0.0000
# 5 0.0000 0.0000 0.0000 0.0000 -42.5415 0.0000
# 6 0.0000 0.0000 0.0000 0.0000 0.0000 9.3238
#
#
#
# Elastic Compliance Matrix: (Units=1/GPa)
#
#
# Indices 1 2 3 4 5 6 
#
# 1 0.019267 -0.000312 0.000374 0.000000 0.000000 0.000000
# 2 -0.000312 0.006857 -0.003997 0.000000 0.000000 0.000000
# 3 0.000374 -0.003997 0.009211 0.000000 0.000000 0.000000
# 4 0.000000 0.000000 0.000000 0.065499 0.000000 0.000000
# 5 0.000000 0.000000 0.000000 0.000000 -0.023506 0.000000
# 6 0.000000 0.000000 0.000000 0.000000 0.000000 0.107252
#
#
# Mechanical properties :
#
#
# Convention : Reuss Voigt Hill
#
# Bulk Modulus (GPa) = 36.41207 62.45345 49.43276
# Shear Modulus (GPa) = 24.80091 16.93247 20.86669
#
# Velocity S-wave (km/s) = 3.35524 2.77236 3.07763
# Velocity P-wave (km/s) = 5.61590 6.21264 5.92179
#
# Compressibility (1/GPa) = 0.02746342
#
# Stress axis : x y z
#
# Youngs Moduli (GPa) = 51.90324 145.82867 108.56755
#
# Poissons Ratio (x) = 0.04552 -0.04057
# Poissons Ratio (y) = 0.01620 0.43398
# Poissons Ratio (z) = -0.01940 0.58292
#
# Static dielectric constant tensor:
#      x y z
#    x 1.838030 0.000000 0.000000 
#    y 0.000000 1.791740 0.000000 
#    z 0.000000 0.000000 1.778400 
# 
# From -- ./inp_files/26533.got.cif
#   From: 2010.05.17/outbox.cif.g08.bks.cpg/sg47_14_cif.got.tgz:26533.got - 2010.06.03 20:15:42.
