data_PCOD9386460
_publ_section_title
;
Structure prediction by ZEFSAII (Michael W. Deem and Ramdas Pophale) SiO2 
 PCOD9386460
Probable space group: P M M M
;
_chemical_formula_sum "Si O2"
_cell_formula_units_Z 48
_cell_length_a 31.697862
_cell_length_b 9.300084
_cell_length_c 8.728696
_cell_angle_alpha 90.000000
_cell_angle_beta 90.000000
_cell_angle_gamma 90.000000
_cell_volume 2573.156553
_symmetry_space_group_name_H-M "P M M M"
_symmetry_group_IT_number 47
_symmetry_cell_setting 'orthorhombic'
loop_
_space_group_symop_operation_xyz
x,y,z
-x,-y,z
x,-y,-z
-x,y,-z
-x,-y,-z
x,y,-z
-x,y,z
x,-y,z
loop_
_atom_site_type_symbol
_atom_site_label
_atom_site_fract_x
_atom_site_fract_y
_atom_site_fract_z
Si Si1 0.584432 0.332770 0.314595
Si Si2 0.164930 0.331671 0.816000
Si Si3 0.500000 0.165762 0.686777
Si Si4 0.744480 0.331447 0.316972
Si Si5 0.335155 0.833188 0.816455
Si Si6 0.000000 0.666769 0.683604
Si Si7 0.919655 0.832815 0.814800
O O1 0.586172 0.327934 0.500000
O O2 0.582908 0.500000 0.269139
O O3 0.542163 0.249277 0.265124
O O4 0.625560 0.255177 0.249872
O O5 0.157126 0.500000 0.779758
O O6 0.208936 0.288552 0.739218
O O7 0.124799 0.237984 0.768331
O O8 0.169557 0.319841 0.000000
O O9 0.500000 0.165366 0.500000
O O10 0.500000 0.000000 0.737476
O O11 0.741986 0.321178 0.500000
O O12 0.738602 0.500000 0.274058
O O13 0.708028 0.236974 0.242621
O O14 0.338013 0.000000 0.768695
O O15 0.336104 0.826901 0.000000
O O16 0.041382 0.746020 0.746069
O O17 0.000000 0.500000 0.732409
O O18 0.000000 0.672045 0.500000
O O19 0.921650 0.000000 0.770864
O O20 0.922135 0.824509 0.000000
#
# Coordination Sequence:
#
# PCOD9386460 Si02
#       7
#     8   8   4   8   8   4   8
#     4  10  20  35  57  84 112 143 182 226 271 323
#     4   9  18  34  56  81 111 148 186 223 266 319
#     4   9  17  31  54  83 114 147 180 218 268 323
#     4  10  21  37  58  84 112 143 181 225 272 324
#     4  11  24  39  55  78 109 145 185 229 276 325
#     4  11  24  39  56  80 110 145 186 231 276 322
#     4  10  21  37  58  84 113 145 182 224 271 325
#
# _framework density 18.654131
#
# number of rings (size 3 to 8) (size 9 to 14) (size 15 to 20)
#    0.000    2.000    0.000    3.250    0.000   10.333 
#    0.000    3.750    0.000    2.500    0.000    0.000 
#    0.000    0.000    0.000    0.000    0.000    0.000 
#
# Total GULP energy -268193.372995 kJ/mol
# GULP energy per Si atom -5587.361937 kJ/mol
# Density = 1.861167 g / cm^3
# Si number density = 18.654131 Si / 1000 Ang^3
#
#
#
# Elastic Constant Matrix: (Units=GPa)
#
#
# Indices 1 2 3 4 5 6 
#
# 1 196.1436 132.8285 41.3139 0.0000 0.0000 0.0000
# 2 132.8285 178.0570 44.7611 0.0000 0.0000 0.0000
# 3 41.3139 44.7611 18.0132 0.0000 0.0000 0.0000
# 4 0.0000 0.0000 0.0000 23.9807 0.0000 0.0000
# 5 0.0000 0.0000 0.0000 0.0000 34.5154 0.0000
# 6 0.0000 0.0000 0.0000 0.0000 0.0000 -511.5757
#
#
#
# Elastic Compliance Matrix: (Units=1/GPa)
#
#
# Indices 1 2 3 4 5 6 
#
# 1 0.011393 -0.005143 -0.013351 0.000000 0.000000 0.000000
# 2 -0.005143 0.017285 -0.031156 0.000000 0.000000 0.000000
# 3 -0.013351 -0.031156 0.163555 0.000000 0.000000 0.000000
# 4 0.000000 0.000000 0.000000 0.041700 0.000000 0.000000
# 5 0.000000 0.000000 0.000000 0.000000 0.028973 0.000000
# 6 0.000000 0.000000 0.000000 0.000000 0.000000 -0.001955
#
#
# Mechanical properties :
#
#
# Convention : Reuss Voigt Hill
#
# Bulk Modulus (GPa) = 10.76039 92.22455 51.49247
# Shear Modulus (GPa) = 12.78027 -79.06189 -33.14081
#
# Velocity S-wave (km/s) = 2.62031 -6.51729 -4.21954
# Velocity P-wave (km/s) = 3.86466 2.66212 1.98100
#
# Compressibility (1/GPa) = 0.09293339
#
# Stress axis : x y z
#
# Youngs Moduli (GPa) = 87.77113 57.85373 6.11417
#
# Poissons Ratio (x) = 0.29754 0.08163
# Poissons Ratio (y) = 0.45141 0.19049
# Poissons Ratio (z) = 1.17182 1.80248
#
# Static dielectric constant tensor:
#      x y z
#    x 1.602810 0.000000 0.000000 
#    y 0.000000 1.631180 0.000000 
#    z 0.000000 0.000000 1.632690 
# 
# From -- ./inp_files/2633.got.cif
#   From: 2010.05.17/outbox.cif.g08.bks.cpg/sg47_2_cif.got.tgz:2633.got - 2010.06.03 20:15:42.
