data_PCOD9386742
_publ_section_title
;
Structure prediction by ZEFSAII (Michael W. Deem and Ramdas Pophale) SiO2 
 PCOD9386742
Probable space group: P M M M
;
_chemical_formula_sum "Si O2"
_cell_formula_units_Z 46
_cell_length_a 13.694672
_cell_length_b 22.013755
_cell_length_c 7.780803
_cell_angle_alpha 90.000000
_cell_angle_beta 90.000000
_cell_angle_gamma 90.000000
_cell_volume 2345.687661
_symmetry_space_group_name_H-M "P M M M"
_symmetry_group_IT_number 47
_symmetry_cell_setting 'orthorhombic'
loop_
_space_group_symop_operation_xyz
x,y,z
-x,-y,z
x,-y,-z
-x,y,-z
-x,-y,-z
x,y,-z
-x,y,z
x,-y,z
loop_
_atom_site_type_symbol
_atom_site_label
_atom_site_fract_x
_atom_site_fract_y
_atom_site_fract_z
Si Si1 0.387548 0.000000 0.205435
Si Si2 0.892422 0.429983 0.792975
Si Si3 0.168216 0.227590 0.707708
Si Si4 0.677309 0.867791 0.700751
Si Si5 0.500000 0.213231 0.187239
Si Si6 0.288758 0.345200 0.704079
Si Si7 0.000000 0.760740 0.000000
Si Si8 0.500000 0.655440 0.695462
O O1 0.334200 0.061342 0.261915
O O2 0.500000 0.000000 0.270715
O O3 0.391793 0.000000 0.000000
O O4 0.882786 0.500000 0.735914
O O5 0.800232 0.390300 0.742427
O O6 0.000000 0.407077 0.734367
O O7 0.895386 0.429939 0.000000
O O8 0.143619 0.233023 0.500000
O O9 0.218079 0.162089 0.737526
O O10 0.251091 0.278026 0.747753
O O11 0.084066 0.238615 0.845619
O O12 0.658696 0.857437 0.500000
O O13 0.592894 0.830282 0.794304
O O14 0.500000 0.270822 0.311599
O O15 0.500000 0.242121 0.000000
O O16 0.301745 0.344779 0.500000
O O17 0.395375 0.361173 0.777805
O O18 0.500000 0.630753 0.500000
#
# Coordination Sequence:
#
# PCOD9386742 Si02
#       8
#     4   8   8   8   4   8   2   4
#     4  11  23  35  55  91 127 156 199 249 289 357
#     4   9  20  38  59  83 114 152 197 249 306 365
#     4  10  24  41  62  94 122 156 207 253 306 378
#     4  11  22  39  60  84 124 166 197 241 301 364
#     4  12  22  31  55  87 123 156 202 243 289 362
#     4  10  21  36  58  87 120 156 201 246 294 361
#     4  12  26  40  68  85 125 162 190 266 332 354
#     4  10  20  38  56  80 120 167 197 234 294 360
#
# _framework density 19.610454000000001
#
# number of rings (size 3 to 8) (size 9 to 14) (size 15 to 20)
#    0.000    1.652    2.609    2.348    4.870    1.739 
#    0.000    1.304    0.000    3.652    0.000    2.435 
#    0.000    0.000    0.000    0.000    0.000    0.000 
#
# Total GULP energy -256103.103569 kJ/mol
# GULP energy per Si atom -5567.458773 kJ/mol
# Density = 1.956582 g / cm^3
# Si number density = 19.610454 Si / 1000 Ang^3
#
#
#
# Elastic Constant Matrix: (Units=GPa)
#
#
# Indices 1 2 3 4 5 6 
#
# 1 173.4921 52.4306 38.4491 0.0000 0.0000 0.0000
# 2 52.4306 65.9136 -7.7974 0.0000 0.0000 0.0000
# 3 38.4491 -7.7974 66.0513 0.0000 0.0000 0.0000
# 4 0.0000 0.0000 0.0000 23.2209 0.0000 0.0000
# 5 0.0000 0.0000 0.0000 0.0000 26.3566 0.0000
# 6 0.0000 0.0000 0.0000 0.0000 0.0000 -124.5844
#
#
#
# Elastic Compliance Matrix: (Units=1/GPa)
#
#
# Indices 1 2 3 4 5 6 
#
# 1 0.009884 -0.008664 -0.006776 0.000000 0.000000 0.000000
# 2 -0.008664 0.022980 0.007756 0.000000 0.000000 0.000000
# 3 -0.006776 0.007756 0.020000 0.000000 0.000000 0.000000
# 4 0.000000 0.000000 0.000000 0.043065 0.000000 0.000000
# 5 0.000000 0.000000 0.000000 0.000000 0.037941 0.000000
# 6 0.000000 0.000000 0.000000 0.000000 0.000000 -0.008027
#
#
# Mechanical properties :
#
#
# Convention : Reuss Voigt Hill
#
# Bulk Modulus (GPa) = 26.66923 52.40240 39.53581
# Shear Modulus (GPa) = 32.52875 -0.17640 16.17617
#
# Velocity S-wave (km/s) = 4.07719 -0.30025 2.87518
# Velocity P-wave (km/s) = 5.98278 5.16328 5.58807
#
# Compressibility (1/GPa) = 0.03749640
#
# Stress axis : x y z
#
# Youngs Moduli (GPa) = 101.17404 43.51524 50.00023
#
# Poissons Ratio (x) = 0.37701 0.33882
# Poissons Ratio (y) = 0.87655 -0.38781
# Poissons Ratio (z) = 0.68559 -0.33751
#
# Static dielectric constant tensor:
#      x y z
#    x 1.732230 0.000000 0.000000 
#    y 0.000000 1.692700 0.000000 
#    z 0.000000 0.000000 1.728410 
# 
# From -- ./inp_files/4395.got.cif
#   From: 2010.05.17/outbox.cif.g08.bks.cpg/sg47_3_cif.got.tgz:4395.got - 2010.06.03 20:15:42.
