data_PCOD9386254
_publ_section_title
;
Structure prediction by ZEFSAII (Michael W. Deem and Ramdas Pophale) SiO2 
 PCOD9386254
Probable space group: P M M M
;
_chemical_formula_sum "Si O2"
_cell_formula_units_Z 64
_cell_length_a 24.231505
_cell_length_b 15.303799
_cell_length_c 9.239661
_cell_angle_alpha 90.000000
_cell_angle_beta 90.000000
_cell_angle_gamma 90.000000
_cell_volume 3426.381205
_symmetry_space_group_name_H-M "P M M M"
_symmetry_group_IT_number 47
_symmetry_cell_setting 'orthorhombic'
loop_
_space_group_symop_operation_xyz
x,y,z
-x,-y,z
x,-y,-z
-x,y,-z
-x,-y,-z
x,y,-z
-x,y,z
x,-y,z
loop_
_atom_site_type_symbol
_atom_site_label
_atom_site_fract_x
_atom_site_fract_y
_atom_site_fract_z
Si Si1 0.848962 0.222476 0.826575
Si Si2 0.234322 0.900896 0.666070
Si Si3 0.794113 0.402938 0.176208
Si Si4 0.563454 0.105528 0.662138
Si Si5 0.334837 0.147622 0.838175
Si Si6 0.672925 0.647692 0.165137
Si Si7 0.439066 0.394540 0.332558
Si Si8 0.065970 0.899983 0.671241
O O1 0.799381 0.161055 0.771936
O O2 0.832526 0.321257 0.779985
O O3 0.901864 0.175615 0.755600
O O4 0.853365 0.220979 0.000000
O O5 0.230449 0.871070 0.500000
O O6 0.296875 0.899704 0.721458
O O7 0.213267 0.000000 0.673031
O O8 0.813567 0.500000 0.217936
O O9 0.730271 0.391193 0.225269
O O10 0.791892 0.399279 0.000000
O O11 0.581385 0.132419 0.500000
O O12 0.500000 0.131683 0.680421
O O13 0.602744 0.141841 0.784621
O O14 0.565579 0.000000 0.667259
O O15 0.317896 0.248609 0.839633
O O16 0.327907 0.111947 0.000000
O O17 0.616174 0.631981 0.249432
O O18 0.665844 0.615529 0.000000
O O19 0.435095 0.365987 0.500000
O O20 0.500000 0.365521 0.277057
O O21 0.439884 0.500000 0.331278
O O22 0.079560 0.894281 0.500000
O O23 0.000000 0.890637 0.685972
O O24 0.079813 0.000000 0.718486
#
# Coordination Sequence:
#
# PCOD9386254 Si02
#       8
#     8   8   8   8   8   8   8   8
#     4  11  21  35  57  88 120 149 190 240 283 323
#     4  11  23  37  54  77 109 150 187 219 268 335
#     4   9  18  35  57  79 109 149 188 231 286 340
#     4   9  19  36  54  70  92 128 174 217 263 330
#     4  11  22  35  51  75 104 131 170 225 277 325
#     4  10  20  35  53  74 102 135 175 222 276 338
#     4   9  19  35  52  72  99 128 163 215 278 339
#     4   9  19  37  60  87 123 166 204 234 272 327
#
# _framework density 18.678598000000001
#
# number of rings (size 3 to 8) (size 9 to 14) (size 15 to 20)
#    0.000    2.125    1.250    3.375    0.000    7.500 
#    0.000    4.375    0.000    2.625    0.000    2.625 
#    0.000    0.000    0.000    0.000    0.000    0.000 
#
# Total GULP energy -357018.495559 kJ/mol
# GULP energy per Si atom -5578.413993 kJ/mol
# Density = 1.863608 g / cm^3
# Si number density = 18.678598 Si / 1000 Ang^3
#
#
#
# Elastic Constant Matrix: (Units=GPa)
#
#
# Indices 1 2 3 4 5 6 
#
# 1 89.4691 42.2256 41.1622 0.0000 0.0000 0.0000
# 2 42.2256 105.8867 31.3713 0.0000 0.0000 0.0000
# 3 41.1622 31.3713 50.6402 0.0000 0.0000 0.0000
# 4 0.0000 0.0000 0.0000 25.2433 0.0000 0.0000
# 5 0.0000 0.0000 0.0000 0.0000 35.5448 0.0000
# 6 0.0000 0.0000 0.0000 0.0000 0.0000 32.9453
#
#
#
# Elastic Compliance Matrix: (Units=1/GPa)
#
#
# Indices 1 2 3 4 5 6 
#
# 1 0.018948 -0.003666 -0.013131 0.000000 0.000000 0.000000
# 2 -0.003666 0.012276 -0.004625 0.000000 0.000000 0.000000
# 3 -0.013131 -0.004625 0.033286 0.000000 0.000000 0.000000
# 4 0.000000 0.000000 0.000000 0.039614 0.000000 0.000000
# 5 0.000000 0.000000 0.000000 0.000000 0.028134 0.000000
# 6 0.000000 0.000000 0.000000 0.000000 0.000000 0.030353
#
#
# Mechanical properties :
#
#
# Convention : Reuss Voigt Hill
#
# Bulk Modulus (GPa) = 46.15486 52.83491 49.49488
# Shear Modulus (GPa) = 23.50974 27.49584 25.50279
#
# Velocity S-wave (km/s) = 3.55159 3.84089 3.69907
# Velocity P-wave (km/s) = 6.44841 6.92948 6.69327
#
# Compressibility (1/GPa) = 0.02166619
#
# Stress axis : x y z
#
# Youngs Moduli (GPa) = 52.77512 81.45777 30.04289
#
# Poissons Ratio (x) = 0.29862 0.39449
# Poissons Ratio (y) = 0.19347 0.13896
# Poissons Ratio (z) = 0.69298 0.37677
#
# Static dielectric constant tensor:
#      x y z
#    x 1.667220 0.000000 0.000000 
#    y 0.000000 1.675640 0.000000 
#    z 0.000000 0.000000 1.639510 
# 
# From -- ./inp_files/12653.got.cif
#   From: 2010.05.17/outbox.cif.g08.bks.cpg/sg47_7_cif.got.tgz:12653.got - 2010.06.03 20:15:42.
