data_PCOD9386256
_publ_section_title
;
Structure prediction by ZEFSAII (Michael W. Deem and Ramdas Pophale) SiO2 
 PCOD9386256
Probable space group: P M M M
;
_chemical_formula_sum "Si O2"
_cell_formula_units_Z 52
_cell_length_a 14.421091
_cell_length_b 9.152035
_cell_length_c 23.546733
_cell_angle_alpha 90.000000
_cell_angle_beta 90.000000
_cell_angle_gamma 90.000000
_cell_volume 3107.752675
_symmetry_space_group_name_H-M "P M M M"
_symmetry_group_IT_number 47
_symmetry_cell_setting 'orthorhombic'
loop_
_space_group_symop_operation_xyz
x,y,z
-x,-y,z
x,-y,-z
-x,y,-z
-x,-y,-z
x,y,-z
-x,y,z
x,-y,z
loop_
_atom_site_type_symbol
_atom_site_label
_atom_site_fract_x
_atom_site_fract_y
_atom_site_fract_z
Si Si1 0.891927 0.324466 0.670955
Si Si2 0.257742 0.334779 0.142181
Si Si3 0.733560 0.825559 0.741715
Si Si4 0.108269 0.824995 0.065818
Si Si5 0.607196 0.175473 0.365502
Si Si6 0.234026 0.675374 0.435327
Si Si7 0.390092 0.500000 0.066627
O O1 0.883700 0.500000 0.678778
O O2 0.828271 0.242229 0.716543
O O3 0.847447 0.288665 0.609374
O O4 0.000000 0.285636 0.674116
O O5 0.229639 0.500000 0.159632
O O6 0.285182 0.244563 0.197387
O O7 0.175100 0.257532 0.108572
O O8 0.342241 0.363296 0.098498
O O9 0.653697 0.790602 0.695559
O O10 0.741439 0.000000 0.745885
O O11 0.000000 0.791397 0.076190
O O12 0.119484 0.000000 0.071428
O O13 0.128778 0.786555 0.000000
O O14 0.500000 0.220743 0.368335
O O15 0.672556 0.250869 0.411937
O O16 0.611426 0.000000 0.372648
O O17 0.214006 0.719268 0.500000
O O18 0.245341 0.500000 0.434010
O O19 0.500000 0.500000 0.073387
O O20 0.367387 0.500000 0.000000
#
# Coordination Sequence:
#
# PCOD9386256 Si02
#       7
#     8   8   8   8   8   8   4
#     4   9  18  33  53  74 103 142 178 214 257 306
#     4  10  21  33  54  79 105 138 175 212 257 311
#     4  10  20  35  53  75 104 134 170 218 263 308
#     4   9  18  33  53  78 108 139 171 209 254 304
#     4   9  19  35  53  72  97 132 170 211 264 318
#     4   9  18  32  50  75 105 133 170 217 260 307
#     4   9  20  38  57  79 107 137 171 214 262 310
#
# _framework density 16.732348000000002
#
# number of rings (size 3 to 8) (size 9 to 14) (size 15 to 20)
#    0.462    2.231    0.000    1.846    0.000    3.692 
#    0.000    3.846    0.000    1.385    0.000    9.692 
#    0.000    0.000    0.000    0.000    0.000    0.000 
#
# Total GULP energy -289748.536341 kJ/mol
# GULP energy per Si atom -5572.087237 kJ/mol
# Density = 1.669426 g / cm^3
# Si number density = 16.732348 Si / 1000 Ang^3
#
#
#
# Elastic Constant Matrix: (Units=GPa)
#
#
# Indices 1 2 3 4 5 6 
#
# 1 79.4321 18.7689 31.3978 0.0000 0.0000 0.0000
# 2 18.7689 26.5751 27.8672 0.0000 0.0000 0.0000
# 3 31.3978 27.8672 101.5073 0.0000 0.0000 0.0000
# 4 0.0000 0.0000 0.0000 27.6743 0.0000 0.0000
# 5 0.0000 0.0000 0.0000 0.0000 1.8203 0.0000
# 6 0.0000 0.0000 0.0000 0.0000 0.0000 24.1175
#
#
#
# Elastic Compliance Matrix: (Units=1/GPa)
#
#
# Indices 1 2 3 4 5 6 
#
# 1 0.015558 -0.008343 -0.002522 0.000000 0.000000 0.000000
# 2 -0.008343 0.057316 -0.013154 0.000000 0.000000 0.000000
# 3 -0.002522 -0.013154 0.014243 0.000000 0.000000 0.000000
# 4 0.000000 0.000000 0.000000 0.036135 0.000000 0.000000
# 5 0.000000 0.000000 0.000000 0.000000 0.549354 0.000000
# 6 0.000000 0.000000 0.000000 0.000000 0.000000 0.041464
#
#
# Mechanical properties :
#
#
# Convention : Reuss Voigt Hill
#
# Bulk Modulus (GPa) = 25.59027 40.39802 32.99414
# Shear Modulus (GPa) = 6.45050 19.35444 12.90247
#
# Velocity S-wave (km/s) = 1.96557 3.40473 2.77990
# Velocity P-wave (km/s) = 4.52531 6.29701 5.48319
#
# Compressibility (1/GPa) = 0.03907735
#
# Stress axis : x y z
#
# Youngs Moduli (GPa) = 64.27736 17.44715 70.21069
#
# Poissons Ratio (x) = 0.14557 0.17705
# Poissons Ratio (y) = 0.53629 0.92358
# Poissons Ratio (z) = 0.16208 0.22951
#
# Static dielectric constant tensor:
#      x y z
#    x 1.536430 0.000000 0.000000 
#    y 0.000000 1.556290 0.000000 
#    z 0.000000 0.000000 1.560640 
# 
# From -- ./inp_files/32670.got.cif
#   From: 2010.05.17/outbox.cif.g08.bks.cpg/sg47_17_cif.got.tgz:32670.got - 2010.06.03 20:15:42.
