data_PCOD9386779
_publ_section_title
;
Structure prediction by ZEFSAII (Michael W. Deem and Ramdas Pophale) SiO2 
 PCOD9386779
Probable space group: P M M M
;
_chemical_formula_sum "Si O2"
_cell_formula_units_Z 52
_cell_length_a 7.508736
_cell_length_b 15.727771
_cell_length_c 20.504862
_cell_angle_alpha 90.000000
_cell_angle_beta 90.000000
_cell_angle_gamma 90.000000
_cell_volume 2421.535628
_symmetry_space_group_name_H-M "P M M M"
_symmetry_group_IT_number 47
_symmetry_cell_setting 'orthorhombic'
loop_
_space_group_symop_operation_xyz
x,y,z
-x,-y,z
x,-y,-z
-x,y,-z
-x,-y,-z
x,y,-z
-x,y,z
x,-y,z
loop_
_atom_site_type_symbol
_atom_site_label
_atom_site_fract_x
_atom_site_fract_y
_atom_site_fract_z
Si Si1 0.795850 0.405092 0.856897
Si Si2 0.214445 0.770528 0.809423
Si Si3 0.217034 0.597860 0.425121
Si Si4 0.782161 0.754049 0.337223
Si Si5 0.286819 0.097598 0.073481
Si Si6 0.217033 0.907995 0.425056
Si Si7 0.698759 0.397948 0.000000
O O1 0.716809 0.500000 0.849905
O O2 0.711092 0.323658 0.824304
O O3 0.795201 0.379786 0.933070
O O4 0.000000 0.411642 0.834515
O O5 0.272616 0.783579 0.735014
O O6 0.250976 0.838433 0.866639
O O7 0.000000 0.764880 0.808941
O O8 0.269438 0.621337 0.500000
O O9 0.272097 0.500000 0.413337
O O10 0.274690 0.664224 0.369311
O O11 0.000000 0.598639 0.424980
O O12 0.721854 0.827585 0.385573
O O13 0.000000 0.751115 0.336491
O O14 0.500000 0.093750 0.069553
O O15 0.223509 0.000000 0.085359
O O16 0.223908 0.123932 0.000000
O O17 0.271912 0.902810 0.500000
O O18 0.000000 0.906364 0.424455
O O19 0.271501 0.000000 0.398307
O O20 0.682770 0.500000 0.000000
O O21 0.500000 0.360357 0.000000
#
# Coordination Sequence:
#
# PCOD9386779 Si02
#       7
#     8   8   8   8   8   8   4
#     4   9  18  32  46  63  95 133 160 186 229 286
#     4  10  21  32  47  75 103 130 164 200 245 297
#     4   8  13  21  35  56  84 125 174 211 236 270
#     4   9  16  25  36  56  90 125 154 191 238 281
#     4   9  20  40  61  76  92 120 159 202 251 305
#     4   8  13  21  34  52  76 111 149 179 218 276
#     4   9  17  29  47  69  86 107 150 201 239 270
#
# _framework density 21.473976
#
# number of rings (size 3 to 8) (size 9 to 14) (size 15 to 20)
#    0.000    3.154    0.000    2.077    1.077    5.231 
#    0.000    5.385    0.000    0.000    0.000    0.000 
#    0.000    2.462    0.000   10.154    0.000    8.000 
#
# Total GULP energy -289609.918321 kJ/mol
# GULP energy per Si atom -5569.421506 kJ/mol
# Density = 2.142510 g / cm^3
# Si number density = 21.473976 Si / 1000 Ang^3
#
#
#
# Elastic Constant Matrix: (Units=GPa)
#
#
# Indices 1 2 3 4 5 6 
#
# 1 58.6881 5.7386 2.2895 0.0000 0.0000 0.0000
# 2 5.7386 151.5214 100.7031 0.0000 0.0000 0.0000
# 3 2.2895 100.7031 132.7397 0.0000 0.0000 0.0000
# 4 0.0000 0.0000 0.0000 -51.1077 0.0000 0.0000
# 5 0.0000 0.0000 0.0000 0.0000 140.5666 0.0000
# 6 0.0000 0.0000 0.0000 0.0000 0.0000 11.2410
#
#
#
# Elastic Compliance Matrix: (Units=1/GPa)
#
#
# Indices 1 2 3 4 5 6 
#
# 1 0.017113 -0.000912 0.000396 0.000000 0.000000 0.000000
# 2 -0.000912 0.013360 -0.010120 0.000000 0.000000 0.000000
# 3 0.000396 -0.010120 0.015204 0.000000 0.000000 0.000000
# 4 0.000000 0.000000 0.000000 -0.019567 0.000000 0.000000
# 5 0.000000 0.000000 0.000000 0.000000 0.007114 0.000000
# 6 0.000000 0.000000 0.000000 0.000000 0.000000 0.088960
#
#
# Mechanical properties :
#
#
# Convention : Reuss Voigt Hill
#
# Bulk Modulus (GPa) = 40.97188 62.26797 51.61992
# Shear Modulus (GPa) = 32.98362 35.75452 34.36907
#
# Velocity S-wave (km/s) = 3.92341 4.08489 4.00496
# Velocity P-wave (km/s) = 6.29646 7.16298 6.74365
#
# Compressibility (1/GPa) = 0.02440699
#
# Stress axis : x y z
#
# Youngs Moduli (GPa) = 58.43547 74.84986 65.77135
#
# Poissons Ratio (x) = 0.06823 -0.02607
# Poissons Ratio (y) = 0.05327 0.66560
# Poissons Ratio (z) = -0.02316 0.75747
#
# Static dielectric constant tensor:
#      x y z
#    x 1.833460 0.000000 0.000000 
#    y 0.000000 1.786060 0.000000 
#    z 0.000000 0.000000 1.758620 
# 
# From -- ./inp_files/29568.got.cif
#   From: 2010.05.17/outbox.cif.g08.bks.cpg/sg47_15_cif.got.tgz:29568.got - 2010.06.03 20:15:42.
