data_PCOD9386598
_publ_section_title
;
Structure prediction by ZEFSAII (Michael W. Deem and Ramdas Pophale) SiO2 
 PCOD9386598
Probable space group: P M M M
;
_chemical_formula_sum "Si O2"
_cell_formula_units_Z 32
_cell_length_a 14.432443
_cell_length_b 7.620373
_cell_length_c 15.439153
_cell_angle_alpha 90.000000
_cell_angle_beta 90.000000
_cell_angle_gamma 90.000000
_cell_volume 1698.007294
_symmetry_space_group_name_H-M "P M M M"
_symmetry_group_IT_number 47
_symmetry_cell_setting 'orthorhombic'
loop_
_space_group_symop_operation_xyz
x,y,z
-x,-y,z
x,-y,-z
-x,y,-z
-x,-y,-z
x,y,-z
-x,y,z
x,-y,z
loop_
_atom_site_type_symbol
_atom_site_label
_atom_site_fract_x
_atom_site_fract_y
_atom_site_fract_z
Si Si1 0.389109 0.000000 0.906405
Si Si2 0.605396 0.295451 0.771013
Si Si3 0.196462 0.707992 0.719216
Si Si4 0.110593 0.000000 0.400514
Si Si5 0.891685 0.712933 0.096942
O O1 0.371051 0.826573 0.851932
O O2 0.500000 0.000000 0.915565
O O3 0.344858 0.000000 0.000000
O O4 0.500000 0.253658 0.741167
O O5 0.606432 0.500000 0.795854
O O6 0.692565 0.268729 0.708561
O O7 0.175542 0.500000 0.710328
O O8 0.164723 0.763356 0.816879
O O9 0.145716 0.829504 0.650834
O O10 0.142682 0.000000 0.500000
O O11 0.000000 0.000000 0.399753
O O12 0.888385 0.500000 0.095071
O O13 0.000000 0.763257 0.107666
O O14 0.861878 0.772075 0.000000
#
# Coordination Sequence:
#
# PCOD9386598 Si02
#       5
#     4   8   8   4   8
#     4   9  17  28  42  64 101 149 194 234 274 315
#     4   9  18  32  51  76 105 141 187 235 279 324
#     4  10  20  36  59  82 109 149 188 223 273 333
#     4  11  25  42  60  86 115 139 174 226 276 330
#     4   8  14  26  46  73 104 138 178 222 265 313
#
# _framework density 18.84562
#
# number of rings (size 3 to 8) (size 9 to 14) (size 15 to 20)
#    0.000    2.750    0.000    2.250    0.000    3.500 
#    0.000    6.875    0.000    3.750    0.000    3.500 
#    0.000    0.000    0.000    0.000    0.000    0.000 
#
# Total GULP energy -178276.689998 kJ/mol
# GULP energy per Si atom -5571.146562 kJ/mol
# Density = 1.880273 g / cm^3
# Si number density = 18.845620 Si / 1000 Ang^3
#
#
#
# Elastic Constant Matrix: (Units=GPa)
#
#
# Indices 1 2 3 4 5 6 
#
# 1 103.4680 41.1732 59.3602 0.0000 0.0000 0.0000
# 2 41.1732 48.5300 43.9143 0.0000 0.0000 0.0000
# 3 59.3602 43.9143 118.5575 0.0000 0.0000 0.0000
# 4 0.0000 0.0000 0.0000 20.0589 0.0000 0.0000
# 5 0.0000 0.0000 0.0000 0.0000 6.5777 0.0000
# 6 0.0000 0.0000 0.0000 0.0000 0.0000 22.4343
#
#
#
# Elastic Compliance Matrix: (Units=1/GPa)
#
#
# Indices 1 2 3 4 5 6 
#
# 1 0.016042 -0.009539 -0.004498 0.000000 0.000000 0.000000
# 2 -0.009539 0.036667 -0.008805 0.000000 0.000000 0.000000
# 3 -0.004498 -0.008805 0.013949 0.000000 0.000000 0.000000
# 4 0.000000 0.000000 0.000000 0.049853 0.000000 0.000000
# 5 0.000000 0.000000 0.000000 0.000000 0.152028 0.000000
# 6 0.000000 0.000000 0.000000 0.000000 0.000000 0.044575
#
#
# Mechanical properties :
#
#
# Convention : Reuss Voigt Hill
#
# Bulk Modulus (GPa) = 47.68512 62.16122 54.92317
# Shear Modulus (GPa) = 13.66906 18.22138 15.94522
#
# Velocity S-wave (km/s) = 2.69609 3.11284 2.91193
# Velocity P-wave (km/s) = 5.92029 6.78054 6.36497
#
# Compressibility (1/GPa) = 0.02097090
#
# Stress axis : x y z
#
# Youngs Moduli (GPa) = 62.33821 27.27258 71.69166
#
# Poissons Ratio (x) = 0.26016 0.32250
# Poissons Ratio (y) = 0.59465 0.63128
# Poissons Ratio (z) = 0.28042 0.24015
#
# Static dielectric constant tensor:
#      x y z
#    x 1.689810 0.000000 0.000000 
#    y 0.000000 1.668400 0.000000 
#    z 0.000000 0.000000 1.627030 
# 
# From -- ./inp_files/17093.got.cif
#   From: 2010.05.17/outbox.cif.g08.bks.cpg/sg47_9_cif.got.tgz:17093.got - 2010.06.03 20:15:42.
