data_PCOD9386039
_publ_section_title
;
Structure prediction by ZEFSAII (Michael W. Deem and Ramdas Pophale) SiO2 
 PCOD9386039
Probable space group: P M M M
;
_chemical_formula_sum "Si O2"
_cell_formula_units_Z 48
_cell_length_a 8.953491
_cell_length_b 9.382917
_cell_length_c 31.797245
_cell_angle_alpha 90.000000
_cell_angle_beta 90.000000
_cell_angle_gamma 90.000000
_cell_volume 2671.282193
_symmetry_space_group_name_H-M "P M M M"
_symmetry_group_IT_number 47
_symmetry_cell_setting 'orthorhombic'
loop_
_space_group_symop_operation_xyz
x,y,z
-x,-y,z
x,-y,-z
-x,y,-z
-x,-y,-z
x,y,-z
-x,y,z
x,-y,z
loop_
_atom_site_type_symbol
_atom_site_label
_atom_site_fract_x
_atom_site_fract_y
_atom_site_fract_z
Si Si1 0.321499 0.332280 0.661549
Si Si2 0.180369 0.833149 0.583802
Si Si3 0.176318 0.669826 0.249460
Si Si4 0.818132 0.335734 0.500000
Si Si5 0.820849 0.168140 0.916809
Si Si6 0.182171 0.663926 0.000000
Si Si7 0.676640 0.829884 0.171532
O O1 0.500000 0.318898 0.662089
O O2 0.283933 0.500000 0.654863
O O3 0.252103 0.239244 0.624468
O O4 0.255540 0.289707 0.706832
O O5 0.227952 0.747997 0.541948
O O6 0.000000 0.822908 0.586860
O O7 0.218829 0.000000 0.580585
O O8 0.198002 0.500000 0.243898
O O9 0.244804 0.750922 0.209931
O O10 0.000000 0.697741 0.252634
O O11 0.767925 0.500000 0.500000
O O12 0.000000 0.336840 0.500000
O O13 0.770703 0.255342 0.957645
O O14 0.743685 0.214200 0.873543
O O15 0.000000 0.184356 0.912309
O O16 0.790560 0.000000 0.923348
O O17 0.229485 0.500000 0.000000
O O18 0.000000 0.667116 0.000000
O O19 0.500000 0.803326 0.172494
O O20 0.701649 0.000000 0.175411
#
# Coordination Sequence:
#
# PCOD9386039 Si02
#       7
#     8   8   8   4   8   4   8
#     4  10  21  37  56  78 106 141 179 218 263 316
#     4  10  20  34  54  81 111 142 178 221 267 314
#     4  10  21  37  58  82 106 136 176 220 265 314
#     4   9  17  31  54  81 108 141 180 222 266 311
#     4   9  17  31  51  73  99 134 174 214 258 309
#     4   9  17  29  48  75 102 128 166 217 264 305
#     4  10  21  36  54  78 108 141 176 215 262 315
#
# _framework density 17.968899
#
# number of rings (size 3 to 8) (size 9 to 14) (size 15 to 20)
#    0.000    2.333    0.000    2.500    0.000    7.333 
#    0.000    2.500    0.000    5.000    0.000    0.000 
#    0.000    0.000    0.000    0.000    0.000    0.000 
#
# Total GULP energy -267972.477974 kJ/mol
# GULP energy per Si atom -5582.759958 kJ/mol
# Density = 1.792800 g / cm^3
# Si number density = 17.968899 Si / 1000 Ang^3
#
#
#
# Elastic Constant Matrix: (Units=GPa)
#
#
# Indices 1 2 3 4 5 6 
#
# 1 38.0618 51.4459 65.5291 0.0000 0.0000 0.0000
# 2 51.4459 100.3454 109.3714 0.0000 0.0000 0.0000
# 3 65.5291 109.3714 214.0649 0.0000 0.0000 0.0000
# 4 0.0000 0.0000 0.0000 40.7882 0.0000 0.0000
# 5 0.0000 0.0000 0.0000 0.0000 -24.4730 0.0000
# 6 0.0000 0.0000 0.0000 0.0000 0.0000 22.0774
#
#
#
# Elastic Compliance Matrix: (Units=1/GPa)
#
#
# Indices 1 2 3 4 5 6 
#
# 1 0.093079 -0.037608 -0.009279 0.000000 0.000000 0.000000
# 2 -0.037608 0.037685 -0.007742 0.000000 0.000000 0.000000
# 3 -0.009279 -0.007742 0.011467 0.000000 0.000000 0.000000
# 4 0.000000 0.000000 0.000000 0.024517 0.000000 0.000000
# 5 0.000000 0.000000 0.000000 0.000000 -0.040861 0.000000
# 6 0.000000 0.000000 0.000000 0.000000 0.000000 0.045295
#
#
# Mechanical properties :
#
#
# Convention : Reuss Voigt Hill
#
# Bulk Modulus (GPa) = 30.32548 89.46278 59.89413
# Shear Modulus (GPa) = 17.15678 16.08689 16.62184
#
# Velocity S-wave (km/s) = 3.09334 2.99534 3.04474
# Velocity P-wave (km/s) = 5.44717 7.86501 6.76499
#
# Compressibility (1/GPa) = 0.03297557
#
# Stress axis : x y z
#
# Youngs Moduli (GPa) = 10.74351 26.53597 87.20473
#
# Poissons Ratio (x) = 0.99796 0.80913
# Poissons Ratio (y) = 0.40404 0.67512
# Poissons Ratio (z) = 0.09968 0.20543
#
# Static dielectric constant tensor:
#      x y z
#    x 1.597030 0.000000 0.000000 
#    y 0.000000 1.603820 0.000000 
#    z 0.000000 0.000000 1.579890 
# 
# From -- ./inp_files/2734.got.cif
#   From: 2010.05.17/outbox.cif.g08.bks.cpg/sg47_2_cif.got.tgz:2734.got - 2010.06.03 20:15:42.
