data_PCOD9386098
_publ_section_title
;
Structure prediction by ZEFSAII (Michael W. Deem and Ramdas Pophale) SiO2 
 PCOD9386098
Probable space group: P M M M
;
_chemical_formula_sum "Si O2"
_cell_formula_units_Z 48
_cell_length_a 34.175390
_cell_length_b 9.535005
_cell_length_c 7.761173
_cell_angle_alpha 90.000000
_cell_angle_beta 90.000000
_cell_angle_gamma 90.000000
_cell_volume 2529.075349
_symmetry_space_group_name_H-M "P M M M"
_symmetry_group_IT_number 47
_symmetry_cell_setting 'orthorhombic'
loop_
_space_group_symop_operation_xyz
x,y,z
-x,-y,z
x,-y,-z
-x,y,-z
-x,-y,-z
x,y,-z
-x,y,z
x,-y,z
loop_
_atom_site_type_symbol
_atom_site_label
_atom_site_fract_x
_atom_site_fract_y
_atom_site_fract_z
Si Si1 0.455109 0.671131 0.500000
Si Si2 0.149750 0.837058 0.289535
Si Si3 0.397335 0.328790 0.801379
Si Si4 0.000000 0.840328 0.205435
Si Si5 0.763222 0.840537 0.707293
Si Si6 0.076107 0.659250 0.293111
Si Si7 0.311615 0.342175 0.793718
O O1 0.455464 0.500000 0.500000
O O2 0.500000 0.718175 0.500000
O O3 0.430954 0.714729 0.330516
O O4 0.149070 0.835185 0.500000
O O5 0.193499 0.792729 0.234653
O O6 0.115012 0.737625 0.227596
O O7 0.143707 0.000000 0.239283
O O8 0.396118 0.500000 0.802310
O O9 0.354012 0.284650 0.737398
O O10 0.403769 0.284754 0.000000
O O11 0.961641 0.753966 0.257737
O O12 0.000000 0.000000 0.274999
O O13 0.000000 0.849091 0.000000
O O14 0.764736 0.844155 0.500000
O O15 0.726413 0.747671 0.755615
O O16 0.757841 0.000000 0.769253
O O17 0.079781 0.650450 0.500000
O O18 0.071904 0.500000 0.227266
O O19 0.306585 0.500000 0.724605
O O20 0.315334 0.351261 0.000000
#
# Coordination Sequence:
#
# PCOD9386098 Si02
#       7
#     4   8   8   4   8   8   8
#     4   9  16  24  38  62  89 123 167 205 249 312
#     4   8  15  30  50  71  98 130 161 196 239 287
#     4   8  15  27  40  58  89 124 160 206 253 300
#     4  11  24  39  54  74 100 131 168 205 244 296
#     4   9  18  31  48  73 101 127 160 202 245 290
#     4  10  20  34  55  81 104 127 161 204 247 295
#     4   9  18  31  46  66  93 128 168 204 242 294
#
# _framework density 18.979268999999999
#
# number of rings (size 3 to 8) (size 9 to 14) (size 15 to 20)
#    0.000    3.000    0.000    3.000    1.167    4.333 
#    0.000    4.167    0.000    1.000    0.000    0.000 
#    0.000    1.333    0.000    3.667    0.000    3.667 
#
# Total GULP energy -267542.966398 kJ/mol
# GULP energy per Si atom -5573.811800 kJ/mol
# Density = 1.893607 g / cm^3
# Si number density = 18.979269 Si / 1000 Ang^3
#
#
#
# Elastic Constant Matrix: (Units=GPa)
#
#
# Indices 1 2 3 4 5 6 
#
# 1 223.2857 89.8592 41.5262 0.0000 0.0000 0.0000
# 2 89.8592 80.7086 18.9243 0.0000 0.0000 0.0000
# 3 41.5262 18.9243 45.7219 0.0000 0.0000 0.0000
# 4 0.0000 0.0000 0.0000 8.7781 0.0000 0.0000
# 5 0.0000 0.0000 0.0000 0.0000 147.9935 0.0000
# 6 0.0000 0.0000 0.0000 0.0000 0.0000 -65.5303
#
#
#
# Elastic Compliance Matrix: (Units=1/GPa)
#
#
# Indices 1 2 3 4 5 6 
#
# 1 0.008842 -0.008817 -0.004381 0.000000 0.000000 0.000000
# 2 -0.008817 0.022514 -0.001311 0.000000 0.000000 0.000000
# 3 -0.004381 -0.001311 0.026393 0.000000 0.000000 0.000000
# 4 0.000000 0.000000 0.000000 0.113920 0.000000 0.000000
# 5 0.000000 0.000000 0.000000 0.000000 0.006757 0.000000
# 6 0.000000 0.000000 0.000000 0.000000 0.000000 -0.015260
#
#
# Mechanical properties :
#
#
# Convention : Reuss Voigt Hill
#
# Bulk Modulus (GPa) = 34.80530 72.25952 53.53241
# Shear Modulus (GPa) = 24.78199 31.54201 28.16200
#
# Velocity S-wave (km/s) = 3.61742 4.08109 3.85623
# Velocity P-wave (km/s) = 5.98549 7.76933 6.93501
#
# Compressibility (1/GPa) = 0.02873126
#
# Stress axis : x y z
#
# Youngs Moduli (GPa) = 113.10237 44.41676 37.88909
#
# Poissons Ratio (x) = 0.39161 0.16599
# Poissons Ratio (y) = 0.99720 0.04967
# Poissons Ratio (z) = 0.49549 0.05822
#
# Static dielectric constant tensor:
#      x y z
#    x 1.663340 0.000000 0.000000 
#    y 0.000000 1.652750 0.000000 
#    z 0.000000 0.000000 1.710930 
# 
# From -- ./inp_files/13983.got.cif
#   From: 2010.05.17/outbox.cif.g08.bks.cpg/sg47_7_cif.got.tgz:13983.got - 2010.06.03 20:15:42.
