data_PCOD9386570
_publ_section_title
;
Structure prediction by ZEFSAII (Michael W. Deem and Ramdas Pophale) SiO2 
 PCOD9386570
Probable space group: P M M M
;
_chemical_formula_sum "Si O2"
_cell_formula_units_Z 52
_cell_length_a 20.309620
_cell_length_b 16.571945
_cell_length_c 7.789265
_cell_angle_alpha 90.000000
_cell_angle_beta 90.000000
_cell_angle_gamma 90.000000
_cell_volume 2621.632186
_symmetry_space_group_name_H-M "P M M M"
_symmetry_group_IT_number 47
_symmetry_cell_setting 'orthorhombic'
loop_
_space_group_symop_operation_xyz
x,y,z
-x,-y,z
x,-y,-z
-x,y,-z
-x,-y,-z
x,y,-z
-x,y,z
x,-y,z
loop_
_atom_site_type_symbol
_atom_site_label
_atom_site_fract_x
_atom_site_fract_y
_atom_site_fract_z
Si Si1 0.286122 0.258072 0.296044
Si Si2 0.206722 0.588578 0.289236
Si Si3 0.072220 0.661377 0.709084
Si Si4 0.578850 0.913797 0.000000
Si Si5 0.575467 0.208120 0.703126
Si Si6 0.074140 0.849464 0.292359
Si Si7 0.783382 0.088885 0.201616
O O1 0.280897 0.264626 0.500000
O O2 0.246757 0.334054 0.223839
O O3 0.363569 0.265744 0.254660
O O4 0.255267 0.169837 0.258610
O O5 0.208562 0.589092 0.500000
O O6 0.229384 0.500000 0.234300
O O7 0.131617 0.605262 0.236789
O O8 0.071954 0.661511 0.500000
O O9 0.082604 0.755220 0.758315
O O10 0.000000 0.636119 0.767613
O O11 0.591948 0.866756 0.174558
O O12 0.500000 0.921714 0.000000
O O13 0.611979 0.000000 0.000000
O O14 0.578319 0.188845 0.500000
O O15 0.500000 0.234275 0.739921
O O16 0.074743 0.852702 0.500000
O O17 0.138359 0.896837 0.231241
O O18 0.000000 0.875150 0.237353
O O19 0.765527 0.000000 0.276137
O O20 0.771562 0.085157 0.000000
#
# Coordination Sequence:
#
# PCOD9386570 Si02
#       7
#     8   8   8   4   8   8   8
#     4  10  20  36  56  77 106 140 174 219 269 319
#     4   9  16  27  48  78 107 134 167 211 265 319
#     4   8  13  23  42  69  99 128 161 205 255 306
#     4   9  18  32  52  80 111 141 176 223 275 325
#     4   9  19  35  55  79 106 143 188 226 270 332
#     4   9  17  32  54  75  97 131 177 224 266 311
#     4  11  24  37  50  73 104 139 179 221 265 316
#
# _framework density 19.834969999999998
#
# number of rings (size 3 to 8) (size 9 to 14) (size 15 to 20)
#    0.000    2.692    1.538    1.385    1.077    3.077 
#    0.000    6.154    0.000    0.923    0.000    3.231 
#    0.000    4.308    0.000    0.154    0.000    0.000 
#
# Total GULP energy -289650.308435 kJ/mol
# GULP energy per Si atom -5570.198239 kJ/mol
# Density = 1.978983 g / cm^3
# Si number density = 19.834970 Si / 1000 Ang^3
#
#
#
# Elastic Constant Matrix: (Units=GPa)
#
#
# Indices 1 2 3 4 5 6 
#
# 1 127.5394 75.8060 15.7414 0.0000 0.0000 0.0000
# 2 75.8060 122.6525 5.3607 0.0000 0.0000 0.0000
# 3 15.7414 5.3607 13.0476 0.0000 0.0000 0.0000
# 4 0.0000 0.0000 0.0000 108.7434 0.0000 0.0000
# 5 0.0000 0.0000 0.0000 0.0000 3.1712 0.0000
# 6 0.0000 0.0000 0.0000 0.0000 0.0000 6.2948
#
#
#
# Elastic Compliance Matrix: (Units=1/GPa)
#
#
# Indices 1 2 3 4 5 6 
#
# 1 0.014570 -0.008388 -0.014132 0.000000 0.000000 0.000000
# 2 -0.008388 0.013131 0.004725 0.000000 0.000000 0.000000
# 3 -0.014132 0.004725 0.091752 0.000000 0.000000 0.000000
# 4 0.000000 0.000000 0.000000 0.009196 0.000000 0.000000
# 5 0.000000 0.000000 0.000000 0.000000 0.315340 0.000000
# 6 0.000000 0.000000 0.000000 0.000000 0.000000 0.158862
#
#
# Mechanical properties :
#
#
# Convention : Reuss Voigt Hill
#
# Bulk Modulus (GPa) = 11.92443 50.78396 31.35419
# Shear Modulus (GPa) = 7.50305 34.73064 21.11685
#
# Velocity S-wave (km/s) = 1.94704 4.18901 3.26640
# Velocity P-wave (km/s) = 3.32858 7.00399 5.48340
#
# Compressibility (1/GPa) = 0.08386146
#
# Stress axis : x y z
#
# Youngs Moduli (GPa) = 68.63245 76.15780 10.89900
#
# Poissons Ratio (x) = 0.63878 0.15403
# Poissons Ratio (y) = 0.57566 -0.05149
# Poissons Ratio (z) = 0.96995 -0.35981
#
# Static dielectric constant tensor:
#      x y z
#    x 1.730930 0.000000 0.000000 
#    y 0.000000 1.728690 0.000000 
#    z 0.000000 0.000000 1.686420 
# 
# From -- ./inp_files/11032.got.cif
#   From: 2010.05.17/outbox.cif.g08.bks.cpg/sg47_6_cif.got.tgz:11032.got - 2010.06.03 20:15:42.
