data_PCOD9386064
_publ_section_title
;
Structure prediction by ZEFSAII (Michael W. Deem and Ramdas Pophale) SiO2 
 PCOD9386064
Probable space group: P M M M
;
_chemical_formula_sum "Si O2"
_cell_formula_units_Z 52
_cell_length_a 7.777332
_cell_length_b 21.417138
_cell_length_c 15.014870
_cell_angle_alpha 90.000000
_cell_angle_beta 90.000000
_cell_angle_gamma 90.000000
_cell_volume 2500.999760
_symmetry_space_group_name_H-M "P M M M"
_symmetry_group_IT_number 47
_symmetry_cell_setting 'orthorhombic'
loop_
_space_group_symop_operation_xyz
x,y,z
-x,-y,z
x,-y,-z
-x,y,-z
-x,-y,-z
x,y,-z
-x,y,z
x,-y,z
loop_
_atom_site_type_symbol
_atom_site_label
_atom_site_fract_x
_atom_site_fract_y
_atom_site_fract_z
Si Si1 0.710843 0.000000 0.604745
Si Si2 0.700723 0.334181 0.643838
Si Si3 0.709774 0.430941 0.500000
Si Si4 0.789865 0.573222 0.000000
Si Si5 0.197007 0.800209 0.401853
Si Si6 0.693357 0.109547 0.263917
Si Si7 0.292024 0.812888 0.100822
Si Si8 0.205642 0.330281 0.153082
O O1 0.766377 0.941317 0.666470
O O2 0.500000 0.000000 0.600190
O O3 0.767647 0.000000 0.500000
O O4 0.500000 0.323524 0.623480
O O5 0.760381 0.393223 0.587675
O O6 0.798392 0.273595 0.609274
O O7 0.722634 0.341163 0.748741
O O8 0.778343 0.500000 0.500000
O O9 0.500000 0.433730 0.500000
O O10 0.735572 0.615858 0.084488
O O11 0.734674 0.500000 0.000000
O O12 0.000000 0.572041 0.000000
O O13 0.258592 0.818473 0.500000
O O14 0.309731 0.828919 0.324629
O O15 0.000000 0.821288 0.391237
O O16 0.500000 0.087444 0.242670
O O17 0.774225 0.135997 0.172582
O O18 0.500000 0.816609 0.104049
O O19 0.248019 0.740885 0.123883
O O20 0.234649 0.825661 0.000000
O O21 0.000000 0.333876 0.157219
#
# Coordination Sequence:
#
# PCOD9386064 Si02
#       8
#     4   8   4   4   8   8   8   8
#     4   9  18  34  56  84 116 151 197 239 273 332
#     4  11  21  35  56  81 109 144 184 229 282 337
#     4   9  20  38  57  77 107 148 189 228 277 341
#     4   9  20  38  57  79 111 150 189 230 284 348
#     4  11  22  34  52  81 114 143 181 234 282 329
#     4  10  20  35  57  83 112 151 191 232 281 332
#     4  10  20  34  54  82 114 146 185 234 286 335
#     4  11  21  35  57  83 110 144 187 234 284 337
#
# _framework density 20.791685999999999
#
# number of rings (size 3 to 8) (size 9 to 14) (size 15 to 20)
#    0.000    1.769    3.077    1.846    0.000    2.154 
#    0.000    0.769    0.000   10.154    0.000    0.000 
#    0.000    2.462    0.000    0.000    0.000    0.000 
#
# Total GULP energy -290085.215329 kJ/mol
# GULP energy per Si atom -5578.561833 kJ/mol
# Density = 2.074436 g / cm^3
# Si number density = 20.791686 Si / 1000 Ang^3
#
#
#
# Elastic Constant Matrix: (Units=GPa)
#
#
# Indices 1 2 3 4 5 6 
#
# 1 41.0410 2.3915 6.7703 0.0000 0.0000 0.0000
# 2 2.3915 126.9283 66.8760 0.0000 0.0000 0.0000
# 3 6.7703 66.8760 179.0169 0.0000 0.0000 0.0000
# 4 0.0000 0.0000 0.0000 27.4598 0.0000 0.0000
# 5 0.0000 0.0000 0.0000 0.0000 -80.2209 0.0000
# 6 0.0000 0.0000 0.0000 0.0000 0.0000 6.9655
#
#
#
# Elastic Compliance Matrix: (Units=1/GPa)
#
#
# Indices 1 2 3 4 5 6 
#
# 1 0.024519 0.000033 -0.000940 0.000000 0.000000 0.000000
# 2 0.000033 0.009809 -0.003666 0.000000 0.000000 0.000000
# 3 -0.000940 -0.003666 0.006991 0.000000 0.000000 0.000000
# 4 0.000000 0.000000 0.000000 0.036417 0.000000 0.000000
# 5 0.000000 0.000000 0.000000 0.000000 -0.012466 0.000000
# 6 0.000000 0.000000 0.000000 0.000000 0.000000 0.143565
#
#
# Mechanical properties :
#
#
# Convention : Reuss Voigt Hill
#
# Bulk Modulus (GPa) = 31.08034 55.45131 43.26583
# Shear Modulus (GPa) = 21.86222 8.90411 15.38316
#
# Velocity S-wave (km/s) = 3.24618 2.07167 2.72301
# Velocity P-wave (km/s) = 5.38806 5.69651 5.54443
#
# Compressibility (1/GPa) = 0.03217468
#
# Stress axis : x y z
#
# Youngs Moduli (GPa) = 40.78477 101.94471 143.04063
#
# Poissons Ratio (x) = -0.00338 0.13441
# Poissons Ratio (y) = -0.00135 0.52435
# Poissons Ratio (z) = 0.03832 0.37370
#
# Static dielectric constant tensor:
#      x y z
#    x 1.779090 0.000000 0.000000 
#    y 0.000000 1.751190 0.000000 
#    z 0.000000 0.000000 1.757340 
# 
# From -- ./inp_files/21531.got.cif
#   From: 2010.05.17/outbox.cif.g08.bks.cpg/sg47_11_cif.got.tgz:21531.got - 2010.06.03 20:15:42.
