data_PCOD9386676
_publ_section_title
;
Structure prediction by ZEFSAII (Michael W. Deem and Ramdas Pophale) SiO2 
 PCOD9386676
Probable space group: P M M M
;
_chemical_formula_sum "Si O2"
_cell_formula_units_Z 56
_cell_length_a 8.777230
_cell_length_b 20.945397
_cell_length_c 15.750988
_cell_angle_alpha 90.000000
_cell_angle_beta 90.000000
_cell_angle_gamma 90.000000
_cell_volume 2895.702065
_symmetry_space_group_name_H-M "P M M M"
_symmetry_group_IT_number 47
_symmetry_cell_setting 'orthorhombic'
loop_
_space_group_symop_operation_xyz
x,y,z
-x,-y,z
x,-y,-z
-x,y,-z
-x,-y,-z
x,y,-z
-x,y,z
x,-y,z
loop_
_atom_site_type_symbol
_atom_site_label
_atom_site_fract_x
_atom_site_fract_y
_atom_site_fract_z
Si Si1 0.821998 0.197022 0.756027
Si Si2 0.000000 0.425345 0.409168
Si Si3 0.333393 0.600519 0.334365
Si Si4 0.172476 0.922729 0.000000
Si Si5 0.681628 0.073505 0.822085
Si Si6 0.324077 0.571251 0.134153
Si Si7 0.315378 0.286702 0.095456
Si Si8 0.670748 0.255606 0.400089
O O1 0.753777 0.126329 0.762783
O O2 0.747074 0.243740 0.827356
O O3 0.787027 0.220373 0.661112
O O4 0.000000 0.196129 0.773427
O O5 0.164453 0.414981 0.367203
O O6 0.000000 0.500000 0.420450
O O7 0.000000 0.390486 0.500000
O O8 0.500000 0.574759 0.367064
O O9 0.329084 0.581483 0.235752
O O10 0.341268 0.674768 0.357733
O O11 0.262935 0.906130 0.084300
O O12 0.000000 0.897565 0.000000
O O13 0.163653 0.000000 0.000000
O O14 0.500000 0.075481 0.818323
O O15 0.730449 0.000000 0.807136
O O16 0.500000 0.569149 0.104400
O O17 0.258222 0.500000 0.115758
O O18 0.260016 0.639049 0.101450
O O19 0.500000 0.287679 0.103815
O O20 0.278464 0.262761 0.000000
O O21 0.709164 0.260007 0.500000
O O22 0.500000 0.226717 0.393867
#
# Coordination Sequence:
#
# PCOD9386676 Si02
#       8
#     8   4   8   4   8   8   8   8
#     4  12  25  39  60  90 125 162 200 251 308 365
#     4  11  24  36  50  78 111 145 190 242 298 369
#     4  10  20  37  58  81 112 151 193 243 307 368
#     4   9  17  31  53  85 123 159 198 243 292 347
#     4  10  21  38  61  87 120 164 209 250 296 361
#     4   9  17  32  57  85 113 149 196 251 309 367
#     4  10  21  38  59  83 116 158 205 257 307 361
#     4  10  21  39  64  90 118 154 199 252 305 367
#
# _framework density 19.339006999999999
#
# number of rings (size 3 to 8) (size 9 to 14) (size 15 to 20)
#    0.000    1.857    1.429    2.786    2.000    4.286 
#    0.000    2.143    0.000    0.429    0.000    4.000 
#    0.000    0.000    0.000    0.000    0.000    0.000 
#
# Total GULP energy -311896.453172 kJ/mol
# GULP energy per Si atom -5569.579521 kJ/mol
# Density = 1.929499 g / cm^3
# Si number density = 19.339007 Si / 1000 Ang^3
#
#
#
# Elastic Constant Matrix: (Units=GPa)
#
#
# Indices 1 2 3 4 5 6 
#
# 1 101.3445 28.1245 26.6850 0.0000 0.0000 0.0000
# 2 28.1245 98.0638 30.4148 0.0000 0.0000 0.0000
# 3 26.6850 30.4148 69.8773 0.0000 0.0000 0.0000
# 4 0.0000 0.0000 0.0000 17.7529 0.0000 0.0000
# 5 0.0000 0.0000 0.0000 0.0000 -34.1512 0.0000
# 6 0.0000 0.0000 0.0000 0.0000 0.0000 10.9444
#
#
#
# Elastic Compliance Matrix: (Units=1/GPa)
#
#
# Indices 1 2 3 4 5 6 
#
# 1 0.011371 -0.002213 -0.003379 0.000000 0.000000 0.000000
# 2 -0.002213 0.012220 -0.004474 0.000000 0.000000 0.000000
# 3 -0.003379 -0.004474 0.017548 0.000000 0.000000 0.000000
# 4 0.000000 0.000000 0.000000 0.056329 0.000000 0.000000
# 5 0.000000 0.000000 0.000000 0.000000 -0.029282 0.000000
# 6 0.000000 0.000000 0.000000 0.000000 0.000000 0.091371
#
#
# Mechanical properties :
#
#
# Convention : Reuss Voigt Hill
#
# Bulk Modulus (GPa) = 47.60206 48.85937 48.23071
# Shear Modulus (GPa) = 26.78204 11.17996 18.98100
#
# Velocity S-wave (km/s) = 3.72542 2.40699 3.13627
# Velocity P-wave (km/s) = 6.57062 5.74842 6.17322
#
# Compressibility (1/GPa) = 0.02100749
#
# Stress axis : x y z
#
# Youngs Moduli (GPa) = 87.94063 81.83528 56.98519
#
# Poissons Ratio (x) = 0.18112 0.19256
# Poissons Ratio (y) = 0.19463 0.25493
# Poissons Ratio (z) = 0.29717 0.36609
#
# Static dielectric constant tensor:
#      x y z
#    x 1.592260 0.000000 0.000000 
#    y 0.000000 1.702770 0.000000 
#    z 0.000000 0.000000 -15.602440 
# 
# From -- ./inp_files/21618.got.cif
#   From: 2010.05.17/outbox.cif.g08.bks.cpg/sg47_11_cif.got.tgz:21618.got - 2010.06.03 20:15:42.
