data_PCOD9386035
_publ_section_title
;
Structure prediction by ZEFSAII (Michael W. Deem and Ramdas Pophale) SiO2 
 PCOD9386035
Probable space group: P M M M
;
_chemical_formula_sum "Si O2"
_cell_formula_units_Z 52
_cell_length_a 15.247064
_cell_length_b 8.081725
_cell_length_c 21.510578
_cell_angle_alpha 90.000000
_cell_angle_beta 90.000000
_cell_angle_gamma 90.000000
_cell_volume 2650.588882
_symmetry_space_group_name_H-M "P M M M"
_symmetry_group_IT_number 47
_symmetry_cell_setting 'orthorhombic'
loop_
_space_group_symop_operation_xyz
x,y,z
-x,-y,z
x,-y,-z
-x,y,-z
-x,-y,-z
x,y,-z
-x,y,z
x,-y,z
loop_
_atom_site_type_symbol
_atom_site_label
_atom_site_fract_x
_atom_site_fract_y
_atom_site_fract_z
Si Si1 0.809763 0.796910 0.070241
Si Si2 0.238691 0.801888 0.796035
Si Si3 0.596857 0.809841 0.587671
Si Si4 0.897545 0.700376 0.308072
Si Si5 0.405425 0.310445 0.277448
Si Si6 0.000000 0.184515 0.925451
Si Si7 0.793636 0.302921 0.567759
O O1 0.758042 0.750094 0.131628
O O2 0.907660 0.733992 0.086727
O O3 0.814315 0.000000 0.068105
O O4 0.785152 0.744804 0.000000
O O5 0.154195 0.753635 0.754325
O O6 0.322823 0.725096 0.763853
O O7 0.243671 0.000000 0.794523
O O8 0.500000 0.741149 0.569439
O O9 0.597404 0.802298 0.662190
O O10 0.688651 0.726632 0.569913
O O11 0.600166 0.000000 0.567770
O O12 0.896530 0.500000 0.309116
O O13 0.843483 0.759308 0.369913
O O14 0.000000 0.753056 0.309017
O O15 0.500000 0.287989 0.245791
O O16 0.400885 0.500000 0.300256
O O17 0.000000 0.000000 0.896444
O O18 0.000000 0.164402 0.000000
O O19 0.824756 0.237982 0.500000
O O20 0.807768 0.500000 0.567816
#
# Coordination Sequence:
#
# PCOD9386035 Si02
#       7
#     8   8   8   8   8   4   8
#     4   8  15  27  44  71 107 143 177 215 262 315
#     4  11  21  32  55  86 112 139 175 224 274 321
#     4  10  20  34  54  81 111 140 172 216 272 326
#     4  10  22  39  56  76 107 146 186 227 269 315
#     4  10  20  35  56  79 106 142 180 218 264 322
#     4   7  10  20  38  60  93 135 172 203 240 296
#     4  10  21  37  57  79 105 143 187 225 265 318
#
# _framework density 19.618281
#
# number of rings (size 3 to 8) (size 9 to 14) (size 15 to 20)
#    0.000    2.385    1.538    2.308    1.077    3.077 
#    0.000    3.077    0.000    2.308    0.000    6.462 
#    0.000    0.000    0.000    0.000    0.000    0.000 
#
# Total GULP energy -289571.453958 kJ/mol
# GULP energy per Si atom -5568.681807 kJ/mol
# Density = 1.957363 g / cm^3
# Si number density = 19.618281 Si / 1000 Ang^3
#
#
#
# Elastic Constant Matrix: (Units=GPa)
#
#
# Indices 1 2 3 4 5 6 
#
# 1 98.3293 11.8291 50.4180 0.0000 0.0000 0.0000
# 2 11.8291 27.4470 15.0351 0.0000 0.0000 0.0000
# 3 50.4180 15.0351 135.7709 0.0000 0.0000 0.0000
# 4 0.0000 0.0000 0.0000 8.7964 0.0000 0.0000
# 5 0.0000 0.0000 0.0000 0.0000 -2.0650 0.0000
# 6 0.0000 0.0000 0.0000 0.0000 0.0000 -57.7562
#
#
#
# Elastic Compliance Matrix: (Units=1/GPa)
#
#
# Indices 1 2 3 4 5 6 
#
# 1 0.012805 -0.003102 -0.004412 0.000000 0.000000 0.000000
# 2 -0.003102 0.039538 -0.003226 0.000000 0.000000 0.000000
# 3 -0.004412 -0.003226 0.009361 0.000000 0.000000 0.000000
# 4 0.000000 0.000000 0.000000 0.113683 0.000000 0.000000
# 5 0.000000 0.000000 0.000000 0.000000 -0.484270 0.000000
# 6 0.000000 0.000000 0.000000 0.000000 0.000000 -0.017314
#
#
# Mechanical properties :
#
#
# Convention : Reuss Voigt Hill
#
# Bulk Modulus (GPa) = 24.86090 46.23462 35.54776
# Shear Modulus (GPa) = -17.16388 2.07939 -7.54225
#
# Velocity S-wave (km/s) = -2.96107 1.03064 -1.96287
# Velocity P-wave (km/s) = 1.00462 5.00346 3.60859
#
# Compressibility (1/GPa) = 0.04022380
#
# Stress axis : x y z
#
# Youngs Moduli (GPa) = 78.09363 25.29202 106.82759
#
# Poissons Ratio (x) = 0.07846 0.47128
# Poissons Ratio (y) = 0.24226 0.34467
# Poissons Ratio (z) = 0.34452 0.08160
#
# Static dielectric constant tensor:
#      x y z
#    x 1.724590 0.000000 0.000000 
#    y 0.000000 1.717170 0.000000 
#    z 0.000000 0.000000 1.708880 
# 
# From -- ./inp_files/30912.got.cif
#   From: 2010.05.17/outbox.cif.g08.bks.cpg/sg47_16_cif.got.tgz:30912.got - 2010.06.03 20:15:42.
