data_PCOD9386939
_publ_section_title
;
Structure prediction by ZEFSAII (Michael W. Deem and Ramdas Pophale) SiO2 
 PCOD9386939
Probable space group: P M M M
;
_chemical_formula_sum "Si O2"
_cell_formula_units_Z 64
_cell_length_a 26.425683
_cell_length_b 7.292713
_cell_length_c 13.176596
_cell_angle_alpha 90.000000
_cell_angle_beta 90.000000
_cell_angle_gamma 90.000000
_cell_volume 2539.326670
_symmetry_space_group_name_H-M "P M M M"
_symmetry_group_IT_number 47
_symmetry_cell_setting 'orthorhombic'
loop_
_space_group_symop_operation_xyz
x,y,z
-x,-y,z
x,-y,-z
-x,y,-z
-x,-y,-z
x,y,-z
-x,y,z
x,-y,z
loop_
_atom_site_type_symbol
_atom_site_label
_atom_site_fract_x
_atom_site_fract_y
_atom_site_fract_z
Si Si1 0.165788 0.776763 0.391152
Si Si2 0.914340 0.223132 0.108749
Si Si3 0.945576 0.223190 0.331063
Si Si4 0.694005 0.778201 0.833030
Si Si5 0.335125 0.776333 0.609687
Si Si6 0.419138 0.710461 0.109751
Si Si7 0.197117 0.223266 0.831131
Si Si8 0.445565 0.790190 0.336505
O O1 0.186489 0.717628 0.500000
O O2 0.106753 0.721322 0.382781
O O3 0.192111 0.720624 0.286987
O O4 0.167386 0.000000 0.389965
O O5 0.940804 0.278754 0.212832
O O6 0.855282 0.278238 0.117202
O O7 0.915824 0.000000 0.109925
O O8 0.935036 0.282505 0.000000
O O9 0.000000 0.282805 0.371863
O O10 0.945218 0.000000 0.334793
O O11 0.691429 0.723489 0.714155
O O12 0.642079 0.714178 0.882890
O O13 0.748616 0.718658 0.873447
O O14 0.691945 0.000000 0.838662
O O15 0.314825 0.719858 0.500000
O O16 0.393428 0.712693 0.620708
O O17 0.334807 0.000000 0.611011
O O18 0.435706 0.500000 0.112218
O O19 0.439037 0.794305 0.214108
O O20 0.433869 0.788616 0.000000
O O21 0.197101 0.000000 0.834028
O O22 0.500000 0.706982 0.361418
O O23 0.446688 0.000000 0.372049
#
# Coordination Sequence:
#
# PCOD9386939 Si02
#       8
#     8   8   8   8   8   8   8   8
#     4   8  13  20  29  43  66  94 123 161 208 251
#     4   8  13  20  28  39  58  84 116 159 209 252
#     4   8  13  19  25  35  54  84 125 167 202 243
#     4   9  17  29  46  67  88 112 145 182 218 258
#     4   8  14  25  42  66  93 115 137 170 210 249
#     4  10  21  35  49  66  90 119 148 179 218 262
#     4   8  14  23  34  51  73  94 122 164 210 251
#     4   9  18  32  50  72  95 119 149 183 216 251
#
# _framework density 25.203530000000001
#
# number of rings (size 3 to 8) (size 9 to 14) (size 15 to 20)
#    0.000    3.500    0.000    2.625    0.000    3.250 
#    0.000    8.750    0.000    6.000    0.000    3.500 
#    0.000    0.000    0.000    0.000    0.000   10.000 
#
# Total GULP energy -357332.011548 kJ/mol
# GULP energy per Si atom -5583.312680 kJ/mol
# Density = 2.514617 g / cm^3
# Si number density = 25.203530 Si / 1000 Ang^3
#
#
#
# Elastic Constant Matrix: (Units=GPa)
#
#
# Indices 1 2 3 4 5 6 
#
# 1 121.1455 -3.2423 -8.8507 0.0000 0.0000 0.0000
# 2 -3.2423 104.7463 -4.1533 0.0000 0.0000 0.0000
# 3 -8.8507 -4.1533 124.1943 0.0000 0.0000 0.0000
# 4 0.0000 0.0000 0.0000 -7.9507 0.0000 0.0000
# 5 0.0000 0.0000 0.0000 0.0000 -16.9945 0.0000
# 6 0.0000 0.0000 0.0000 0.0000 0.0000 -883.1041
#
#
#
# Elastic Compliance Matrix: (Units=1/GPa)
#
#
# Indices 1 2 3 4 5 6 
#
# 1 0.008306 0.000281 0.000601 0.000000 0.000000 0.000000
# 2 0.000281 0.009569 0.000340 0.000000 0.000000 0.000000
# 3 0.000601 0.000340 0.008106 0.000000 0.000000 0.000000
# 4 0.000000 0.000000 0.000000 -0.125775 0.000000 0.000000
# 5 0.000000 0.000000 0.000000 0.000000 -0.058842 0.000000
# 6 0.000000 0.000000 0.000000 0.000000 0.000000 -0.001132
#
#
# Mechanical properties :
#
#
# Convention : Reuss Voigt Hill
#
# Bulk Modulus (GPa) = 35.17938 35.28819 35.23378
# Shear Modulus (GPa) = -32.73574 -157.18771 -94.96173
#
# Velocity S-wave (km/s) = -3.60787 -7.90587 -6.14490
# Velocity P-wave (km/s) = 1.83501 8.32498 6.02796
#
# Compressibility (1/GPa) = 0.02842574
#
# Stress axis : x y z
#
# Youngs Moduli (GPa) = 120.39507 104.50354 123.36355
#
# Poissons Ratio (x) = -0.02936 -0.07418
# Poissons Ratio (y) = -0.03382 -0.04195
# Poissons Ratio (z) = -0.07240 -0.03553
#
# Static dielectric constant tensor:
#      x y z
#    x 1.956990 0.000000 0.000000 
#    y 0.000000 2.012660 0.000000 
#    z 0.000000 0.000000 1.952100 
# 
# From -- ./inp_files/14272.got.cif
#   From: 2010.05.17/outbox.cif.g08.bks.cpg/sg47_8_cif.got.tgz:14272.got - 2010.06.03 20:15:42.
