data_PCOD9386568
_publ_section_title
;
Structure prediction by ZEFSAII (Michael W. Deem and Ramdas Pophale) SiO2 
 PCOD9386568
Probable space group: P M M M
;
_chemical_formula_sum "Si O2"
_cell_formula_units_Z 45
_cell_length_a 7.619701
_cell_length_b 22.045969
_cell_length_c 14.405671
_cell_angle_alpha 90.000000
_cell_angle_beta 90.000000
_cell_angle_gamma 90.000000
_cell_volume 2419.917801
_symmetry_space_group_name_H-M "P M M M"
_symmetry_group_IT_number 47
_symmetry_cell_setting 'orthorhombic'
loop_
_space_group_symop_operation_xyz
x,y,z
-x,-y,z
x,-y,-z
-x,y,-z
-x,-y,-z
x,y,-z
-x,y,z
x,-y,z
loop_
_atom_site_type_symbol
_atom_site_label
_atom_site_fract_x
_atom_site_fract_y
_atom_site_fract_z
Si Si1 0.292912 0.875684 0.234764
Si Si2 0.795962 0.324831 0.266719
Si Si3 0.500000 0.000000 0.000000
Si Si4 0.189734 0.000000 0.152031
Si Si5 0.212874 0.237822 0.893455
Si Si6 0.214517 0.429861 0.604901
Si Si7 0.286805 0.212861 0.393857
O O1 0.500000 0.886693 0.243031
O O2 0.204794 0.938857 0.211744
O O3 0.265813 0.825979 0.153088
O O4 0.230747 0.842553 0.328293
O O5 0.722375 0.291859 0.174624
O O6 0.720485 0.385038 0.314624
O O7 0.783961 0.273503 0.346017
O O8 0.000000 0.337650 0.246048
O O9 0.652634 0.000000 0.919885
O O10 0.000000 0.000000 0.105916
O O11 0.000000 0.239362 0.892457
O O12 0.271228 0.242684 0.000000
O O13 0.268903 0.411510 0.500000
O O14 0.264346 0.500000 0.618755
O O15 0.000000 0.427544 0.605347
O O16 0.232594 0.207248 0.500000
O O17 0.500000 0.215989 0.390240
#
# Coordination Sequence:
#
# PCOD9386568 Si02
#       7
#     8   8   1   4   8   8   8
#     4  10  20  36  53  74 104 133 167 210 254 308
#     4   9  16  27  44  66  91 121 159 205 248 292
#     4  12  26  44  60  86 106 144 182 212 262 326
#     4  12  25  41  60  83 112 140 174 220 266 314
#     4   9  18  30  45  66  92 123 159 201 253 305
#     4   8  13  21  36  61  90 118 151 194 245 299
#     4   9  18  32  51  73  99 133 167 203 252 305
#
# _framework density 18.595672
#
# number of rings (size 3 to 8) (size 9 to 14) (size 15 to 20)
#    0.000    2.667    0.889    1.733    1.244    2.133 
#    0.000    0.444    0.000    3.733    0.000    6.222 
#    0.000    0.000    0.000    8.889    0.000    9.600 
#
# Total GULP energy -250691.750739 kJ/mol
# GULP energy per Si atom -5570.927794 kJ/mol
# Density = 1.855335 g / cm^3
# Si number density = 18.595672 Si / 1000 Ang^3
#
#
#
# Elastic Constant Matrix: (Units=GPa)
#
#
# Indices 1 2 3 4 5 6 
#
# 1 61.4584 -0.8465 1.1515 0.0000 0.0000 0.0000
# 2 -0.8465 102.0221 53.5211 0.0000 0.0000 0.0000
# 3 1.1515 53.5211 134.2837 0.0000 0.0000 0.0000
# 4 0.0000 0.0000 0.0000 54.5720 0.0000 0.0000
# 5 0.0000 0.0000 0.0000 0.0000 135.2572 0.0000
# 6 0.0000 0.0000 0.0000 0.0000 0.0000 35.5107
#
#
#
# Elastic Compliance Matrix: (Units=1/GPa)
#
#
# Indices 1 2 3 4 5 6 
#
# 1 0.016279 0.000263 -0.000245 0.000000 0.000000 0.000000
# 2 0.000263 0.012397 -0.004943 0.000000 0.000000 0.000000
# 3 -0.000245 -0.004943 0.009419 0.000000 0.000000 0.000000
# 4 0.000000 0.000000 0.000000 0.018324 0.000000 0.000000
# 5 0.000000 0.000000 0.000000 0.000000 0.007393 0.000000
# 6 0.000000 0.000000 0.000000 0.000000 0.000000 0.028161
#
#
# Mechanical properties :
#
#
# Convention : Reuss Voigt Hill
#
# Bulk Modulus (GPa) = 35.40228 45.04627 40.22427
# Shear Modulus (GPa) = 44.94820 61.33049 53.13935
#
# Velocity S-wave (km/s) = 4.92177 5.74914 5.35147
# Velocity P-wave (km/s) = 7.16782 8.26722 7.73707
#
# Compressibility (1/GPa) = 0.02824677
#
# Stress axis : x y z
#
# Youngs Moduli (GPa) = 61.42738 80.66258 106.16499
#
# Poissons Ratio (x) = -0.02125 0.02597
# Poissons Ratio (y) = -0.01618 0.52482
# Poissons Ratio (z) = 0.01502 0.39875
#
# Static dielectric constant tensor:
#      x y z
#    x 1.682130 0.000000 0.000000 
#    y 0.000000 1.633250 0.000000 
#    z 0.000000 0.000000 1.633970 
# 
# From -- ./inp_files/21346.got.cif
#   From: 2010.05.17/outbox.cif.g08.bks.cpg/sg47_11_cif.got.tgz:21346.got - 2010.06.03 20:15:42.
