data_PCOD9386323
_publ_section_title
;
Structure prediction by ZEFSAII (Michael W. Deem and Ramdas Pophale) SiO2 
 PCOD9386323
Probable space group: P M M M
;
_chemical_formula_sum "Si O2"
_cell_formula_units_Z 48
_cell_length_a 11.304593
_cell_length_b 15.239594
_cell_length_c 15.146542
_cell_angle_alpha 90.000000
_cell_angle_beta 90.000000
_cell_angle_gamma 90.000000
_cell_volume 2609.406991
_symmetry_space_group_name_H-M "P M M M"
_symmetry_group_IT_number 47
_symmetry_cell_setting 'orthorhombic'
loop_
_space_group_symop_operation_xyz
x,y,z
-x,-y,z
x,-y,-z
-x,y,-z
-x,-y,-z
x,y,-z
-x,y,z
x,-y,z
loop_
_atom_site_type_symbol
_atom_site_label
_atom_site_fract_x
_atom_site_fract_y
_atom_site_fract_z
Si Si1 0.500000 0.901033 0.603337
Si Si2 0.861066 0.000000 0.598697
Si Si3 0.642436 0.897280 0.000000
Si Si4 0.749178 0.174696 0.343257
Si Si5 0.236738 0.601906 0.793368
Si Si6 0.000000 0.606085 0.898827
Si Si7 0.142245 0.647200 0.399363
Si Si8 0.640112 0.771873 0.834627
O O1 0.500000 0.913384 0.500000
O O2 0.617145 0.846865 0.624504
O O3 0.500000 0.000000 0.645113
O O4 0.820185 0.913908 0.647296
O O5 0.806420 0.000000 0.500000
O O6 0.000000 0.000000 0.590712
O O7 0.671185 0.835075 0.916388
O O8 0.500000 0.904765 0.000000
O O9 0.686121 0.000000 0.000000
O O10 0.816549 0.251425 0.394664
O O11 0.728109 0.200691 0.243113
O O12 0.261922 0.500000 0.812373
O O13 0.116378 0.629758 0.843749
O O14 0.209501 0.608546 0.687174
O O15 0.335417 0.667166 0.833435
O O16 0.000000 0.500000 0.902868
O O17 0.000000 0.638842 0.000000
O O18 0.168939 0.614716 0.500000
O O19 0.000000 0.638117 0.387076
O O20 0.500000 0.786104 0.816258
#
# Coordination Sequence:
#
# PCOD9386323 Si02
#       8
#     4   4   4   8   8   4   8   8
#     4  11  20  30  48  75 106 140 185 235 286 340
#     4  11  22  35  53  78 109 145 188 239 289 339
#     4   9  20  38  63  86 115 148 187 232 279 335
#     4  11  21  34  52  78 110 148 191 235 288 344
#     4  10  21  37  59  86 117 150 193 244 292 351
#     4   9  18  34  57  85 113 145 187 236 297 351
#     4  10  20  35  55  79 112 152 194 242 293 348
#     4  10  22  39  58  86 114 150 193 237 286 347
#
# _framework density 18.394984000000001
#
# number of rings (size 3 to 8) (size 9 to 14) (size 15 to 20)
#    0.000    1.833    2.500    2.000    2.333    2.000 
#    0.000    0.833    0.000    1.500    0.000    3.500 
#    0.000    0.000    0.000    0.000    0.000    0.000 
#
# Total GULP energy -267252.305022 kJ/mol
# GULP energy per Si atom -5567.756355 kJ/mol
# Density = 1.835312 g / cm^3
# Si number density = 18.394984 Si / 1000 Ang^3
#
#
#
# Elastic Constant Matrix: (Units=GPa)
#
#
# Indices 1 2 3 4 5 6 
#
# 1 41.8795 13.1299 10.8911 0.0000 0.0000 0.0000
# 2 13.1299 107.1424 29.6656 0.0000 0.0000 0.0000
# 3 10.8911 29.6656 103.7882 0.0000 0.0000 0.0000
# 4 0.0000 0.0000 0.0000 17.0034 0.0000 0.0000
# 5 0.0000 0.0000 0.0000 0.0000 22.2750 0.0000
# 6 0.0000 0.0000 0.0000 0.0000 0.0000 28.2516
#
#
#
# Elastic Compliance Matrix: (Units=1/GPa)
#
#
# Indices 1 2 3 4 5 6 
#
# 1 0.025176 -0.002556 -0.001911 0.000000 0.000000 0.000000
# 2 -0.002556 0.010395 -0.002703 0.000000 0.000000 0.000000
# 3 -0.001911 -0.002703 0.010608 0.000000 0.000000 0.000000
# 4 0.000000 0.000000 0.000000 0.058812 0.000000 0.000000
# 5 0.000000 0.000000 0.000000 0.000000 0.044893 0.000000
# 6 0.000000 0.000000 0.000000 0.000000 0.000000 0.035396
#
#
# Mechanical properties :
#
#
# Convention : Reuss Voigt Hill
#
# Bulk Modulus (GPa) = 31.40812 40.02037 35.71424
# Shear Modulus (GPa) = 23.78293 26.78089 25.28191
#
# Velocity S-wave (km/s) = 3.59960 3.81974 3.71130
# Velocity P-wave (km/s) = 5.86408 6.42318 6.14999
#
# Compressibility (1/GPa) = 0.03183890
#
# Stress axis : x y z
#
# Youngs Moduli (GPa) = 39.71970 96.20002 94.26708
#
# Poissons Ratio (x) = 0.24589 0.18017
# Poissons Ratio (y) = 0.10153 0.25480
# Poissons Ratio (z) = 0.07592 0.26003
#
# Static dielectric constant tensor:
#      x y z
#    x 1.625030 0.000000 0.000000 
#    y 0.000000 1.783900 0.000000 
#    z 0.000000 0.000000 1.671190 
# 
# From -- ./inp_files/22770.got.cif
#   From: 2010.05.17/outbox.cif.g08.bks.cpg/sg47_12_cif.got.tgz:22770.got - 2010.06.03 20:15:42.
