data_PCOD9386492
_publ_section_title
;
Structure prediction by ZEFSAII (Michael W. Deem and Ramdas Pophale) SiO2 
 PCOD9386492
Probable space group: P M M M
;
_chemical_formula_sum "Si O2"
_cell_formula_units_Z 33
_cell_length_a 11.726552
_cell_length_b 17.857414
_cell_length_c 9.030463
_cell_angle_alpha 90.000000
_cell_angle_beta 90.000000
_cell_angle_gamma 90.000000
_cell_volume 1891.032176
_symmetry_space_group_name_H-M "P M M M"
_symmetry_group_IT_number 47
_symmetry_cell_setting 'orthorhombic'
loop_
_space_group_symop_operation_xyz
x,y,z
-x,-y,z
x,-y,-z
-x,y,-z
-x,-y,-z
x,y,-z
-x,y,z
x,-y,z
loop_
_atom_site_type_symbol
_atom_site_label
_atom_site_fract_x
_atom_site_fract_y
_atom_site_fract_z
Si Si1 0.636897 0.413643 0.333847
Si Si2 0.364691 0.156203 0.322730
Si Si3 0.770653 0.291740 0.174016
Si Si4 0.638009 0.000000 0.830195
Si Si5 0.000000 0.500000 0.500000
Si Si6 0.000000 0.657588 0.663966
O O1 0.674468 0.388841 0.500000
O O2 0.500000 0.411388 0.332060
O O3 0.672688 0.500000 0.317791
O O4 0.687415 0.361039 0.210425
O O5 0.353388 0.156183 0.500000
O O6 0.500000 0.169276 0.289333
O O7 0.287989 0.220342 0.250696
O O8 0.330882 0.075708 0.255669
O O9 0.889122 0.315511 0.248606
O O10 0.783033 0.279334 0.000000
O O11 0.500000 0.000000 0.834618
O O12 0.679123 0.000000 0.000000
O O13 0.000000 0.568211 0.627340
O O14 0.000000 0.693251 0.500000
#
# Coordination Sequence:
#
# PCOD9386492 Si02
#       6
#     8   8   8   4   1   4
#     4   9  19  35  54  75 103 142 183 221 268 333
#     4  10  20  35  57  85 117 157 198 232 272 333
#     4  12  24  36  54  82 114 143 180 235 290 337
#     4   9  17  31  53  84 121 154 187 233 286 333
#     4   8  24  44  70  80  94 142 198 248 280 338
#     4  10  23  43  63  80 100 141 190 236 282 337
#
# _framework density 17.450786999999998
#
# number of rings (size 3 to 8) (size 9 to 14) (size 15 to 20)
#    0.364    1.576    0.000    5.091    1.697    6.788 
#    0.000    1.818    0.000    0.727    0.000    5.091 
#    0.000    0.000    0.000    0.000    0.000    0.000 
#
# Total GULP energy -183880.720526 kJ/mol
# GULP energy per Si atom -5572.143046 kJ/mol
# Density = 1.741107 g / cm^3
# Si number density = 17.450787 Si / 1000 Ang^3
#
#
#
# Elastic Constant Matrix: (Units=GPa)
#
#
# Indices 1 2 3 4 5 6 
#
# 1 67.1353 67.0194 55.9178 0.0000 0.0000 0.0000
# 2 67.0194 131.8914 79.0822 0.0000 0.0000 0.0000
# 3 55.9178 79.0822 137.5456 0.0000 0.0000 0.0000
# 4 0.0000 0.0000 0.0000 -1.4002 0.0000 0.0000
# 5 0.0000 0.0000 0.0000 0.0000 12.5998 0.0000
# 6 0.0000 0.0000 0.0000 0.0000 0.0000 41.9531
#
#
#
# Elastic Compliance Matrix: (Units=1/GPa)
#
#
# Indices 1 2 3 4 5 6 
#
# 1 0.032967 -0.013301 -0.005755 0.000000 0.000000 0.000000
# 2 -0.013301 0.016938 -0.004331 0.000000 0.000000 0.000000
# 3 -0.005755 -0.004331 0.012100 0.000000 0.000000 0.000000
# 4 0.000000 0.000000 0.000000 -0.714164 0.000000 0.000000
# 5 0.000000 0.000000 0.000000 0.000000 0.079366 0.000000
# 6 0.000000 0.000000 0.000000 0.000000 0.000000 0.023836
#
#
# Mechanical properties :
#
#
# Convention : Reuss Voigt Hill
#
# Bulk Modulus (GPa) = 65.65706 82.29010 73.97358
# Shear Modulus (GPa) = -10.05819 19.60074 4.77128
#
# Velocity S-wave (km/s) = -2.40338 3.35505 1.65531
# Velocity P-wave (km/s) = 5.47760 7.89091 6.79229
#
# Compressibility (1/GPa) = 0.01523065
#
# Stress axis : x y z
#
# Youngs Moduli (GPa) = 30.33369 59.04001 82.64528
#
# Poissons Ratio (x) = 0.78530 0.47560
# Poissons Ratio (y) = 0.40347 0.35793
# Poissons Ratio (z) = 0.17456 0.25570
#
# Static dielectric constant tensor:
#      x y z
#    x 1.473880 0.000000 0.000000 
#    y 0.000000 1.581400 0.000000 
#    z 0.000000 0.000000 1.591130 
# 
# From -- ./inp_files/3669.got.cif
#   From: 2010.05.17/outbox.cif.g08.bks.cpg/sg47_2_cif.got.tgz:3669.got - 2010.06.03 20:15:42.
