data_PCOD9386306
_publ_section_title
;
Structure prediction by ZEFSAII (Michael W. Deem and Ramdas Pophale) SiO2 
 PCOD9386306
Probable space group: P M M M
;
_chemical_formula_sum "Si O2"
_cell_formula_units_Z 48
_cell_length_a 18.752745
_cell_length_b 16.858736
_cell_length_c 8.843364
_cell_angle_alpha 90.000000
_cell_angle_beta 90.000000
_cell_angle_gamma 90.000000
_cell_volume 2795.808103
_symmetry_space_group_name_H-M "P M M M"
_symmetry_group_IT_number 47
_symmetry_cell_setting 'orthorhombic'
loop_
_space_group_symop_operation_xyz
x,y,z
-x,-y,z
x,-y,-z
-x,y,-z
-x,-y,-z
x,y,-z
-x,y,z
x,-y,z
loop_
_atom_site_type_symbol
_atom_site_label
_atom_site_fract_x
_atom_site_fract_y
_atom_site_fract_z
Si Si1 0.081428 0.183642 0.819074
Si Si2 0.788365 0.090568 0.317716
Si Si3 0.416462 0.347053 0.820868
Si Si4 0.657322 0.500000 0.679807
Si Si5 0.301487 0.759100 0.679806
Si Si6 0.815636 0.500000 0.819627
Si Si7 0.154356 0.334680 0.320140
O O1 0.138218 0.121336 0.754156
O O2 0.102435 0.268806 0.749527
O O3 0.000000 0.163337 0.780576
O O4 0.088223 0.187379 0.000000
O O5 0.795533 0.095467 0.500000
O O6 0.727496 0.154171 0.275731
O O7 0.772955 0.000000 0.275993
O O8 0.500000 0.336110 0.788958
O O9 0.385924 0.422648 0.731615
O O10 0.368823 0.272792 0.770049
O O11 0.407938 0.361234 0.000000
O O12 0.667917 0.500000 0.500000
O O13 0.734320 0.500000 0.759093
O O14 0.316431 0.758452 0.500000
O O15 0.234514 0.699696 0.705423
O O16 0.851199 0.420124 0.756070
O O17 0.815925 0.500000 0.000000
O O18 0.144043 0.340203 0.500000
#
# Coordination Sequence:
#
# PCOD9386306 Si02
#       7
#     8   8   8   4   8   4   8
#     4  10  21  36  54  79 112 145 176 215 264 318
#     4   9  19  36  58  83 109 137 173 219 268 321
#     4  11  23  36  51  75 108 144 181 222 271 322
#     4  12  23  35  52  76 107 143 182 223 267 314
#     4   9  18  33  54  77 103 135 174 219 265 319
#     4  12  22  33  54  79 106 140 178 224 270 313
#     4  10  20  35  55  78 104 138 182 226 264 312
#
# _framework density 17.168559999999999
#
# number of rings (size 3 to 8) (size 9 to 14) (size 15 to 20)
#    0.000    1.833    1.667    4.250    0.000    7.000 
#    0.000    2.083    0.000    3.000    0.000    3.500 
#    0.000    0.000    0.000    0.000    0.000    0.000 
#
# Total GULP energy -268060.081378 kJ/mol
# GULP energy per Si atom -5584.585029 kJ/mol
# Density = 1.712948 g / cm^3
# Si number density = 17.168560 Si / 1000 Ang^3
#
#
#
# Elastic Constant Matrix: (Units=GPa)
#
#
# Indices 1 2 3 4 5 6 
#
# 1 54.0565 29.4653 18.4542 0.0000 0.0000 0.0000
# 2 29.4653 134.8753 35.9026 0.0000 0.0000 0.0000
# 3 18.4542 35.9026 44.1827 0.0000 0.0000 0.0000
# 4 0.0000 0.0000 0.0000 6.8474 0.0000 0.0000
# 5 0.0000 0.0000 0.0000 0.0000 -64.4583 0.0000
# 6 0.0000 0.0000 0.0000 0.0000 0.0000 12.0047
#
#
#
# Elastic Compliance Matrix: (Units=1/GPa)
#
#
# Indices 1 2 3 4 5 6 
#
# 1 0.022539 -0.003085 -0.006907 0.000000 0.000000 0.000000
# 2 -0.003085 0.009883 -0.006742 0.000000 0.000000 0.000000
# 3 -0.006907 -0.006742 0.030997 0.000000 0.000000 0.000000
# 4 0.000000 0.000000 0.000000 0.146041 0.000000 0.000000
# 5 0.000000 0.000000 0.000000 0.000000 -0.015514 0.000000
# 6 0.000000 0.000000 0.000000 0.000000 0.000000 0.083301
#
#
# Mechanical properties :
#
#
# Convention : Reuss Voigt Hill
#
# Bulk Modulus (GPa) = 33.38912 44.52873 38.95893
# Shear Modulus (GPa) = 15.59095 0.83157 8.21126
#
# Velocity S-wave (km/s) = 3.01676 0.69671 2.18932
# Velocity P-wave (km/s) = 5.62356 5.16137 5.39742
#
# Compressibility (1/GPa) = 0.02994987
#
# Stress axis : x y z
#
# Youngs Moduli (GPa) = 44.36789 101.18382 32.26137
#
# Poissons Ratio (x) = 0.31219 0.22282
# Poissons Ratio (y) = 0.13689 0.21751
# Poissons Ratio (z) = 0.30644 0.68220
#
# Static dielectric constant tensor:
#      x y z
#    x 1.562680 0.000000 0.000000 
#    y 0.000000 1.580140 0.000000 
#    z 0.000000 0.000000 1.572360 
# 
# From -- ./inp_files/9225.got.cif
#   From: 2010.05.17/outbox.cif.g08.bks.cpg/sg47_5_cif.got.tgz:9225.got - 2010.06.03 20:15:42.
