data_PCOD9386517
_publ_section_title
;
Structure prediction by ZEFSAII (Michael W. Deem and Ramdas Pophale) SiO2 
 PCOD9386517
Probable space group: P M M M
;
_chemical_formula_sum "Si O2"
_cell_formula_units_Z 52
_cell_length_a 8.852302
_cell_length_b 14.466041
_cell_length_c 23.501223
_cell_angle_alpha 90.000000
_cell_angle_beta 90.000000
_cell_angle_gamma 90.000000
_cell_volume 3009.514061
_symmetry_space_group_name_H-M "P M M M"
_symmetry_group_IT_number 47
_symmetry_cell_setting 'orthorhombic'
loop_
_space_group_symop_operation_xyz
x,y,z
-x,-y,z
x,-y,-z
-x,y,-z
-x,-y,-z
x,y,-z
-x,y,z
x,-y,z
loop_
_atom_site_type_symbol
_atom_site_label
_atom_site_fract_x
_atom_site_fract_y
_atom_site_fract_z
Si Si1 0.319188 0.390795 0.500000
Si Si2 0.679954 0.105866 0.645966
Si Si3 0.681733 0.392189 0.065442
Si Si4 0.179961 0.104271 0.770636
Si Si5 0.819997 0.710044 0.608890
Si Si6 0.180455 0.293380 0.172037
Si Si7 0.679582 0.609848 0.281692
O O1 0.285656 0.500000 0.500000
O O2 0.500000 0.379491 0.500000
O O3 0.250135 0.343669 0.555729
O O4 0.500000 0.118193 0.642060
O O5 0.731836 0.117489 0.711561
O O6 0.763287 0.184299 0.610324
O O7 0.716988 0.000000 0.629764
O O8 0.500000 0.384910 0.070236
O O9 0.720883 0.500000 0.076257
O O10 0.758940 0.328020 0.111824
O O11 0.722752 0.370929 0.000000
O O12 0.216911 0.186459 0.813747
O O13 0.000000 0.110495 0.758062
O O14 0.210566 0.000000 0.791467
O O15 0.760272 0.662411 0.666682
O O16 0.000000 0.706393 0.607255
O O17 0.255981 0.353177 0.222203
O O18 0.000000 0.304501 0.174670
O O19 0.500000 0.627366 0.284506
O O20 0.704140 0.500000 0.286557
#
# Coordination Sequence:
#
# PCOD9386517 Si02
#       7
#     4   8   8   8   8   8   8
#     4  11  25  45  66  85 110 149 193 234 278 333
#     4  10  20  35  58  86 114 147 187 229 275 331
#     4   9  19  36  55  74 102 145 190 228 273 332
#     4   9  18  33  52  77 111 147 181 221 275 334
#     4  12  24  39  60  86 115 148 185 231 282 332
#     4  11  21  32  52  83 112 141 179 228 282 331
#     4  11  23  37  54  78 111 149 185 226 277 331
#
# _framework density 17.278538000000001
#
# number of rings (size 3 to 8) (size 9 to 14) (size 15 to 20)
#    0.000    1.615    1.538    4.385    0.000    7.692 
#    0.000    1.154    0.000    2.769    0.000    3.231 
#    0.000    0.000    0.000    0.000    0.000    0.000 
#
# Total GULP energy -290507.222827 kJ/mol
# GULP energy per Si atom -5586.677362 kJ/mol
# Density = 1.723921 g / cm^3
# Si number density = 17.278538 Si / 1000 Ang^3
#
#
#
# Elastic Constant Matrix: (Units=GPa)
#
#
# Indices 1 2 3 4 5 6 
#
# 1 82.6061 80.8160 53.1995 0.0000 0.0000 0.0000
# 2 80.8160 144.0721 76.0870 0.0000 0.0000 0.0000
# 3 53.1995 76.0870 98.7520 0.0000 0.0000 0.0000
# 4 0.0000 0.0000 0.0000 30.6577 0.0000 0.0000
# 5 0.0000 0.0000 0.0000 0.0000 37.7348 0.0000
# 6 0.0000 0.0000 0.0000 0.0000 0.0000 27.1356
#
#
#
# Elastic Compliance Matrix: (Units=1/GPa)
#
#
# Indices 1 2 3 4 5 6 
#
# 1 0.028262 -0.013172 -0.005076 0.000000 0.000000 0.000000
# 2 -0.013172 0.017843 -0.006651 0.000000 0.000000 0.000000
# 3 -0.005076 -0.006651 0.017985 0.000000 0.000000 0.000000
# 4 0.000000 0.000000 0.000000 0.032618 0.000000 0.000000
# 5 0.000000 0.000000 0.000000 0.000000 0.026501 0.000000
# 6 0.000000 0.000000 0.000000 0.000000 0.000000 0.036852
#
#
# Mechanical properties :
#
#
# Convention : Reuss Voigt Hill
#
# Bulk Modulus (GPa) = 69.97591 82.84833 76.41212
# Shear Modulus (GPa) = 23.29667 26.79413 25.04540
#
# Velocity S-wave (km/s) = 3.67591 3.94219 3.81137
# Velocity P-wave (km/s) = 7.65526 8.29300 7.98051
#
# Compressibility (1/GPa) = 0.01429063
#
# Stress axis : x y z
#
# Youngs Moduli (GPa) = 35.38382 56.04583 55.60046
#
# Poissons Ratio (x) = 0.73826 0.28222
# Poissons Ratio (y) = 0.46609 0.36981
# Poissons Ratio (z) = 0.17960 0.37277
#
# Static dielectric constant tensor:
#      x y z
#    x 1.576580 0.000000 0.000000 
#    y 0.000000 1.597570 0.000000 
#    z 0.000000 0.000000 1.549480 
# 
# From -- ./inp_files/10942.got.cif
#   From: 2010.05.17/outbox.cif.g08.bks.cpg/sg47_6_cif.got.tgz:10942.got - 2010.06.03 20:15:42.
