data_PCOD9386319
_publ_section_title
;
Structure prediction by ZEFSAII (Michael W. Deem and Ramdas Pophale) SiO2 
 PCOD9386319
Probable space group: P M M M
;
_chemical_formula_sum "Si O2"
_cell_formula_units_Z 40
_cell_length_a 7.321663
_cell_length_b 16.207944
_cell_length_c 16.299263
_cell_angle_alpha 90.000000
_cell_angle_beta 90.000000
_cell_angle_gamma 90.000000
_cell_volume 1934.218934
_symmetry_space_group_name_H-M "P M M M"
_symmetry_group_IT_number 47
_symmetry_cell_setting 'orthorhombic'
loop_
_space_group_symop_operation_xyz
x,y,z
-x,-y,z
x,-y,-z
-x,y,-z
-x,-y,-z
x,y,-z
-x,y,z
x,-y,z
loop_
_atom_site_type_symbol
_atom_site_label
_atom_site_fract_x
_atom_site_fract_y
_atom_site_fract_z
Si Si1 0.222962 0.000000 0.595019
Si Si2 0.781153 0.676543 0.328365
Si Si3 0.221206 0.862617 0.723915
Si Si4 0.780521 0.867903 0.908694
Si Si5 0.500000 0.410059 0.223153
Si Si6 0.220716 0.596789 0.500000
Si Si7 0.500000 0.722439 0.086059
O O1 0.280053 0.921456 0.649646
O O2 0.282422 0.000000 0.500000
O O3 0.000000 0.000000 0.593091
O O4 0.724143 0.768056 0.296633
O O5 0.679368 0.607492 0.276202
O O6 0.729749 0.651126 0.420785
O O7 0.000000 0.672810 0.320654
O O8 0.272214 0.896161 0.815633
O O9 0.000000 0.863095 0.723708
O O10 0.676521 0.781120 0.910484
O O11 0.000000 0.862986 0.908210
O O12 0.733607 0.905566 0.000000
O O13 0.500000 0.500000 0.187796
O O14 0.500000 0.340809 0.156550
O O15 0.284369 0.500000 0.500000
O O16 0.000000 0.591358 0.500000
O O17 0.500000 0.677549 0.000000
#
# Coordination Sequence:
#
# PCOD9386319 Si02
#       7
#     4   8   8   8   4   4   4
#     4   9  18  30  51  86 123 152 186 234 277 325
#     4  10  21  37  57  80 110 149 191 231 278 340
#     4   9  17  31  52  80 113 148 187 227 274 332
#     4   9  17  32  56  82 107 141 186 233 281 335
#     4  12  24  36  56  84 111 145 186 234 290 336
#     4   9  18  33  53  76 103 139 184 234 280 322
#     4  10  20  35  55  79 109 144 183 229 283 340
#
# _framework density 20.680181000000001
#
# number of rings (size 3 to 8) (size 9 to 14) (size 15 to 20)
#    0.000    2.400    2.000    0.600    1.400    1.800 
#    0.000    1.500    0.000    5.400    0.000    9.100 
#    0.000    0.000    0.000    0.000    0.000    0.000 
#
# Total GULP energy -222720.882340 kJ/mol
# GULP energy per Si atom -5568.022058 kJ/mol
# Density = 2.063311 g / cm^3
# Si number density = 20.680181 Si / 1000 Ang^3
#
#
#
# Elastic Constant Matrix: (Units=GPa)
#
#
# Indices 1 2 3 4 5 6 
#
# 1 64.7637 9.6735 13.4622 0.0000 0.0000 0.0000
# 2 9.6735 92.1705 43.6805 0.0000 0.0000 0.0000
# 3 13.4622 43.6805 195.6892 0.0000 0.0000 0.0000
# 4 0.0000 0.0000 0.0000 -42.9004 0.0000 0.0000
# 5 0.0000 0.0000 0.0000 0.0000 2.7598 0.0000
# 6 0.0000 0.0000 0.0000 0.0000 0.0000 12.5423
#
#
#
# Elastic Compliance Matrix: (Units=1/GPa)
#
#
# Indices 1 2 3 4 5 6 
#
# 1 0.015798 -0.001278 -0.000802 0.000000 0.000000 0.000000
# 2 -0.001278 0.012236 -0.002643 0.000000 0.000000 0.000000
# 3 -0.000802 -0.002643 0.005755 0.000000 0.000000 0.000000
# 4 0.000000 0.000000 0.000000 -0.023310 0.000000 0.000000
# 5 0.000000 0.000000 0.000000 0.000000 0.362349 0.000000
# 6 0.000000 0.000000 0.000000 0.000000 0.000000 0.079730
#
#
# Mechanical properties :
#
#
# Convention : Reuss Voigt Hill
#
# Bulk Modulus (GPa) = 41.07837 54.02842 47.55339
# Shear Modulus (GPa) = 10.63557 13.53413 12.08485
#
# Velocity S-wave (km/s) = 2.27025 2.56100 2.41999
# Velocity P-wave (km/s) = 5.17483 5.90994 5.55456
#
# Compressibility (1/GPa) = 0.02434371
#
# Stress axis : x y z
#
# Youngs Moduli (GPa) = 63.29801 81.72378 173.75218
#
# Poissons Ratio (x) = 0.10446 0.13926
# Poissons Ratio (y) = 0.08091 0.45929
# Poissons Ratio (z) = 0.05073 0.21603
#
# Static dielectric constant tensor:
#      x y z
#    x 1.747310 0.000000 0.000000 
#    y 0.000000 1.715870 0.000000 
#    z 0.000000 0.000000 1.793720 
# 
# From -- ./inp_files/20752.got.cif
#   From: 2010.05.17/outbox.cif.g08.bks.cpg/sg47_11_cif.got.tgz:20752.got - 2010.06.03 20:15:42.
