data_PCOD9386293
_publ_section_title
;
Structure prediction by ZEFSAII (Michael W. Deem and Ramdas Pophale) SiO2 
 PCOD9386293
Probable space group: P M M M
;
_chemical_formula_sum "Si O2"
_cell_formula_units_Z 48
_cell_length_a 15.372751
_cell_length_b 20.276771
_cell_length_c 8.755894
_cell_angle_alpha 90.000000
_cell_angle_beta 90.000000
_cell_angle_gamma 90.000000
_cell_volume 2729.297544
_symmetry_space_group_name_H-M "P M M M"
_symmetry_group_IT_number 47
_symmetry_cell_setting 'orthorhombic'
loop_
_space_group_symop_operation_xyz
x,y,z
-x,-y,z
x,-y,-z
-x,y,-z
-x,-y,-z
x,y,-z
-x,y,z
x,-y,z
loop_
_atom_site_type_symbol
_atom_site_label
_atom_site_fract_x
_atom_site_fract_y
_atom_site_fract_z
Si Si1 0.897580 0.000000 0.827895
Si Si2 0.903050 0.726169 0.681879
Si Si3 0.283365 0.690869 0.817052
Si Si4 0.830938 0.131359 0.320476
Si Si5 0.399855 0.576508 0.315981
Si Si6 0.500000 0.922759 0.682805
Si Si7 0.650691 0.167856 0.819675
O O1 0.872704 0.064185 0.733259
O O2 0.000000 0.000000 0.844409
O O3 0.858716 0.000000 0.000000
O O4 0.899265 0.713293 0.500000
O O5 0.815785 0.696152 0.756038
O O6 0.891817 0.804984 0.703136
O O7 0.000000 0.706064 0.736632
O O8 0.332504 0.626447 0.758418
O O9 0.339590 0.755636 0.767053
O O10 0.280181 0.692292 0.000000
O O11 0.807578 0.129912 0.500000
O O12 0.745834 0.140811 0.218376
O O13 0.394397 0.581581 0.500000
O O14 0.500000 0.592014 0.272320
O O15 0.383345 0.500000 0.275404
O O16 0.500000 0.924540 0.500000
O O17 0.417951 0.879927 0.739400
O O18 0.500000 0.000000 0.735898
O O19 0.632396 0.167802 0.000000
#
# Coordination Sequence:
#
# PCOD9386293 Si02
#       7
#     4   8   8   8   8   4   8
#     4  11  23  35  49  72 101 134 169 211 273 337
#     4   9  18  34  56  80 106 140 183 227 272 322
#     4  10  21  35  55  85 117 148 183 224 273 328
#     4  10  20  35  55  76 101 132 174 224 272 323
#     4   9  19  36  58  85 116 151 188 224 268 322
#     4  11  25  41  57  77 102 137 188 237 280 327
#     4  10  22  39  56  78 108 142 180 222 274 330
#
# _framework density 17.586943000000002
#
# number of rings (size 3 to 8) (size 9 to 14) (size 15 to 20)
#    0.000    2.167    0.000    3.000    2.333    5.667 
#    0.000    0.833    0.000    0.500    0.000    3.500 
#    0.000    0.000    0.000    0.000    0.000    0.000 
#
# Total GULP energy -267655.614108 kJ/mol
# GULP energy per Si atom -5576.158627 kJ/mol
# Density = 1.754691 g / cm^3
# Si number density = 17.586943 Si / 1000 Ang^3
#
#
#
# Elastic Constant Matrix: (Units=GPa)
#
#
# Indices 1 2 3 4 5 6 
#
# 1 109.1520 77.0860 28.6252 0.0000 0.0000 0.0000
# 2 77.0860 114.1646 33.8741 0.0000 0.0000 0.0000
# 3 28.6252 33.8741 33.6190 0.0000 0.0000 0.0000
# 4 0.0000 0.0000 0.0000 25.1122 0.0000 0.0000
# 5 0.0000 0.0000 0.0000 0.0000 1.6031 0.0000
# 6 0.0000 0.0000 0.0000 0.0000 0.0000 8.7619
#
#
#
# Elastic Compliance Matrix: (Units=1/GPa)
#
#
# Indices 1 2 3 4 5 6 
#
# 1 0.017954 -0.010823 -0.004382 0.000000 0.000000 0.000000
# 2 -0.010823 0.019019 -0.009948 0.000000 0.000000 0.000000
# 3 -0.004382 -0.009948 0.043500 0.000000 0.000000 0.000000
# 4 0.000000 0.000000 0.000000 0.039821 0.000000 0.000000
# 5 0.000000 0.000000 0.000000 0.000000 0.623785 0.000000
# 6 0.000000 0.000000 0.000000 0.000000 0.000000 0.114131
#
#
# Mechanical properties :
#
#
# Convention : Reuss Voigt Hill
#
# Bulk Modulus (GPa) = 33.14911 59.56734 46.35822
# Shear Modulus (GPa) = 5.44324 14.91879 10.18102
#
# Velocity S-wave (km/s) = 1.76118 2.91570 2.40864
# Velocity P-wave (km/s) = 4.79847 6.72895 5.84398
#
# Compressibility (1/GPa) = 0.03016672
#
# Stress axis : x y z
#
# Youngs Moduli (GPa) = 55.69793 52.58038 22.98857
#
# Poissons Ratio (x) = 0.56905 0.10075
# Poissons Ratio (y) = 0.60279 0.22869
# Poissons Ratio (z) = 0.24409 0.52306
#
# Static dielectric constant tensor:
#      x y z
#    x 1.599630 0.000000 0.000000 
#    y 0.000000 1.597780 0.000000 
#    z 0.000000 0.000000 1.605250 
# 
# From -- ./inp_files/6427.got.cif
#   From: 2010.05.17/outbox.cif.g08.bks.cpg/sg47_4_cif.got.tgz:6427.got - 2010.06.03 20:15:42.
