data_PCOD9386797
_publ_section_title
;
Structure prediction by ZEFSAII (Michael W. Deem and Ramdas Pophale) SiO2 
 PCOD9386797
Probable space group: P M M M
;
_chemical_formula_sum "Si O2"
_cell_formula_units_Z 37
_cell_length_a 17.163694
_cell_length_b 15.341630
_cell_length_c 9.494334
_cell_angle_alpha 90.000000
_cell_angle_beta 90.000000
_cell_angle_gamma 90.000000
_cell_volume 2500.038941
_symmetry_space_group_name_H-M "P M M M"
_symmetry_group_IT_number 47
_symmetry_cell_setting 'orthorhombic'
loop_
_space_group_symop_operation_xyz
x,y,z
-x,-y,z
x,-y,-z
-x,y,-z
-x,-y,-z
x,y,-z
-x,y,z
x,-y,z
loop_
_atom_site_type_symbol
_atom_site_label
_atom_site_fract_x
_atom_site_fract_y
_atom_site_fract_z
Si Si1 0.094432 0.500000 0.662205
Si Si2 0.347214 0.896822 0.667032
Si Si3 0.093438 0.326216 0.166968
Si Si4 0.086503 0.000000 0.710060
Si Si5 0.820886 0.177387 0.338010
Si Si6 0.000000 0.000000 0.000000
Si Si7 0.500000 0.105981 0.837948
O O1 0.121983 0.500000 0.500000
O O2 0.116251 0.586507 0.748496
O O3 0.000000 0.500000 0.657781
O O4 0.363764 0.889658 0.500000
O O5 0.268778 0.843696 0.697463
O O6 0.421735 0.867672 0.756294
O O7 0.332884 0.000000 0.695389
O O8 0.138895 0.245377 0.233891
O O9 0.000000 0.312695 0.185088
O O10 0.107557 0.335135 0.000000
O O11 0.133416 0.914017 0.669963
O O12 0.067129 0.000000 0.875968
O O13 0.000000 0.000000 0.646267
O O14 0.825276 0.209187 0.500000
O O15 0.500000 0.000000 0.836104
O O16 0.500000 0.134335 0.000000
#
# Coordination Sequence:
#
# PCOD9386797 Si02
#       7
#     4   8   8   4   8   1   4
#     4   9  17  33  53  71  89 114 153 200 243 283
#     4   9  17  31  47  63  88 121 155 193 235 277
#     4  10  21  33  49  68  95 125 158 194 242 291
#     4  10  21  34  46  58  90 125 167 198 234 274
#     4  11  21  32  47  69  92 122 163 201 235 273
#     4   8  24  36  42  60  84 128 170 196 244 280
#     4   9  17  29  43  67  87 112 151 190 233 281
#
# _framework density 14.799770000000001
#
# number of rings (size 3 to 8) (size 9 to 14) (size 15 to 20)
#    0.324    1.946    1.081    2.270    1.514    6.486 
#    0.000    0.000    0.000    0.000    0.000    0.000 
#    0.000    0.865    0.000    9.081    0.000    4.324 
#
# Total GULP energy -205973.504302 kJ/mol
# GULP energy per Si atom -5566.851468 kJ/mol
# Density = 1.476608 g / cm^3
# Si number density = 14.799770 Si / 1000 Ang^3
#
#
#
# Elastic Constant Matrix: (Units=GPa)
#
#
# Indices 1 2 3 4 5 6 
#
# 1 98.1673 42.1285 63.1119 0.0000 0.0000 0.0000
# 2 42.1285 87.8577 53.9581 0.0000 0.0000 0.0000
# 3 63.1119 53.9581 120.9484 0.0000 0.0000 0.0000
# 4 0.0000 0.0000 0.0000 9.4398 0.0000 0.0000
# 5 0.0000 0.0000 0.0000 0.0000 -3.5283 0.0000
# 6 0.0000 0.0000 0.0000 0.0000 0.0000 -2.4740
#
#
#
# Elastic Compliance Matrix: (Units=1/GPa)
#
#
# Indices 1 2 3 4 5 6 
#
# 1 0.016084 -0.003523 -0.006821 0.000000 0.000000 0.000000
# 2 -0.003523 0.016449 -0.005500 0.000000 0.000000 0.000000
# 3 -0.006821 -0.005500 0.014281 0.000000 0.000000 0.000000
# 4 0.000000 0.000000 0.000000 0.105935 0.000000 0.000000
# 5 0.000000 0.000000 0.000000 0.000000 -0.283422 0.000000
# 6 0.000000 0.000000 0.000000 0.000000 0.000000 -0.404205
#
#
# Mechanical properties :
#
#
# Convention : Reuss Voigt Hill
#
# Bulk Modulus (GPa) = 66.11234 69.48561 67.79897
# Shear Modulus (GPa) = -10.03719 10.53915 0.25098
#
# Velocity S-wave (km/s) = -2.60705 2.67144 0.41225
# Velocity P-wave (km/s) = 5.97544 7.52116 6.79241
#
# Compressibility (1/GPa) = 0.01512577
#
# Stress axis : x y z
#
# Youngs Moduli (GPa) = 62.17410 60.79281 70.02381
#
# Poissons Ratio (x) = 0.21419 0.47762
# Poissons Ratio (y) = 0.21906 0.38513
# Poissons Ratio (z) = 0.42408 0.33436
#
# Static dielectric constant tensor:
#      x y z
#    x 1.473480 0.000000 0.000000 
#    y 0.000000 1.469940 0.000000 
#    z 0.000000 0.000000 1.501420 
# 
# From -- ./inp_files/8926.got.cif
#   From: 2010.05.17/outbox.cif.g08.bks.cpg/sg47_5_cif.got.tgz:8926.got - 2010.06.03 20:15:42.
