data_PCOD9386622
_publ_section_title
;
Structure prediction by ZEFSAII (Michael W. Deem and Ramdas Pophale) SiO2 
 PCOD9386622
Probable space group: P M M M
;
_chemical_formula_sum "Si O2"
_cell_formula_units_Z 25
_cell_length_a 12.739380
_cell_length_b 11.863400
_cell_length_c 7.453782
_cell_angle_alpha 90.000000
_cell_angle_beta 90.000000
_cell_angle_gamma 90.000000
_cell_volume 1126.507670
_symmetry_space_group_name_H-M "P M M M"
_symmetry_group_IT_number 47
_symmetry_cell_setting 'orthorhombic'
loop_
_space_group_symop_operation_xyz
x,y,z
-x,-y,z
x,-y,-z
-x,y,-z
-x,-y,-z
x,y,-z
-x,y,z
x,-y,z
loop_
_atom_site_type_symbol
_atom_site_label
_atom_site_fract_x
_atom_site_fract_y
_atom_site_fract_z
Si Si1 0.119716 0.246881 0.719552
Si Si2 0.322557 0.373987 0.717397
Si Si3 0.500000 0.000000 0.500000
Si Si4 0.500000 0.194691 0.197607
Si Si5 0.872257 0.000000 0.704284
O O1 0.117822 0.241227 0.500000
O O2 0.204654 0.339042 0.770550
O O3 0.000000 0.267940 0.776580
O O4 0.154839 0.121642 0.782768
O O5 0.327013 0.373778 0.500000
O O6 0.349820 0.500000 0.777785
O O7 0.400826 0.277894 0.780843
O O8 0.500000 0.900999 0.345354
O O9 0.500000 0.145047 0.000000
O O10 0.830282 0.000000 0.500000
O O11 0.000000 0.000000 0.696337
#
# Coordination Sequence:
#
# PCOD9386622 Si02
#       5
#     8   8   1   4   4
#     4   8  14  25  45  80 124 172 223 274 327 385
#     4  10  20  36  59  91 133 179 225 275 326 381
#     4  12  26  52  74 102 134 160 202 278 332 404
#     4  12  26  46  72  99 129 170 214 266 335 397
#     4   7  10  19  36  63 104 149 201 256 308 365
#
# _framework density 22.19248
#
# number of rings (size 3 to 8) (size 9 to 14) (size 15 to 20)
#    0.000    2.720    1.600    2.640    0.000    4.480 
#    2.880    3.200    0.000    0.960    0.000    2.240 
#    0.000    6.400    0.000    0.000    0.000    0.000 
#
# Total GULP energy -139326.306714 kJ/mol
# GULP energy per Si atom -5573.052269 kJ/mol
# Density = 2.214197 g / cm^3
# Si number density = 22.192480 Si / 1000 Ang^3
#
#
#
# Elastic Constant Matrix: (Units=GPa)
#
#
# Indices 1 2 3 4 5 6 
#
# 1 89.4776 50.9230 20.1020 0.0000 0.0000 0.0000
# 2 50.9230 158.0188 52.8749 0.0000 0.0000 0.0000
# 3 20.1020 52.8749 120.0970 0.0000 0.0000 0.0000
# 4 0.0000 0.0000 0.0000 -62.4573 0.0000 0.0000
# 5 0.0000 0.0000 0.0000 0.0000 47.1825 0.0000
# 6 0.0000 0.0000 0.0000 0.0000 0.0000 -192.6385
#
#
#
# Elastic Compliance Matrix: (Units=1/GPa)
#
#
# Indices 1 2 3 4 5 6 
#
# 1 0.013703 -0.004279 -0.000410 0.000000 0.000000 0.000000
# 2 -0.004279 0.008758 -0.003140 0.000000 0.000000 0.000000
# 3 -0.000410 -0.003140 0.009777 0.000000 0.000000 0.000000
# 4 0.000000 0.000000 0.000000 -0.016011 0.000000 0.000000
# 5 0.000000 0.000000 0.000000 0.000000 0.021194 0.000000
# 6 0.000000 0.000000 0.000000 0.000000 0.000000 -0.005191
#
#
# Mechanical properties :
#
#
# Convention : Reuss Voigt Hill
#
# Bulk Modulus (GPa) = 60.30651 68.37702 64.34176
# Shear Modulus (GPa) = 93.60743 -25.33643 34.13550
#
# Velocity S-wave (km/s) = 6.50164 -3.38252 3.92619
# Velocity P-wave (km/s) = 9.14304 3.95253 7.04335
#
# Compressibility (1/GPa) = 0.01658196
#
# Stress axis : x y z
#
# Youngs Moduli (GPa) = 72.97559 114.18399 102.27608
#
# Poissons Ratio (x) = 0.48858 0.04192
# Poissons Ratio (y) = 0.31225 0.32110
# Poissons Ratio (z) = 0.02991 0.35849
#
# Static dielectric constant tensor:
#      x y z
#    x 1.809510 0.000000 0.000000 
#    y 0.000000 1.783590 0.000000 
#    z 0.000000 0.000000 1.868560 
# 
# From -- ./inp_files/3055.got.cif
#   From: 2010.05.17/outbox.cif.g08.bks.cpg/sg47_2_cif.got.tgz:3055.got - 2010.06.03 20:15:42.
