data_PCOD9386863
_publ_section_title
;
Structure prediction by ZEFSAII (Michael W. Deem and Ramdas Pophale) SiO2 
 PCOD9386863
Probable space group: P M M M
;
_chemical_formula_sum "Si O2"
_cell_formula_units_Z 32
_cell_length_a 7.760073
_cell_length_b 10.866187
_cell_length_c 17.920635
_cell_angle_alpha 90.000000
_cell_angle_beta 90.000000
_cell_angle_gamma 90.000000
_cell_volume 1511.111031
_symmetry_space_group_name_H-M "P M M M"
_symmetry_group_IT_number 47
_symmetry_cell_setting 'orthorhombic'
loop_
_space_group_symop_operation_xyz
x,y,z
-x,-y,z
x,-y,-z
-x,y,-z
-x,-y,-z
x,y,-z
-x,y,z
x,-y,z
loop_
_atom_site_type_symbol
_atom_site_label
_atom_site_fract_x
_atom_site_fract_y
_atom_site_fract_z
Si Si1 0.700575 0.227197 0.915344
Si Si2 0.212133 0.359070 0.335345
Si Si3 0.201313 0.867241 0.238421
Si Si4 0.806651 0.500000 0.089969
Si Si5 0.804311 0.351244 0.500000
O O1 0.500000 0.194914 0.916952
O O2 0.787430 0.150710 0.850395
O O3 0.718531 0.371085 0.892777
O O4 0.769614 0.213038 0.000000
O O5 0.265414 0.500000 0.318287
O O6 0.272303 0.254523 0.278393
O O7 0.271506 0.322459 0.419060
O O8 0.000000 0.362053 0.336261
O O9 0.000000 0.870597 0.258919
O O10 0.278468 0.000000 0.258747
O O11 0.000000 0.500000 0.122171
O O12 0.817755 0.500000 0.000000
O O13 0.814604 0.500000 0.500000
O O14 0.000000 0.301730 0.500000
#
# Coordination Sequence:
#
# PCOD9386863 Si02
#       5
#     8   8   8   4   4
#     4  10  21  36  53  73  99 133 175 219 260 307
#     4   8  14  26  46  71  99 132 168 207 255 309
#     4  10  21  34  48  72 105 136 172 220 266 308
#     4   9  17  31  53  79 103 126 157 204 261 311
#     4   7  10  20  41  69  98 127 162 204 250 303
#
# _framework density 21.176472
#
# number of rings (size 3 to 8) (size 9 to 14) (size 15 to 20)
#    0.000    3.000    0.000    2.625    1.750    4.000 
#    0.000    3.125    0.000    3.750    0.000    0.875 
#    0.000    5.000    0.000    0.000    0.000    0.000 
#
# Total GULP energy -178312.680050 kJ/mol
# GULP energy per Si atom -5572.271252 kJ/mol
# Density = 2.112827 g / cm^3
# Si number density = 21.176472 Si / 1000 Ang^3
#
#
#
# Elastic Constant Matrix: (Units=GPa)
#
#
# Indices 1 2 3 4 5 6 
#
# 1 30.4571 1.5507 -1.6928 0.0000 0.0000 0.0000
# 2 1.5507 137.7984 77.8968 0.0000 0.0000 0.0000
# 3 -1.6928 77.8968 118.8953 0.0000 0.0000 0.0000
# 4 0.0000 0.0000 0.0000 2.5512 0.0000 0.0000
# 5 0.0000 0.0000 0.0000 0.0000 -20.8765 0.0000
# 6 0.0000 0.0000 0.0000 0.0000 0.0000 -1.6088
#
#
#
# Elastic Compliance Matrix: (Units=1/GPa)
#
#
# Indices 1 2 3 4 5 6 
#
# 1 0.032947 -0.001010 0.001131 0.000000 0.000000 0.000000
# 2 -0.001010 0.011557 -0.007586 0.000000 0.000000 0.000000
# 3 0.001131 -0.007586 0.013397 0.000000 0.000000 0.000000
# 4 0.000000 0.000000 0.000000 0.391972 0.000000 0.000000
# 5 0.000000 0.000000 0.000000 0.000000 -0.047901 0.000000
# 6 0.000000 0.000000 0.000000 0.000000 0.000000 -0.621582
#
#
# Mechanical properties :
#
#
# Convention : Reuss Voigt Hill
#
# Bulk Modulus (GPa) = 23.27172 49.18449 36.22811
# Shear Modulus (GPa) = -26.26660 9.97293 -8.14684
#
# Velocity S-wave (km/s) = -3.52571 2.17248 -1.96354
# Velocity P-wave (km/s) = 2.35815 5.43777 3.46471
#
# Compressibility (1/GPa) = 0.04297060
#
# Stress axis : x y z
#
# Youngs Moduli (GPa) = 30.35148 86.53019 74.64375
#
# Poissons Ratio (x) = 0.08740 -0.08441
# Poissons Ratio (y) = 0.03066 0.56625
# Poissons Ratio (z) = -0.03432 0.65642
#
# Static dielectric constant tensor:
#      x y z
#    x 1.792470 0.000000 0.000000 
#    y 0.000000 1.768270 0.000000 
#    z 0.000000 0.000000 1.797010 
# 
# From -- ./inp_files/26079.got.cif
#   From: 2010.05.17/outbox.cif.g08.bks.cpg/sg47_14_cif.got.tgz:26079.got - 2010.06.03 20:15:42.
