data_PCOD9386318
_publ_section_title
;
Structure prediction by ZEFSAII (Michael W. Deem and Ramdas Pophale) SiO2 
 PCOD9386318
Probable space group: P M M M
;
_chemical_formula_sum "Si O2"
_cell_formula_units_Z 40
_cell_length_a 8.981631
_cell_length_b 14.185385
_cell_length_c 18.581917
_cell_angle_alpha 90.000000
_cell_angle_beta 90.000000
_cell_angle_gamma 90.000000
_cell_volume 2367.482905
_symmetry_space_group_name_H-M "P M M M"
_symmetry_group_IT_number 47
_symmetry_cell_setting 'orthorhombic'
loop_
_space_group_symop_operation_xyz
x,y,z
-x,-y,z
x,-y,-z
-x,y,-z
-x,-y,-z
x,y,-z
-x,y,z
x,-y,z
loop_
_atom_site_type_symbol
_atom_site_label
_atom_site_fract_x
_atom_site_fract_y
_atom_site_fract_z
Si Si1 0.824237 0.113513 0.918466
Si Si2 0.670158 0.385602 0.000000
Si Si3 0.671634 0.885531 0.500000
Si Si4 0.177294 0.388999 0.849546
Si Si5 0.677196 0.783077 0.215652
Si Si6 0.823384 0.887100 0.649691
O O1 0.731959 0.161249 0.855429
O O2 0.000000 0.136464 0.909688
O O3 0.811368 0.000000 0.913415
O O4 0.779638 0.140694 0.000000
O O5 0.757720 0.360681 0.927687
O O6 0.663412 0.500000 0.000000
O O7 0.500000 0.350241 0.000000
O O8 0.500000 0.854446 0.500000
O O9 0.755364 0.857212 0.572922
O O10 0.671894 0.000000 0.500000
O O11 0.208417 0.500000 0.838630
O O12 0.255743 0.321504 0.792593
O O13 0.000000 0.375856 0.849055
O O14 0.500000 0.780806 0.218414
O O15 0.743655 0.834797 0.285016
O O16 0.000000 0.869939 0.651426
O O17 0.800476 0.000000 0.657350
#
# Coordination Sequence:
#
# PCOD9386318 Si02
#       6
#     8   4   4   8   8   8
#     4   9  19  36  54  70  94 133 178 219 258 305
#     4   9  17  31  51  73  96 121 156 209 267 315
#     4   9  17  31  53  81 112 141 170 209 259 309
#     4  10  21  37  55  73  96 131 174 218 266 319
#     4  12  24  34  50  76 106 137 172 218 269 312
#     4  10  20  35  55  79 109 144 180 214 252 305
#
# _framework density 16.895581
#
# number of rings (size 3 to 8) (size 9 to 14) (size 15 to 20)
#    0.000    2.000    0.000    4.800    1.400    8.000 
#    0.000    1.000    0.000    0.000    0.000    0.700 
#    0.000    5.600    0.000    0.000    0.000    0.000 
#
# Total GULP energy -223447.099567 kJ/mol
# GULP energy per Si atom -5586.177489 kJ/mol
# Density = 1.685713 g / cm^3
# Si number density = 16.895581 Si / 1000 Ang^3
#
#
#
# Elastic Constant Matrix: (Units=GPa)
#
#
# Indices 1 2 3 4 5 6 
#
# 1 144.4943 60.6316 93.7954 0.0000 0.0000 0.0000
# 2 60.6316 67.6159 62.8474 0.0000 0.0000 0.0000
# 3 93.7954 62.8474 146.6178 0.0000 0.0000 0.0000
# 4 0.0000 0.0000 0.0000 15.8265 0.0000 0.0000
# 5 0.0000 0.0000 0.0000 0.0000 49.3522 0.0000
# 6 0.0000 0.0000 0.0000 0.0000 0.0000 22.7087
#
#
#
# Elastic Compliance Matrix: (Units=1/GPa)
#
#
# Indices 1 2 3 4 5 6 
#
# 1 0.013471 -0.006765 -0.005718 0.000000 0.000000 0.000000
# 2 -0.006765 0.027981 -0.007667 0.000000 0.000000 0.000000
# 3 -0.005718 -0.007667 0.013765 0.000000 0.000000 0.000000
# 4 0.000000 0.000000 0.000000 0.063185 0.000000 0.000000
# 5 0.000000 0.000000 0.000000 0.000000 0.020263 0.000000
# 6 0.000000 0.000000 0.000000 0.000000 0.000000 0.044036
#
#
# Mechanical properties :
#
#
# Convention : Reuss Voigt Hill
#
# Bulk Modulus (GPa) = 67.03174 88.14186 77.58680
# Shear Modulus (GPa) = 21.93252 27.00773 24.47013
#
# Velocity S-wave (km/s) = 3.60685 4.00247 3.80980
# Velocity P-wave (km/s) = 7.55686 8.58147 8.08541
#
# Compressibility (1/GPa) = 0.01491831
#
# Stress axis : x y z
#
# Youngs Moduli (GPa) = 74.23335 35.73822 72.64945
#
# Poissons Ratio (x) = 0.24176 0.41542
# Poissons Ratio (y) = 0.50217 0.55697
# Poissons Ratio (z) = 0.42447 0.27399
#
# Static dielectric constant tensor:
#      x y z
#    x 1.560650 0.000000 0.000000 
#    y 0.000000 1.591050 0.000000 
#    z 0.000000 0.000000 1.545800 
# 
# From -- ./inp_files/20693.got.cif
#   From: 2010.05.17/outbox.cif.g08.bks.cpg/sg47_11_cif.got.tgz:20693.got - 2010.06.03 20:15:42.
