data_PCOD9386566
_publ_section_title
;
Structure prediction by ZEFSAII (Michael W. Deem and Ramdas Pophale) SiO2 
 PCOD9386566
Probable space group: P M M M
;
_chemical_formula_sum "Si O2"
_cell_formula_units_Z 37
_cell_length_a 8.789289
_cell_length_b 20.662059
_cell_length_c 11.883183
_cell_angle_alpha 90.000000
_cell_angle_beta 90.000000
_cell_angle_gamma 90.000000
_cell_volume 2158.043166
_symmetry_space_group_name_H-M "P M M M"
_symmetry_group_IT_number 47
_symmetry_cell_setting 'orthorhombic'
loop_
_space_group_symop_operation_xyz
x,y,z
-x,-y,z
x,-y,-z
-x,y,-z
-x,-y,-z
x,y,-z
-x,y,z
x,-y,z
loop_
_atom_site_type_symbol
_atom_site_label
_atom_site_fract_x
_atom_site_fract_y
_atom_site_fract_z
Si Si1 0.182017 0.885281 0.630252
Si Si2 0.668184 0.000000 0.235857
Si Si3 0.500000 0.000000 0.000000
Si Si4 0.682623 0.423697 0.000000
Si Si5 0.682005 0.256956 0.630335
Si Si6 0.183010 0.625728 0.231181
Si Si7 0.815106 0.500000 0.372765
O O1 0.218529 0.903888 0.500000
O O2 0.245134 0.937280 0.717915
O O3 0.254311 0.814891 0.650737
O O4 0.000000 0.881104 0.638583
O O5 0.500000 0.000000 0.290490
O O6 0.630919 0.000000 0.102469
O O7 0.748900 0.388892 0.109429
O O8 0.727575 0.500000 0.000000
O O9 0.500000 0.420836 0.000000
O O10 0.719228 0.273742 0.500000
O O11 0.500000 0.256945 0.642368
O O12 0.755576 0.309147 0.712655
O O13 0.231082 0.564662 0.308085
O O14 0.000000 0.627398 0.225855
O O15 0.758944 0.500000 0.500000
O O16 0.000000 0.500000 0.375025
#
# Coordination Sequence:
#
# PCOD9386566 Si02
#       7
#     8   4   1   4   8   8   4
#     4  10  20  35  60  94 124 152 192 244 297 351
#     4  10  20  38  60  84 121 159 199 240 289 340
#     4   8  24  40  56  84 120 164 206 236 280 336
#     4  11  23  39  58  79 109 146 191 245 297 344
#     4  10  21  37  57  86 123 157 187 229 292 357
#     4  11  21  36  58  81 111 149 193 241 289 345
#     4   9  18  31  51  80 108 139 180 229 290 351
#
# _framework density 17.145161000000002
#
# number of rings (size 3 to 8) (size 9 to 14) (size 15 to 20)
#    0.324    1.514    1.081    3.568    0.000    5.189 
#    0.000    2.162    2.378    2.595    0.000    0.000 
#    0.000    0.000    0.000    0.000    0.000    0.000 
#
# Total GULP energy -206233.654453 kJ/mol
# GULP energy per Si atom -5573.882553 kJ/mol
# Density = 1.710614 g / cm^3
# Si number density = 17.145161 Si / 1000 Ang^3
#
#
#
# Elastic Constant Matrix: (Units=GPa)
#
#
# Indices 1 2 3 4 5 6 
#
# 1 75.8840 53.2622 60.5839 0.0000 0.0000 0.0000
# 2 53.2622 123.7869 101.2439 0.0000 0.0000 0.0000
# 3 60.5839 101.2439 172.1520 0.0000 0.0000 0.0000
# 4 0.0000 0.0000 0.0000 37.6443 0.0000 0.0000
# 5 0.0000 0.0000 0.0000 0.0000 25.2868 0.0000
# 6 0.0000 0.0000 0.0000 0.0000 0.0000 27.5794
#
#
#
# Elastic Compliance Matrix: (Units=1/GPa)
#
#
# Indices 1 2 3 4 5 6 
#
# 1 0.020111 -0.005520 -0.003831 0.000000 0.000000 0.000000
# 2 -0.005520 0.017080 -0.008103 0.000000 0.000000 0.000000
# 3 -0.003831 -0.008103 0.011922 0.000000 0.000000 0.000000
# 4 0.000000 0.000000 0.000000 0.026564 0.000000 0.000000
# 5 0.000000 0.000000 0.000000 0.000000 0.039546 0.000000
# 6 0.000000 0.000000 0.000000 0.000000 0.000000 0.036259
#
#
# Mechanical properties :
#
#
# Convention : Reuss Voigt Hill
#
# Bulk Modulus (GPa) = 70.38996 89.11144 79.75070
# Shear Modulus (GPa) = 26.16071 28.55096 27.35584
#
# Velocity S-wave (km/s) = 3.91043 4.08517 3.99876
# Velocity P-wave (km/s) = 7.84430 8.62201 8.24233
#
# Compressibility (1/GPa) = 0.01420657
#
# Stress axis : x y z
#
# Youngs Moduli (GPa) = 49.72396 58.54667 83.87582
#
# Poissons Ratio (x) = 0.32315 0.32136
# Poissons Ratio (y) = 0.27446 0.67962
# Poissons Ratio (z) = 0.19051 0.47438
#
# Static dielectric constant tensor:
#      x y z
#    x 1.571810 0.000000 0.000000 
#    y 0.000000 1.558600 0.000000 
#    z 0.000000 0.000000 1.571970 
# 
# From -- ./inp_files/14937.got.cif
#   From: 2010.05.17/outbox.cif.g08.bks.cpg/sg47_8_cif.got.tgz:14937.got - 2010.06.03 20:15:42.
