data_PCOD9386367
_publ_section_title
;
Structure prediction by ZEFSAII (Michael W. Deem and Ramdas Pophale) SiO2 
 PCOD9386367
Probable space group: P M M M
;
_chemical_formula_sum "Si O2"
_cell_formula_units_Z 44
_cell_length_a 9.785344
_cell_length_b 13.582224
_cell_length_c 19.545355
_cell_angle_alpha 90.000000
_cell_angle_beta 90.000000
_cell_angle_gamma 90.000000
_cell_volume 2597.709300
_symmetry_space_group_name_H-M "P M M M"
_symmetry_group_IT_number 47
_symmetry_cell_setting 'orthorhombic'
loop_
_space_group_symop_operation_xyz
x,y,z
-x,-y,z
x,-y,-z
-x,y,-z
-x,-y,-z
x,y,-z
-x,y,z
x,-y,z
loop_
_atom_site_type_symbol
_atom_site_label
_atom_site_fract_x
_atom_site_fract_y
_atom_site_fract_z
Si Si1 0.836739 0.881298 0.500000
Si Si2 0.242674 0.304640 0.836618
Si Si3 0.500000 0.618102 0.919954
Si Si4 0.162156 0.383892 0.312085
Si Si5 0.661195 0.887802 0.229906
Si Si6 0.000000 0.386659 0.919035
Si Si7 0.336705 0.214240 0.622661
O O1 0.753164 0.838202 0.564547
O O2 0.000000 0.855076 0.500000
O O3 0.829158 0.000000 0.500000
O O4 0.374354 0.344370 0.875290
O O5 0.207922 0.360954 0.765861
O O6 0.260584 0.191168 0.815969
O O7 0.126248 0.328506 0.889724
O O8 0.500000 0.500000 0.921587
O O9 0.500000 0.651025 0.000000
O O10 0.176614 0.500000 0.325899
O O11 0.260953 0.316922 0.358823
O O12 0.000000 0.358178 0.319382
O O13 0.500000 0.883140 0.212340
O O14 0.671815 0.851024 0.308233
O O15 0.707911 0.000000 0.223297
O O16 0.000000 0.500000 0.893409
O O17 0.000000 0.390356 0.000000
O O18 0.500000 0.225068 0.606393
#
# Coordination Sequence:
#
# PCOD9386367 Si02
#       7
#     4   8   4   8   8   4   8
#     4  11  23  39  60  85 118 155 187 226 280 337
#     4  11  20  35  55  82 109 147 189 233 284 337
#     4  11  22  34  51  79 113 144 184 237 288 341
#     4  10  20  35  56  81 114 152 188 229 281 341
#     4   9  18  35  58  82 109 142 185 233 281 325
#     4  11  22  36  55  79 111 148 182 223 284 351
#     4  10  21  36  58  88 115 146 188 237 281 328
#
# _framework density 16.937999999999999
#
# number of rings (size 3 to 8) (size 9 to 14) (size 15 to 20)
#    0.000    1.727    1.818    3.545    1.273    3.273 
#    0.000    0.909    0.000    6.000    0.000    0.000 
#    0.000    0.000    0.000    0.000    0.000    0.000 
#
# Total GULP energy -245342.985498 kJ/mol
# GULP energy per Si atom -5575.976943 kJ/mol
# Density = 1.689945 g / cm^3
# Si number density = 16.938000 Si / 1000 Ang^3
#
#
#
# Elastic Constant Matrix: (Units=GPa)
#
#
# Indices 1 2 3 4 5 6 
#
# 1 165.3406 71.0347 62.0262 0.0000 0.0000 0.0000
# 2 71.0347 139.5668 53.5547 0.0000 0.0000 0.0000
# 3 62.0262 53.5547 77.5406 0.0000 0.0000 0.0000
# 4 0.0000 0.0000 0.0000 17.0596 0.0000 0.0000
# 5 0.0000 0.0000 0.0000 0.0000 23.4788 0.0000
# 6 0.0000 0.0000 0.0000 0.0000 0.0000 15.7159
#
#
#
# Elastic Compliance Matrix: (Units=1/GPa)
#
#
# Indices 1 2 3 4 5 6 
#
# 1 0.009261 -0.002546 -0.005650 0.000000 0.000000 0.000000
# 2 -0.002546 0.010448 -0.005180 0.000000 0.000000 0.000000
# 3 -0.005650 -0.005180 0.020994 0.000000 0.000000 0.000000
# 4 0.000000 0.000000 0.000000 0.058618 0.000000 0.000000
# 5 0.000000 0.000000 0.000000 0.000000 0.042592 0.000000
# 6 0.000000 0.000000 0.000000 0.000000 0.000000 0.063630
#
#
# Mechanical properties :
#
#
# Convention : Reuss Voigt Hill
#
# Bulk Modulus (GPa) = 71.67485 83.96434 77.81960
# Shear Modulus (GPa) = 21.10188 24.30634 22.70411
#
# Velocity S-wave (km/s) = 3.53346 3.79227 3.66515
# Velocity P-wave (km/s) = 7.68473 8.29785 7.99717
#
# Compressibility (1/GPa) = 0.01395190
#
# Stress axis : x y z
#
# Youngs Moduli (GPa) = 107.97477 95.70883 47.63299
#
# Poissons Ratio (x) = 0.24364 0.26914
# Poissons Ratio (y) = 0.27487 0.24674
# Poissons Ratio (z) = 0.61008 0.49577
#
# Static dielectric constant tensor:
#      x y z
#    x 1.574250 0.000000 0.000000 
#    y 0.000000 1.556100 0.000000 
#    z 0.000000 0.000000 1.557060 
# 
# From -- ./inp_files/26444.got.cif
#   From: 2010.05.17/outbox.cif.g08.bks.cpg/sg47_14_cif.got.tgz:26444.got - 2010.06.03 20:15:42.
