data_PCOD9386003
_publ_section_title
;
Structure prediction by ZEFSAII (Michael W. Deem and Ramdas Pophale) SiO2 
 PCOD9386003
Probable space group: P M M M
;
_chemical_formula_sum "Si O2"
_cell_formula_units_Z 48
_cell_length_a 8.656986
_cell_length_b 9.297805
_cell_length_c 31.772533
_cell_angle_alpha 90.000000
_cell_angle_beta 90.000000
_cell_angle_gamma 90.000000
_cell_volume 2557.401928
_symmetry_space_group_name_H-M "P M M M"
_symmetry_group_IT_number 47
_symmetry_cell_setting 'orthorhombic'
loop_
_space_group_symop_operation_xyz
x,y,z
-x,-y,z
x,-y,-z
-x,y,-z
-x,-y,-z
x,y,-z
-x,y,z
x,-y,z
loop_
_atom_site_type_symbol
_atom_site_label
_atom_site_fract_x
_atom_site_fract_y
_atom_site_fract_z
Si Si1 0.686749 0.666093 0.583645
Si Si2 0.815355 0.832679 0.336456
Si Si3 0.814687 0.832494 0.081069
Si Si4 0.314527 0.667631 0.000000
Si Si5 0.313075 0.332602 0.161844
Si Si6 0.311447 0.165453 0.500000
Si Si7 0.686002 0.832431 0.246075
O O1 0.500000 0.670207 0.584465
O O2 0.734641 0.500000 0.580957
O O3 0.748089 0.739564 0.625790
O O4 0.738361 0.752801 0.542220
O O5 0.756116 0.785551 0.290574
O O6 0.000000 0.826908 0.337234
O O7 0.766773 0.000000 0.341830
O O8 0.756348 0.757098 0.123492
O O9 0.000000 0.827061 0.079412
O O10 0.766874 0.000000 0.080017
O O11 0.747525 0.747848 0.041214
O O12 0.266793 0.500000 0.000000
O O13 0.500000 0.672345 0.000000
O O14 0.500000 0.324631 0.159309
O O15 0.268804 0.500000 0.159247
O O16 0.266028 0.262982 0.206365
O O17 0.500000 0.166313 0.500000
O O18 0.261064 0.000000 0.500000
O O19 0.500000 0.825982 0.249267
O O20 0.729292 0.000000 0.239006
#
# Coordination Sequence:
#
# PCOD9386003 Si02
#       7
#     8   8   8   4   8   4   8
#     4  10  20  34  54  80 109 140 176 220 269 321
#     4  10  21  36  54  78 109 144 182 224 270 322
#     4  11  24  40  59  85 116 150 189 230 273 325
#     4  11  24  41  62  88 116 147 186 231 278 328
#     4  10  21  37  58  85 115 146 183 227 275 328
#     4   9  17  31  54  81 106 135 174 220 268 319
#     4   9  18  34  56  80 108 145 187 229 272 320
#
# _framework density 18.769048999999999
#
# number of rings (size 3 to 8) (size 9 to 14) (size 15 to 20)
#    0.000    2.000    0.000    3.250    0.000   10.333 
#    0.000    3.750    0.000    2.500    0.000    0.000 
#    0.000    0.000    0.000    0.000    0.000    0.000 
#
# Total GULP energy -268186.603048 kJ/mol
# GULP energy per Si atom -5587.220897 kJ/mol
# Density = 1.872633 g / cm^3
# Si number density = 18.769049 Si / 1000 Ang^3
#
#
#
# Elastic Constant Matrix: (Units=GPa)
#
#
# Indices 1 2 3 4 5 6 
#
# 1 17.9727 42.8715 40.9873 0.0000 0.0000 0.0000
# 2 42.8715 178.1530 135.6734 0.0000 0.0000 0.0000
# 3 40.9873 135.6734 213.4345 0.0000 0.0000 0.0000
# 4 0.0000 0.0000 0.0000 -759.4024 0.0000 0.0000
# 5 0.0000 0.0000 0.0000 0.0000 -77.3011 0.0000
# 6 0.0000 0.0000 0.0000 0.0000 0.0000 22.4514
#
#
#
# Elastic Compliance Matrix: (Units=1/GPa)
#
#
# Indices 1 2 3 4 5 6 
#
# 1 0.142358 -0.026048 -0.010780 0.000000 0.000000 0.000000
# 2 -0.026048 0.015646 -0.004944 0.000000 0.000000 0.000000
# 3 -0.010780 -0.004944 0.009898 0.000000 0.000000 0.000000
# 4 0.000000 0.000000 0.000000 -0.001317 0.000000 0.000000
# 5 0.000000 0.000000 0.000000 0.000000 -0.012936 0.000000
# 6 0.000000 0.000000 0.000000 0.000000 0.000000 0.044541
#
#
# Mechanical properties :
#
#
# Convention : Reuss Voigt Hill
#
# Bulk Modulus (GPa) = 11.85410 94.29164 53.07287
# Shear Modulus (GPa) = 16.13663 -150.18189 -67.02263
#
# Velocity S-wave (km/s) = 2.93533 -8.95485 -5.98219
# Velocity P-wave (km/s) = 4.22110 7.52146 4.40197
#
# Compressibility (1/GPa) = 0.08435897
#
# Stress axis : x y z
#
# Youngs Moduli (GPa) = 7.02452 63.91242 101.03024
#
# Poissons Ratio (x) = 1.66480 1.08912
# Poissons Ratio (y) = 0.18298 0.49947
# Poissons Ratio (z) = 0.07573 0.31597
#
# Static dielectric constant tensor:
#      x y z
#    x 1.635180 0.000000 0.000000 
#    y 0.000000 1.637320 0.000000 
#    z 0.000000 0.000000 1.607970 
# 
# From -- ./inp_files/2670.got.cif
#   From: 2010.05.17/outbox.cif.g08.bks.cpg/sg47_2_cif.got.tgz:2670.got - 2010.06.03 20:15:42.
