data_PCOD9386022
_publ_section_title
;
Structure prediction by ZEFSAII (Michael W. Deem and Ramdas Pophale) SiO2 
 PCOD9386022
Probable space group: P M M M
;
_chemical_formula_sum "Si O2"
_cell_formula_units_Z 48
_cell_length_a 9.287630
_cell_length_b 8.143629
_cell_length_c 33.341213
_cell_angle_alpha 90.000000
_cell_angle_beta 90.000000
_cell_angle_gamma 90.000000
_cell_volume 2521.763079
_symmetry_space_group_name_H-M "P M M M"
_symmetry_group_IT_number 47
_symmetry_cell_setting 'orthorhombic'
loop_
_space_group_symop_operation_xyz
x,y,z
-x,-y,z
x,-y,-z
-x,y,-z
-x,-y,-z
x,y,-z
-x,y,z
x,-y,z
loop_
_atom_site_type_symbol
_atom_site_label
_atom_site_fract_x
_atom_site_fract_y
_atom_site_fract_z
Si Si1 0.335938 0.803706 0.578793
Si Si2 0.835916 0.301653 0.657488
Si Si3 0.175442 0.000000 0.953902
Si Si4 0.173374 0.316193 0.902244
Si Si5 0.666943 0.698588 0.263807
Si Si6 0.330179 0.194676 0.824666
Si Si7 0.164155 0.696294 0.500000
O O1 0.500000 0.740025 0.577448
O O2 0.256338 0.747046 0.618966
O O3 0.248213 0.750321 0.539671
O O4 0.341265 0.000000 0.579019
O O5 0.839111 0.500000 0.658914
O O6 0.761388 0.244627 0.698661
O O7 0.000000 0.242325 0.654036
O O8 0.220670 0.165556 0.930670
O O9 0.000000 0.000000 0.954025
O O10 0.223335 0.000000 0.000000
O O11 0.210048 0.500000 0.916962
O O12 0.242328 0.287734 0.858723
O O13 0.000000 0.307168 0.899059
O O14 0.500000 0.748737 0.269564
O O15 0.670567 0.500000 0.262583
O O16 0.716185 0.762790 0.220564
O O17 0.500000 0.237145 0.827568
O O18 0.314699 0.000000 0.831199
O O19 0.157975 0.500000 0.500000
O O20 0.000000 0.760213 0.500000
#
# Coordination Sequence:
#
# PCOD9386022 Si02
#       7
#     8   8   4   8   8   8   4
#     4  11  24  40  59  84 113 145 183 226 272 326
#     4  10  21  37  57  82 112 146 185 228 276 331
#     4   9  18  34  55  81 115 149 185 235 289 342
#     4  10  20  34  55  82 111 146 188 234 286 342
#     4   9  18  33  52  75 106 145 187 228 271 324
#     4  10  20  34  54  80 111 148 188 232 283 338
#     4  11  24  41  62  88 114 141 178 223 272 328
#
# _framework density 19.034302
#
# number of rings (size 3 to 8) (size 9 to 14) (size 15 to 20)
#    0.000    2.000    0.833    2.500    0.000    8.667 
#    0.000    5.000    0.000    1.000    0.000    1.167 
#    0.000    0.000    0.000    0.000    0.000    0.000 
#
# Total GULP energy -268060.548793 kJ/mol
# GULP energy per Si atom -5584.594767 kJ/mol
# Density = 1.899098 g / cm^3
# Si number density = 19.034302 Si / 1000 Ang^3
#
#
#
# Elastic Constant Matrix: (Units=GPa)
#
#
# Indices 1 2 3 4 5 6 
#
# 1 91.7031 35.9618 67.9616 0.0000 0.0000 0.0000
# 2 35.9618 73.4313 58.0675 0.0000 0.0000 0.0000
# 3 67.9616 58.0675 165.1450 0.0000 0.0000 0.0000
# 4 0.0000 0.0000 0.0000 32.6814 0.0000 0.0000
# 5 0.0000 0.0000 0.0000 0.0000 33.7741 0.0000
# 6 0.0000 0.0000 0.0000 0.0000 0.0000 13.4855
#
#
#
# Elastic Compliance Matrix: (Units=1/GPa)
#
#
# Indices 1 2 3 4 5 6 
#
# 1 0.016396 -0.003732 -0.005435 0.000000 0.000000 0.000000
# 2 -0.003732 0.019712 -0.005395 0.000000 0.000000 0.000000
# 3 -0.005435 -0.005395 0.010189 0.000000 0.000000 0.000000
# 4 0.000000 0.000000 0.000000 0.030598 0.000000 0.000000
# 5 0.000000 0.000000 0.000000 0.000000 0.029608 0.000000
# 6 0.000000 0.000000 0.000000 0.000000 0.000000 0.074154
#
#
# Mechanical properties :
#
#
# Convention : Reuss Voigt Hill
#
# Bulk Modulus (GPa) = 58.23170 72.69567 65.46369
# Shear Modulus (GPa) = 23.20101 27.20744 25.20423
#
# Velocity S-wave (km/s) = 3.49507 3.78483 3.64283
# Velocity P-wave (km/s) = 6.85177 7.57461 7.22224
#
# Compressibility (1/GPa) = 0.01717278
#
# Stress axis : x y z
#
# Youngs Moduli (GPa) = 60.98908 50.72979 98.14274
#
# Poissons Ratio (x) = 0.18931 0.53345
# Poissons Ratio (y) = 0.22759 0.52953
# Poissons Ratio (z) = 0.33150 0.27371
#
# Static dielectric constant tensor:
#      x y z
#    x 1.654880 0.000000 0.000000 
#    y 0.000000 1.674490 0.000000 
#    z 0.000000 0.000000 1.633610 
# 
# From -- ./inp_files/34171.got.cif
#   From: 2010.05.17/outbox.cif.g08.bks.cpg/sg47_18_cif.got.tgz:34171.got - 2010.06.03 20:15:42.
