data_PCOD9386297
_publ_section_title
;
Structure prediction by ZEFSAII (Michael W. Deem and Ramdas Pophale) SiO2 
 PCOD9386297
Probable space group: P M M M
;
_chemical_formula_sum "Si O2"
_cell_formula_units_Z 52
_cell_length_a 8.943464
_cell_length_b 17.748282
_cell_length_c 18.450338
_cell_angle_alpha 90.000000
_cell_angle_beta 90.000000
_cell_angle_gamma 90.000000
_cell_volume 2928.642836
_symmetry_space_group_name_H-M "P M M M"
_symmetry_group_IT_number 47
_symmetry_cell_setting 'orthorhombic'
loop_
_space_group_symop_operation_xyz
x,y,z
-x,-y,z
x,-y,-z
-x,y,-z
-x,-y,-z
x,y,-z
-x,y,z
x,-y,z
loop_
_atom_site_type_symbol
_atom_site_label
_atom_site_fract_x
_atom_site_fract_y
_atom_site_fract_z
Si Si1 0.320081 0.083215 0.644139
Si Si2 0.679296 0.306370 0.731633
Si Si3 0.175741 0.848280 0.219130
Si Si4 0.825063 0.409488 0.150850
Si Si5 0.681586 0.244232 0.419913
Si Si6 0.670791 0.090716 0.082730
Si Si7 0.327183 0.408162 0.000000
O O1 0.500000 0.087142 0.654005
O O2 0.241117 0.093963 0.721469
O O3 0.276939 0.157201 0.598046
O O4 0.285707 0.000000 0.613816
O O5 0.500000 0.310297 0.733797
O O6 0.736532 0.229112 0.767276
O O7 0.747716 0.372651 0.779538
O O8 0.727432 0.297101 0.647286
O O9 0.213909 0.876690 0.139452
O O10 0.000000 0.837834 0.230066
O O11 0.810851 0.500000 0.154057
O O12 0.751493 0.383867 0.074704
O O13 0.000000 0.390087 0.150195
O O14 0.735252 0.265378 0.500000
O O15 0.500000 0.245752 0.420803
O O16 0.500000 0.112242 0.102946
O O17 0.677162 0.000000 0.084450
O O18 0.697338 0.114741 0.000000
O O19 0.322021 0.500000 0.000000
O O20 0.500000 0.385028 0.000000
#
# Coordination Sequence:
#
# PCOD9386297 Si02
#       7
#     8   8   8   8   8   8   4
#     4   9  17  29  47  71  98 130 168 210 257 311
#     4  10  20  35  55  77 102 134 173 212 254 310
#     4  11  21  32  47  68  97 130 166 209 257 307
#     4  10  20  35  56  82 112 142 172 210 254 300
#     4   8  15  29  50  76 103 131 168 218 269 310
#     4   9  18  33  51  68  89 122 165 212 259 305
#     4   9  17  31  53  81 111 141 172 203 240 291
#
# _framework density 17.755666000000002
#
# number of rings (size 3 to 8) (size 9 to 14) (size 15 to 20)
#    0.000    2.538    0.000    4.385    0.000    4.923 
#    1.385    2.308    0.000   12.000    0.000    7.538 
#    0.000    0.000    0.000    0.000    0.000    0.000 
#
# Total GULP energy -289886.333383 kJ/mol
# GULP energy per Si atom -5574.737180 kJ/mol
# Density = 1.771525 g / cm^3
# Si number density = 17.755666 Si / 1000 Ang^3
#
#
#
# Elastic Constant Matrix: (Units=GPa)
#
#
# Indices 1 2 3 4 5 6 
#
# 1 68.5145 29.9210 54.0338 0.0000 0.0000 0.0000
# 2 29.9210 25.2791 35.5998 0.0000 0.0000 0.0000
# 3 54.0338 35.5998 131.3715 0.0000 0.0000 0.0000
# 4 0.0000 0.0000 0.0000 11.3295 0.0000 0.0000
# 5 0.0000 0.0000 0.0000 0.0000 -3.0278 0.0000
# 6 0.0000 0.0000 0.0000 0.0000 0.0000 11.9930
#
#
#
# Elastic Compliance Matrix: (Units=1/GPa)
#
#
# Indices 1 2 3 4 5 6 
#
# 1 0.031891 -0.031170 -0.004670 0.000000 0.000000 0.000000
# 2 -0.031170 0.094436 -0.012770 0.000000 0.000000 0.000000
# 3 -0.004670 -0.012770 0.012994 0.000000 0.000000 0.000000
# 4 0.000000 0.000000 0.000000 0.088265 0.000000 0.000000
# 5 0.000000 0.000000 0.000000 0.000000 -0.330271 0.000000
# 6 0.000000 0.000000 0.000000 0.000000 0.000000 0.083382
#
#
# Mechanical properties :
#
#
# Convention : Reuss Voigt Hill
#
# Bulk Modulus (GPa) = 23.75343 51.58602 37.66972
# Shear Modulus (GPa) = 54.37772 11.09965 32.73868
#
# Velocity S-wave (km/s) = 5.54004 2.50298 4.29866
# Velocity P-wave (km/s) = 7.37087 6.12124 6.77493
#
# Compressibility (1/GPa) = 0.04209919
#
# Stress axis : x y z
#
# Youngs Moduli (GPa) = 31.35701 10.58922 76.96114
#
# Poissons Ratio (x) = 0.33006 0.35944
# Poissons Ratio (y) = 0.97738 0.98283
# Poissons Ratio (z) = 0.14645 0.13523
#
# Static dielectric constant tensor:
#      x y z
#    x 1.593970 0.000000 0.000000 
#    y 0.000000 1.613720 0.000000 
#    z 0.000000 0.000000 1.621290 
# 
# From -- ./inp_files/9564.got.cif
#   From: 2010.05.17/outbox.cif.g08.bks.cpg/sg47_5_cif.got.tgz:9564.got - 2010.06.03 20:15:42.
