data_PCOD9386501
_publ_section_title
;
Structure prediction by ZEFSAII (Michael W. Deem and Ramdas Pophale) SiO2 
 PCOD9386501
Probable space group: P M M M
;
_chemical_formula_sum "Si O2"
_cell_formula_units_Z 40
_cell_length_a 8.532466
_cell_length_b 12.240208
_cell_length_c 20.999955
_cell_angle_alpha 90.000000
_cell_angle_beta 90.000000
_cell_angle_gamma 90.000000
_cell_volume 2193.217631
_symmetry_space_group_name_H-M "P M M M"
_symmetry_group_IT_number 47
_symmetry_cell_setting 'orthorhombic'
loop_
_space_group_symop_operation_xyz
x,y,z
-x,-y,z
x,-y,-z
-x,y,-z
-x,-y,-z
x,y,-z
-x,y,z
x,-y,z
loop_
_atom_site_type_symbol
_atom_site_label
_atom_site_fract_x
_atom_site_fract_y
_atom_site_fract_z
Si Si1 0.189832 0.736823 0.571932
Si Si2 0.187692 0.262720 0.810359
Si Si3 0.687859 0.126205 0.690288
Si Si4 0.190619 0.500000 0.379007
Si Si5 0.689144 0.125631 0.072843
Si Si6 0.191067 0.500000 0.231095
O O1 0.236430 0.765899 0.500000
O O2 0.255694 0.816235 0.625685
O O3 0.239970 0.612311 0.587674
O O4 0.000000 0.739546 0.575371
O O5 0.247311 0.193023 0.750330
O O6 0.244384 0.207044 0.875073
O O7 0.242733 0.387827 0.801741
O O8 0.000000 0.262684 0.808821
O O9 0.500000 0.128481 0.692874
O O10 0.739744 0.000000 0.692915
O O11 0.239773 0.500000 0.305171
O O12 0.000000 0.500000 0.380027
O O13 0.500000 0.128828 0.075327
O O14 0.736312 0.000000 0.086957
O O15 0.736376 0.150397 0.000000
O O16 0.000000 0.500000 0.231090
#
# Coordination Sequence:
#
# PCOD9386501 Si02
#       6
#     8   8   8   4   8   4
#     4  10  20  35  58  84 107 136 179 229 276 324
#     4  11  21  36  59  85 111 141 182 229 271 317
#     4  11  24  39  54  75 108 148 184 221 273 332
#     4   9  15  32  57  81 109 139 173 219 276 330
#     4   9  19  37  59  83 115 152 184 218 266 320
#     4   9  18  33  55  81 111 143 174 219 278 327
#
# _framework density 18.238043000000001
#
# number of rings (size 3 to 8) (size 9 to 14) (size 15 to 20)
#    0.000    2.000    2.000    2.700    0.000    6.800 
#    0.000    7.000    0.000    4.200    0.000    0.000 
#    0.000    0.000    0.000    0.000    0.000    0.000 
#
# Total GULP energy -223352.223287 kJ/mol
# GULP energy per Si atom -5583.805582 kJ/mol
# Density = 1.819653 g / cm^3
# Si number density = 18.238043 Si / 1000 Ang^3
#
#
#
# Elastic Constant Matrix: (Units=GPa)
#
#
# Indices 1 2 3 4 5 6 
#
# 1 22.2332 32.4527 31.4765 0.0000 0.0000 0.0000
# 2 32.4527 171.3398 105.3343 0.0000 0.0000 0.0000
# 3 31.4765 105.3343 158.9833 0.0000 0.0000 0.0000
# 4 0.0000 0.0000 0.0000 -297.6950 0.0000 0.0000
# 5 0.0000 0.0000 0.0000 0.0000-1250.6738 0.0000
# 6 0.0000 0.0000 0.0000 0.0000 0.0000 44.7199
#
#
#
# Elastic Compliance Matrix: (Units=1/GPa)
#
#
# Indices 1 2 3 4 5 6 
#
# 1 0.068135 -0.007782 -0.008334 0.000000 0.000000 0.000000
# 2 -0.007782 0.010736 -0.005572 0.000000 0.000000 0.000000
# 3 -0.008334 -0.005572 0.011632 0.000000 0.000000 0.000000
# 4 0.000000 0.000000 0.000000 -0.003359 0.000000 0.000000
# 5 0.000000 0.000000 0.000000 0.000000 -0.000800 0.000000
# 6 0.000000 0.000000 0.000000 0.000000 0.000000 0.022361
#
#
# Mechanical properties :
#
#
# Convention : Reuss Voigt Hill
#
# Bulk Modulus (GPa) = 21.21938 76.78702 49.00320
# Shear Modulus (GPa) = 29.79895 -288.51024 -129.35565
#
# Velocity S-wave (km/s) = 4.04653 -12.59106 -8.43091
# Velocity P-wave (km/s) = 5.78726 13.00714 8.23691
#
# Compressibility (1/GPa) = 0.04712674
#
# Stress axis : x y z
#
# Youngs Moduli (GPa) = 14.67673 93.14437 85.96933
#
# Poissons Ratio (x) = 0.72481 0.71648
# Poissons Ratio (y) = 0.11421 0.47906
# Poissons Ratio (z) = 0.12232 0.51905
#
# Static dielectric constant tensor:
#      x y z
#    x 1.629640 0.000000 0.000000 
#    y 0.000000 1.620610 0.000000 
#    z 0.000000 0.000000 1.596820 
# 
# From -- ./inp_files/29350.got.cif
#   From: 2010.05.17/outbox.cif.g08.bks.cpg/sg47_15_cif.got.tgz:29350.got - 2010.06.03 20:15:42.
