data_PCOD9386796
_publ_section_title
;
Structure prediction by ZEFSAII (Michael W. Deem and Ramdas Pophale) SiO2 
 PCOD9386796
Probable space group: P M M M
;
_chemical_formula_sum "Si O2"
_cell_formula_units_Z 56
_cell_length_a 7.388991
_cell_length_b 14.551990
_cell_length_c 22.196446
_cell_angle_alpha 90.000000
_cell_angle_beta 90.000000
_cell_angle_gamma 90.000000
_cell_volume 2386.662272
_symmetry_space_group_name_H-M "P M M M"
_symmetry_group_IT_number 47
_symmetry_cell_setting 'orthorhombic'
loop_
_space_group_symop_operation_xyz
x,y,z
-x,-y,z
x,-y,-z
-x,y,-z
-x,-y,-z
x,y,-z
-x,y,z
x,-y,z
loop_
_atom_site_type_symbol
_atom_site_label
_atom_site_fract_x
_atom_site_fract_y
_atom_site_fract_z
Si Si1 0.221952 0.292458 0.434835
Si Si2 0.779859 0.391943 0.183064
Si Si3 0.207299 0.102375 0.393211
Si Si4 0.212634 0.712721 0.065759
Si Si5 0.718755 0.895065 0.128037
Si Si6 0.780284 0.607435 0.314470
Si Si7 0.708002 0.111540 0.741213
O O1 0.273833 0.331296 0.500000
O O2 0.285776 0.187170 0.429232
O O3 0.284077 0.344186 0.374989
O O4 0.000000 0.292404 0.433050
O O5 0.733554 0.500000 0.179040
O O6 0.711653 0.338503 0.124509
O O7 0.720242 0.355972 0.248937
O O8 0.000000 0.386933 0.183189
O O9 0.204328 0.132503 0.322731
O O10 0.000000 0.094059 0.413002
O O11 0.288865 0.000000 0.397131
O O12 0.229177 0.821188 0.078597
O O13 0.000000 0.689712 0.063923
O O14 0.289015 0.689733 0.000000
O O15 0.500000 0.897423 0.131879
O O16 0.784951 0.860204 0.193978
O O17 0.778925 0.000000 0.117343
O O18 0.733262 0.500000 0.316492
O O19 0.000000 0.613052 0.314719
O O20 0.500000 0.140748 0.736638
O O21 0.710957 0.000000 0.745295
#
# Coordination Sequence:
#
# PCOD9386796 Si02
#       7
#     8   8   8   8   8   8   8
#     4   9  17  26  37  59  92 127 159 191 229 275
#     4   8  15  29  48  69  95 127 160 197 244 297
#     4   9  17  27  41  64  93 125 158 190 231 281
#     4  10  21  33  48  75 104 129 161 203 247 286
#     4   9  19  35  52  70  96 133 171 202 239 291
#     4   8  14  25  41  61  86 119 157 193 232 279
#     4   8  15  29  47  66  88 116 155 200 238 272
#
# _framework density 23.463730999999999
#
# number of rings (size 3 to 8) (size 9 to 14) (size 15 to 20)
#    0.000    3.286    0.000    1.714    2.000    2.286 
#    0.000    7.143    0.000    0.857    0.000    3.000 
#    0.000    0.571    0.000    1.286    0.000    1.429 
#
# Total GULP energy -312510.548137 kJ/mol
# GULP energy per Si atom -5580.545502 kJ/mol
# Density = 2.341033 g / cm^3
# Si number density = 23.463731 Si / 1000 Ang^3
#
#
#
# Elastic Constant Matrix: (Units=GPa)
#
#
# Indices 1 2 3 4 5 6 
#
# 1 81.4937 -1.0577 6.4417 0.0000 0.0000 0.0000
# 2 -1.0577 71.9159 87.9181 0.0000 0.0000 0.0000
# 3 6.4417 87.9181 223.9038 0.0000 0.0000 0.0000
# 4 0.0000 0.0000 0.0000 12.8917 0.0000 0.0000
# 5 0.0000 0.0000 0.0000 0.0000 51.3197 0.0000
# 6 0.0000 0.0000 0.0000 0.0000 0.0000 96.7717
#
#
#
# Elastic Compliance Matrix: (Units=1/GPa)
#
#
# Indices 1 2 3 4 5 6 
#
# 1 0.012351 0.001185 -0.000821 0.000000 0.000000 0.000000
# 2 0.001185 0.026856 -0.010579 0.000000 0.000000 0.000000
# 3 -0.000821 -0.010579 0.008644 0.000000 0.000000 0.000000
# 4 0.000000 0.000000 0.000000 0.077569 0.000000 0.000000
# 5 0.000000 0.000000 0.000000 0.000000 0.019486 0.000000
# 6 0.000000 0.000000 0.000000 0.000000 0.000000 0.010334
#
#
# Mechanical properties :
#
#
# Convention : Reuss Voigt Hill
#
# Bulk Modulus (GPa) = 36.46874 62.65752 49.56313
# Shear Modulus (GPa) = 27.05485 51.13070 39.09278
#
# Velocity S-wave (km/s) = 3.39934 4.67319 4.08621
# Velocity P-wave (km/s) = 5.56630 7.47531 6.59029
#
# Compressibility (1/GPa) = 0.02742075
#
# Stress axis : x y z
#
# Youngs Moduli (GPa) = 80.96427 37.23570 115.68850
#
# Poissons Ratio (x) = -0.04412 0.09493
# Poissons Ratio (y) = -0.09593 1.22391
# Poissons Ratio (z) = 0.06644 0.39393
#
# Static dielectric constant tensor:
#      x y z
#    x 1.868290 0.000000 0.000000 
#    y 0.000000 1.872110 0.000000 
#    z 0.000000 0.000000 1.902340 
# 
# From -- ./inp_files/29700.got.cif
#   From: 2010.05.17/outbox.cif.g08.bks.cpg/sg47_15_cif.got.tgz:29700.got - 2010.06.03 20:15:42.
