data_PCOD9386653
_publ_section_title
;
Structure prediction by ZEFSAII (Michael W. Deem and Ramdas Pophale) SiO2 
 PCOD9386653
Probable space group: P M M M
;
_chemical_formula_sum "Si O2"
_cell_formula_units_Z 30
_cell_length_a 11.590352
_cell_length_b 13.887383
_cell_length_c 10.499433
_cell_angle_alpha 90.000000
_cell_angle_beta 90.000000
_cell_angle_gamma 90.000000
_cell_volume 1689.985138
_symmetry_space_group_name_H-M "P M M M"
_symmetry_group_IT_number 47
_symmetry_cell_setting 'orthorhombic'
loop_
_space_group_symop_operation_xyz
x,y,z
-x,-y,z
x,-y,-z
-x,y,-z
-x,-y,-z
x,y,-z
-x,y,z
x,-y,z
loop_
_atom_site_type_symbol
_atom_site_label
_atom_site_fract_x
_atom_site_fract_y
_atom_site_fract_z
Si Si1 0.639992 0.109044 0.500000
Si Si2 0.232235 0.883993 0.000000
Si Si3 0.000000 0.758328 0.000000
Si Si4 0.000000 0.612123 0.238070
Si Si5 0.748758 0.387766 0.648932
Si Si6 0.637931 0.790748 0.237511
O O1 0.500000 0.109006 0.500000
O O2 0.674975 0.160218 0.629621
O O3 0.681069 0.000000 0.500000
O O4 0.302261 0.846625 0.122830
O O5 0.111129 0.827461 0.000000
O O6 0.220641 0.000000 0.000000
O O7 0.000000 0.687919 0.877280
O O8 0.884369 0.625126 0.320883
O O9 0.000000 0.500000 0.192737
O O10 0.724580 0.365944 0.500000
O O11 0.720851 0.500000 0.669207
O O12 0.679217 0.318794 0.743737
O O13 0.500000 0.795721 0.224584
#
# Coordination Sequence:
#
# PCOD9386653 Si02
#       6
#     4   4   2   4   8   8
#     4   9  18  34  57  82 109 148 201 248 283 334
#     4  12  26  43  62  85 118 158 201 248 301 353
#     4  12  22  40  64  86 112 150 198 250 302 350
#     4  10  20  37  62  88 115 152 200 245 294 355
#     4  10  20  36  61  91 122 156 194 242 299 357
#     4  11  22  38  60  87 120 159 199 241 294 353
#
# _framework density 17.751633999999999
#
# number of rings (size 3 to 8) (size 9 to 14) (size 15 to 20)
#    0.000    1.467    4.000    2.000    0.000    4.267 
#    0.000    2.000    0.000    1.600    0.000    5.600 
#    0.000    0.000    0.000    0.000    0.000    0.000 
#
# Total GULP energy -167434.232219 kJ/mol
# GULP energy per Si atom -5581.141074 kJ/mol
# Density = 1.771123 g / cm^3
# Si number density = 17.751634 Si / 1000 Ang^3
#
#
#
# Elastic Constant Matrix: (Units=GPa)
#
#
# Indices 1 2 3 4 5 6 
#
# 1 79.1595 41.8476 35.2816 0.0000 0.0000 0.0000
# 2 41.8476 126.5709 60.7497 0.0000 0.0000 0.0000
# 3 35.2816 60.7497 113.2468 0.0000 0.0000 0.0000
# 4 0.0000 0.0000 0.0000 29.5326 0.0000 0.0000
# 5 0.0000 0.0000 0.0000 0.0000 26.0208 0.0000
# 6 0.0000 0.0000 0.0000 0.0000 0.0000 22.0831
#
#
#
# Elastic Compliance Matrix: (Units=1/GPa)
#
#
# Indices 1 2 3 4 5 6 
#
# 1 0.015980 -0.003897 -0.002888 0.000000 0.000000 0.000000
# 2 -0.003897 0.011591 -0.005004 0.000000 0.000000 0.000000
# 3 -0.002888 -0.005004 0.012414 0.000000 0.000000 0.000000
# 4 0.000000 0.000000 0.000000 0.033861 0.000000 0.000000
# 5 0.000000 0.000000 0.000000 0.000000 0.038431 0.000000
# 6 0.000000 0.000000 0.000000 0.000000 0.000000 0.045283
#
#
# Mechanical properties :
#
#
# Convention : Reuss Voigt Hill
#
# Bulk Modulus (GPa) = 60.94770 66.08168 63.51469
# Shear Modulus (GPa) = 26.79428 27.60051 27.19740
#
# Velocity S-wave (km/s) = 3.88931 3.94739 3.91846
# Velocity P-wave (km/s) = 7.38763 7.62118 7.50531
#
# Compressibility (1/GPa) = 0.01640751
#
# Stress axis : x y z
#
# Youngs Moduli (GPa) = 62.57738 86.27527 80.55392
#
# Poissons Ratio (x) = 0.33625 0.23263
# Poissons Ratio (y) = 0.24389 0.40305
# Poissons Ratio (z) = 0.18071 0.43168
#
# Static dielectric constant tensor:
#      x y z
#    x 1.582950 0.000000 0.000000 
#    y 0.000000 1.618540 0.000000 
#    z 0.000000 0.000000 1.587680 
# 
# From -- ./inp_files/14663.got.cif
#   From: 2010.05.17/outbox.cif.g08.bks.cpg/sg47_8_cif.got.tgz:14663.got - 2010.06.03 20:15:42.
