data_PCOD9386959
_publ_section_title
;
Structure prediction by ZEFSAII (Michael W. Deem and Ramdas Pophale) SiO2 
 PCOD9386959
Probable space group: P M M M
;
_chemical_formula_sum "Si O2"
_cell_formula_units_Z 44
_cell_length_a 9.545942
_cell_length_b 7.776346
_cell_length_c 31.698792
_cell_angle_alpha 90.000000
_cell_angle_beta 90.000000
_cell_angle_gamma 90.000000
_cell_volume 2353.082095
_symmetry_space_group_name_H-M "P M M M"
_symmetry_group_IT_number 47
_symmetry_cell_setting 'orthorhombic'
loop_
_space_group_symop_operation_xyz
x,y,z
-x,-y,z
x,-y,-z
-x,y,-z
-x,-y,-z
x,y,-z
-x,y,z
x,-y,z
loop_
_atom_site_type_symbol
_atom_site_label
_atom_site_fract_x
_atom_site_fract_y
_atom_site_fract_z
Si Si1 0.157685 0.205759 0.627849
Si Si2 0.339783 0.293185 0.202823
Si Si3 0.670874 0.000000 0.951633
Si Si4 0.328700 0.301382 0.110612
Si Si5 0.659914 0.707498 0.452561
Si Si6 0.339765 0.793865 0.705878
O O1 0.237075 0.236841 0.584119
O O2 0.248099 0.273848 0.667207
O O3 0.000000 0.275007 0.627136
O O4 0.149164 0.000000 0.633355
O O5 0.500000 0.225510 0.204402
O O6 0.345685 0.500000 0.201220
O O7 0.279782 0.241896 0.157319
O O8 0.276930 0.243565 0.247821
O O9 0.714037 0.830934 0.925512
O O10 0.500000 0.000000 0.952152
O O11 0.718282 0.000000 0.000000
O O12 0.500000 0.300823 0.112426
O O13 0.287177 0.500000 0.103200
O O14 0.698497 0.765067 0.500000
O O15 0.500000 0.765348 0.443996
O O16 0.658379 0.500000 0.453030
O O17 0.500000 0.725985 0.704015
O O18 0.348058 0.000000 0.701937
#
# Coordination Sequence:
#
# PCOD9386959 Si02
#       6
#     8   8   4   8   8   8
#     4  10  21  35  49  69 100 132 159 189 230 284
#     4   8  14  24  38  57  78 101 134 180 232 275
#     4   9  16  22  30  46  68 102 145 183 226 279
#     4   8  14  23  33  47  70  99 135 183 231 275
#     4   9  19  36  56  76  96 120 155 199 242 281
#     4   9  17  28  44  65  86 112 149 191 231 272
#
# _framework density 18.698882000000001
#
# number of rings (size 3 to 8) (size 9 to 14) (size 15 to 20)
#    0.000    3.182    0.000    2.182    1.273    3.273 
#    0.000    6.364    0.000    0.000    0.000    0.000 
#    0.000    0.000    0.000    0.000    0.000    1.818 
#
# Total GULP energy -245051.594465 kJ/mol
# GULP energy per Si atom -5569.354420 kJ/mol
# Density = 1.865632 g / cm^3
# Si number density = 18.698882 Si / 1000 Ang^3
#
#
#
# Elastic Constant Matrix: (Units=GPa)
#
#
# Indices 1 2 3 4 5 6 
#
# 1 48.4919 17.8005 70.6576 0.0000 0.0000 0.0000
# 2 17.8005 44.8641 40.9520 0.0000 0.0000 0.0000
# 3 70.6576 40.9520 205.7586 0.0000 0.0000 0.0000
# 4 0.0000 0.0000 0.0000 36.2165 0.0000 0.0000
# 5 0.0000 0.0000 0.0000 0.0000 -4.1138 0.0000
# 6 0.0000 0.0000 0.0000 0.0000 0.0000 6.7409
#
#
#
# Elastic Compliance Matrix: (Units=1/GPa)
#
#
# Indices 1 2 3 4 5 6 
#
# 1 0.041933 -0.004269 -0.013550 0.000000 0.000000 0.000000
# 2 -0.004269 0.027673 -0.004042 0.000000 0.000000 0.000000
# 3 -0.013550 -0.004042 0.010318 0.000000 0.000000 0.000000
# 4 0.000000 0.000000 0.000000 0.027612 0.000000 0.000000
# 5 0.000000 0.000000 0.000000 0.000000 -0.243083 0.000000
# 6 0.000000 0.000000 0.000000 0.000000 0.000000 0.148349
#
#
# Mechanical properties :
#
#
# Convention : Reuss Voigt Hill
#
# Bulk Modulus (GPa) = 27.62309 61.99275 44.80792
# Shear Modulus (GPa) = 72.89739 19.08234 45.98987
#
# Velocity S-wave (km/s) = 6.25056 3.19800 4.96471
# Velocity P-wave (km/s) = 8.17908 6.84554 7.54184
#
# Compressibility (1/GPa) = 0.03620159
#
# Stress axis : x y z
#
# Youngs Moduli (GPa) = 23.84753 36.13683 96.92152
#
# Poissons Ratio (x) = 0.15427 1.31331
# Poissons Ratio (y) = 0.10180 0.39173
# Poissons Ratio (z) = 0.32314 0.14605
#
# Static dielectric constant tensor:
#      x y z
#    x 1.624150 0.000000 0.000000 
#    y 0.000000 1.672480 0.000000 
#    z 0.000000 0.000000 1.667970 
# 
# From -- ./inp_files/13588.got.cif
#   From: 2010.05.17/outbox.cif.g08.bks.cpg/sg47_7_cif.got.tgz:13588.got - 2010.06.03 20:15:42.
