data_PCOD9386423
_publ_section_title
;
Structure prediction by ZEFSAII (Michael W. Deem and Ramdas Pophale) SiO2 
 PCOD9386423
Probable space group: P M M M
;
_chemical_formula_sum "Si O2"
_cell_formula_units_Z 44
_cell_length_a 9.516148
_cell_length_b 29.326073
_cell_length_c 7.589912
_cell_angle_alpha 90.000000
_cell_angle_beta 90.000000
_cell_angle_gamma 90.000000
_cell_volume 2118.126236
_symmetry_space_group_name_H-M "P M M M"
_symmetry_group_IT_number 47
_symmetry_cell_setting 'orthorhombic'
loop_
_space_group_symop_operation_xyz
x,y,z
-x,-y,z
x,-y,-z
-x,y,-z
-x,-y,-z
x,y,-z
-x,y,z
x,-y,z
loop_
_atom_site_type_symbol
_atom_site_label
_atom_site_fract_x
_atom_site_fract_y
_atom_site_fract_z
Si Si1 0.662714 0.136826 0.714764
Si Si2 0.341485 0.414057 0.707455
Si Si3 0.158968 0.673095 0.207350
Si Si4 0.162017 0.500000 0.716453
Si Si5 0.836681 0.949830 0.714952
Si Si6 0.661665 0.761391 0.712664
O O1 0.669545 0.136685 0.500000
O O2 0.500000 0.130995 0.762920
O O3 0.752418 0.094090 0.778167
O O4 0.705782 0.187769 0.771480
O O5 0.355561 0.423479 0.500000
O O6 0.500000 0.411945 0.781299
O O7 0.259522 0.366563 0.722487
O O8 0.245930 0.455206 0.777571
O O9 0.233154 0.721698 0.234413
O O10 0.000000 0.671786 0.280910
O O11 0.149271 0.665085 0.000000
O O12 0.159141 0.500000 0.500000
O O13 0.000000 0.500000 0.773320
O O14 0.831527 0.949427 0.500000
O O15 0.000000 0.946376 0.764408
O O16 0.783852 0.000000 0.770419
O O17 0.657840 0.761899 0.500000
O O18 0.500000 0.753017 0.771835
#
# Coordination Sequence:
#
# PCOD9386423 Si02
#       6
#     8   8   8   4   8   8
#     4   8  14  24  38  58  84 113 148 191 235 280
#     4  10  20  35  57  83 108 135 169 206 243 287
#     4  11  24  38  51  72 102 133 167 207 249 294
#     4   9  17  31  54  83 112 139 166 200 242 285
#     4   8  13  20  30  48  78 115 151 185 224 274
#     4   9  18  33  52  73  96 124 162 206 249 295
#
# _framework density 20.773076
#
# number of rings (size 3 to 8) (size 9 to 14) (size 15 to 20)
#    0.000    2.818    0.000    3.545    0.000    7.273 
#    0.000    4.091    0.000    2.727    0.000    0.000 
#    0.000    0.727    0.000    8.000    0.000   13.091 
#
# Total GULP energy -245511.490632 kJ/mol
# GULP energy per Si atom -5579.806605 kJ/mol
# Density = 2.072580 g / cm^3
# Si number density = 20.773076 Si / 1000 Ang^3
#
#
#
# Elastic Constant Matrix: (Units=GPa)
#
#
# Indices 1 2 3 4 5 6 
#
# 1 161.6218 121.3456 3.8567 0.0000 0.0000 0.0000
# 2 121.3456 192.6293 -6.7859 0.0000 0.0000 0.0000
# 3 3.8567 -6.7859 42.8478 0.0000 0.0000 0.0000
# 4 0.0000 0.0000 0.0000 -104.6847 0.0000 0.0000
# 5 0.0000 0.0000 0.0000 0.0000 -7.2805 0.0000
# 6 0.0000 0.0000 0.0000 0.0000 0.0000 46.2745
#
#
#
# Elastic Compliance Matrix: (Units=1/GPa)
#
#
# Indices 1 2 3 4 5 6 
#
# 1 0.011958 -0.007613 -0.002282 0.000000 0.000000 0.000000
# 2 -0.007613 0.010067 0.002280 0.000000 0.000000 0.000000
# 3 -0.002282 0.002280 0.023905 0.000000 0.000000 0.000000
# 4 0.000000 0.000000 0.000000 -0.009552 0.000000 0.000000
# 5 0.000000 0.000000 0.000000 0.000000 -0.137352 0.000000
# 6 0.000000 0.000000 0.000000 0.000000 0.000000 0.021610
#
#
# Mechanical properties :
#
#
# Convention : Reuss Voigt Hill
#
# Bulk Modulus (GPa) = 32.57422 70.43685 51.50554
# Shear Modulus (GPa) = -92.76206 5.44069 -43.66068
#
# Velocity S-wave (km/s) = -6.68969 1.62012 -4.58950
# Velocity P-wave (km/s) = 6.62979 6.12218 1.79904
#
# Compressibility (1/GPa) = 0.03069912
#
# Stress axis : x y z
#
# Youngs Moduli (GPa) = 83.62905 99.33071 41.83256
#
# Poissons Ratio (x) = 0.75620 0.09546
# Poissons Ratio (y) = 0.63667 -0.09536
# Poissons Ratio (z) = 0.19084 -0.22644
#
# Static dielectric constant tensor:
#      x y z
#    x 1.722830 0.000000 0.000000 
#    y 0.000000 1.725630 0.000000 
#    z 0.000000 0.000000 1.781080 
# 
# From -- ./inp_files/2207.got.cif
#   From: 2010.05.17/outbox.cif.g08.bks.cpg/sg47_2_cif.got.tgz:2207.got - 2010.06.03 20:15:42.
