data_PCOD9386539
_publ_section_title
;
Structure prediction by ZEFSAII (Michael W. Deem and Ramdas Pophale) SiO2 
 PCOD9386539
Probable space group: P M M M
;
_chemical_formula_sum "Si O2"
_cell_formula_units_Z 48
_cell_length_a 7.899024
_cell_length_b 15.907658
_cell_length_c 19.266652
_cell_angle_alpha 90.000000
_cell_angle_beta 90.000000
_cell_angle_gamma 90.000000
_cell_volume 2420.950624
_symmetry_space_group_name_H-M "P M M M"
_symmetry_group_IT_number 47
_symmetry_cell_setting 'orthorhombic'
loop_
_space_group_symop_operation_xyz
x,y,z
-x,-y,z
x,-y,-z
-x,y,-z
-x,-y,-z
x,y,-z
-x,y,z
x,-y,z
loop_
_atom_site_type_symbol
_atom_site_label
_atom_site_fract_x
_atom_site_fract_y
_atom_site_fract_z
Si Si1 0.186263 0.836483 0.669088
Si Si2 0.293344 0.500000 0.420385
Si Si3 0.795092 0.243179 0.079379
Si Si4 0.500000 0.100671 0.579530
Si Si5 0.701050 0.352310 0.681779
Si Si6 0.701246 0.095548 0.183655
Si Si7 0.205174 0.406558 0.835564
O O1 0.334606 0.867750 0.619515
O O2 0.206176 0.736415 0.677579
O O3 0.210731 0.876886 0.745023
O O4 0.000000 0.857615 0.642346
O O5 0.500000 0.500000 0.420404
O O6 0.236445 0.500000 0.500000
O O7 0.241665 0.417845 0.376981
O O8 0.741036 0.163100 0.124457
O O9 0.737096 0.329197 0.116671
O O10 0.000000 0.244808 0.078979
O O11 0.736261 0.238318 0.000000
O O12 0.500000 0.130204 0.500000
O O13 0.500000 0.000000 0.580636
O O14 0.500000 0.337210 0.673346
O O15 0.731580 0.391573 0.757464
O O16 0.500000 0.097353 0.196882
O O17 0.749236 0.000000 0.164833
O O18 0.256574 0.500000 0.859240
O O19 0.000000 0.404407 0.834076
#
# Coordination Sequence:
#
# PCOD9386539 Si02
#       7
#     8   4   8   4   8   8   8
#     4  12  24  42  69  99 131 171 222 269 319 388
#     4   9  20  36  57  89 128 170 212 258 319 384
#     4  10  22  39  59  88 126 170 219 268 324 392
#     4  11  26  48  70  97 134 170 211 269 332 388
#     4  11  20  36  61  91 124 167 213 264 318 380
#     4  11  23  40  64  94 127 165 213 268 328 392
#     4  10  20  35  58  87 122 164 214 268 322 386
#
# _framework density 19.826924000000002
#
# number of rings (size 3 to 8) (size 9 to 14) (size 15 to 20)
#    0.000    1.333    4.167    1.500    0.000    4.333 
#    0.000    4.167    0.000    3.500    0.000    2.333 
#    0.000    0.000    0.000    0.000    0.000    0.000 
#
# Total GULP energy -268372.796723 kJ/mol
# GULP energy per Si atom -5591.099932 kJ/mol
# Density = 1.978180 g / cm^3
# Si number density = 19.826924 Si / 1000 Ang^3
#
#
#
# Elastic Constant Matrix: (Units=GPa)
#
#
# Indices 1 2 3 4 5 6 
#
# 1 80.9362 32.9896 38.5501 0.0000 0.0000 0.0000
# 2 32.9896 161.7278 79.0239 0.0000 0.0000 0.0000
# 3 38.5501 79.0239 146.0808 0.0000 0.0000 0.0000
# 4 0.0000 0.0000 0.0000 54.0976 0.0000 0.0000
# 5 0.0000 0.0000 0.0000 0.0000 34.0126 0.0000
# 6 0.0000 0.0000 0.0000 0.0000 0.0000 15.0315
#
#
#
# Elastic Compliance Matrix: (Units=1/GPa)
#
#
# Indices 1 2 3 4 5 6 
#
# 1 0.014383 -0.001467 -0.003002 0.000000 0.000000 0.000000
# 2 -0.001467 0.008554 -0.004240 0.000000 0.000000 0.000000
# 3 -0.003002 -0.004240 0.009932 0.000000 0.000000 0.000000
# 4 0.000000 0.000000 0.000000 0.018485 0.000000 0.000000
# 5 0.000000 0.000000 0.000000 0.000000 0.029401 0.000000
# 6 0.000000 0.000000 0.000000 0.000000 0.000000 0.066527
#
#
# Mechanical properties :
#
#
# Convention : Reuss Voigt Hill
#
# Bulk Modulus (GPa) = 64.72393 76.65245 70.68819
# Shear Modulus (GPa) = 29.43748 36.50711 32.97229
#
# Velocity S-wave (km/s) = 3.85739 4.29568 4.08242
# Velocity P-wave (km/s) = 7.24946 7.95918 7.61259
#
# Compressibility (1/GPa) = 0.01545023
#
# Stress axis : x y z
#
# Youngs Moduli (GPa) = 69.52522 116.89791 100.68790
#
# Poissons Ratio (x) = 0.17150 0.30227
# Poissons Ratio (y) = 0.10200 0.42696
# Poissons Ratio (z) = 0.20872 0.49570
#
# Static dielectric constant tensor:
#      x y z
#    x 1.719690 0.000000 0.000000 
#    y 0.000000 1.688490 0.000000 
#    z 0.000000 0.000000 1.652870 
# 
# From -- ./inp_files/26566.got.cif
#   From: 2010.05.17/outbox.cif.g08.bks.cpg/sg47_14_cif.got.tgz:26566.got - 2010.06.03 20:15:42.
