data_PCOD9386590
_publ_section_title
;
Structure prediction by ZEFSAII (Michael W. Deem and Ramdas Pophale) SiO2 
 PCOD9386590
Probable space group: P M M M
;
_chemical_formula_sum "Si O2"
_cell_formula_units_Z 48
_cell_length_a 8.795683
_cell_length_b 15.698892
_cell_length_c 17.813007
_cell_angle_alpha 90.000000
_cell_angle_beta 90.000000
_cell_angle_gamma 90.000000
_cell_volume 2459.664138
_symmetry_space_group_name_H-M "P M M M"
_symmetry_group_IT_number 47
_symmetry_cell_setting 'orthorhombic'
loop_
_space_group_symop_operation_xyz
x,y,z
-x,-y,z
x,-y,-z
-x,y,-z
-x,-y,-z
x,y,-z
-x,y,z
x,-y,z
loop_
_atom_site_type_symbol
_atom_site_label
_atom_site_fract_x
_atom_site_fract_y
_atom_site_fract_z
Si Si1 0.817602 0.000000 0.411688
Si Si2 0.319088 0.757636 0.819864
Si Si3 0.828898 0.673274 0.410621
Si Si4 0.675270 0.500000 0.408066
Si Si5 0.176393 0.904956 0.909993
Si Si6 0.314573 0.402572 0.086619
Si Si7 0.319260 0.830177 0.339692
O O1 0.757459 0.083949 0.369481
O O2 0.769783 0.000000 0.500000
O O3 0.000000 0.000000 0.410451
O O4 0.500000 0.747316 0.811143
O O5 0.281202 0.831576 0.878525
O O6 0.260177 0.668651 0.854498
O O7 0.261781 0.794158 0.740545
O O8 0.838987 0.663495 0.500000
O O9 0.758222 0.585335 0.381234
O O10 0.722079 0.752835 0.394475
O O11 0.000000 0.687945 0.381912
O O12 0.500000 0.500000 0.384708
O O13 0.677215 0.500000 0.500000
O O14 0.000000 0.890570 0.888006
O O15 0.220642 0.000000 0.883803
O O16 0.181451 0.904883 0.000000
O O17 0.500000 0.401241 0.087455
O O18 0.268221 0.500000 0.103350
O O19 0.269836 0.382573 0.000000
O O20 0.500000 0.844182 0.335630
#
# Coordination Sequence:
#
# PCOD9386590 Si02
#       7
#     4   8   8   4   8   8   8
#     4  11  25  45  67  87 106 141 196 245 291 358
#     4  10  21  35  53  82 116 147 186 233 281 338
#     4  10  20  36  58  83 112 148 192 237 280 339
#     4   9  17  31  55  85 113 143 180 227 284 337
#     4   9  19  35  54  78 108 145 188 229 275 334
#     4   8  14  28  53  82 111 147 191 234 274 319
#     4  11  24  39  56  85 119 150 185 236 298 353
#
# _framework density 19.514859999999999
#
# number of rings (size 3 to 8) (size 9 to 14) (size 15 to 20)
#    0.000    2.333    0.000    3.500    1.167    7.333 
#    1.500    0.833    0.000    0.500    0.000    2.333 
#    0.000    0.000    0.000    0.000    0.000    0.000 
#
# Total GULP energy -267677.962044 kJ/mol
# GULP energy per Si atom -5576.624209 kJ/mol
# Density = 1.947044 g / cm^3
# Si number density = 19.514860 Si / 1000 Ang^3
#
#
#
# Elastic Constant Matrix: (Units=GPa)
#
#
# Indices 1 2 3 4 5 6 
#
# 1 16.8661 19.7785 25.9947 0.0000 0.0000 0.0000
# 2 19.7785 158.5219 63.4711 0.0000 0.0000 0.0000
# 3 25.9947 63.4711 71.6220 0.0000 0.0000 0.0000
# 4 0.0000 0.0000 0.0000 25.1234 0.0000 0.0000
# 5 0.0000 0.0000 0.0000 0.0000 13.9481 0.0000
# 6 0.0000 0.0000 0.0000 0.0000 0.0000 14.0584
#
#
#
# Elastic Compliance Matrix: (Units=1/GPa)
#
#
# Indices 1 2 3 4 5 6 
#
# 1 0.136468 0.004347 -0.053383 0.000000 0.000000 0.000000
# 2 0.004347 0.009916 -0.010365 0.000000 0.000000 0.000000
# 3 -0.053383 -0.010365 0.042523 0.000000 0.000000 0.000000
# 4 0.000000 0.000000 0.000000 0.039804 0.000000 0.000000
# 5 0.000000 0.000000 0.000000 0.000000 0.071694 0.000000
# 6 0.000000 0.000000 0.000000 0.000000 0.000000 0.071132
#
#
# Mechanical properties :
#
#
# Convention : Reuss Voigt Hill
#
# Bulk Modulus (GPa) = 14.26427 51.72207 32.99317
# Shear Modulus (GPa) = 9.73318 19.81036 14.77177
#
# Velocity S-wave (km/s) = 2.23571 3.18959 2.75426
# Velocity P-wave (km/s) = 3.74030 6.33452 5.20173
#
# Compressibility (1/GPa) = 0.07010525
#
# Stress axis : x y z
#
# Youngs Moduli (GPa) = 7.32773 100.84581 23.51678
#
# Poissons Ratio (x) = -0.43839 1.25539
# Poissons Ratio (y) = -0.03185 0.24376
# Poissons Ratio (z) = 0.39117 1.04531
#
# Static dielectric constant tensor:
#      x y z
#    x 1.677450 0.000000 0.000000 
#    y 0.000000 1.674180 0.000000 
#    z 0.000000 0.000000 1.647410 
# 
# From -- ./inp_files/26525.got.cif
#   From: 2010.05.17/outbox.cif.g08.bks.cpg/sg47_14_cif.got.tgz:26525.got - 2010.06.03 20:15:42.
