data_PCOD9386085
_publ_section_title
;
Structure prediction by ZEFSAII (Michael W. Deem and Ramdas Pophale) SiO2 
 PCOD9386085
Probable space group: P M M M
;
_chemical_formula_sum "Si O2"
_cell_formula_units_Z 56
_cell_length_a 15.392486
_cell_length_b 23.486379
_cell_length_c 8.660493
_cell_angle_alpha 90.000000
_cell_angle_beta 90.000000
_cell_angle_gamma 90.000000
_cell_volume 3130.887387
_symmetry_space_group_name_H-M "P M M M"
_symmetry_group_IT_number 47
_symmetry_cell_setting 'orthorhombic'
loop_
_space_group_symop_operation_xyz
x,y,z
-x,-y,z
x,-y,-z
-x,y,-z
-x,-y,-z
x,y,-z
-x,y,z
x,-y,z
loop_
_atom_site_type_symbol
_atom_site_label
_atom_site_fract_x
_atom_site_fract_y
_atom_site_fract_z
Si Si1 0.605261 0.500000 0.177232
Si Si2 0.833633 0.883375 0.682078
Si Si3 0.100756 0.236911 0.186482
Si Si4 0.282132 0.278153 0.815447
Si Si5 0.000000 0.065991 0.173269
Si Si6 0.404033 0.818760 0.315682
Si Si7 0.399242 0.621041 0.315355
Si Si8 0.342189 0.934113 0.815506
O O1 0.500000 0.500000 0.179123
O O2 0.630485 0.441357 0.259475
O O3 0.634341 0.500000 0.000000
O O4 0.814681 0.881549 0.500000
O O5 0.862579 0.821494 0.742518
O O6 0.754049 0.912782 0.770434
O O7 0.917217 0.919211 0.726325
O O8 0.179566 0.279917 0.227290
O O9 0.000000 0.247360 0.234965
O O10 0.099676 0.232204 0.000000
O O11 0.329050 0.220197 0.757286
O O12 0.337242 0.330123 0.748612
O O13 0.287550 0.278558 0.000000
O O14 0.000000 0.000000 0.148368
O O15 0.000000 0.094098 0.000000
O O16 0.394520 0.816736 0.500000
O O17 0.500000 0.795828 0.274899
O O18 0.398667 0.884153 0.260942
O O19 0.398925 0.622917 0.500000
O O20 0.500000 0.629616 0.263921
O O21 0.356476 0.000000 0.765807
O O22 0.353399 0.932369 0.000000
#
# Coordination Sequence:
#
# PCOD9386085 Si02
#       8
#     4   8   8   8   4   8   8   8
#     4   9  17  31  53  83 120 159 200 241 275 318
#     4  12  23  35  55  80 104 131 169 220 277 338
#     4  10  21  38  59  80 108 144 181 225 281 340
#     4  11  22  36  58  85 113 149 191 233 277 331
#     4  11  23  37  53  73 101 135 169 210 267 338
#     4  11  24  40  58  81 110 142 178 228 286 337
#     4  10  20  34  54  83 122 164 199 233 277 325
#     4  11  24  41  59  77 100 135 178 223 276 339
#
# _framework density 17.886303999999999
#
# number of rings (size 3 to 8) (size 9 to 14) (size 15 to 20)
#    0.000    1.286    2.143    4.286    0.000    8.857 
#    0.000    1.429    0.000    0.000    0.000    0.500 
#    0.000    4.000    0.000    0.000    0.000    0.000 
#
# Total GULP energy -312498.227550 kJ/mol
# GULP energy per Si atom -5580.325492 kJ/mol
# Density = 1.784559 g / cm^3
# Si number density = 17.886304 Si / 1000 Ang^3
#
#
#
# Elastic Constant Matrix: (Units=GPa)
#
#
# Indices 1 2 3 4 5 6 
#
# 1 104.8664 51.8307 22.6443 0.0000 0.0000 0.0000
# 2 51.8307 115.5249 25.7279 0.0000 0.0000 0.0000
# 3 22.6443 25.7279 37.5498 0.0000 0.0000 0.0000
# 4 0.0000 0.0000 0.0000 41.4241 0.0000 0.0000
# 5 0.0000 0.0000 0.0000 0.0000 78.8395 0.0000
# 6 0.0000 0.0000 0.0000 0.0000 0.0000 19.8442
#
#
#
# Elastic Compliance Matrix: (Units=1/GPa)
#
#
# Indices 1 2 3 4 5 6 
#
# 1 0.012864 -0.004772 -0.004488 0.000000 0.000000 0.000000
# 2 -0.004772 0.011985 -0.005334 0.000000 0.000000 0.000000
# 3 -0.004488 -0.005334 0.032992 0.000000 0.000000 0.000000
# 4 0.000000 0.000000 0.000000 0.024141 0.000000 0.000000
# 5 0.000000 0.000000 0.000000 0.000000 0.012684 0.000000
# 6 0.000000 0.000000 0.000000 0.000000 0.000000 0.050393
#
#
# Mechanical properties :
#
#
# Convention : Reuss Voigt Hill
#
# Bulk Modulus (GPa) = 34.89978 50.92745 42.91361
# Shear Modulus (GPa) = 27.20398 38.53744 32.87071
#
# Velocity S-wave (km/s) = 3.90415 4.64678 4.29156
# Velocity P-wave (km/s) = 6.31487 7.57131 6.97145
#
# Compressibility (1/GPa) = 0.02865348
#
# Stress axis : x y z
#
# Youngs Moduli (GPa) = 77.73923 83.43791 30.30996
#
# Poissons Ratio (x) = 0.39815 0.13603
# Poissons Ratio (y) = 0.37096 0.16168
# Poissons Ratio (z) = 0.34888 0.44506
#
# Static dielectric constant tensor:
#      x y z
#    x 1.677750 0.000000 0.000000 
#    y 0.000000 1.607980 0.000000 
#    z 0.000000 0.000000 1.610050 
# 
# From -- ./inp_files/7408.got.cif
#   From: 2010.05.17/outbox.cif.g08.bks.cpg/sg47_4_cif.got.tgz:7408.got - 2010.06.03 20:15:42.
