data_PCOD9386526
_publ_section_title
;
Structure prediction by ZEFSAII (Michael W. Deem and Ramdas Pophale) SiO2 
 PCOD9386526
Probable space group: P M M M
;
_chemical_formula_sum "Si O2"
_cell_formula_units_Z 44
_cell_length_a 31.288282
_cell_length_b 9.184415
_cell_length_c 7.999931
_cell_angle_alpha 90.000000
_cell_angle_beta 90.000000
_cell_angle_gamma 90.000000
_cell_volume 2298.896704
_symmetry_space_group_name_H-M "P M M M"
_symmetry_group_IT_number 47
_symmetry_cell_setting 'orthorhombic'
loop_
_space_group_symop_operation_xyz
x,y,z
-x,-y,z
x,-y,-z
-x,y,-z
-x,-y,-z
x,y,-z
-x,y,z
x,-y,z
loop_
_atom_site_type_symbol
_atom_site_label
_atom_site_fract_x
_atom_site_fract_y
_atom_site_fract_z
Si Si1 0.893273 0.174826 0.312836
Si Si2 0.951036 0.822580 0.000000
Si Si3 0.638040 0.333146 0.700420
Si Si4 0.277593 0.832907 0.702795
Si Si5 0.808452 0.668717 0.198963
Si Si6 0.453915 0.671024 0.798888
O O1 0.909308 0.206389 0.500000
O O2 0.925254 0.222309 0.165827
O O3 0.847494 0.248907 0.286231
O O4 0.887930 0.000000 0.298774
O O5 0.000000 0.772495 0.000000
O O6 0.951776 0.000000 0.000000
O O7 0.641171 0.340426 0.500000
O O8 0.640067 0.500000 0.765481
O O9 0.678401 0.241515 0.761591
O O10 0.591388 0.268039 0.740398
O O11 0.277765 0.831692 0.500000
O O12 0.236441 0.744149 0.761008
O O13 0.274947 0.000000 0.758221
O O14 0.807174 0.500000 0.250269
O O15 0.815751 0.675893 0.000000
O O16 0.500000 0.732276 0.741833
O O17 0.453575 0.500000 0.747728
O O18 0.453843 0.674923 0.000000
#
# Coordination Sequence:
#
# PCOD9386526 Si02
#       6
#     8   4   8   8   8   8
#     4  10  20  35  58  86 116 153 193 233 281 332
#     4   9  18  34  57  87 123 157 191 237 282 323
#     4   9  17  29  46  69  97 127 162 208 258 309
#     4  10  21  36  53  74 102 137 175 215 265 324
#     4  11  23  37  55  80 109 142 182 227 275 328
#     4   8  14  25  42  65  92 121 155 199 251 305
#
# _framework density 19.139617000000001
#
# number of rings (size 3 to 8) (size 9 to 14) (size 15 to 20)
#    0.000    2.455    0.909    2.182    0.000    6.182 
#    0.000    5.455    0.000    1.636    0.000    5.091 
#    0.000    0.000    0.000    0.000    0.000    0.000 
#
# Total GULP energy -245417.612078 kJ/mol
# GULP energy per Si atom -5577.673002 kJ/mol
# Density = 1.909605 g / cm^3
# Si number density = 19.139617 Si / 1000 Ang^3
#
#
#
# Elastic Constant Matrix: (Units=GPa)
#
#
# Indices 1 2 3 4 5 6 
#
# 1 180.6391 46.7601 56.0265 0.0000 0.0000 0.0000
# 2 46.7601 48.5637 32.6345 0.0000 0.0000 0.0000
# 3 56.0265 32.6345 67.0528 0.0000 0.0000 0.0000
# 4 0.0000 0.0000 0.0000 14.5989 0.0000 0.0000
# 5 0.0000 0.0000 0.0000 0.0000 46.8719 0.0000
# 6 0.0000 0.0000 0.0000 0.0000 0.0000 23.4872
#
#
#
# Elastic Compliance Matrix: (Units=1/GPa)
#
#
# Indices 1 2 3 4 5 6 
#
# 1 0.008183 -0.004881 -0.004462 0.000000 0.000000 0.000000
# 2 -0.004881 0.033510 -0.012231 0.000000 0.000000 0.000000
# 3 -0.004462 -0.012231 0.024595 0.000000 0.000000 0.000000
# 4 0.000000 0.000000 0.000000 0.068498 0.000000 0.000000
# 5 0.000000 0.000000 0.000000 0.000000 0.021335 0.000000
# 6 0.000000 0.000000 0.000000 0.000000 0.000000 0.042576
#
#
# Mechanical properties :
#
#
# Convention : Reuss Voigt Hill
#
# Bulk Modulus (GPa) = 43.21482 63.01088 53.11285
# Shear Modulus (GPa) = 20.03524 27.71388 23.87456
#
# Velocity S-wave (km/s) = 3.23893 3.80937 3.53567
# Velocity P-wave (km/s) = 6.05106 7.23475 6.66921
#
# Compressibility (1/GPa) = 0.02314021
#
# Stress axis : x y z
#
# Youngs Moduli (GPa) = 122.19978 29.84140 40.65876
#
# Poissons Ratio (x) = 0.14565 0.18142
# Poissons Ratio (y) = 0.59644 0.49731
# Poissons Ratio (z) = 0.54527 0.36500
#
# Static dielectric constant tensor:
#      x y z
#    x 1.658380 0.000000 0.000000 
#    y 0.000000 1.653120 0.000000 
#    z 0.000000 0.000000 1.686920 
# 
# From -- ./inp_files/13674.got.cif
#   From: 2010.05.17/outbox.cif.g08.bks.cpg/sg47_7_cif.got.tgz:13674.got - 2010.06.03 20:15:42.
