data_PCOD9386485
_publ_section_title
;
Structure prediction by ZEFSAII (Michael W. Deem and Ramdas Pophale) SiO2 
 PCOD9386485
Probable space group: P M M M
;
_chemical_formula_sum "Si O2"
_cell_formula_units_Z 48
_cell_length_a 10.166587
_cell_length_b 8.540429
_cell_length_c 29.819581
_cell_angle_alpha 90.000000
_cell_angle_beta 90.000000
_cell_angle_gamma 90.000000
_cell_volume 2589.145190
_symmetry_space_group_name_H-M "P M M M"
_symmetry_group_IT_number 47
_symmetry_cell_setting 'orthorhombic'
loop_
_space_group_symop_operation_xyz
x,y,z
-x,-y,z
x,-y,-z
-x,y,-z
-x,-y,-z
x,y,-z
-x,y,z
x,-y,z
loop_
_atom_site_type_symbol
_atom_site_label
_atom_site_fract_x
_atom_site_fract_y
_atom_site_fract_z
Si Si1 0.348116 0.687255 0.196978
Si Si2 0.847595 0.810887 0.625550
Si Si3 0.351726 0.688800 0.447477
Si Si4 0.500000 0.190736 0.051316
Si Si5 0.754506 0.187638 0.893312
Si Si6 0.000000 0.687439 0.948309
Si Si7 0.651156 0.189094 0.295931
O O1 0.500000 0.736228 0.187547
O O2 0.343199 0.500000 0.197740
O O3 0.258121 0.750964 0.157220
O O4 0.315880 0.751796 0.246173
O O5 0.764117 0.758375 0.582383
O O6 0.759187 0.757639 0.668000
O O7 0.000000 0.756561 0.626033
O O8 0.850653 0.000000 0.626488
O O9 0.337043 0.729491 0.500000
O O10 0.500000 0.739507 0.433181
O O11 0.347960 0.500000 0.444174
O O12 0.373281 0.240766 0.078961
O O13 0.500000 0.000000 0.050163
O O14 0.500000 0.245527 0.000000
O O15 0.876015 0.251068 0.921030
O O16 0.757623 0.000000 0.892222
O O17 0.000000 0.500000 0.948842
O O18 0.000000 0.743201 0.000000
O O19 0.500000 0.240077 0.306449
O O20 0.650876 0.000000 0.295774
#
# Coordination Sequence:
#
# PCOD9386485 Si02
#       7
#     8   8   8   4   8   4   8
#     4  10  20  35  57  85 116 146 182 231 287 341
#     4  10  21  36  54  81 116 150 186 233 285 337
#     4   9  19  36  57  81 110 147 192 238 282 334
#     4   9  18  32  55  87 115 139 179 233 276 319
#     4  11  21  37  61  86 114 149 190 233 278 332
#     4  11  25  43  59  81 117 155 189 229 280 337
#     4   9  18  34  56  78 104 143 190 234 278 331
#
# _framework density 18.538937000000001
#
# number of rings (size 3 to 8) (size 9 to 14) (size 15 to 20)
#    0.000    2.167    0.833    2.750    0.000    4.667 
#    1.500    4.167    0.000    2.000    0.000    0.000 
#    0.000    0.000    0.000    0.000    0.000    0.000 
#
# Total GULP energy -267906.956540 kJ/mol
# GULP energy per Si atom -5581.394928 kJ/mol
# Density = 1.849674 g / cm^3
# Si number density = 18.538937 Si / 1000 Ang^3
#
#
#
# Elastic Constant Matrix: (Units=GPa)
#
#
# Indices 1 2 3 4 5 6 
#
# 1 175.6803 28.4735 105.3464 0.0000 0.0000 0.0000
# 2 28.4735 17.2112 24.1415 0.0000 0.0000 0.0000
# 3 105.3464 24.1415 148.4044 0.0000 0.0000 0.0000
# 4 0.0000 0.0000 0.0000 140.8955 0.0000 0.0000
# 5 0.0000 0.0000 0.0000 0.0000 32.1518 0.0000
# 6 0.0000 0.0000 0.0000 0.0000 0.0000 31.3940
#
#
#
# Elastic Compliance Matrix: (Units=1/GPa)
#
#
# Indices 1 2 3 4 5 6 
#
# 1 0.010962 -0.009355 -0.006260 0.000000 0.000000 0.000000
# 2 -0.009355 0.083262 -0.006904 0.000000 0.000000 0.000000
# 3 -0.006260 -0.006904 0.012305 0.000000 0.000000 0.000000
# 4 0.000000 0.000000 0.000000 0.007097 0.000000 0.000000
# 5 0.000000 0.000000 0.000000 0.000000 0.031102 0.000000
# 6 0.000000 0.000000 0.000000 0.000000 0.000000 0.031853
#
#
# Mechanical properties :
#
#
# Convention : Reuss Voigt Hill
#
# Bulk Modulus (GPa) = 16.26232 73.02433 44.64332
# Shear Modulus (GPa) = 20.65128 53.11055 36.88092
#
# Velocity S-wave (km/s) = 3.34120 5.35820 4.46508
# Velocity P-wave (km/s) = 4.86578 8.81791 7.12150
#
# Compressibility (1/GPa) = 0.06149184
#
# Stress axis : x y z
#
# Youngs Moduli (GPa) = 91.22474 12.01032 81.26835
#
# Poissons Ratio (x) = 0.11235 0.50871
# Poissons Ratio (y) = 0.85339 0.56107
# Poissons Ratio (z) = 0.57104 0.08292
#
# Static dielectric constant tensor:
#      x y z
#    x 1.615290 0.000000 0.000000 
#    y 0.000000 1.626650 0.000000 
#    z 0.000000 0.000000 1.621290 
# 
# From -- ./inp_files/2540.got.cif
#   From: 2010.05.17/outbox.cif.g08.bks.cpg/sg47_2_cif.got.tgz:2540.got - 2010.06.03 20:15:42.
