data_PCOD9386855
_publ_section_title
;
Structure prediction by ZEFSAII (Michael W. Deem and Ramdas Pophale) SiO2 
 PCOD9386855
Probable space group: P M M M
;
_chemical_formula_sum "Si O2"
_cell_formula_units_Z 40
_cell_length_a 8.035472
_cell_length_b 30.922247
_cell_length_c 7.808072
_cell_angle_alpha 90.000000
_cell_angle_beta 90.000000
_cell_angle_gamma 90.000000
_cell_volume 1940.109519
_symmetry_space_group_name_H-M "P M M M"
_symmetry_group_IT_number 47
_symmetry_cell_setting 'orthorhombic'
loop_
_space_group_symop_operation_xyz
x,y,z
-x,-y,z
x,-y,-z
-x,y,-z
-x,-y,-z
x,y,-z
-x,y,z
x,-y,z
loop_
_atom_site_type_symbol
_atom_site_label
_atom_site_fract_x
_atom_site_fract_y
_atom_site_fract_z
Si Si1 0.697863 0.389738 0.805197
Si Si2 0.814889 0.296832 0.203852
Si Si3 0.307000 0.890670 0.289720
Si Si4 0.295492 0.549900 0.500000
Si Si5 0.000000 0.950324 0.290728
Si Si6 0.300942 0.203400 0.691471
O O1 0.500000 0.395755 0.816533
O O2 0.725973 0.340708 0.738547
O O3 0.762168 0.424207 0.668428
O O4 0.765005 0.394436 0.000000
O O5 0.737648 0.249888 0.232301
O O6 0.000000 0.296444 0.276876
O O7 0.822629 0.301488 0.000000
O O8 0.308465 0.889039 0.500000
O O9 0.500000 0.899317 0.238694
O O10 0.251882 0.842621 0.228374
O O11 0.168153 0.925242 0.237776
O O12 0.245164 0.500000 0.500000
O O13 0.500000 0.550870 0.500000
O O14 0.000000 0.950083 0.500000
O O15 0.000000 0.000000 0.234479
O O16 0.229616 0.204331 0.500000
O O17 0.500000 0.200054 0.682098
#
# Coordination Sequence:
#
# PCOD9386855 Si02
#       6
#     8   8   8   4   4   8
#     4   9  18  33  52  73 102 138 170 212 268 316
#     4  10  21  34  48  71 102 133 166 206 251 305
#     4   8  15  27  40  59  90 123 160 209 257 308
#     4   9  18  32  53  81 105 129 173 227 267 312
#     4   9  16  24  38  60  87 127 171 209 255 310
#     4   9  18  31  48  70  95 128 167 205 251 307
#
# _framework density 20.617394000000001
#
# number of rings (size 3 to 8) (size 9 to 14) (size 15 to 20)
#    0.000    3.000    0.000    1.800    2.800    2.400 
#    0.000    4.000    0.000    1.200    0.000    2.800 
#    0.000    1.600    0.000    4.400    0.000    4.400 
#
# Total GULP energy -222811.559817 kJ/mol
# GULP energy per Si atom -5570.288995 kJ/mol
# Density = 2.057047 g / cm^3
# Si number density = 20.617394 Si / 1000 Ang^3
#
#
#
# Elastic Constant Matrix: (Units=GPa)
#
#
# Indices 1 2 3 4 5 6 
#
# 1 50.8749 57.0104 20.1270 0.0000 0.0000 0.0000
# 2 57.0104 221.6590 58.5151 0.0000 0.0000 0.0000
# 3 20.1270 58.5151 50.2270 0.0000 0.0000 0.0000
# 4 0.0000 0.0000 0.0000 33.7416 0.0000 0.0000
# 5 0.0000 0.0000 0.0000 0.0000 3.7959 0.0000
# 6 0.0000 0.0000 0.0000 0.0000 0.0000 -762.3139
#
#
#
# Elastic Compliance Matrix: (Units=1/GPa)
#
#
# Indices 1 2 3 4 5 6 
#
# 1 0.028192 -0.006165 -0.004115 0.000000 0.000000 0.000000
# 2 -0.006165 0.007863 -0.006690 0.000000 0.000000 0.000000
# 3 -0.004115 -0.006690 0.029353 0.000000 0.000000 0.000000
# 4 0.000000 0.000000 0.000000 0.029637 0.000000 0.000000
# 5 0.000000 0.000000 0.000000 0.000000 0.263443 0.000000
# 6 0.000000 0.000000 0.000000 0.000000 0.000000 -0.001312
#
#
# Mechanical properties :
#
#
# Convention : Reuss Voigt Hill
#
# Bulk Modulus (GPa) = 31.77855 66.00733 48.89294
# Shear Modulus (GPa) = 12.44999 -132.48140 -60.01570
#
# Velocity S-wave (km/s) = 2.46002 -8.02475 -5.40115
# Velocity P-wave (km/s) = 4.84932 7.33330 3.88982
#
# Compressibility (1/GPa) = 0.03146777
#
# Stress axis : x y z
#
# Youngs Moduli (GPa) = 35.47081 127.17584 34.06793
#
# Poissons Ratio (x) = 0.78399 0.14020
# Poissons Ratio (y) = 0.21866 0.22793
# Poissons Ratio (z) = 0.14598 0.85085
#
# Static dielectric constant tensor:
#      x y z
#    x 1.735930 0.000000 0.000000 
#    y 0.000000 1.751760 0.000000 
#    z 0.000000 0.000000 1.806730 
# 
# From -- ./inp_files/1828.got.cif
#   From: 2010.05.17/outbox.cif.g08.bks.cpg/sg47_1_cif.got.tgz:1828.got - 2010.06.03 20:15:42.
