data_PCOD9386680
_publ_section_title
;
Structure prediction by ZEFSAII (Michael W. Deem and Ramdas Pophale) SiO2 
 PCOD9386680
Probable space group: P M M M
;
_chemical_formula_sum "Si O2"
_cell_formula_units_Z 37
_cell_length_a 7.730777
_cell_length_b 14.534043
_cell_length_c 17.158006
_cell_angle_alpha 90.000000
_cell_angle_beta 90.000000
_cell_angle_gamma 90.000000
_cell_volume 1927.864037
_symmetry_space_group_name_H-M "P M M M"
_symmetry_group_IT_number 47
_symmetry_cell_setting 'orthorhombic'
loop_
_space_group_symop_operation_xyz
x,y,z
-x,-y,z
x,-y,-z
-x,y,-z
-x,-y,-z
x,y,-z
-x,y,z
x,-y,z
loop_
_atom_site_type_symbol
_atom_site_label
_atom_site_fract_x
_atom_site_fract_y
_atom_site_fract_z
Si Si1 0.308427 0.652855 0.000000
Si Si2 0.709372 0.104895 0.728756
Si Si3 0.205343 0.732191 0.839432
Si Si4 0.208762 0.604584 0.302880
Si Si5 0.000000 0.500000 0.000000
Si Si6 0.707171 0.768503 0.587526
O O1 0.289440 0.713678 0.922194
O O2 0.500000 0.610762 0.000000
O O3 0.153116 0.579719 0.000000
O O4 0.500000 0.104031 0.726146
O O5 0.761790 0.168812 0.800998
O O6 0.772374 0.157119 0.650505
O O7 0.769769 0.000000 0.733295
O O8 0.268649 0.657556 0.775136
O O9 0.000000 0.719207 0.848008
O O10 0.272001 0.500000 0.307319
O O11 0.257479 0.668580 0.375550
O O12 0.000000 0.602073 0.299431
O O13 0.776034 0.778058 0.500000
O O14 0.500000 0.779647 0.583947
#
# Coordination Sequence:
#
# PCOD9386680 Si02
#       6
#     4   8   8   8   1   8
#     4  12  25  41  64  91 124 163 199 242 292 340
#     4   9  18  34  56  81 108 142 189 240 291 355
#     4  10  20  37  59  81 116 149 187 241 292 347
#     4   9  19  33  52  73 101 143 184 227 280 338
#     4  12  26  44  60  94 130 160 200 248 284 338
#     4   9  18  32  49  73 106 141 180 231 289 345
#
# _framework density 19.192226000000002
#
# number of rings (size 3 to 8) (size 9 to 14) (size 15 to 20)
#    0.000    2.378    1.081    0.811    1.514    3.027 
#    0.000    4.865    0.000    3.243    0.000    6.054 
#    0.000    0.000    0.000    0.000    0.000    0.000 
#
# Total GULP energy -206206.991409 kJ/mol
# GULP energy per Si atom -5573.161930 kJ/mol
# Density = 1.914854 g / cm^3
# Si number density = 19.192226 Si / 1000 Ang^3
#
#
#
# Elastic Constant Matrix: (Units=GPa)
#
#
# Indices 1 2 3 4 5 6 
#
# 1 68.7452 20.5511 24.2631 0.0000 0.0000 0.0000
# 2 20.5511 167.1012 78.8792 0.0000 0.0000 0.0000
# 3 24.2631 78.8792 159.4498 0.0000 0.0000 0.0000
# 4 0.0000 0.0000 0.0000 45.4393 0.0000 0.0000
# 5 0.0000 0.0000 0.0000 0.0000 16.0315 0.0000
# 6 0.0000 0.0000 0.0000 0.0000 0.0000 22.4977
#
#
#
# Elastic Compliance Matrix: (Units=1/GPa)
#
#
# Indices 1 2 3 4 5 6 
#
# 1 0.015508 -0.001035 -0.001848 0.000000 0.000000 0.000000
# 2 -0.001035 0.007877 -0.003739 0.000000 0.000000 0.000000
# 3 -0.001848 -0.003739 0.008402 0.000000 0.000000 0.000000
# 4 0.000000 0.000000 0.000000 0.022007 0.000000 0.000000
# 5 0.000000 0.000000 0.000000 0.000000 0.062377 0.000000
# 6 0.000000 0.000000 0.000000 0.000000 0.000000 0.044449
#
#
# Mechanical properties :
#
#
# Convention : Reuss Voigt Hill
#
# Bulk Modulus (GPa) = 53.92753 71.40920 62.66836
# Shear Modulus (GPa) = 27.77072 34.90056 31.33564
#
# Velocity S-wave (km/s) = 3.80804 4.26898 4.04508
# Velocity P-wave (km/s) = 6.89163 7.84774 7.38518
#
# Compressibility (1/GPa) = 0.01854341
#
# Stress axis : x y z
#
# Youngs Moduli (GPa) = 64.48258 126.95676 119.01296
#
# Poissons Ratio (x) = 0.13140 0.21991
# Poissons Ratio (y) = 0.06674 0.44500
# Poissons Ratio (z) = 0.11915 0.47470
#
# Static dielectric constant tensor:
#      x y z
#    x 1.709140 0.000000 0.000000 
#    y 0.000000 1.643490 0.000000 
#    z 0.000000 0.000000 1.657220 
# 
# From -- ./inp_files/20587.got.cif
#   From: 2010.05.17/outbox.cif.g08.bks.cpg/sg47_11_cif.got.tgz:20587.got - 2010.06.03 20:15:42.
