data_PCOD9386466
_publ_section_title
;
Structure prediction by ZEFSAII (Michael W. Deem and Ramdas Pophale) SiO2 
 PCOD9386466
Probable space group: P M M M
;
_chemical_formula_sum "Si O2"
_cell_formula_units_Z 44
_cell_length_a 29.055390
_cell_length_b 9.133921
_cell_length_c 9.136849
_cell_angle_alpha 90.000000
_cell_angle_beta 90.000000
_cell_angle_gamma 90.000000
_cell_volume 2424.825038
_symmetry_space_group_name_H-M "P M M M"
_symmetry_group_IT_number 47
_symmetry_cell_setting 'orthorhombic'
loop_
_space_group_symop_operation_xyz
x,y,z
-x,-y,z
x,-y,-z
-x,y,-z
-x,-y,-z
x,y,-z
-x,y,z
x,-y,z
loop_
_atom_site_type_symbol
_atom_site_label
_atom_site_fract_x
_atom_site_fract_y
_atom_site_fract_z
Si Si1 0.947971 0.175715 0.172572
Si Si2 0.232146 0.324633 0.826722
Si Si3 0.500000 0.168517 0.822020
Si Si4 0.594378 0.326737 0.824025
Si Si5 0.137176 0.324251 0.670270
Si Si6 0.681280 0.826121 0.674156
O O1 0.908147 0.251296 0.263821
O O2 0.000000 0.219511 0.215943
O O3 0.944902 0.000000 0.187557
O O4 0.942440 0.209873 0.000000
O O5 0.237804 0.500000 0.804677
O O6 0.182857 0.281654 0.759580
O O7 0.273256 0.241349 0.746982
O O8 0.233119 0.296458 0.000000
O O9 0.546385 0.252064 0.777801
O O10 0.500000 0.000000 0.772747
O O11 0.500000 0.167999 0.000000
O O12 0.593316 0.500000 0.794797
O O13 0.636999 0.251261 0.744472
O O14 0.599322 0.307633 0.000000
O O15 0.142897 0.285937 0.500000
O O16 0.132758 0.500000 0.681433
O O17 0.682252 0.801406 0.500000
O O18 0.679167 0.000000 0.701009
#
# Coordination Sequence:
#
# PCOD9386466 Si02
#       6
#     8   8   4   8   8   8
#     4   9  19  36  56  78 106 142 184 227 270 318
#     4  10  21  38  60  83 106 137 179 223 268 321
#     4   9  17  31  54  83 114 147 182 224 272 319
#     4  10  20  35  57  84 112 144 184 227 271 321
#     4  10  21  36  55  81 112 144 178 219 269 324
#     4  11  24  39  55  79 111 145 181 222 270 323
#
# _framework density 18.145638000000002
#
# number of rings (size 3 to 8) (size 9 to 14) (size 15 to 20)
#    0.000    2.091    0.000    3.545    0.000    9.818 
#    0.000    3.182    0.000    2.727    0.000    0.000 
#    0.000    0.000    0.000    0.000    0.000    0.000 
#
# Total GULP energy -245769.402387 kJ/mol
# GULP energy per Si atom -5585.668236 kJ/mol
# Density = 1.810434 g / cm^3
# Si number density = 18.145638 Si / 1000 Ang^3
#
#
#
# Elastic Constant Matrix: (Units=GPa)
#
#
# Indices 1 2 3 4 5 6 
#
# 1 203.2285 95.0657 94.4725 0.0000 0.0000 0.0000
# 2 95.0657 86.7649 77.5241 0.0000 0.0000 0.0000
# 3 94.4725 77.5241 87.7151 0.0000 0.0000 0.0000
# 4 0.0000 0.0000 0.0000 28.5461 0.0000 0.0000
# 5 0.0000 0.0000 0.0000 0.0000 -43.0724 0.0000
# 6 0.0000 0.0000 0.0000 0.0000 0.0000 53.3039
#
#
#
# Elastic Compliance Matrix: (Units=1/GPa)
#
#
# Indices 1 2 3 4 5 6 
#
# 1 0.010622 -0.006735 -0.005488 0.000000 0.000000 0.000000
# 2 -0.006735 0.059071 -0.044955 0.000000 0.000000 0.000000
# 3 -0.005488 -0.044955 0.057043 0.000000 0.000000 0.000000
# 4 0.000000 0.000000 0.000000 0.035031 0.000000 0.000000
# 5 0.000000 0.000000 0.000000 0.000000 -0.023217 0.000000
# 6 0.000000 0.000000 0.000000 0.000000 0.000000 0.018760
#
#
# Mechanical properties :
#
#
# Convention : Reuss Voigt Hill
#
# Bulk Modulus (GPa) = 80.76561 101.31480 91.04020
# Shear Modulus (GPa) = 18.12948 15.13196 16.63072
#
# Velocity S-wave (km/s) = 3.16430 2.89089 3.03068
# Velocity P-wave (km/s) = 7.61293 8.19137 7.90744
#
# Compressibility (1/GPa) = 0.01238151
#
# Stress axis : x y z
#
# Youngs Moduli (GPa) = 94.14300 16.92870 17.53050
#
# Poissons Ratio (x) = 0.11401 0.09621
# Poissons Ratio (y) = 0.63402 0.78808
# Poissons Ratio (z) = 0.51668 0.76103
#
# Static dielectric constant tensor:
#      x y z
#    x 1.588690 0.000000 0.000000 
#    y 0.000000 1.605180 0.000000 
#    z 0.000000 0.000000 1.603030 
# 
# From -- ./inp_files/13687.got.cif
#   From: 2010.05.17/outbox.cif.g08.bks.cpg/sg47_7_cif.got.tgz:13687.got - 2010.06.03 20:15:42.
