data_PCOD9386295
_publ_section_title
;
Structure prediction by ZEFSAII (Michael W. Deem and Ramdas Pophale) SiO2 
 PCOD9386295
Probable space group: P M M M
;
_chemical_formula_sum "Si O2"
_cell_formula_units_Z 56
_cell_length_a 13.661762
_cell_length_b 7.510587
_cell_length_c 21.694701
_cell_angle_alpha 90.000000
_cell_angle_beta 90.000000
_cell_angle_gamma 90.000000
_cell_volume 2226.046671
_symmetry_space_group_name_H-M "P M M M"
_symmetry_group_IT_number 47
_symmetry_cell_setting 'orthorhombic'
loop_
_space_group_symop_operation_xyz
x,y,z
-x,-y,z
x,-y,-z
-x,y,-z
-x,-y,-z
x,y,-z
-x,y,z
x,-y,z
loop_
_atom_site_type_symbol
_atom_site_label
_atom_site_fract_x
_atom_site_fract_y
_atom_site_fract_z
Si Si1 0.385810 0.284437 0.500000
Si Si2 0.605625 0.706737 0.101041
Si Si3 0.313390 0.285295 0.364803
Si Si4 0.892423 0.298124 0.365116
Si Si5 0.677023 0.787968 0.766784
Si Si6 0.107144 0.793198 0.199447
Si Si7 0.178848 0.283779 0.932412
Si Si8 0.884863 0.197347 0.500000
O O1 0.373523 0.500000 0.500000
O O2 0.500000 0.244078 0.500000
O O3 0.346082 0.222130 0.432836
O O4 0.500000 0.785143 0.083594
O O5 0.604074 0.500000 0.082100
O O6 0.617406 0.715362 0.175128
O O7 0.708289 0.779354 0.075488
O O8 0.306695 0.500000 0.369699
O O9 0.207012 0.205077 0.346387
O O10 0.368420 0.250653 0.300586
O O11 0.896676 0.500000 0.341939
O O12 0.869429 0.304201 0.438257
O O13 0.000000 0.216338 0.356839
O O14 0.789532 0.715652 0.776130
O O15 0.680893 0.000000 0.774784
O O16 0.118315 0.783017 0.125763
O O17 0.000000 0.716711 0.217276
O O18 0.105129 0.000000 0.218361
O O19 0.178538 0.500000 0.928539
O O20 0.142583 0.233144 0.000000
O O21 0.000000 0.169807 0.500000
O O22 0.838686 0.000000 0.500000
#
# Coordination Sequence:
#
# PCOD9386295 Si02
#       8
#     4   8   8   8   8   8   8   4
#     4   9  19  36  56  76  98 127 164 205 250 308
#     4   9  18  34  56  79 104 139 181 221 265 322
#     4  10  20  35  55  77 100 129 168 210 256 317
#     4   9  17  29  45  66  93 123 153 189 238 296
#     4  10  21  36  54  78 107 137 173 223 276 319
#     4   9  19  36  55  75 105 149 194 227 259 308
#     4   9  18  32  51  80 116 147 179 225 275 316
#     4   9  16  25  39  61  88 117 149 184 223 275
#
# _framework density 25.156704000000001
#
# number of rings (size 3 to 8) (size 9 to 14) (size 15 to 20)
#    0.000    2.714    0.000    1.071    0.000    5.714 
#    0.000    4.643    0.000    0.429    0.000    4.000 
#    0.000    0.000    0.000    0.000    0.000    0.000 
#
# Total GULP energy -312231.706155 kJ/mol
# GULP energy per Si atom -5575.566181 kJ/mol
# Density = 2.509945 g / cm^3
# Si number density = 25.156704 Si / 1000 Ang^3
#
#
#
# Elastic Constant Matrix: (Units=GPa)
#
#
# Indices 1 2 3 4 5 6 
#
# 1 98.9400 4.0327 6.7771 0.0000 0.0000 0.0000
# 2 4.0327 90.0852 -5.6410 0.0000 0.0000 0.0000
# 3 6.7771 -5.6410 163.2925 0.0000 0.0000 0.0000
# 4 0.0000 0.0000 0.0000 46.0947 0.0000 0.0000
# 5 0.0000 0.0000 0.0000 0.0000 -10.0931 0.0000
# 6 0.0000 0.0000 0.0000 0.0000 0.0000 1.8194
#
#
#
# Elastic Compliance Matrix: (Units=1/GPa)
#
#
# Indices 1 2 3 4 5 6 
#
# 1 0.010157 -0.000482 -0.000438 0.000000 0.000000 0.000000
# 2 -0.000482 0.011148 0.000405 0.000000 0.000000 0.000000
# 3 -0.000438 0.000405 0.006156 0.000000 0.000000 0.000000
# 4 0.000000 0.000000 0.000000 0.021694 0.000000 0.000000
# 5 0.000000 0.000000 0.000000 0.000000 -0.099078 0.000000
# 6 0.000000 0.000000 0.000000 0.000000 0.000000 0.549642
#
#
# Mechanical properties :
#
#
# Convention : Reuss Voigt Hill
#
# Bulk Modulus (GPa) = 37.83562 40.29504 39.06533
# Shear Modulus (GPa) = 9.81238 30.70745 20.25992
#
# Velocity S-wave (km/s) = 1.97711 3.49757 2.84095
# Velocity P-wave (km/s) = 4.50384 5.68885 5.13067
#
# Compressibility (1/GPa) = 0.02643012
#
# Stress axis : x y z
#
# Youngs Moduli (GPa) = 98.45622 89.70576 162.43893
#
# Poissons Ratio (x) = 0.04325 0.07118
# Poissons Ratio (y) = 0.04747 -0.06580
# Poissons Ratio (z) = 0.04314 -0.03634
#
# Static dielectric constant tensor:
#      x y z
#    x 2.032530 0.000000 0.000000 
#    y 0.000000 2.003450 0.000000 
#    z 0.000000 0.000000 2.029270 
# 
# From -- ./inp_files/31010.got.cif
#   From: 2010.05.17/outbox.cif.g08.bks.cpg/sg47_16_cif.got.tgz:31010.got - 2010.06.03 20:15:42.
