data_PCOD9386109
_publ_section_title
;
Structure prediction by ZEFSAII (Michael W. Deem and Ramdas Pophale) SiO2 
 PCOD9386109
Probable space group: P M M M
;
_chemical_formula_sum "Si O2"
_cell_formula_units_Z 52
_cell_length_a 13.287595
_cell_length_b 23.934562
_cell_length_c 8.651538
_cell_angle_alpha 90.000000
_cell_angle_beta 90.000000
_cell_angle_gamma 90.000000
_cell_volume 2751.472563
_symmetry_space_group_name_H-M "P M M M"
_symmetry_group_IT_number 47
_symmetry_cell_setting 'orthorhombic'
loop_
_space_group_symop_operation_xyz
x,y,z
-x,-y,z
x,-y,-z
-x,y,-z
-x,-y,-z
x,y,-z
-x,y,z
x,-y,z
loop_
_atom_site_type_symbol
_atom_site_label
_atom_site_fract_x
_atom_site_fract_y
_atom_site_fract_z
Si Si1 0.000000 0.762498 0.188589
Si Si2 0.500000 0.067744 0.825669
Si Si3 0.385948 0.629964 0.685142
Si Si4 0.803477 0.564506 0.186858
Si Si5 0.198451 0.170827 0.186629
Si Si6 0.714626 0.064178 0.684402
Si Si7 0.387122 0.245119 0.813308
Si Si8 0.000000 0.366237 0.188779
O O1 0.099768 0.795559 0.236918
O O2 0.000000 0.698139 0.239938
O O3 0.000000 0.761406 0.000000
O O4 0.603616 0.082249 0.742303
O O5 0.500000 0.000000 0.832658
O O6 0.500000 0.090580 0.000000
O O7 0.380532 0.630806 0.500000
O O8 0.500000 0.612691 0.729853
O O9 0.299537 0.590529 0.750963
O O10 0.371165 0.692743 0.748374
O O11 0.815226 0.500000 0.233747
O O12 0.899413 0.601198 0.237733
O O13 0.800992 0.566336 0.000000
O O14 0.206842 0.108325 0.249465
O O15 0.297891 0.204642 0.237644
O O16 0.198958 0.168816 0.000000
O O17 0.715802 0.064922 0.500000
O O18 0.731369 0.000000 0.736221
O O19 0.500000 0.226453 0.768309
O O20 0.383889 0.248112 0.000000
O O21 0.000000 0.366174 0.000000
#
# Coordination Sequence:
#
# PCOD9386109 Si02
#       8
#     4   4   8   8   8   8   8   4
#     4   9  18  33  54  81 108 139 178 227 280 327
#     4   9  17  31  53  79 107 141 179 217 260 315
#     4  10  21  36  53  75 108 150 189 224 268 323
#     4  10  20  34  56  85 112 141 180 225 273 327
#     4  10  20  34  55  81 109 140 182 229 276 329
#     4  10  21  36  53  77 111 148 183 222 272 326
#     4   9  18  33  54  80 107 137 178 229 278 326
#     4   9  17  34  60  85 111 138 172 223 284 333
#
# _framework density 18.898972000000001
#
# number of rings (size 3 to 8) (size 9 to 14) (size 15 to 20)
#    0.000    2.385    0.000    2.308    1.077    7.385 
#    0.000    2.692    0.000    4.154    0.000    0.000 
#    0.000    0.000    0.000    0.000    0.000    0.000 
#
# Total GULP energy -290293.544471 kJ/mol
# GULP energy per Si atom -5582.568163 kJ/mol
# Density = 1.885596 g / cm^3
# Si number density = 18.898972 Si / 1000 Ang^3
#
#
#
# Elastic Constant Matrix: (Units=GPa)
#
#
# Indices 1 2 3 4 5 6 
#
# 1 150.9368 112.8148 27.5345 0.0000 0.0000 0.0000
# 2 112.8148 153.4334 26.0119 0.0000 0.0000 0.0000
# 3 27.5345 26.0119 11.4815 0.0000 0.0000 0.0000
# 4 0.0000 0.0000 0.0000 3.9889 0.0000 0.0000
# 5 0.0000 0.0000 0.0000 0.0000 11.4371 0.0000
# 6 0.0000 0.0000 0.0000 0.0000 0.0000 31.6979
#
#
#
# Elastic Compliance Matrix: (Units=1/GPa)
#
#
# Indices 1 2 3 4 5 6 
#
# 1 0.017245 -0.009203 -0.020505 0.000000 0.000000 0.000000
# 2 -0.009203 0.015493 -0.013030 0.000000 0.000000 0.000000
# 3 -0.020505 -0.013030 0.165793 0.000000 0.000000 0.000000
# 4 0.000000 0.000000 0.000000 0.250698 0.000000 0.000000
# 5 0.000000 0.000000 0.000000 0.000000 0.087435 0.000000
# 6 0.000000 0.000000 0.000000 0.000000 0.000000 0.031548
#
#
# Mechanical properties :
#
#
# Convention : Reuss Voigt Hill
#
# Bulk Modulus (GPa) = 8.84539 72.06381 40.45460
# Shear Modulus (GPa) = 7.23198 19.39080 13.31139
#
# Velocity S-wave (km/s) = 1.95831 3.20664 2.65683
# Velocity P-wave (km/s) = 3.13110 7.20582 5.55552
#
# Compressibility (1/GPa) = 0.11305329
#
# Stress axis : x y z
#
# Youngs Moduli (GPa) = 57.98892 64.54390 6.03162
#
# Poissons Ratio (x) = 0.59401 0.12368
# Poissons Ratio (y) = 0.53368 0.07859
# Poissons Ratio (z) = 1.18908 0.84103
#
# Static dielectric constant tensor:
#      x y z
#    x 1.642530 0.000000 0.000000 
#    y 0.000000 1.649950 0.000000 
#    z 0.000000 0.000000 1.637750 
# 
# From -- ./inp_files/7159.got.cif
#   From: 2010.05.17/outbox.cif.g08.bks.cpg/sg47_4_cif.got.tgz:7159.got - 2010.06.03 20:15:42.
