data_PCOD9386253
_publ_section_title
;
Structure prediction by ZEFSAII (Michael W. Deem and Ramdas Pophale) SiO2 
 PCOD9386253
Probable space group: P M M M
;
_chemical_formula_sum "Si O2"
_cell_formula_units_Z 32
_cell_length_a 24.032433
_cell_length_b 10.374461
_cell_length_c 7.448924
_cell_angle_alpha 90.000000
_cell_angle_beta 90.000000
_cell_angle_gamma 90.000000
_cell_volume 1857.192093
_symmetry_space_group_name_H-M "P M M M"
_symmetry_group_IT_number 47
_symmetry_cell_setting 'orthorhombic'
loop_
_space_group_symop_operation_xyz
x,y,z
-x,-y,z
x,-y,-z
-x,y,-z
-x,-y,-z
x,y,-z
-x,y,z
x,-y,z
loop_
_atom_site_type_symbol
_atom_site_label
_atom_site_fract_x
_atom_site_fract_y
_atom_site_fract_z
Si Si1 0.134845 0.746797 0.216712
Si Si2 0.937771 0.500000 0.217233
Si Si3 0.935366 0.000000 0.217937
Si Si4 0.221570 0.657970 0.500000
Si Si5 0.437964 0.656783 0.793365
Si Si6 0.648860 0.343254 0.500000
O O1 0.095473 0.627014 0.266110
O O2 0.190656 0.719198 0.327567
O O3 0.100622 0.874718 0.267638
O O4 0.143912 0.747804 0.000000
O O5 0.000000 0.500000 0.287215
O O6 0.940594 0.500000 0.000000
O O7 0.000000 0.000000 0.280348
O O8 0.938438 0.000000 0.000000
O O9 0.216028 0.500000 0.500000
O O10 0.286705 0.691975 0.500000
O O11 0.500000 0.695776 0.730917
O O12 0.437768 0.500000 0.789204
O O13 0.387255 0.700474 0.670726
O O14 0.431532 0.695553 0.000000
O O15 0.648260 0.500000 0.500000
#
# Coordination Sequence:
#
# PCOD9386253 Si02
#       6
#     8   4   4   4   8   4
#     4  10  20  35  53  73  99 128 159 205 254 298
#     4   9  16  29  51  73  94 123 153 188 244 300
#     4   9  18  35  59  81  98 121 159 208 264 316
#     4  11  22  34  46  67  98 135 178 205 233 293
#     4   8  13  22  37  58  83 113 154 201 244 282
#     4   9  17  26  38  56  84 123 164 203 233 271
#
# _framework density 17.230312999999999
#
# number of rings (size 3 to 8) (size 9 to 14) (size 15 to 20)
#    0.000    2.750    1.250    1.875    0.000    6.000 
#    0.000    6.250    0.000    0.000    0.000    0.000 
#    0.000    0.000    0.000    9.000    0.000   56.000 
#
# Total GULP energy -178288.758783 kJ/mol
# GULP energy per Si atom -5571.523712 kJ/mol
# Density = 1.719110 g / cm^3
# Si number density = 17.230313 Si / 1000 Ang^3
#
#
#
# Elastic Constant Matrix: (Units=GPa)
#
#
# Indices 1 2 3 4 5 6 
#
# 1 205.7806 54.3600 80.6993 0.0000 0.0000 0.0000
# 2 54.3600 90.1239 24.8383 0.0000 0.0000 0.0000
# 3 80.6993 24.8383 89.6994 0.0000 0.0000 0.0000
# 4 0.0000 0.0000 0.0000 -13.4810 0.0000 0.0000
# 5 0.0000 0.0000 0.0000 0.0000 -162.0944 0.0000
# 6 0.0000 0.0000 0.0000 0.0000 0.0000 172.0555
#
#
#
# Elastic Compliance Matrix: (Units=1/GPa)
#
#
# Indices 1 2 3 4 5 6 
#
# 1 0.008274 -0.003182 -0.006562 0.000000 0.000000 0.000000
# 2 -0.003182 0.013236 -0.000803 0.000000 0.000000 0.000000
# 3 -0.006562 -0.000803 0.017275 0.000000 0.000000 0.000000
# 4 0.000000 0.000000 0.000000 -0.074178 0.000000 0.000000
# 5 0.000000 0.000000 0.000000 0.000000 -0.006169 0.000000
# 6 0.000000 0.000000 0.000000 0.000000 0.000000 0.005812
#
#
# Mechanical properties :
#
#
# Convention : Reuss Voigt Hill
#
# Bulk Modulus (GPa) = 56.52693 78.37768 67.45230
# Shear Modulus (GPa) = -570.72883 14.34311 -278.19286
#
# Velocity S-wave (km/s) = -18.21962 2.88832 -12.72030
# Velocity P-wave (km/s) = 20.24174 7.53062 13.28566
#
# Compressibility (1/GPa) = 0.01769068
#
# Stress axis : x y z
#
# Youngs Moduli (GPa) = 120.86687 75.55044 57.88867
#
# Poissons Ratio (x) = 0.24038 0.37989
# Poissons Ratio (y) = 0.38457 0.04647
# Poissons Ratio (z) = 0.79317 0.06064
#
# Static dielectric constant tensor:
#      x y z
#    x 1.572230 0.000000 0.000000 
#    y 0.000000 1.570590 0.000000 
#    z 0.000000 0.000000 1.627210 
# 
# From -- ./inp_files/12244.got.cif
#   From: 2010.05.17/outbox.cif.g08.bks.cpg/sg47_7_cif.got.tgz:12244.got - 2010.06.03 20:15:42.
