data_PCOD9386103
_publ_section_title
;
Structure prediction by ZEFSAII (Michael W. Deem and Ramdas Pophale) SiO2 
 PCOD9386103
Probable space group: P M M M
;
_chemical_formula_sum "Si O2"
_cell_formula_units_Z 44
_cell_length_a 16.101404
_cell_length_b 8.034993
_cell_length_c 17.548620
_cell_angle_alpha 90.000000
_cell_angle_beta 90.000000
_cell_angle_gamma 90.000000
_cell_volume 2270.346894
_symmetry_space_group_name_H-M "P M M M"
_symmetry_group_IT_number 47
_symmetry_cell_setting 'orthorhombic'
loop_
_space_group_symop_operation_xyz
x,y,z
-x,-y,z
x,-y,-z
-x,y,-z
-x,-y,-z
x,y,-z
-x,y,z
x,-y,z
loop_
_atom_site_type_symbol
_atom_site_label
_atom_site_fract_x
_atom_site_fract_y
_atom_site_fract_z
Si Si1 0.181409 0.697823 0.914299
Si Si2 0.749109 0.700485 0.238333
Si Si3 0.090978 0.296550 0.666714
Si Si4 0.592334 0.801871 0.662972
Si Si5 0.000000 0.808588 0.907456
Si Si6 0.854113 0.702880 0.500000
Si Si7 0.661885 0.300564 0.500000
O O1 0.193797 0.500000 0.920322
O O2 0.241366 0.763366 0.848251
O O3 0.086675 0.724614 0.885902
O O4 0.190265 0.768727 0.000000
O O5 0.755374 0.500000 0.236261
O O6 0.829131 0.761483 0.286139
O O7 0.664411 0.741425 0.280967
O O8 0.092013 0.500000 0.668437
O O9 0.103120 0.245696 0.578592
O O10 0.000000 0.243103 0.694900
O O11 0.500000 0.735000 0.679852
O O12 0.617272 0.756992 0.576671
O O13 0.589833 0.000000 0.668688
O O14 0.000000 0.000000 0.883511
O O15 0.000000 0.802661 0.000000
O O16 0.854702 0.500000 0.500000
O O17 0.757878 0.756746 0.500000
O O18 0.663250 0.500000 0.500000
#
# Coordination Sequence:
#
# PCOD9386103 Si02
#       7
#     8   8   8   8   4   4   4
#     4   9  18  32  51  77 109 142 178 225 279 328
#     4  10  20  34  55  81 106 138 182 227 271 325
#     4   9  16  26  44  72 104 137 175 217 256 300
#     4  11  24  40  57  79 109 142 175 219 279 332
#     4   9  17  29  47  73 105 144 187 222 259 317
#     4   9  15  26  45  71 103 134 169 211 254 296
#     4  11  20  35  59  85 109 138 181 224 261 316
#
# _framework density 19.380298
#
# number of rings (size 3 to 8) (size 9 to 14) (size 15 to 20)
#    0.000    2.273    1.818    1.636    1.273    5.455 
#    0.000    0.000    0.000    0.545    0.000    5.091 
#    0.000    0.000    0.000    0.000    0.000    0.000 
#
# Total GULP energy -245551.042319 kJ/mol
# GULP energy per Si atom -5580.705507 kJ/mol
# Density = 1.933619 g / cm^3
# Si number density = 19.380298 Si / 1000 Ang^3
#
#
#
# Elastic Constant Matrix: (Units=GPa)
#
#
# Indices 1 2 3 4 5 6 
#
# 1 161.6038 2.5502 82.4664 0.0000 0.0000 0.0000
# 2 2.5502 10.4463 8.6297 0.0000 0.0000 0.0000
# 3 82.4664 8.6297 135.6300 0.0000 0.0000 0.0000
# 4 0.0000 0.0000 0.0000 4.8588 0.0000 0.0000
# 5 0.0000 0.0000 0.0000 0.0000 -0.0039 0.0000
# 6 0.0000 0.0000 0.0000 0.0000 0.0000 42.7304
#
#
#
# Elastic Compliance Matrix: (Units=1/GPa)
#
#
# Indices 1 2 3 4 5 6 
#
# 1 0.009031 0.002461 -0.005648 0.000000 0.000000 0.000000
# 2 0.002461 0.101709 -0.007968 0.000000 0.000000 0.000000
# 3 -0.005648 -0.007968 0.011314 0.000000 0.000000 0.000000
# 4 0.000000 0.000000 0.000000 0.205811 0.000000 0.000000
# 5 0.000000 0.000000 0.000000 0.000000********** 0.000000
# 6 0.000000 0.000000 0.000000 0.000000 0.000000 0.023403
#
#
# Mechanical properties :
#
#
# Convention : Reuss Voigt Hill
#
# Bulk Modulus (GPa) = 10.02553 54.99694 32.51123
# Shear Modulus (GPa) = -0.01933 23.78600 11.88334
#
# Velocity S-wave (km/s) = -0.09997 3.50713 2.47890
# Velocity P-wave (km/s) = 2.27397 6.69621 5.00051
#
# Compressibility (1/GPa) = 0.09974538
#
# Stress axis : x y z
#
# Youngs Moduli (GPa) = 110.72728 9.83193 88.38651
#
# Poissons Ratio (x) = -0.02420 0.49919
# Poissons Ratio (y) = -0.27249 0.70424
# Poissons Ratio (z) = 0.62536 0.07834
#
# Static dielectric constant tensor:
#      x y z
#    x 1.676160 0.000000 0.000000 
#    y 0.000000 1.685840 0.000000 
#    z 0.000000 0.000000 1.689730 
# 
# From -- ./inp_files/27910.got.cif
#   From: 2010.05.17/outbox.cif.g08.bks.cpg/sg47_14_cif.got.tgz:27910.got - 2010.06.03 20:15:42.
