data_PCOD9386263
_publ_section_title
;
Structure prediction by ZEFSAII (Michael W. Deem and Ramdas Pophale) SiO2 
 PCOD9386263
Probable space group: P M M M
;
_chemical_formula_sum "Si O2"
_cell_formula_units_Z 52
_cell_length_a 15.199013
_cell_length_b 8.349314
_cell_length_c 20.894668
_cell_angle_alpha 90.000000
_cell_angle_beta 90.000000
_cell_angle_gamma 90.000000
_cell_volume 2651.561201
_symmetry_space_group_name_H-M "P M M M"
_symmetry_group_IT_number 47
_symmetry_cell_setting 'orthorhombic'
loop_
_space_group_symop_operation_xyz
x,y,z
-x,-y,z
x,-y,-z
-x,y,-z
-x,-y,-z
x,y,-z
-x,y,z
x,-y,z
loop_
_atom_site_type_symbol
_atom_site_label
_atom_site_fract_x
_atom_site_fract_y
_atom_site_fract_z
Si Si1 0.283310 0.811568 0.304571
Si Si2 0.895193 0.184335 0.000000
Si Si3 0.097305 0.311624 0.738627
Si Si4 0.823378 0.317224 0.870127
Si Si5 0.644468 0.185345 0.173601
Si Si6 0.805302 0.806136 0.573561
Si Si7 0.500000 0.309866 0.925304
Si Si8 0.000000 0.310828 0.423619
O O1 0.182393 0.787477 0.281734
O O2 0.345349 0.745993 0.246961
O O3 0.270910 0.748695 0.377291
O O4 0.303593 0.000000 0.308401
O O5 0.861035 0.273993 0.061997
O O6 0.000000 0.183710 0.000000
O O7 0.864341 0.000000 0.000000
O O8 0.109579 0.500000 0.721183
O O9 0.103070 0.304150 0.815553
O O10 0.000000 0.260748 0.717356
O O11 0.789565 0.500000 0.867893
O O12 0.742890 0.202622 0.852970
O O13 0.582045 0.261031 0.119886
O O14 0.618635 0.000000 0.179429
O O15 0.793255 0.751754 0.500000
O O16 0.903745 0.754719 0.595901
O O17 0.804254 0.000000 0.573837
O O18 0.500000 0.500000 0.930963
O O19 0.500000 0.246902 0.000000
O O20 0.000000 0.500000 0.412096
O O21 0.000000 0.279905 0.500000
#
# Coordination Sequence:
#
# PCOD9386263 Si02
#       8
#     8   4   8   8   8   8   4   4
#     4   9  19  33  50  74 103 138 178 221 268 315
#     4  11  23  35  49  72 101 136 179 223 267 311
#     4   9  18  31  46  66  93 130 177 223 266 311
#     4  10  20  35  54  73 100 135 173 217 263 314
#     4  10  21  39  60  84 112 138 170 213 265 321
#     4   9  17  30  47  68  99 141 186 228 272 321
#     4  11  25  43  65  91 116 139 170 206 254 326
#     4   9  17  27  39  61  97 139 186 239 284 317
#
# _framework density 19.611089
#
# number of rings (size 3 to 8) (size 9 to 14) (size 15 to 20)
#    0.000    2.385    0.000    2.077    2.154    4.923 
#    0.000    0.000    0.000    0.000    0.000    0.538 
#    0.000    4.308    0.000    0.000    0.000    0.000 
#
# Total GULP energy -289566.375885 kJ/mol
# GULP energy per Si atom -5568.584152 kJ/mol
# Density = 1.956645 g / cm^3
# Si number density = 19.611089 Si / 1000 Ang^3
#
#
#
# Elastic Constant Matrix: (Units=GPa)
#
#
# Indices 1 2 3 4 5 6 
#
# 1 58.1625 5.4599 35.6660 0.0000 0.0000 0.0000
# 2 5.4599 12.8222 -4.5222 0.0000 0.0000 0.0000
# 3 35.6660 -4.5222 132.6435 0.0000 0.0000 0.0000
# 4 0.0000 0.0000 0.0000 15.3846 0.0000 0.0000
# 5 0.0000 0.0000 0.0000 0.0000 1.6607 0.0000
# 6 0.0000 0.0000 0.0000 0.0000 0.0000 20.2521
#
#
#
# Elastic Compliance Matrix: (Units=1/GPa)
#
#
# Indices 1 2 3 4 5 6 
#
# 1 0.022195 -0.011697 -0.006367 0.000000 0.000000 0.000000
# 2 -0.011697 0.085103 0.006046 0.000000 0.000000 0.000000
# 3 -0.006367 0.006046 0.009457 0.000000 0.000000 0.000000
# 4 0.000000 0.000000 0.000000 0.065000 0.000000 0.000000
# 5 0.000000 0.000000 0.000000 0.000000 0.602164 0.000000
# 6 0.000000 0.000000 0.000000 0.000000 0.000000 0.049378
#
#
# Mechanical properties :
#
#
# Convention : Reuss Voigt Hill
#
# Bulk Modulus (GPa) = 10.78502 30.75952 20.77227
# Shear Modulus (GPa) = 5.62912 18.59444 12.11178
#
# Velocity S-wave (km/s) = 1.69606 3.08256 2.48785
# Velocity P-wave (km/s) = 3.05726 5.32807 4.34369
#
# Compressibility (1/GPa) = 0.09272118
#
# Stress axis : x y z
#
# Youngs Moduli (GPa) = 45.05441 11.75053 105.74071
#
# Poissons Ratio (x) = 0.13744 0.67323
# Poissons Ratio (y) = 0.52698 -0.63935
# Poissons Ratio (z) = 0.28685 -0.07105
#
# Static dielectric constant tensor:
#      x y z
#    x 1.659640 0.000000 0.000000 
#    y 0.000000 1.698740 0.000000 
#    z 0.000000 0.000000 1.790450 
# 
# From -- ./inp_files/30929.got.cif
#   From: 2010.05.17/outbox.cif.g08.bks.cpg/sg47_16_cif.got.tgz:30929.got - 2010.06.03 20:15:42.
