data_PCOD9386891
_publ_section_title
;
Structure prediction by ZEFSAII (Michael W. Deem and Ramdas Pophale) SiO2 
 PCOD9386891
Probable space group: P M M M
;
_chemical_formula_sum "Si O2"
_cell_formula_units_Z 64
_cell_length_a 10.073044
_cell_length_b 23.284325
_cell_length_c 14.086144
_cell_angle_alpha 90.000000
_cell_angle_beta 90.000000
_cell_angle_gamma 90.000000
_cell_volume 3303.820984
_symmetry_space_group_name_H-M "P M M M"
_symmetry_group_IT_number 47
_symmetry_cell_setting 'orthorhombic'
loop_
_space_group_symop_operation_xyz
x,y,z
-x,-y,z
x,-y,-z
-x,y,-z
-x,-y,-z
x,y,-z
-x,y,z
x,-y,z
loop_
_atom_site_type_symbol
_atom_site_label
_atom_site_fract_x
_atom_site_fract_y
_atom_site_fract_z
Si Si1 0.354295 0.740327 0.110995
Si Si2 0.653995 0.932292 0.208704
Si Si3 0.846310 0.567780 0.612694
Si Si4 0.848652 0.754951 0.389480
Si Si5 0.152062 0.157671 0.113600
Si Si6 0.157530 0.563193 0.893840
Si Si7 0.652471 0.859397 0.391022
Si Si8 0.247276 0.344874 0.254746
O O1 0.500000 0.768784 0.116335
O O2 0.236015 0.784530 0.132939
O O3 0.349681 0.690883 0.190439
O O4 0.338434 0.721163 0.000000
O O5 0.500000 0.920551 0.179708
O O6 0.760965 0.894802 0.152517
O O7 0.666891 0.910929 0.317306
O O8 0.676584 0.000000 0.199370
O O9 0.839586 0.576499 0.500000
O O10 0.831978 0.500000 0.631441
O O11 0.736125 0.605675 0.665571
O O12 0.000000 0.583253 0.641861
O O13 0.824214 0.736800 0.500000
O O14 0.749565 0.806983 0.367593
O O15 0.828357 0.703280 0.316233
O O16 0.000000 0.775121 0.384380
O O17 0.000000 0.159794 0.149731
O O18 0.146006 0.152767 0.000000
O O19 0.206711 0.500000 0.860666
O O20 0.179831 0.616471 0.826037
O O21 0.000000 0.558258 0.901198
O O22 0.211524 0.572995 0.000000
O O23 0.676895 0.876711 0.500000
O O24 0.500000 0.838785 0.384195
#
# Coordination Sequence:
#
# PCOD9386891 Si02
#       8
#     8   8   8   8   8   8   8   8
#     4  10  23  42  60  80 111 149 185 225 280 347
#     4  10  21  36  57  87 119 152 191 231 274 329
#     4   9  18  32  50  76 113 154 192 231 280 339
#     4  10  21  34  49  75 111 146 179 220 274 333
#     4  10  22  40  61  85 114 149 189 234 282 328
#     4   9  18  31  46  69 103 138 173 220 277 330
#     4   9  19  37  58  78 106 146 188 229 272 319
#     4  12  20  29  52  79 102 135 182 230 273 324
#
# _framework density 19.371510000000001
#
# number of rings (size 3 to 8) (size 9 to 14) (size 15 to 20)
#    0.000    2.125    0.000    4.125    0.000    8.000 
#    0.000    3.750    0.000    2.625    0.000    7.875 
#    0.000    0.000    0.000    0.000    0.000    0.000 
#
# Total GULP energy -356545.724599 kJ/mol
# GULP energy per Si atom -5571.026947 kJ/mol
# Density = 1.932742 g / cm^3
# Si number density = 19.371510 Si / 1000 Ang^3
#
#
#
# Elastic Constant Matrix: (Units=GPa)
#
#
# Indices 1 2 3 4 5 6 
#
# 1 91.0746 53.4966 39.1107 0.0000 0.0000 0.0000
# 2 53.4966 90.6320 42.2621 0.0000 0.0000 0.0000
# 3 39.1107 42.2621 88.4941 0.0000 0.0000 0.0000
# 4 0.0000 0.0000 0.0000 23.5738 0.0000 0.0000
# 5 0.0000 0.0000 0.0000 0.0000 15.9795 0.0000
# 6 0.0000 0.0000 0.0000 0.0000 0.0000 24.4444
#
#
#
# Elastic Compliance Matrix: (Units=1/GPa)
#
#
# Indices 1 2 3 4 5 6 
#
# 1 0.017674 -0.008735 -0.003639 0.000000 0.000000 0.000000
# 2 -0.008735 0.018512 -0.004980 0.000000 0.000000 0.000000
# 3 -0.003639 -0.004980 0.015287 0.000000 0.000000 0.000000
# 4 0.000000 0.000000 0.000000 0.042420 0.000000 0.000000
# 5 0.000000 0.000000 0.000000 0.000000 0.062580 0.000000
# 6 0.000000 0.000000 0.000000 0.000000 0.000000 0.040909
#
#
# Mechanical properties :
#
#
# Convention : Reuss Voigt Hill
#
# Bulk Modulus (GPa) = 59.65407 59.99327 59.82367
# Shear Modulus (GPa) = 21.03674 21.82163 21.42918
#
# Velocity S-wave (km/s) = 3.29897 3.35995 3.32960
# Velocity P-wave (km/s) = 6.73591 6.78892 6.76247
#
# Compressibility (1/GPa) = 0.01676332
#
# Stress axis : x y z
#
# Youngs Moduli (GPa) = 56.58068 54.01928 65.41476
#
# Poissons Ratio (x) = 0.47186 0.23808
# Poissons Ratio (y) = 0.49424 0.32578
# Poissons Ratio (z) = 0.20592 0.26903
#
# Static dielectric constant tensor:
#      x y z
#    x 1.686160 0.000000 0.000000 
#    y 0.000000 1.668650 0.000000 
#    z 0.000000 0.000000 1.731580 
# 
# From -- ./inp_files/21892.got.cif
#   From: 2010.05.17/outbox.cif.g08.bks.cpg/sg47_11_cif.got.tgz:21892.got - 2010.06.03 20:15:42.
