data_PCOD9386632
_publ_section_title
;
Structure prediction by ZEFSAII (Michael W. Deem and Ramdas Pophale) SiO2 
 PCOD9386632
Probable space group: P M M M
;
_chemical_formula_sum "Si O2"
_cell_formula_units_Z 36
_cell_length_a 25.115791
_cell_length_b 8.015174
_cell_length_c 9.224891
_cell_angle_alpha 90.000000
_cell_angle_beta 90.000000
_cell_angle_gamma 90.000000
_cell_volume 1857.039145
_symmetry_space_group_name_H-M "P M M M"
_symmetry_group_IT_number 47
_symmetry_cell_setting 'orthorhombic'
loop_
_space_group_symop_operation_xyz
x,y,z
-x,-y,z
x,-y,-z
-x,y,-z
-x,-y,-z
x,y,-z
-x,y,z
x,-y,z
loop_
_atom_site_type_symbol
_atom_site_label
_atom_site_fract_x
_atom_site_fract_y
_atom_site_fract_z
Si Si1 0.563786 0.500000 0.831001
Si Si2 0.721305 0.695877 0.829744
Si Si3 0.058279 0.701227 0.669148
Si Si4 0.836360 0.802523 0.834811
Si Si5 0.618616 0.810846 0.673130
O O1 0.500000 0.500000 0.826008
O O2 0.585593 0.665703 0.752303
O O3 0.580976 0.500000 0.000000
O O4 0.708152 0.500000 0.822607
O O5 0.781922 0.721375 0.778121
O O6 0.678379 0.792934 0.735334
O O7 0.719037 0.747456 0.000000
O O8 0.061055 0.747874 0.500000
O O9 0.059195 0.500000 0.676937
O O10 0.109874 0.766541 0.749708
O O11 0.000000 0.756803 0.725542
O O12 0.827194 0.000000 0.836572
O O13 0.843467 0.742079 0.000000
O O14 0.618081 0.784708 0.500000
O O15 0.599390 0.000000 0.702484
#
# Coordination Sequence:
#
# PCOD9386632 Si02
#       5
#     4   8   8   8   8
#     4  11  25  45  69  97 129 169 216 261 306 359
#     4  10  20  36  60  87 116 155 201 247 299 359
#     4   9  19  36  55  74  99 136 184 236 291 352
#     4  10  21  35  52  79 113 147 186 234 289 350
#     4  11  24  41  64  96 132 169 209 256 312 370
#
# _framework density 19.385697
#
# number of rings (size 3 to 8) (size 9 to 14) (size 15 to 20)
#    0.000    1.889    1.111    3.000    0.000    7.556 
#    0.000    5.556    0.000    0.000    0.000    0.000 
#    0.000    0.000    0.000    0.000    0.000    0.000 
#
# Total GULP energy -201027.949090 kJ/mol
# GULP energy per Si atom -5584.109697 kJ/mol
# Density = 1.934157 g / cm^3
# Si number density = 19.385697 Si / 1000 Ang^3
#
#
#
# Elastic Constant Matrix: (Units=GPa)
#
#
# Indices 1 2 3 4 5 6 
#
# 1 111.2653 47.7388 50.9233 0.0000 0.0000 0.0000
# 2 47.7388 98.8229 55.6096 0.0000 0.0000 0.0000
# 3 50.9233 55.6096 79.5430 0.0000 0.0000 0.0000
# 4 0.0000 0.0000 0.0000 23.7520 0.0000 0.0000
# 5 0.0000 0.0000 0.0000 0.0000 75.3031 0.0000
# 6 0.0000 0.0000 0.0000 0.0000 0.0000 6.2845
#
#
#
# Elastic Compliance Matrix: (Units=1/GPa)
#
#
# Indices 1 2 3 4 5 6 
#
# 1 0.013122 -0.002657 -0.006543 0.000000 0.000000 0.000000
# 2 -0.002657 0.017220 -0.010338 0.000000 0.000000 0.000000
# 3 -0.006543 -0.010338 0.023988 0.000000 0.000000 0.000000
# 4 0.000000 0.000000 0.000000 0.042102 0.000000 0.000000
# 5 0.000000 0.000000 0.000000 0.000000 0.013280 0.000000
# 6 0.000000 0.000000 0.000000 0.000000 0.000000 0.159122
#
#
# Mechanical properties :
#
#
# Convention : Reuss Voigt Hill
#
# Bulk Modulus (GPa) = 65.55546 66.46382 66.00964
# Shear Modulus (GPa) = 15.97477 30.09187 23.03332
#
# Velocity S-wave (km/s) = 2.87374 3.94416 3.45071
# Velocity P-wave (km/s) = 6.70082 7.42302 7.07115
#
# Compressibility (1/GPa) = 0.01525426
#
# Stress axis : x y z
#
# Youngs Moduli (GPa) = 76.20665 58.07266 41.68751
#
# Poissons Ratio (x) = 0.15430 0.27277
# Poissons Ratio (y) = 0.20248 0.43095
# Poissons Ratio (z) = 0.49864 0.60033
#
# Static dielectric constant tensor:
#      x y z
#    x 1.681540 0.000000 0.000000 
#    y 0.000000 1.687210 0.000000 
#    z 0.000000 0.000000 1.658650 
# 
# From -- ./inp_files/12048.got.cif
#   From: 2010.05.17/outbox.cif.g08.bks.cpg/sg47_7_cif.got.tgz:12048.got - 2010.06.03 20:15:42.
