data_PCOD9386604
_publ_section_title
;
Structure prediction by ZEFSAII (Michael W. Deem and Ramdas Pophale) SiO2 
 PCOD9386604
Probable space group: P M M M
;
_chemical_formula_sum "Si O2"
_cell_formula_units_Z 48
_cell_length_a 9.955352
_cell_length_b 8.711932
_cell_length_c 30.322800
_cell_angle_alpha 90.000000
_cell_angle_beta 90.000000
_cell_angle_gamma 90.000000
_cell_volume 2629.907047
_symmetry_space_group_name_H-M "P M M M"
_symmetry_group_IT_number 47
_symmetry_cell_setting 'orthorhombic'
loop_
_space_group_symop_operation_xyz
x,y,z
-x,-y,z
x,-y,-z
-x,y,-z
-x,-y,-z
x,y,-z
-x,y,z
x,-y,z
loop_
_atom_site_type_symbol
_atom_site_label
_atom_site_fract_x
_atom_site_fract_y
_atom_site_fract_z
Si Si1 0.655806 0.315382 0.358796
Si Si2 0.156175 0.687303 0.278304
Si Si3 0.747026 0.817912 0.897848
Si Si4 0.000000 0.316027 0.948659
Si Si5 0.342923 0.314365 0.804132
Si Si6 0.500000 0.677287 0.947542
Si Si7 0.662612 0.180172 0.451879
O O1 0.500000 0.262386 0.351755
O O2 0.651857 0.500000 0.357117
O O3 0.759225 0.262337 0.321268
O O4 0.703249 0.264997 0.407364
O O5 0.153495 0.500000 0.278815
O O6 0.244923 0.732368 0.235838
O O7 0.000000 0.737918 0.277262
O O8 0.874457 0.743855 0.921182
O O9 0.713594 0.752808 0.849537
O O10 0.626029 0.766492 0.928910
O O11 0.760798 0.000000 0.895517
O O12 0.000000 0.500000 0.949449
O O13 0.000000 0.263511 0.000000
O O14 0.500000 0.269368 0.797691
O O15 0.340871 0.500000 0.806535
O O16 0.500000 0.500000 0.931486
O O17 0.500000 0.674238 0.000000
O O18 0.710270 0.237648 0.500000
O O19 0.500000 0.190721 0.452677
O O20 0.696470 0.000000 0.448672
#
# Coordination Sequence:
#
# PCOD9386604 Si02
#       7
#     8   8   8   4   8   4   8
#     4   9  16  27  46  73 103 131 168 220 271 316
#     4   9  18  32  52  78 104 137 181 225 269 323
#     4  12  25  40  61  91 125 155 187 236 293 339
#     4  11  25  45  67  89 117 157 201 237 274 335
#     4  10  20  36  59  83 110 146 189 230 272 331
#     4  11  23  41  65  91 119 155 199 237 274 333
#     4   8  14  25  42  66  97 132 170 211 258 315
#
# _framework density 18.251595999999999
#
# number of rings (size 3 to 8) (size 9 to 14) (size 15 to 20)
#    0.000    2.167    0.833    3.500    1.167    5.667 
#    0.000    2.500    0.000    4.000    0.000    3.500 
#    0.000    0.000    0.000    0.000    0.000    0.000 
#
# Total GULP energy -267684.932852 kJ/mol
# GULP energy per Si atom -5576.769434 kJ/mol
# Density = 1.821005 g / cm^3
# Si number density = 18.251596 Si / 1000 Ang^3
#
#
#
# Elastic Constant Matrix: (Units=GPa)
#
#
# Indices 1 2 3 4 5 6 
#
# 1 155.5510 29.5069 96.9052 0.0000 0.0000 0.0000
# 2 29.5069 29.0823 36.7832 0.0000 0.0000 0.0000
# 3 96.9052 36.7832 177.4219 0.0000 0.0000 0.0000
# 4 0.0000 0.0000 0.0000 -68.2752 0.0000 0.0000
# 5 0.0000 0.0000 0.0000 0.0000 21.1310 0.0000
# 6 0.0000 0.0000 0.0000 0.0000 0.0000 8.6036
#
#
#
# Elastic Compliance Matrix: (Units=1/GPa)
#
#
# Indices 1 2 3 4 5 6 
#
# 1 0.010153 -0.004456 -0.004622 0.000000 0.000000 0.000000
# 2 -0.004456 0.048562 -0.007634 0.000000 0.000000 0.000000
# 3 -0.004622 -0.007634 0.009743 0.000000 0.000000 0.000000
# 4 0.000000 0.000000 0.000000 -0.014647 0.000000 0.000000
# 5 0.000000 0.000000 0.000000 0.000000 0.047324 0.000000
# 6 0.000000 0.000000 0.000000 0.000000 0.000000 0.116230
#
#
# Mechanical properties :
#
#
# Convention : Reuss Voigt Hill
#
# Bulk Modulus (GPa) = 28.54309 76.49398 52.51854
# Shear Modulus (GPa) = 19.05000 5.54922 12.29961
#
# Velocity S-wave (km/s) = 3.23421 1.74557 2.59876
# Velocity P-wave (km/s) = 5.44237 6.78708 6.15158
#
# Compressibility (1/GPa) = 0.03503475
#
# Stress axis : x y z
#
# Youngs Moduli (GPa) = 98.49028 20.59237 102.63437
#
# Poissons Ratio (x) = 0.09176 0.47435
# Poissons Ratio (y) = 0.43887 0.78352
# Poissons Ratio (z) = 0.45520 0.15720
#
# Static dielectric constant tensor:
#      x y z
#    x 1.630540 0.000000 0.000000 
#    y 0.000000 1.612980 0.000000 
#    z 0.000000 0.000000 1.632250 
# 
# From -- ./inp_files/34186.got.cif
#   From: 2010.05.17/outbox.cif.g08.bks.cpg/sg47_18_cif.got.tgz:34186.got - 2010.06.03 20:15:42.
