data_PCOD9386373
_publ_section_title
;
Structure prediction by ZEFSAII (Michael W. Deem and Ramdas Pophale) SiO2 
 PCOD9386373
Probable space group: P M M M
;
_chemical_formula_sum "Si O2"
_cell_formula_units_Z 28
_cell_length_a 19.774117
_cell_length_b 7.885188
_cell_length_c 9.531686
_cell_angle_alpha 90.000000
_cell_angle_beta 90.000000
_cell_angle_gamma 90.000000
_cell_volume 1486.205550
_symmetry_space_group_name_H-M "P M M M"
_symmetry_group_IT_number 47
_symmetry_cell_setting 'orthorhombic'
loop_
_space_group_symop_operation_xyz
x,y,z
-x,-y,z
x,-y,-z
-x,y,-z
-x,-y,-z
x,y,-z
-x,y,z
x,-y,z
loop_
_atom_site_type_symbol
_atom_site_label
_atom_site_fract_x
_atom_site_fract_y
_atom_site_fract_z
Si Si1 0.081053 0.000000 0.835633
Si Si2 0.704263 0.800775 0.660403
Si Si3 0.574596 0.704813 0.836861
Si Si4 0.148005 0.307549 0.668196
O O1 0.109293 0.834253 0.756174
O O2 0.000000 0.000000 0.828767
O O3 0.101317 0.000000 0.000000
O O4 0.689264 0.750637 0.500000
O O5 0.638255 0.770301 0.751909
O O6 0.772281 0.705324 0.705097
O O7 0.721236 0.000000 0.662771
O O8 0.500000 0.760222 0.785506
O O9 0.575778 0.500000 0.831217
O O10 0.580107 0.754328 0.000000
O O11 0.142902 0.273118 0.500000
O O12 0.124223 0.500000 0.693313
#
# Coordination Sequence:
#
# PCOD9386373 Si02
#       4
#     4   8   8   8
#     4  11  25  43  63  91 128 163 194 237 293 354
#     4  10  20  35  56  82 113 147 188 241 294 345
#     4   9  19  35  52  73 106 148 193 240 290 346
#     4  10  21  40  66  92 120 158 203 248 295 350
#
# _framework density 18.839925000000001
#
# number of rings (size 3 to 8) (size 9 to 14) (size 15 to 20)
#    0.000    2.143    1.429    2.143    0.000    6.857 
#    0.000    7.143    0.000    0.000    0.000    0.000 
#    0.000    0.000    0.000    0.000    0.000    0.000 
#
# Total GULP energy -156293.924644 kJ/mol
# GULP energy per Si atom -5581.925880 kJ/mol
# Density = 1.879704 g / cm^3
# Si number density = 18.839925 Si / 1000 Ang^3
#
#
#
# Elastic Constant Matrix: (Units=GPa)
#
#
# Indices 1 2 3 4 5 6 
#
# 1 94.0199 50.3653 60.7174 0.0000 0.0000 0.0000
# 2 50.3653 103.3285 56.0456 0.0000 0.0000 0.0000
# 3 60.7174 56.0456 73.2712 0.0000 0.0000 0.0000
# 4 0.0000 0.0000 0.0000 26.1612 0.0000 0.0000
# 5 0.0000 0.0000 0.0000 0.0000 38.3461 0.0000
# 6 0.0000 0.0000 0.0000 0.0000 0.0000 -530.3249
#
#
#
# Elastic Compliance Matrix: (Units=1/GPa)
#
#
# Indices 1 2 3 4 5 6 
#
# 1 0.023014 -0.001493 -0.017929 0.000000 0.000000 0.000000
# 2 -0.001493 0.016637 -0.011489 0.000000 0.000000 0.000000
# 3 -0.017929 -0.011489 0.037293 0.000000 0.000000 0.000000
# 4 0.000000 0.000000 0.000000 0.038224 0.000000 0.000000
# 5 0.000000 0.000000 0.000000 0.000000 0.026078 0.000000
# 6 0.000000 0.000000 0.000000 0.000000 0.000000 -0.001886
#
#
# Mechanical properties :
#
#
# Convention : Reuss Voigt Hill
#
# Bulk Modulus (GPa) = 66.12553 67.20848 66.66700
# Shear Modulus (GPa) = 24.24543 -86.26409 -31.00933
#
# Velocity S-wave (km/s) = 3.59126 -6.77402 -4.06142
# Velocity P-wave (km/s) = 7.23678 5.04304 3.67006
#
# Compressibility (1/GPa) = 0.01512275
#
# Stress axis : x y z
#
# Youngs Moduli (GPa) = 43.45090 60.10691 26.81464
#
# Poissons Ratio (x) = 0.08974 0.48077
# Poissons Ratio (y) = 0.06487 0.30806
# Poissons Ratio (z) = 0.77905 0.69054
#
# Static dielectric constant tensor:
#      x y z
#    x 1.638770 0.000000 0.000000 
#    y 0.000000 1.674290 0.000000 
#    z 0.000000 0.000000 1.634290 
# 
# From -- ./inp_files/850.got.cif
#   From: 2010.05.17/outbox.cif.g08.bks.cpg/sg47_1_cif.got.tgz:850.got - 2010.06.03 20:15:42.
