data_PCOD9386946
_publ_section_title
;
Structure prediction by ZEFSAII (Michael W. Deem and Ramdas Pophale) SiO2 
 PCOD9386946
Probable space group: P M M M
;
_chemical_formula_sum "Si O2"
_cell_formula_units_Z 48
_cell_length_a 9.824792
_cell_length_b 32.262899
_cell_length_c 7.524614
_cell_angle_alpha 90.000000
_cell_angle_beta 90.000000
_cell_angle_gamma 90.000000
_cell_volume 2385.124094
_symmetry_space_group_name_H-M "P M M M"
_symmetry_group_IT_number 47
_symmetry_cell_setting 'orthorhombic'
loop_
_space_group_symop_operation_xyz
x,y,z
-x,-y,z
x,-y,-z
-x,y,-z
-x,-y,-z
x,y,-z
-x,y,z
x,-y,z
loop_
_atom_site_type_symbol
_atom_site_label
_atom_site_fract_x
_atom_site_fract_y
_atom_site_fract_z
Si Si1 0.155352 0.135664 0.289667
Si Si2 0.158835 0.044543 0.213815
Si Si3 0.843511 0.378735 0.216742
Si Si4 0.346232 0.791618 0.288902
Si Si5 0.342514 0.546062 0.216832
Si Si6 0.155226 0.714625 0.214208
O O1 0.143226 0.143041 0.500000
O O2 0.213820 0.089184 0.268612
O O3 0.254352 0.170805 0.215071
O O4 0.000000 0.137237 0.216315
O O5 0.000000 0.044939 0.271142
O O6 0.217329 0.000000 0.274189
O O7 0.160393 0.044124 0.000000
O O8 0.747459 0.415627 0.279458
O O9 0.807309 0.331972 0.273598
O O10 0.000000 0.386152 0.267257
O O11 0.838690 0.378792 0.000000
O O12 0.357869 0.798698 0.500000
O O13 0.500000 0.789619 0.217058
O O14 0.262548 0.749303 0.266136
O O15 0.500000 0.550794 0.268918
O O16 0.295701 0.500000 0.271767
O O17 0.339410 0.546449 0.000000
O O18 0.000000 0.723942 0.275132
O O19 0.150927 0.713908 0.000000
#
# Coordination Sequence:
#
# PCOD9386946 Si02
#       6
#     8   8   8   8   8   8
#     4   9  17  29  46  67  89 115 148 185 225 267
#     4   8  14  25  42  66  94 119 144 179 222 264
#     4   8  14  24  37  55  80 108 139 178 222 265
#     4  10  21  35  49  67  93 123 155 192 232 275
#     4   8  13  20  30  47  74 109 146 179 212 255
#     4   9  18  32  49  69  92 118 151 191 233 278
#
# _framework density 20.124739000000002
#
# number of rings (size 3 to 8) (size 9 to 14) (size 15 to 20)
#    0.000    3.333    0.000    2.500    0.000    3.333 
#    0.000    6.667    0.000    0.500    0.000    3.500 
#    0.000    0.667    0.000    7.333    0.000   12.000 
#
# Total GULP energy -267461.783908 kJ/mol
# GULP energy per Si atom -5572.120498 kJ/mol
# Density = 2.007893 g / cm^3
# Si number density = 20.124739 Si / 1000 Ang^3
#
#
#
# Elastic Constant Matrix: (Units=GPa)
#
#
# Indices 1 2 3 4 5 6 
#
# 1 107.7676 122.4542 5.6451 0.0000 0.0000 0.0000
# 2 122.4542 216.5535 0.1952 0.0000 0.0000 0.0000
# 3 5.6451 0.1952 48.5772 0.0000 0.0000 0.0000
# 4 0.0000 0.0000 0.0000 20.7193 0.0000 0.0000
# 5 0.0000 0.0000 0.0000 0.0000 6.1504 0.0000
# 6 0.0000 0.0000 0.0000 0.0000 0.0000 -14.1516
#
#
#
# Elastic Compliance Matrix: (Units=1/GPa)
#
#
# Indices 1 2 3 4 5 6 
#
# 1 0.026390 -0.014920 -0.003007 0.000000 0.000000 0.000000
# 2 -0.014920 0.013053 0.001681 0.000000 0.000000 0.000000
# 3 -0.003007 0.001681 0.020928 0.000000 0.000000 0.000000
# 4 0.000000 0.000000 0.000000 0.048264 0.000000 0.000000
# 5 0.000000 0.000000 0.000000 0.000000 0.162590 0.000000
# 6 0.000000 0.000000 0.000000 0.000000 0.000000 -0.070663
#
#
# Mechanical properties :
#
#
# Convention : Reuss Voigt Hill
#
# Bulk Modulus (GPa) = 35.86715 69.94304 52.90509
# Shear Modulus (GPa) = 20.63153 18.85053 19.74103
#
# Velocity S-wave (km/s) = 3.20532 3.06385 3.13538
# Velocity P-wave (km/s) = 5.61782 6.88088 6.28118
#
# Compressibility (1/GPa) = 0.02788067
#
# Stress axis : x y z
#
# Youngs Moduli (GPa) = 37.89292 76.60995 47.78187
#
# Poissons Ratio (x) = 1.14303 0.14367
# Poissons Ratio (y) = 0.56537 -0.08034
# Poissons Ratio (z) = 0.11394 -0.12881
#
# Static dielectric constant tensor:
#      x y z
#    x 1.689410 0.000000 0.000000 
#    y 0.000000 1.727440 0.000000 
#    z 0.000000 0.000000 1.774290 
# 
# From -- ./inp_files/2511.got.cif
#   From: 2010.05.17/outbox.cif.g08.bks.cpg/sg47_2_cif.got.tgz:2511.got - 2010.06.03 20:15:42.
