data_PCOD9386015
_publ_section_title
;
Structure prediction by ZEFSAII (Michael W. Deem and Ramdas Pophale) SiO2 
 PCOD9386015
Probable space group: P M M M
;
_chemical_formula_sum "Si O2"
_cell_formula_units_Z 48
_cell_length_a 8.499395
_cell_length_b 9.193971
_cell_length_c 31.784722
_cell_angle_alpha 90.000000
_cell_angle_beta 90.000000
_cell_angle_gamma 90.000000
_cell_volume 2483.759607
_symmetry_space_group_name_H-M "P M M M"
_symmetry_group_IT_number 47
_symmetry_cell_setting 'orthorhombic'
loop_
_space_group_symop_operation_xyz
x,y,z
-x,-y,z
x,-y,-z
-x,y,-z
-x,-y,-z
x,y,-z
-x,y,z
x,-y,z
loop_
_atom_site_type_symbol
_atom_site_label
_atom_site_fract_x
_atom_site_fract_y
_atom_site_fract_z
Si Si1 0.688673 0.168437 0.834842
Si Si2 0.309682 0.667916 0.584681
Si Si3 0.190440 0.331261 0.247794
Si Si4 0.811237 0.331560 0.082580
Si Si5 0.190191 0.168045 0.332897
Si Si6 0.692102 0.832226 0.500000
Si Si7 0.311230 0.831592 0.000000
O O1 0.500000 0.170973 0.836220
O O2 0.746039 0.248290 0.792834
O O3 0.753068 0.250947 0.875647
O O4 0.740877 0.000000 0.834851
O O5 0.500000 0.669129 0.584831
O O6 0.257828 0.500000 0.584917
O O7 0.250950 0.751265 0.625772
O O8 0.257214 0.749173 0.542167
O O9 0.239433 0.500000 0.247794
O O10 0.241258 0.251472 0.290646
O O11 0.000000 0.327575 0.246375
O O12 0.759007 0.500000 0.082616
O O13 0.748960 0.249687 0.041453
O O14 0.000000 0.329612 0.081899
O O15 0.000000 0.170001 0.333595
O O16 0.241802 0.000000 0.332166
O O17 0.500000 0.831768 0.500000
O O18 0.743051 0.000000 0.500000
O O19 0.500000 0.829714 0.000000
O O20 0.258901 0.000000 0.000000
#
# Coordination Sequence:
#
# PCOD9386015 Si02
#       7
#     8   8   8   8   8   4   4
#     4  11  24  40  59  86 118 151 189 233 281 333
#     4  10  20  34  54  80 109 142 181 225 274 329
#     4  10  21  38  60  84 110 144 186 229 276 333
#     4  11  24  41  62  89 119 153 195 238 282 337
#     4  10  21  37  57  81 110 145 184 227 277 331
#     4   9  17  31  52  77 106 141 180 224 274 327
#     4  11  24  41  62  90 122 155 194 239 286 336
#
# _framework density 19.325541999999999
#
# number of rings (size 3 to 8) (size 9 to 14) (size 15 to 20)
#    0.000    1.667    0.000    4.250    0.000   13.000 
#    0.000    0.417    0.000    2.500    0.000    0.000 
#    0.000    0.000    0.000    0.000    0.000    0.000 
#
# Total GULP energy -268385.523974 kJ/mol
# GULP energy per Si atom -5591.365083 kJ/mol
# Density = 1.928156 g / cm^3
# Si number density = 19.325542 Si / 1000 Ang^3
#
#
#
# Elastic Constant Matrix: (Units=GPa)
#
#
# Indices 1 2 3 4 5 6 
#
# 1 18.0353 40.6747 33.7716 0.0000 0.0000 0.0000
# 2 40.6747 246.4706 149.5972 0.0000 0.0000 0.0000
# 3 33.7716 149.5972 241.3535 0.0000 0.0000 0.0000
# 4 0.0000 0.0000 0.0000 47.1466 0.0000 0.0000
# 5 0.0000 0.0000 0.0000 0.0000 38.3528 0.0000
# 6 0.0000 0.0000 0.0000 0.0000 0.0000 29.1758
#
#
#
# Elastic Compliance Matrix: (Units=1/GPa)
#
#
# Indices 1 2 3 4 5 6 
#
# 1 0.092810 -0.011917 -0.005600 0.000000 0.000000 0.000000
# 2 -0.011917 0.008034 -0.003312 0.000000 0.000000 0.000000
# 3 -0.005600 -0.003312 0.006980 0.000000 0.000000 0.000000
# 4 0.000000 0.000000 0.000000 0.021210 0.000000 0.000000
# 5 0.000000 0.000000 0.000000 0.000000 0.026074 0.000000
# 6 0.000000 0.000000 0.000000 0.000000 0.000000 0.034275
#
#
# Mechanical properties :
#
#
# Convention : Reuss Voigt Hill
#
# Bulk Modulus (GPa) = 15.11375 105.99404 60.55389
# Shear Modulus (GPa) = 19.75524 41.72279 30.73901
#
# Velocity S-wave (km/s) = 3.20071 4.65149 3.99255
# Velocity P-wave (km/s) = 4.63648 9.15500 7.25641
#
# Compressibility (1/GPa) = 0.06616494
#
# Stress axis : x y z
#
# Youngs Moduli (GPa) = 10.77474 124.46328 143.26687
#
# Poissons Ratio (x) = 1.48328 0.80226
# Poissons Ratio (y) = 0.12841 0.47456
# Poissons Ratio (z) = 0.06034 0.41228
#
# Static dielectric constant tensor:
#      x y z
#    x 1.669190 0.000000 0.000000 
#    y 0.000000 1.660100 0.000000 
#    z 0.000000 0.000000 1.618700 
# 
# From -- ./inp_files/34043.got.cif
#   From: 2010.05.17/outbox.cif.g08.bks.cpg/sg47_18_cif.got.tgz:34043.got - 2010.06.03 20:15:42.
