data_PCOD9386894
_publ_section_title
;
Structure prediction by ZEFSAII (Michael W. Deem and Ramdas Pophale) SiO2 
 PCOD9386894
Probable space group: P M M M
;
_chemical_formula_sum "Si O2"
_cell_formula_units_Z 52
_cell_length_a 13.315997
_cell_length_b 7.545227
_cell_length_c 22.924500
_cell_angle_alpha 90.000000
_cell_angle_beta 90.000000
_cell_angle_gamma 90.000000
_cell_volume 2303.275410
_symmetry_space_group_name_H-M "P M M M"
_symmetry_group_IT_number 47
_symmetry_cell_setting 'orthorhombic'
loop_
_space_group_symop_operation_xyz
x,y,z
-x,-y,z
x,-y,-z
-x,y,-z
-x,-y,-z
x,y,-z
-x,y,z
x,-y,z
loop_
_atom_site_type_symbol
_atom_site_label
_atom_site_fract_x
_atom_site_fract_y
_atom_site_fract_z
Si Si1 0.886114 0.212854 0.566578
Si Si2 0.176165 0.783476 0.936598
Si Si3 0.689194 0.287616 0.640393
Si Si4 0.108257 0.214972 0.189217
Si Si5 0.608781 0.205646 0.896187
Si Si6 0.500000 0.283075 0.433905
Si Si7 0.323999 0.702049 0.230712
O O1 0.862200 0.274689 0.500000
O O2 0.798457 0.255280 0.612378
O O3 0.000000 0.274521 0.581112
O O4 0.890260 0.000000 0.564349
O O5 0.115764 0.733849 0.878971
O O6 0.290802 0.720767 0.925710
O O7 0.176659 0.000000 0.936650
O O8 0.139733 0.725994 0.000000
O O9 0.681373 0.500000 0.645708
O O10 0.601273 0.224907 0.597927
O O11 0.665713 0.217110 0.705222
O O12 0.204380 0.294690 0.219968
O O13 0.000000 0.265980 0.213257
O O14 0.117071 0.000000 0.192401
O O15 0.500000 0.285364 0.909548
O O16 0.627623 0.210542 0.826339
O O17 0.605413 0.000000 0.913920
O O18 0.500000 0.500000 0.433386
O O19 0.500000 0.223950 0.500000
O O20 0.361335 0.500000 0.230484
#
# Coordination Sequence:
#
# PCOD9386894 Si02
#       7
#     8   8   8   8   8   4   8
#     4   9  19  36  56  78 106 138 169 206 256 310
#     4   8  14  26  46  74 103 126 158 208 258 304
#     4  10  21  35  54  79 104 135 175 217 257 304
#     4   9  18  33  52  73 100 134 169 208 257 309
#     4   9  18  32  50  72  99 131 167 206 251 304
#     4   9  18  34  55  77 103 133 164 205 258 308
#     4  10  21  34  50  73 101 133 170 212 251 297
#
# _framework density 22.576544999999999
#
# number of rings (size 3 to 8) (size 9 to 14) (size 15 to 20)
#    0.000    2.846    0.000    2.308    1.077    4.308 
#    0.000    7.308    0.000    8.769    0.000    8.615 
#    0.000    0.000    0.000    0.000    0.000    0.000 
#
# Total GULP energy -290163.883344 kJ/mol
# GULP energy per Si atom -5580.074680 kJ/mol
# Density = 2.252516 g / cm^3
# Si number density = 22.576545 Si / 1000 Ang^3
#
#
#
# Elastic Constant Matrix: (Units=GPa)
#
#
# Indices 1 2 3 4 5 6 
#
# 1 72.5736 -6.1502 -8.8942 0.0000 0.0000 0.0000
# 2 -6.1502 55.8203 -6.8811 0.0000 0.0000 0.0000
# 3 -8.8942 -6.8811 85.2022 0.0000 0.0000 0.0000
# 4 0.0000 0.0000 0.0000 16.0641 0.0000 0.0000
# 5 0.0000 0.0000 0.0000 0.0000 -8.9194 0.0000
# 6 0.0000 0.0000 0.0000 0.0000 0.0000 5.4234
#
#
#
# Elastic Compliance Matrix: (Units=1/GPa)
#
#
# Indices 1 2 3 4 5 6 
#
# 1 0.014126 0.001756 0.001616 0.000000 0.000000 0.000000
# 2 0.001756 0.018313 0.001662 0.000000 0.000000 0.000000
# 3 0.001616 0.001662 0.012040 0.000000 0.000000 0.000000
# 4 0.000000 0.000000 0.000000 0.062250 0.000000 0.000000
# 5 0.000000 0.000000 0.000000 0.000000 -0.112115 0.000000
# 6 0.000000 0.000000 0.000000 0.000000 0.000000 0.184387
#
#
# Mechanical properties :
#
#
# Convention : Reuss Voigt Hill
#
# Bulk Modulus (GPa) = 18.33272 18.86058 18.59665
# Shear Modulus (GPa) = 26.72158 18.21507 22.46832
#
# Velocity S-wave (km/s) = 3.44408 2.84353 3.15811
# Velocity P-wave (km/s) = 4.89423 4.37642 4.64255
#
# Compressibility (1/GPa) = 0.05454728
#
# Stress axis : x y z
#
# Youngs Moduli (GPa) = 70.79153 54.60609 83.05809
#
# Poissons Ratio (x) = -0.09587 -0.13425
# Poissons Ratio (y) = -0.12428 -0.13806
# Poissons Ratio (z) = -0.11443 -0.09077
#
# Static dielectric constant tensor:
#      x y z
#    x 1.831220 0.000000 0.000000 
#    y 0.000000 1.883560 0.000000 
#    z 0.000000 0.000000 1.822500 
# 
# From -- ./inp_files/25463.got.cif
#   From: 2010.05.17/outbox.cif.g08.bks.cpg/sg47_13_cif.got.tgz:25463.got - 2010.06.03 20:15:42.
