data_PCOD9386511
_publ_section_title
;
Structure prediction by ZEFSAII (Michael W. Deem and Ramdas Pophale) SiO2 
 PCOD9386511
Probable space group: P M M M
;
_chemical_formula_sum "Si O2"
_cell_formula_units_Z 44
_cell_length_a 30.799227
_cell_length_b 8.017656
_cell_length_c 9.591296
_cell_angle_alpha 90.000000
_cell_angle_beta 90.000000
_cell_angle_gamma 90.000000
_cell_volume 2368.451684
_symmetry_space_group_name_H-M "P M M M"
_symmetry_group_IT_number 47
_symmetry_cell_setting 'orthorhombic'
loop_
_space_group_symop_operation_xyz
x,y,z
-x,-y,z
x,-y,-z
-x,y,-z
-x,-y,-z
x,y,-z
-x,y,z
x,-y,z
loop_
_atom_site_type_symbol
_atom_site_label
_atom_site_fract_x
_atom_site_fract_y
_atom_site_fract_z
Si Si1 0.390761 0.188424 0.834072
Si Si2 0.129437 0.200459 0.842118
Si Si3 0.226469 0.201752 0.163212
Si Si4 0.549491 0.500000 0.169236
Si Si5 0.690931 0.302774 0.661529
Si Si6 0.952358 0.700851 0.660150
O O1 0.424221 0.333376 0.791113
O O2 0.346741 0.211496 0.747555
O O3 0.407653 0.000000 0.814673
O O4 0.381640 0.209475 0.000000
O O5 0.177595 0.256276 0.796127
O O6 0.089034 0.246886 0.747750
O O7 0.131575 0.000000 0.847187
O O8 0.122614 0.262062 0.000000
O O9 0.263478 0.272562 0.261811
O O10 0.228515 0.000000 0.170449
O O11 0.233229 0.247112 0.000000
O O12 0.500000 0.500000 0.220345
O O13 0.547963 0.500000 0.000000
O O14 0.692480 0.249175 0.500000
O O15 0.681302 0.500000 0.665205
O O16 0.948168 0.757756 0.500000
O O17 0.953170 0.500000 0.658952
O O18 0.000000 0.757674 0.712812
#
# Coordination Sequence:
#
# PCOD9386511 Si02
#       6
#     8   8   8   4   8   8
#     4  10  20  35  58  85 113 150 191 230 279 334
#     4   9  19  35  53  75 103 132 166 212 263 316
#     4   9  19  36  55  75 102 137 175 215 265 324
#     4   9  18  34  57  87 121 151 185 235 284 327
#     4  11  23  36  52  78 111 145 183 227 273 323
#     4   9  19  35  52  71  98 132 169 210 257 311
#
# _framework density 18.577538000000001
#
# number of rings (size 3 to 8) (size 9 to 14) (size 15 to 20)
#    0.000    2.455    0.909    2.727    0.000    7.273 
#    0.000   10.000    0.000    1.091    0.000    1.273 
#    0.000    0.000    0.000    0.000    0.000    0.000 
#
# Total GULP energy -245428.404199 kJ/mol
# GULP energy per Si atom -5577.918277 kJ/mol
# Density = 1.853526 g / cm^3
# Si number density = 18.577538 Si / 1000 Ang^3
#
#
#
# Elastic Constant Matrix: (Units=GPa)
#
#
# Indices 1 2 3 4 5 6 
#
# 1 163.6331 48.8610 70.9074 0.0000 0.0000 0.0000
# 2 48.8610 67.0813 33.4542 0.0000 0.0000 0.0000
# 3 70.9074 33.4542 64.3731 0.0000 0.0000 0.0000
# 4 0.0000 0.0000 0.0000 24.3183 0.0000 0.0000
# 5 0.0000 0.0000 0.0000 0.0000 -36.9241 0.0000
# 6 0.0000 0.0000 0.0000 0.0000 0.0000 60.3655
#
#
#
# Elastic Compliance Matrix: (Units=1/GPa)
#
#
# Indices 1 2 3 4 5 6 
#
# 1 0.012103 -0.002925 -0.011811 0.000000 0.000000 0.000000
# 2 -0.002925 0.020830 -0.007603 0.000000 0.000000 0.000000
# 3 -0.011811 -0.007603 0.032496 0.000000 0.000000 0.000000
# 4 0.000000 0.000000 0.000000 0.041121 0.000000 0.000000
# 5 0.000000 0.000000 0.000000 0.000000 -0.027083 0.000000
# 6 0.000000 0.000000 0.000000 0.000000 0.000000 0.016566
#
#
# Mechanical properties :
#
#
# Convention : Reuss Voigt Hill
#
# Bulk Modulus (GPa) = 48.19359 66.83697 57.51528
# Shear Modulus (GPa) = 33.86898 19.00960 26.43929
#
# Velocity S-wave (km/s) = 4.27443 3.20231 3.77661
# Velocity P-wave (km/s) = 7.09642 7.05184 7.07416
#
# Compressibility (1/GPa) = 0.02074965
#
# Stress axis : x y z
#
# Youngs Moduli (GPa) = 82.62516 48.00866 30.77326
#
# Poissons Ratio (x) = 0.14043 0.36347
# Poissons Ratio (y) = 0.24169 0.23397
# Poissons Ratio (z) = 0.97590 0.36501
#
# Static dielectric constant tensor:
#      x y z
#    x 1.630620 0.000000 0.000000 
#    y 0.000000 1.668550 0.000000 
#    z 0.000000 0.000000 1.622010 
# 
# From -- ./inp_files/13593.got.cif
#   From: 2010.05.17/outbox.cif.g08.bks.cpg/sg47_7_cif.got.tgz:13593.got - 2010.06.03 20:15:42.
