data_PCOD9386445
_publ_section_title
;
Structure prediction by ZEFSAII (Michael W. Deem and Ramdas Pophale) SiO2 
 PCOD9386445
Probable space group: P M M M
;
_chemical_formula_sum "Si O2"
_cell_formula_units_Z 56
_cell_length_a 14.961810
_cell_length_b 9.100540
_cell_length_c 21.263917
_cell_angle_alpha 90.000000
_cell_angle_beta 90.000000
_cell_angle_gamma 90.000000
_cell_volume 2895.306642
_symmetry_space_group_name_H-M "P M M M"
_symmetry_group_IT_number 47
_symmetry_cell_setting 'orthorhombic'
loop_
_space_group_symop_operation_xyz
x,y,z
-x,-y,z
x,-y,-z
-x,y,-z
-x,-y,-z
x,y,-z
-x,y,z
x,-y,z
loop_
_atom_site_type_symbol
_atom_site_label
_atom_site_fract_x
_atom_site_fract_y
_atom_site_fract_z
Si Si1 0.371757 0.827952 0.189161
Si Si2 0.600771 0.674597 0.323311
Si Si3 0.894566 0.178754 0.500000
Si Si4 0.159594 0.163595 0.178708
Si Si5 0.500000 0.822177 0.074815
Si Si6 0.771052 0.174531 0.618600
Si Si7 0.892803 0.341700 0.928267
Si Si8 0.898832 0.668722 0.709911
O O1 0.396824 0.738519 0.252026
O O2 0.265086 0.820177 0.186974
O O3 0.417208 0.781784 0.122450
O O4 0.395827 0.000000 0.198765
O O5 0.500000 0.700105 0.347556
O O6 0.617113 0.500000 0.320531
O O7 0.676418 0.748684 0.367052
O O8 0.833532 0.222651 0.559834
O O9 0.000000 0.228161 0.500000
O O10 0.898878 0.000000 0.500000
O O11 0.140506 0.200060 0.107236
O O12 0.106778 0.285879 0.217763
O O13 0.131309 0.000000 0.197042
O O14 0.500000 0.000000 0.070393
O O15 0.500000 0.771571 0.000000
O O16 0.832284 0.218867 0.677332
O O17 0.757682 0.000000 0.614258
O O18 0.861586 0.500000 0.901417
O O19 0.000000 0.342219 0.926680
O O20 0.863929 0.337597 0.000000
O O21 0.871278 0.500000 0.700120
O O22 0.000000 0.685679 0.686639
#
# Coordination Sequence:
#
# PCOD9386445 Si02
#       8
#     8   8   4   8   4   8   8   8
#     4  10  20  35  57  83 112 151 198 247 306 368
#     4  11  23  39  62  91 123 163 207 255 313 367
#     4   9  20  40  66  97 134 172 207 249 302 359
#     4  11  22  33  51  82 112 143 188 245 300 356
#     4   9  18  34  57  83 113 150 195 250 313 381
#     4  11  22  39  65  95 125 162 208 255 303 359
#     4   9  19  36  54  70  95 139 190 235 288 356
#     4  11  23  37  55  83 121 161 200 247 302 361
#
# _framework density 19.341646999999998
#
# number of rings (size 3 to 8) (size 9 to 14) (size 15 to 20)
#    0.000    1.714    2.143    3.000    0.000    6.000 
#    0.000    3.929    0.000    5.571    0.000    0.000 
#    0.000    0.000    0.000    0.000    0.000    0.000 
#
# Total GULP energy -312032.680236 kJ/mol
# GULP energy per Si atom -5572.012147 kJ/mol
# Density = 1.929762 g / cm^3
# Si number density = 19.341647 Si / 1000 Ang^3
#
#
#
# Elastic Constant Matrix: (Units=GPa)
#
#
# Indices 1 2 3 4 5 6 
#
# 1 104.8823 41.8171 46.8634 0.0000 0.0000 0.0000
# 2 41.8171 53.6111 27.8138 0.0000 0.0000 0.0000
# 3 46.8634 27.8138 89.1051 0.0000 0.0000 0.0000
# 4 0.0000 0.0000 0.0000 6.9252 0.0000 0.0000
# 5 0.0000 0.0000 0.0000 0.0000 27.3173 0.0000
# 6 0.0000 0.0000 0.0000 0.0000 0.0000 26.1784
#
#
#
# Elastic Compliance Matrix: (Units=1/GPa)
#
#
# Indices 1 2 3 4 5 6 
#
# 1 0.015678 -0.009488 -0.005284 0.000000 0.000000 0.000000
# 2 -0.009488 0.027999 -0.003750 0.000000 0.000000 0.000000
# 3 -0.005284 -0.003750 0.015172 0.000000 0.000000 0.000000
# 4 0.000000 0.000000 0.000000 0.144400 0.000000 0.000000
# 5 0.000000 0.000000 0.000000 0.000000 0.036607 0.000000
# 6 0.000000 0.000000 0.000000 0.000000 0.000000 0.038199
#
#
# Mechanical properties :
#
#
# Convention : Reuss Voigt Hill
#
# Bulk Modulus (GPa) = 45.85896 53.39855 49.62875
# Shear Modulus (GPa) = 15.51022 20.82446 18.16734
#
# Velocity S-wave (km/s) = 2.83487 3.28482 3.06810
# Velocity P-wave (km/s) = 5.87169 6.48496 6.18593
#
# Compressibility (1/GPa) = 0.02180599
#
# Stress axis : x y z
#
# Youngs Moduli (GPa) = 63.78187 35.71579 65.90943
#
# Poissons Ratio (x) = 0.33886 0.34828
# Poissons Ratio (y) = 0.60515 0.24714
# Poissons Ratio (z) = 0.33704 0.13393
#
# Static dielectric constant tensor:
#      x y z
#    x 1.723560 0.000000 0.000000 
#    y 0.000000 1.686390 0.000000 
#    z 0.000000 0.000000 1.754470 
# 
# From -- ./inp_files/31013.got.cif
#   From: 2010.05.17/outbox.cif.g08.bks.cpg/sg47_16_cif.got.tgz:31013.got - 2010.06.03 20:15:42.
