data_PCOD9386751
_publ_section_title
;
Structure prediction by ZEFSAII (Michael W. Deem and Ramdas Pophale) SiO2 
 PCOD9386751
Probable space group: P M M M
;
_chemical_formula_sum "Si O2"
_cell_formula_units_Z 37
_cell_length_a 7.660366
_cell_length_b 22.303974
_cell_length_c 10.324366
_cell_angle_alpha 90.000000
_cell_angle_beta 90.000000
_cell_angle_gamma 90.000000
_cell_volume 1763.986114
_symmetry_space_group_name_H-M "P M M M"
_symmetry_group_IT_number 47
_symmetry_cell_setting 'orthorhombic'
loop_
_space_group_symop_operation_xyz
x,y,z
-x,-y,z
x,-y,-z
-x,y,-z
-x,-y,-z
x,y,-z
-x,y,z
x,-y,z
loop_
_atom_site_type_symbol
_atom_site_label
_atom_site_fract_x
_atom_site_fract_y
_atom_site_fract_z
Si Si1 0.291386 0.127836 0.144046
Si Si2 0.213858 0.568116 0.500000
Si Si3 0.288388 0.000000 0.732754
Si Si4 0.208550 0.228927 0.351365
Si Si5 0.209463 0.643501 0.744935
Si Si6 0.000000 0.000000 0.500000
Si Si7 0.293695 0.568449 0.000000
O O1 0.500000 0.132657 0.136868
O O2 0.237555 0.172286 0.259146
O O3 0.252312 0.059824 0.184601
O O4 0.221022 0.142415 0.000000
O O5 0.271978 0.500000 0.500000
O O6 0.272813 0.603132 0.626333
O O7 0.000000 0.568072 0.500000
O O8 0.155955 0.000000 0.612546
O O9 0.500000 0.000000 0.700183
O O10 0.275786 0.223337 0.500000
O O11 0.275735 0.288972 0.279329
O O12 0.000000 0.235309 0.363429
O O13 0.000000 0.646868 0.736665
O O14 0.247381 0.608290 0.875809
O O15 0.218873 0.500000 0.000000
O O16 0.500000 0.561832 0.000000
#
# Coordination Sequence:
#
# PCOD9386751 Si02
#       7
#     8   4   4   8   8   1   4
#     4  10  23  43  66  92 128 173 217 263 320 378
#     4   9  16  30  58  89 111 141 192 248 301 359
#     4  10  24  45  69  99 138 177 224 278 330 394
#     4  10  22  39  61  91 127 160 202 261 317 378
#     4  10  20  38  61  87 118 155 199 252 310 370
#     4  12  26  40  70 106 136 180 216 272 338 394
#     4  11  25  41  57  83 121 160 201 254 311 375
#
# _framework density 20.975221999999999
#
# number of rings (size 3 to 8) (size 9 to 14) (size 15 to 20)
#    0.000    1.946    1.081    1.459    4.541    4.757 
#    0.000    1.081    0.000    1.946    0.000    0.000 
#    0.000    0.000    0.000    0.000    0.000    0.000 
#
# Total GULP energy -206256.647947 kJ/mol
# GULP energy per Si atom -5574.503999 kJ/mol
# Density = 2.092748 g / cm^3
# Si number density = 20.975222 Si / 1000 Ang^3
#
#
#
# Elastic Constant Matrix: (Units=GPa)
#
#
# Indices 1 2 3 4 5 6 
#
# 1 50.5734 12.6964 20.3348 0.0000 0.0000 0.0000
# 2 12.6964 202.8844 111.1528 0.0000 0.0000 0.0000
# 3 20.3348 111.1528 215.6295 0.0000 0.0000 0.0000
# 4 0.0000 0.0000 0.0000 -52.0571 0.0000 0.0000
# 5 0.0000 0.0000 0.0000 0.0000 53.1470 0.0000
# 6 0.0000 0.0000 0.0000 0.0000 0.0000 21.4126
#
#
#
# Elastic Compliance Matrix: (Units=1/GPa)
#
#
# Indices 1 2 3 4 5 6 
#
# 1 0.020567 -0.000313 -0.001778 0.000000 0.000000 0.000000
# 2 -0.000313 0.006873 -0.003514 0.000000 0.000000 0.000000
# 3 -0.001778 -0.003514 0.006617 0.000000 0.000000 0.000000
# 4 0.000000 0.000000 0.000000 -0.019210 0.000000 0.000000
# 5 0.000000 0.000000 0.000000 0.000000 0.018816 0.000000
# 6 0.000000 0.000000 0.000000 0.000000 0.000000 0.046701
#
#
# Mechanical properties :
#
#
# Convention : Reuss Voigt Hill
#
# Bulk Modulus (GPa) = 43.76883 84.16168 63.96526
# Shear Modulus (GPa) = 50.40855 26.16074 38.28464
#
# Velocity S-wave (km/s) = 4.90761 3.53543 4.27691
# Velocity P-wave (km/s) = 7.28183 7.54169 7.41290
#
# Compressibility (1/GPa) = 0.02284731
#
# Stress axis : x y z
#
# Youngs Moduli (GPa) = 48.62205 145.48656 151.13726
#
# Poissons Ratio (x) = 0.04551 0.26877
# Poissons Ratio (y) = 0.01521 0.53104
# Poissons Ratio (z) = 0.08646 0.51119
#
# Static dielectric constant tensor:
#      x y z
#    x 1.789890 0.000000 0.000000 
#    y 0.000000 1.750150 0.000000 
#    z 0.000000 0.000000 1.749740 
# 
# From -- ./inp_files/1600.got.cif
#   From: 2010.05.17/outbox.cif.g08.bks.cpg/sg47_1_cif.got.tgz:1600.got - 2010.06.03 20:15:42.
