data_PCOD9386890
_publ_section_title
;
Structure prediction by ZEFSAII (Michael W. Deem and Ramdas Pophale) SiO2 
 PCOD9386890
Probable space group: P M M M
;
_chemical_formula_sum "Si O2"
_cell_formula_units_Z 56
_cell_length_a 21.559473
_cell_length_b 9.638632
_cell_length_c 14.938461
_cell_angle_alpha 90.000000
_cell_angle_beta 90.000000
_cell_angle_gamma 90.000000
_cell_volume 3104.269356
_symmetry_space_group_name_H-M "P M M M"
_symmetry_group_IT_number 47
_symmetry_cell_setting 'orthorhombic'
loop_
_space_group_symop_operation_xyz
x,y,z
-x,-y,z
x,-y,-z
-x,y,-z
-x,-y,-z
x,y,-z
-x,y,z
x,-y,z
loop_
_atom_site_type_symbol
_atom_site_label
_atom_site_fract_x
_atom_site_fract_y
_atom_site_fract_z
Si Si1 0.925884 0.346909 0.000000
Si Si2 0.929623 0.836199 0.828594
Si Si3 0.390553 0.653414 0.392267
Si Si4 0.277768 0.846935 0.398900
Si Si5 0.204717 0.841582 0.780101
Si Si6 0.305082 0.665927 0.891680
Si Si7 0.500000 0.844347 0.389801
Si Si8 0.428892 0.161625 0.109110
O O1 0.913061 0.255719 0.085890
O O2 0.896967 0.500000 0.000000
O O3 0.000000 0.363092 0.000000
O O4 0.868560 0.811928 0.770630
O O5 0.000000 0.800532 0.797581
O O6 0.931440 0.000000 0.851067
O O7 0.400611 0.644288 0.500000
O O8 0.396045 0.500000 0.354650
O O9 0.324699 0.723126 0.381110
O O10 0.440980 0.759778 0.357929
O O11 0.253311 0.833569 0.500000
O O12 0.229399 0.842581 0.320398
O O13 0.309645 0.000000 0.395409
O O14 0.247680 0.740212 0.840061
O O15 0.211403 0.000000 0.816557
O O16 0.307065 0.500000 0.873578
O O17 0.370421 0.741280 0.864306
O O18 0.297971 0.683239 0.000000
O O19 0.500000 0.848199 0.500000
O O20 0.500000 0.000000 0.357812
O O21 0.500000 0.200204 0.136869
O O22 0.418058 0.000000 0.135425
O O23 0.429367 0.164859 0.000000
#
# Coordination Sequence:
#
# PCOD9386890 Si02
#       8
#     4   8   8   8   8   8   4   8
#     4   9  17  29  47  73 105 139 172 205 244 293
#     4   9  18  33  52  75 104 138 176 212 248 299
#     4   9  16  26  43  68  96 125 159 202 254 309
#     4   9  18  34  54  74  97 127 168 216 263 312
#     4  10  21  35  54  77 102 138 176 213 260 313
#     4  10  21  34  49  75 110 143 174 214 263 310
#     4   9  15  23  39  65  95 127 162 199 246 305
#     4   8  14  27  49  74  99 133 177 219 258 304
#
# _framework density 18.039671999999999
#
# number of rings (size 3 to 8) (size 9 to 14) (size 15 to 20)
#    0.000    2.857    0.000    1.714    1.000    5.714 
#    0.000    1.429    1.571    0.429    0.000    3.000 
#    0.000    0.000    0.000    8.429    0.000    8.857 
#
# Total GULP energy -311785.252300 kJ/mol
# GULP energy per Si atom -5567.593791 kJ/mol
# Density = 1.799861 g / cm^3
# Si number density = 18.039672 Si / 1000 Ang^3
#
#
#
# Elastic Constant Matrix: (Units=GPa)
#
#
# Indices 1 2 3 4 5 6 
#
# 1 121.1182 72.1406 38.7112 0.0000 0.0000 0.0000
# 2 72.1406 105.4138 28.7892 0.0000 0.0000 0.0000
# 3 38.7112 28.7892 33.4739 0.0000 0.0000 0.0000
# 4 0.0000 0.0000 0.0000 10.1205 0.0000 0.0000
# 5 0.0000 0.0000 0.0000 0.0000 17.8855 0.0000
# 6 0.0000 0.0000 0.0000 0.0000 0.0000 -421.1569
#
#
#
# Elastic Compliance Matrix: (Units=1/GPa)
#
#
# Indices 1 2 3 4 5 6 
#
# 1 0.017349 -0.008356 -0.012877 0.000000 0.000000 0.000000
# 2 -0.008356 0.016423 -0.004461 0.000000 0.000000 0.000000
# 3 -0.012877 -0.004461 0.048602 0.000000 0.000000 0.000000
# 4 0.000000 0.000000 0.000000 0.098809 0.000000 0.000000
# 5 0.000000 0.000000 0.000000 0.000000 0.055911 0.000000
# 6 0.000000 0.000000 0.000000 0.000000 0.000000 -0.002374
#
#
# Mechanical properties :
#
#
# Convention : Reuss Voigt Hill
#
# Bulk Modulus (GPa) = 32.27230 59.92088 46.09659
# Shear Modulus (GPa) = 16.86689 -70.60585 -26.86948
#
# Velocity S-wave (km/s) = 3.06108 -6.26292 -3.86355
# Velocity P-wave (km/s) = 5.51562 4.36012 2.38866
#
# Compressibility (1/GPa) = 0.03098633
#
# Stress axis : x y z
#
# Youngs Moduli (GPa) = 57.63950 60.88836 20.57509
#
# Poissons Ratio (x) = 0.50880 0.26494
# Poissons Ratio (y) = 0.48165 0.09179
# Poissons Ratio (z) = 0.74222 0.27164
#
# Static dielectric constant tensor:
#      x y z
#    x 1.638470 0.000000 0.000000 
#    y 0.000000 1.646830 0.000000 
#    z 0.000000 0.000000 1.614820 
# 
# From -- ./inp_files/25226.got.cif
#   From: 2010.05.17/outbox.cif.g08.bks.cpg/sg47_13_cif.got.tgz:25226.got - 2010.06.03 20:15:42.
