data_PCOD9386897
_publ_section_title
;
Structure prediction by ZEFSAII (Michael W. Deem and Ramdas Pophale) SiO2 
 PCOD9386897
Probable space group: P M M M
;
_chemical_formula_sum "Si O2"
_cell_formula_units_Z 52
_cell_length_a 13.190933
_cell_length_b 7.443557
_cell_length_c 22.667811
_cell_angle_alpha 90.000000
_cell_angle_beta 90.000000
_cell_angle_gamma 90.000000
_cell_volume 2225.694824
_symmetry_space_group_name_H-M "P M M M"
_symmetry_group_IT_number 47
_symmetry_cell_setting 'orthorhombic'
loop_
_space_group_symop_operation_xyz
x,y,z
-x,-y,z
x,-y,-z
-x,y,-z
-x,-y,-z
x,y,-z
-x,y,z
x,-y,z
loop_
_atom_site_type_symbol
_atom_site_label
_atom_site_fract_x
_atom_site_fract_y
_atom_site_fract_z
Si Si1 0.305624 0.289668 0.856490
Si Si2 0.828748 0.219427 0.563754
Si Si3 0.891381 0.217781 0.692217
Si Si4 0.884295 0.280966 0.068288
Si Si5 0.329869 0.703617 0.729583
Si Si6 0.609454 0.792704 0.400319
Si Si7 0.500000 0.784445 0.933229
O O1 0.285276 0.500000 0.843910
O O2 0.203395 0.217384 0.887210
O O3 0.343494 0.212256 0.793928
O O4 0.398444 0.277126 0.901095
O O5 0.867981 0.276501 0.500000
O O6 0.885741 0.270666 0.623237
O O7 0.712390 0.282596 0.572205
O O8 0.828763 0.000000 0.564055
O O9 0.791818 0.294520 0.721808
O O10 0.000000 0.271572 0.717431
O O11 0.883891 0.000000 0.695015
O O12 0.882034 0.500000 0.068763
O O13 0.000000 0.227182 0.083164
O O14 0.863894 0.227559 0.000000
O O15 0.369350 0.500000 0.728767
O O16 0.374161 0.791255 0.670592
O O17 0.500000 0.711587 0.414382
O O18 0.606566 0.000000 0.419455
O O19 0.500000 0.000000 0.932756
O O20 0.500000 0.720085 0.000000
#
# Coordination Sequence:
#
# PCOD9386897 Si02
#       7
#     8   8   8   8   8   8   4
#     4  10  21  36  56  81 107 140 181 223 264 311
#     4   8  14  26  46  74 103 127 163 217 265 308
#     4   9  18  33  52  74 103 139 175 211 259 318
#     4   8  14  27  50  78 103 127 160 206 258 306
#     4  10  21  34  50  75 103 132 172 219 260 304
#     4   9  18  32  50  71  97 132 168 206 262 321
#     4  11  25  41  57  81 113 147 180 219 268 321
#
# _framework density 23.363488
#
# number of rings (size 3 to 8) (size 9 to 14) (size 15 to 20)
#    0.000    2.846    0.000    2.538    1.077    4.308 
#    0.000    4.615    0.000    7.846    0.000   10.769 
#    0.000    0.000    0.000    0.000    0.000    0.000 
#
# Total GULP energy -290295.524237 kJ/mol
# GULP energy per Si atom -5582.606235 kJ/mol
# Density = 2.331031 g / cm^3
# Si number density = 23.363488 Si / 1000 Ang^3
#
#
#
# Elastic Constant Matrix: (Units=GPa)
#
#
# Indices 1 2 3 4 5 6 
#
# 1 94.1408 -5.6134 -0.3643 0.0000 0.0000 0.0000
# 2 -5.6134 74.8909 -5.5422 0.0000 0.0000 0.0000
# 3 -0.3643 -5.5422 96.0843 0.0000 0.0000 0.0000
# 4 0.0000 0.0000 0.0000 4.4476 0.0000 0.0000
# 5 0.0000 0.0000 0.0000 0.0000 -20.1390 0.0000
# 6 0.0000 0.0000 0.0000 0.0000 0.0000 -4.3448
#
#
#
# Elastic Compliance Matrix: (Units=1/GPa)
#
#
# Indices 1 2 3 4 5 6 
#
# 1 0.010671 0.000806 0.000087 0.000000 0.000000 0.000000
# 2 0.000806 0.013471 0.000780 0.000000 0.000000 0.000000
# 3 0.000087 0.000780 0.010453 0.000000 0.000000 0.000000
# 4 0.000000 0.000000 0.000000 0.224842 0.000000 0.000000
# 5 0.000000 0.000000 0.000000 0.000000 -0.049655 0.000000
# 6 0.000000 0.000000 0.000000 0.000000 0.000000 -0.230158
#
#
# Mechanical properties :
#
#
# Convention : Reuss Voigt Hill
#
# Bulk Modulus (GPa) = 26.35661 26.89736 26.62698
# Shear Modulus (GPa) = -451.44724 14.43512 -218.50606
#
# Velocity S-wave (km/s) = -13.91572 2.48835 -9.68130
# Velocity P-wave (km/s) = 15.71275 4.44898 10.65592
#
# Compressibility (1/GPa) = 0.03794115
#
# Stress axis : x y z
#
# Youngs Moduli (GPa) = 93.71367 74.23395 95.66765
#
# Poissons Ratio (x) = -0.05985 -0.00832
# Poissons Ratio (y) = -0.07556 -0.07463
# Poissons Ratio (z) = -0.00815 -0.05791
#
# Static dielectric constant tensor:
#      x y z
#    x 1.847660 0.000000 0.000000 
#    y 0.000000 1.906590 0.000000 
#    z 0.000000 0.000000 1.867220 
# 
# From -- ./inp_files/30910.got.cif
#   From: 2010.05.17/outbox.cif.g08.bks.cpg/sg47_16_cif.got.tgz:30910.got - 2010.06.03 20:15:42.
