data_PCOD9386922
_publ_section_title
;
Structure prediction by ZEFSAII (Michael W. Deem and Ramdas Pophale) SiO2 
 PCOD9386922
Probable space group: P M M M
;
_chemical_formula_sum "Si O2"
_cell_formula_units_Z 44
_cell_length_a 15.099128
_cell_length_b 9.384018
_cell_length_c 17.476157
_cell_angle_alpha 90.000000
_cell_angle_beta 90.000000
_cell_angle_gamma 90.000000
_cell_volume 2476.205230
_symmetry_space_group_name_H-M "P M M M"
_symmetry_group_IT_number 47
_symmetry_cell_setting 'orthorhombic'
loop_
_space_group_symop_operation_xyz
x,y,z
-x,-y,z
x,-y,-z
-x,y,-z
-x,-y,-z
x,y,-z
-x,y,z
x,-y,z
loop_
_atom_site_type_symbol
_atom_site_label
_atom_site_fract_x
_atom_site_fract_y
_atom_site_fract_z
Si Si1 0.500000 0.661067 0.907669
Si Si2 0.603621 0.669659 0.653319
Si Si3 0.321559 0.830999 0.909748
Si Si4 0.108012 0.836682 0.500000
Si Si5 0.246784 0.330938 0.222725
Si Si6 0.104122 0.668105 0.349984
Si Si7 0.392349 0.163253 0.500000
O O1 0.500000 0.500000 0.875249
O O2 0.412456 0.749204 0.888939
O O3 0.500000 0.649099 0.000000
O O4 0.500000 0.701957 0.669872
O O5 0.609881 0.500000 0.638261
O O6 0.668140 0.701929 0.723733
O O7 0.632340 0.754163 0.577373
O O8 0.250314 0.762152 0.853438
O O9 0.330869 0.000000 0.898442
O O10 0.304131 0.806496 0.000000
O O11 0.135971 0.756561 0.423160
O O12 0.000000 0.832354 0.500000
O O13 0.135970 0.000000 0.500000
O O14 0.249543 0.500000 0.204547
O O15 0.161909 0.301887 0.275449
O O16 0.113688 0.500000 0.367470
O O17 0.000000 0.696847 0.337494
O O18 0.500000 0.162151 0.500000
O O19 0.361624 0.000000 0.500000
#
# Coordination Sequence:
#
# PCOD9386922 Si02
#       7
#     4   8   8   4   8   8   4
#     4   9  17  31  53  77 101 134 173 210 249 299
#     4   9  18  32  48  67  95 129 164 205 248 294
#     4  10  21  36  53  76 107 139 171 211 264 319
#     4   9  17  30  51  78 105 135 172 213 262 321
#     4  10  21  34  52  78 101 131 175 216 260 315
#     4   9  18  34  54  76 105 138 173 218 269 316
#     4   9  17  30  47  66  91 129 172 205 239 288
#
# _framework density 17.769124999999999
#
# number of rings (size 3 to 8) (size 9 to 14) (size 15 to 20)
#    0.000    2.636    0.000    1.364    1.273    6.545 
#    0.000    3.636    0.000    0.545    0.000    3.818 
#    0.000    0.000    0.000    0.000    0.000    0.000 
#
# Total GULP energy -245549.105512 kJ/mol
# GULP energy per Si atom -5580.661489 kJ/mol
# Density = 1.772868 g / cm^3
# Si number density = 17.769125 Si / 1000 Ang^3
#
#
#
# Elastic Constant Matrix: (Units=GPa)
#
#
# Indices 1 2 3 4 5 6 
#
# 1 62.0038 44.3302 46.7776 0.0000 0.0000 0.0000
# 2 44.3302 88.4828 81.8887 0.0000 0.0000 0.0000
# 3 46.7776 81.8887 115.4050 0.0000 0.0000 0.0000
# 4 0.0000 0.0000 0.0000 25.1954 0.0000 0.0000
# 5 0.0000 0.0000 0.0000 0.0000 23.2636 0.0000
# 6 0.0000 0.0000 0.0000 0.0000 0.0000 12.0622
#
#
#
# Elastic Compliance Matrix: (Units=1/GPa)
#
#
# Indices 1 2 3 4 5 6 
#
# 1 0.025668 -0.009411 -0.003726 0.000000 0.000000 0.000000
# 2 -0.009411 0.036371 -0.021993 0.000000 0.000000 0.000000
# 3 -0.003726 -0.021993 0.025781 0.000000 0.000000 0.000000
# 4 0.000000 0.000000 0.000000 0.039690 0.000000 0.000000
# 5 0.000000 0.000000 0.000000 0.000000 0.042986 0.000000
# 6 0.000000 0.000000 0.000000 0.000000 0.000000 0.082903
#
#
# Mechanical properties :
#
#
# Convention : Reuss Voigt Hill
#
# Bulk Modulus (GPa) = 56.95118 67.98719 62.46919
# Shear Modulus (GPa) = 15.17393 18.29726 16.73559
#
# Velocity S-wave (km/s) = 2.92541 3.21241 3.07226
# Velocity P-wave (km/s) = 6.59780 7.21830 6.91501
#
# Compressibility (1/GPa) = 0.01755890
#
# Stress axis : x y z
#
# Youngs Moduli (GPa) = 38.95938 27.49449 38.78790
#
# Poissons Ratio (x) = 0.25876 0.14452
# Poissons Ratio (y) = 0.36666 0.85307
# Poissons Ratio (z) = 0.14516 0.60469
#
# Static dielectric constant tensor:
#      x y z
#    x 1.624670 0.000000 0.000000 
#    y 0.000000 1.593290 0.000000 
#    z 0.000000 0.000000 1.599470 
# 
# From -- ./inp_files/27945.got.cif
#   From: 2010.05.17/outbox.cif.g08.bks.cpg/sg47_14_cif.got.tgz:27945.got - 2010.06.03 20:15:42.
