data_PCOD9386907
_publ_section_title
;
Structure prediction by ZEFSAII (Michael W. Deem and Ramdas Pophale) SiO2 
 PCOD9386907
Probable space group: P M M M
;
_chemical_formula_sum "Si O2"
_cell_formula_units_Z 36
_cell_length_a 9.200229
_cell_length_b 7.865082
_cell_length_c 25.862051
_cell_angle_alpha 90.000000
_cell_angle_beta 90.000000
_cell_angle_gamma 90.000000
_cell_volume 1871.392377
_symmetry_space_group_name_H-M "P M M M"
_symmetry_group_IT_number 47
_symmetry_cell_setting 'orthorhombic'
loop_
_space_group_symop_operation_xyz
x,y,z
-x,-y,z
x,-y,-z
-x,y,-z
-x,-y,-z
x,y,-z
-x,y,z
x,-y,z
loop_
_atom_site_type_symbol
_atom_site_label
_atom_site_fract_x
_atom_site_fract_y
_atom_site_fract_z
Si Si1 0.171268 0.500000 0.561883
Si Si2 0.166039 0.202789 0.728969
Si Si3 0.326013 0.797108 0.375901
Si Si4 0.333132 0.795406 0.943706
Si Si5 0.163239 0.298430 0.159027
O O1 0.182806 0.500000 0.500000
O O2 0.248189 0.331270 0.584678
O O3 0.000000 0.500000 0.576023
O O4 0.264358 0.253966 0.680668
O O5 0.227266 0.243557 0.785758
O O6 0.000000 0.272621 0.725353
O O7 0.155507 0.000000 0.725913
O O8 0.500000 0.777468 0.377931
O O9 0.294081 0.000000 0.384483
O O10 0.500000 0.736428 0.939781
O O11 0.247385 0.746136 0.892798
O O12 0.335078 0.000000 0.945055
O O13 0.274886 0.737019 0.000000
O O14 0.153215 0.500000 0.160992
O O15 0.000000 0.224093 0.156514
#
# Coordination Sequence:
#
# PCOD9386907 Si02
#       5
#     4   8   8   8   8
#     4  11  25  43  65  93 125 165 210 253 296 349
#     4   9  18  34  56  81 111 149 191 234 282 339
#     4  10  22  40  63  93 127 162 202 251 306 360
#     4   9  19  36  55  73  96 132 180 231 281 335
#     4  10  21  34  50  78 112 143 178 223 276 334
#
# _framework density 19.237013000000001
#
# number of rings (size 3 to 8) (size 9 to 14) (size 15 to 20)
#    0.000    2.333    0.000    2.333    1.556    6.222 
#    0.000    7.778    0.000    0.000    0.000    0.000 
#    0.000    0.000    0.000    0.000    0.000    0.000 
#
# Total GULP energy -200750.952550 kJ/mol
# GULP energy per Si atom -5576.415349 kJ/mol
# Density = 1.919323 g / cm^3
# Si number density = 19.237013 Si / 1000 Ang^3
#
#
#
# Elastic Constant Matrix: (Units=GPa)
#
#
# Indices 1 2 3 4 5 6 
#
# 1 83.7878 41.9088 76.0686 0.0000 0.0000 0.0000
# 2 41.9088 60.4891 50.4906 0.0000 0.0000 0.0000
# 3 76.0686 50.4906 163.3211 0.0000 0.0000 0.0000
# 4 0.0000 0.0000 0.0000 43.4303 0.0000 0.0000
# 5 0.0000 0.0000 0.0000 0.0000 14.6946 0.0000
# 6 0.0000 0.0000 0.0000 0.0000 0.0000 23.6258
#
#
#
# Elastic Compliance Matrix: (Units=1/GPa)
#
#
# Indices 1 2 3 4 5 6 
#
# 1 0.024497 -0.010039 -0.008306 0.000000 0.000000 0.000000
# 2 -0.010039 0.026396 -0.003484 0.000000 0.000000 0.000000
# 3 -0.008306 -0.003484 0.011069 0.000000 0.000000 0.000000
# 4 0.000000 0.000000 0.000000 0.023025 0.000000 0.000000
# 5 0.000000 0.000000 0.000000 0.000000 0.068052 0.000000
# 6 0.000000 0.000000 0.000000 0.000000 0.000000 0.042327
#
#
# Mechanical properties :
#
#
# Convention : Reuss Voigt Hill
#
# Bulk Modulus (GPa) = 54.63814 71.61488 63.12651
# Shear Modulus (GPa) = 20.39762 25.62547 23.01155
#
# Velocity S-wave (km/s) = 3.25981 3.65374 3.46238
# Velocity P-wave (km/s) = 6.52937 7.42349 6.99074
#
# Compressibility (1/GPa) = 0.01830223
#
# Stress axis : x y z
#
# Youngs Moduli (GPa) = 40.82079 37.88483 90.34369
#
# Poissons Ratio (x) = 0.38033 0.75042
# Poissons Ratio (y) = 0.40981 0.31479
# Poissons Ratio (z) = 0.33907 0.13201
#
# Static dielectric constant tensor:
#      x y z
#    x 1.680200 0.000000 0.000000 
#    y 0.000000 1.677870 0.000000 
#    z 0.000000 0.000000 1.682590 
# 
# From -- ./inp_files/31650.got.cif
#   From: 2010.05.17/outbox.cif.g08.bks.cpg/sg47_16_cif.got.tgz:31650.got - 2010.06.03 20:15:42.
