data_PCOD9386065
_publ_section_title
;
Structure prediction by ZEFSAII (Michael W. Deem and Ramdas Pophale) SiO2 
 PCOD9386065
Probable space group: P M M M
;
_chemical_formula_sum "Si O2"
_cell_formula_units_Z 52
_cell_length_a 23.470662
_cell_length_b 8.881533
_cell_length_c 14.427097
_cell_angle_alpha 90.000000
_cell_angle_beta 90.000000
_cell_angle_gamma 90.000000
_cell_volume 3007.407128
_symmetry_space_group_name_H-M "P M M M"
_symmetry_group_IT_number 47
_symmetry_cell_setting 'orthorhombic'
loop_
_space_group_symop_operation_xyz
x,y,z
-x,-y,z
x,-y,-z
-x,y,-z
-x,-y,-z
x,y,-z
-x,y,z
x,-y,z
loop_
_atom_site_type_symbol
_atom_site_label
_atom_site_fract_x
_atom_site_fract_y
_atom_site_fract_z
Si Si1 0.150091 0.320260 0.393343
Si Si2 0.108649 0.820713 0.211052
Si Si3 0.724809 0.178251 0.393108
Si Si4 0.783073 0.320097 0.109362
Si Si5 0.000000 0.319663 0.890518
Si Si6 0.667931 0.320465 0.778716
Si Si7 0.565755 0.818985 0.107980
O O1 0.134049 0.286311 0.500000
O O2 0.148893 0.500000 0.380453
O O3 0.112232 0.240865 0.315885
O O4 0.214768 0.261893 0.380080
O O5 0.166447 0.767161 0.160304
O O6 0.055704 0.748900 0.157273
O O7 0.104844 0.000000 0.210583
O O8 0.707294 0.201477 0.500000
O O9 0.680792 0.243099 0.319345
O O10 0.733351 0.000000 0.378495
O O11 0.792944 0.500000 0.120561
O O12 0.722421 0.284587 0.155928
O O13 0.782305 0.286751 0.000000
O O14 0.000000 0.500000 0.879967
O O15 0.000000 0.285136 0.000000
O O16 0.665617 0.500000 0.767964
O O17 0.611187 0.260338 0.826927
O O18 0.500000 0.779840 0.129094
O O19 0.571120 0.000000 0.115969
O O20 0.576411 0.779741 0.000000
#
# Coordination Sequence:
#
# PCOD9386065 Si02
#       7
#     8   8   8   8   4   8   8
#     4  10  20  36  59  85 114 149 187 227 276 335
#     4  12  24  38  59  86 115 147 186 233 282 334
#     4  10  20  34  54  82 114 147 185 229 279 334
#     4  10  21  36  53  77 112 150 186 226 276 332
#     4  11  25  45  66  83 108 151 195 234 278 333
#     4  11  21  33  54  83 114 148 187 230 280 335
#     4   9  19  36  56  78 109 151 194 234 279 333
#
# _framework density 17.290641999999998
#
# number of rings (size 3 to 8) (size 9 to 14) (size 15 to 20)
#    0.000    1.615    1.538    4.385    0.000    6.462 
#    0.000    1.154    0.000    2.769    0.000    3.231 
#    0.000    0.000    0.000    0.000    0.000    0.000 
#
# Total GULP energy -290563.862245 kJ/mol
# GULP energy per Si atom -5587.766582 kJ/mol
# Density = 1.725129 g / cm^3
# Si number density = 17.290642 Si / 1000 Ang^3
#
#
#
# Elastic Constant Matrix: (Units=GPa)
#
#
# Indices 1 2 3 4 5 6 
#
# 1 102.5575 59.2748 76.1817 0.0000 0.0000 0.0000
# 2 59.2748 82.2349 76.3998 0.0000 0.0000 0.0000
# 3 76.1817 76.3998 141.6041 0.0000 0.0000 0.0000
# 4 0.0000 0.0000 0.0000 25.9792 0.0000 0.0000
# 5 0.0000 0.0000 0.0000 0.0000 32.6351 0.0000
# 6 0.0000 0.0000 0.0000 0.0000 0.0000 32.6029
#
#
#
# Elastic Compliance Matrix: (Units=1/GPa)
#
#
# Indices 1 2 3 4 5 6 
#
# 1 0.018684 -0.008278 -0.005585 0.000000 0.000000 0.000000
# 2 -0.008278 0.028049 -0.010680 0.000000 0.000000 0.000000
# 3 -0.005585 -0.010680 0.015829 0.000000 0.000000 0.000000
# 4 0.000000 0.000000 0.000000 0.038492 0.000000 0.000000
# 5 0.000000 0.000000 0.000000 0.000000 0.030642 0.000000
# 6 0.000000 0.000000 0.000000 0.000000 0.000000 0.030672
#
#
# Mechanical properties :
#
#
# Convention : Reuss Voigt Hill
#
# Bulk Modulus (GPa) = 74.21056 83.34547 78.77801
# Shear Modulus (GPa) = 23.15371 25.87945 24.51658
#
# Velocity S-wave (km/s) = 3.66333 3.87296 3.76960
# Velocity P-wave (km/s) = 7.80423 8.26481 8.03782
#
# Compressibility (1/GPa) = 0.01347517
#
# Stress axis : x y z
#
# Youngs Moduli (GPa) = 53.52084 35.65146 63.17539
#
# Poissons Ratio (x) = 0.29514 0.35287
# Poissons Ratio (y) = 0.44307 0.67470
# Poissons Ratio (z) = 0.29894 0.38075
#
# Static dielectric constant tensor:
#      x y z
#    x 1.552660 0.000000 0.000000 
#    y 0.000000 1.576200 0.000000 
#    z 0.000000 0.000000 1.588530 
# 
# From -- ./inp_files/6915.got.cif
#   From: 2010.05.17/outbox.cif.g08.bks.cpg/sg47_4_cif.got.tgz:6915.got - 2010.06.03 20:15:42.
