data_PCOD9386158
_publ_section_title
;
Structure prediction by ZEFSAII (Michael W. Deem and Ramdas Pophale) SiO2 
 PCOD9386158
Probable space group: P M M M
;
_chemical_formula_sum "Si O2"
_cell_formula_units_Z 48
_cell_length_a 8.813128
_cell_length_b 30.322695
_cell_length_c 9.932914
_cell_angle_alpha 90.000000
_cell_angle_beta 90.000000
_cell_angle_gamma 90.000000
_cell_volume 2654.450009
_symmetry_space_group_name_H-M "P M M M"
_symmetry_group_IT_number 47
_symmetry_cell_setting 'orthorhombic'
loop_
_space_group_symop_operation_xyz
x,y,z
-x,-y,z
x,-y,-z
-x,y,-z
-x,-y,-z
x,y,-z
-x,y,z
x,-y,z
loop_
_atom_site_type_symbol
_atom_site_label
_atom_site_fract_x
_atom_site_fract_y
_atom_site_fract_z
Si Si1 0.816472 0.795182 0.158674
Si Si2 0.318912 0.050244 0.000000
Si Si3 0.819222 0.641043 0.158412
Si Si4 0.323888 0.451312 0.163045
Si Si5 0.816981 0.105725 0.239133
Si Si6 0.317751 0.282508 0.658306
Si Si7 0.815488 0.051154 0.500000
O O1 0.773213 0.843528 0.214547
O O2 0.746020 0.758615 0.256016
O O3 0.000000 0.791417 0.163002
O O4 0.772751 0.790800 0.000000
O O5 0.254136 0.076143 0.125027
O O6 0.500000 0.050712 0.000000
O O7 0.265573 0.000000 0.000000
O O8 0.773693 0.591244 0.198855
O O9 0.740941 0.674889 0.260010
O O10 0.000000 0.646744 0.163871
O O11 0.773265 0.647994 0.000000
O O12 0.500000 0.445245 0.203511
O O13 0.272801 0.500000 0.209929
O O14 0.322197 0.452701 0.000000
O O15 0.769744 0.080899 0.374085
O O16 0.000000 0.104736 0.230929
O O17 0.270249 0.281969 0.500000
O O18 0.500000 0.281728 0.660874
O O19 0.000000 0.048784 0.500000
O O20 0.762029 0.000000 0.500000
#
# Coordination Sequence:
#
# PCOD9386158 Si02
#       7
#     8   4   8   8   8   8   4
#     4  10  21  38  60  86 111 138 180 228 279 335
#     4  11  23  37  55  83 117 151 187 225 270 323
#     4  10  20  34  55  84 115 148 188 234 283 331
#     4   8  14  26  47  77 113 152 191 230 275 328
#     4  10  20  37  60  85 112 146 185 228 274 324
#     4  11  25  41  57  80 109 145 188 228 276 338
#     4   9  18  32  55  87 115 143 185 229 268 317
#
# _framework density 18.082841999999999
#
# number of rings (size 3 to 8) (size 9 to 14) (size 15 to 20)
#    0.000    2.167    0.833    2.750    1.167    7.000 
#    0.000    2.083    0.000    2.000    0.000    3.500 
#    0.000    0.000    0.000    0.000    0.000    0.000 
#
# Total GULP energy -267643.359622 kJ/mol
# GULP energy per Si atom -5575.903325 kJ/mol
# Density = 1.804168 g / cm^3
# Si number density = 18.082842 Si / 1000 Ang^3
#
#
#
# Elastic Constant Matrix: (Units=GPa)
#
#
# Indices 1 2 3 4 5 6 
#
# 1 19.0528 44.5908 40.1448 0.0000 0.0000 0.0000
# 2 44.5908 183.1355 97.8718 0.0000 0.0000 0.0000
# 3 40.1448 97.8718 157.3812 0.0000 0.0000 0.0000
# 4 0.0000 0.0000 0.0000 22.0110 0.0000 0.0000
# 5 0.0000 0.0000 0.0000 0.0000 25.5127 0.0000
# 6 0.0000 0.0000 0.0000 0.0000 0.0000 27.1579
#
#
#
# Elastic Compliance Matrix: (Units=1/GPa)
#
#
# Indices 1 2 3 4 5 6 
#
# 1 0.176600 -0.028346 -0.027420 0.000000 0.000000 0.000000
# 2 -0.028346 0.012728 -0.000685 0.000000 0.000000 0.000000
# 3 -0.027420 -0.000685 0.013774 0.000000 0.000000 0.000000
# 4 0.000000 0.000000 0.000000 0.045432 0.000000 0.000000
# 5 0.000000 0.000000 0.000000 0.000000 0.039196 0.000000
# 6 0.000000 0.000000 0.000000 0.000000 0.000000 0.036822
#
#
# Mechanical properties :
#
#
# Convention : Reuss Voigt Hill
#
# Bulk Modulus (GPa) = 11.08625 80.53159 45.80892
# Shear Modulus (GPa) = 10.69472 26.73380 18.71426
#
# Velocity S-wave (km/s) = 2.43457 3.84918 3.22050
# Velocity P-wave (km/s) = 3.74793 8.02411 6.26232
#
# Compressibility (1/GPa) = 0.09020184
#
# Stress axis : x y z
#
# Youngs Moduli (GPa) = 5.66251 78.56493 72.59982
#
# Poissons Ratio (x) = 2.22700 1.99065
# Poissons Ratio (y) = 0.16051 0.04973
# Poissons Ratio (z) = 0.15526 0.05381
#
# Static dielectric constant tensor:
#      x y z
#    x 1.609700 0.000000 0.000000 
#    y 0.000000 1.628640 0.000000 
#    z 0.000000 0.000000 1.633520 
# 
# From -- ./inp_files/2646.got.cif
#   From: 2010.05.17/outbox.cif.g08.bks.cpg/sg47_2_cif.got.tgz:2646.got - 2010.06.03 20:15:42.
