data_PCOD9386168
_publ_section_title
;
Structure prediction by ZEFSAII (Michael W. Deem and Ramdas Pophale) SiO2 
 PCOD9386168
Probable space group: P M M M
;
_chemical_formula_sum "Si O2"
_cell_formula_units_Z 40
_cell_length_a 8.558587
_cell_length_b 16.086262
_cell_length_c 14.832410
_cell_angle_alpha 90.000000
_cell_angle_beta 90.000000
_cell_angle_gamma 90.000000
_cell_volume 2042.062026
_symmetry_space_group_name_H-M "P M M M"
_symmetry_group_IT_number 47
_symmetry_cell_setting 'orthorhombic'
loop_
_space_group_symop_operation_xyz
x,y,z
-x,-y,z
x,-y,-z
-x,y,-z
-x,-y,-z
x,y,-z
-x,y,z
x,-y,z
loop_
_atom_site_type_symbol
_atom_site_label
_atom_site_fract_x
_atom_site_fract_y
_atom_site_fract_z
Si Si1 0.686882 0.350275 0.898765
Si Si2 0.186789 0.162568 0.101082
Si Si3 0.813657 0.591587 0.712440
Si Si4 0.688712 0.908153 0.282440
Si Si5 0.688707 0.251170 0.603424
O O1 0.500000 0.357044 0.890631
O O2 0.735613 0.253566 0.890354
O O3 0.765950 0.397693 0.816742
O O4 0.732028 0.377692 0.000000
O O5 0.249180 0.106874 0.181821
O O6 0.000000 0.171927 0.108755
O O7 0.221949 0.131090 0.000000
O O8 0.762029 0.500000 0.680898
O O9 0.741352 0.667094 0.656583
O O10 0.000000 0.596513 0.705138
O O11 0.500000 0.905185 0.280195
O O12 0.743209 0.831786 0.344546
O O13 0.735268 0.000000 0.314804
O O14 0.742610 0.252416 0.500000
O O15 0.500000 0.249460 0.603360
#
# Coordination Sequence:
#
# PCOD9386168 Si02
#       5
#     8   8   8   8   8
#     4  10  20  35  58  87 119 156 197 240 288 343
#     4  10  20  34  55  84 119 159 199 238 285 342
#     4  11  24  40  60  88 121 157 196 239 291 350
#     4  10  21  37  59  88 120 155 196 241 291 348
#     4  10  22  41  64  88 115 151 196 246 299 352
#
# _framework density 19.588045000000001
#
# number of rings (size 3 to 8) (size 9 to 14) (size 15 to 20)
#    0.000    1.800    2.000    1.800    0.000    6.400 
#    0.000    8.000    0.000    0.000    0.000    2.800 
#    0.000    0.000    0.000    0.000    0.000    0.000 
#
# Total GULP energy -223436.439199 kJ/mol
# GULP energy per Si atom -5585.910980 kJ/mol
# Density = 1.954346 g / cm^3
# Si number density = 19.588045 Si / 1000 Ang^3
#
#
#
# Elastic Constant Matrix: (Units=GPa)
#
#
# Indices 1 2 3 4 5 6 
#
# 1 10.8079 17.2629 15.7936 0.0000 0.0000 0.0000
# 2 17.2629 144.3526 76.8924 0.0000 0.0000 0.0000
# 3 15.7936 76.8924 125.2192 0.0000 0.0000 0.0000
# 4 0.0000 0.0000 0.0000 -2.0461 0.0000 0.0000
# 5 0.0000 0.0000 0.0000 0.0000 8.8008 0.0000
# 6 0.0000 0.0000 0.0000 0.0000 0.0000 35.3416
#
#
#
# Elastic Compliance Matrix: (Units=1/GPa)
#
#
# Indices 1 2 3 4 5 6 
#
# 1 0.121555 -0.009466 -0.009518 0.000000 0.000000 0.000000
# 2 -0.009466 0.011032 -0.005580 0.000000 0.000000 0.000000
# 3 -0.009518 -0.005580 0.012613 0.000000 0.000000 0.000000
# 4 0.000000 0.000000 0.000000 -0.488725 0.000000 0.000000
# 5 0.000000 0.000000 0.000000 0.000000 0.113626 0.000000
# 6 0.000000 0.000000 0.000000 0.000000 0.000000 0.028295
#
#
# Mechanical properties :
#
#
# Convention : Reuss Voigt Hill
#
# Bulk Modulus (GPa) = 10.40911 55.58639 32.99775
# Shear Modulus (GPa) = -41.51111 19.78130 -10.86490
#
# Velocity S-wave (km/s) = -4.60848 3.18129 -2.35770
# Velocity P-wave (km/s) = 4.79498 6.47560 3.07746
#
# Compressibility (1/GPa) = 0.09606968
#
# Stress axis : x y z
#
# Youngs Moduli (GPa) = 8.22674 90.64475 79.28170
#
# Poissons Ratio (x) = 0.85808 0.75464
# Poissons Ratio (y) = 0.07788 0.44242
# Poissons Ratio (z) = 0.07831 0.50584
#
# Static dielectric constant tensor:
#      x y z
#    x 1.661260 0.000000 0.000000 
#    y 0.000000 1.695920 0.000000 
#    z 0.000000 0.000000 1.673100 
# 
# From -- ./inp_files/5660.got.cif
#   From: 2010.05.17/outbox.cif.g08.bks.cpg/sg47_3_cif.got.tgz:5660.got - 2010.06.03 20:15:42.
