data_PCOD9386268
_publ_section_title
;
Structure prediction by ZEFSAII (Michael W. Deem and Ramdas Pophale) SiO2 
 PCOD9386268
Probable space group: P M M M
;
_chemical_formula_sum "Si O2"
_cell_formula_units_Z 52
_cell_length_a 16.274902
_cell_length_b 7.577655
_cell_length_c 20.115291
_cell_angle_alpha 90.000000
_cell_angle_beta 90.000000
_cell_angle_gamma 90.000000
_cell_volume 2480.730181
_symmetry_space_group_name_H-M "P M M M"
_symmetry_group_IT_number 47
_symmetry_cell_setting 'orthorhombic'
loop_
_space_group_symop_operation_xyz
x,y,z
-x,-y,z
x,-y,-z
-x,y,-z
-x,-y,-z
x,y,-z
-x,y,z
x,-y,z
loop_
_atom_site_type_symbol
_atom_site_label
_atom_site_fract_x
_atom_site_fract_y
_atom_site_fract_z
Si Si1 0.255328 0.707654 0.294866
Si Si2 0.089602 0.204875 0.218972
Si Si3 0.663310 0.285226 0.927232
Si Si4 0.144189 0.713525 0.074159
Si Si5 0.000000 0.789440 0.576980
Si Si6 0.179808 0.291502 0.424761
Si Si7 0.591191 0.283637 0.789317
O O1 0.271349 0.500000 0.303962
O O2 0.172189 0.719098 0.251241
O O3 0.238052 0.784453 0.367908
O O4 0.333909 0.779988 0.256270
O O5 0.098269 0.218708 0.139055
O O6 0.000000 0.280498 0.238204
O O7 0.089231 0.000000 0.238226
O O8 0.661770 0.500000 0.927398
O O9 0.759393 0.237040 0.919352
O O10 0.611033 0.226793 0.864559
O O11 0.635169 0.225949 0.000000
O O12 0.139511 0.500000 0.076036
O O13 0.116354 0.768824 0.000000
O O14 0.912886 0.727722 0.603370
O O15 0.000000 0.727494 0.500000
O O16 0.000000 0.000000 0.578488
O O17 0.183702 0.216980 0.500000
O O18 0.195323 0.500000 0.430416
O O19 0.500000 0.229510 0.768714
O O20 0.592884 0.500000 0.789313
#
# Coordination Sequence:
#
# PCOD9386268 Si02
#       7
#     8   8   8   8   4   8   8
#     4  10  20  35  54  74 100 134 170 208 253 305
#     4  11  24  37  49  71 103 137 173 213 256 302
#     4   8  13  23  42  69  98 124 154 197 246 294
#     4   9  17  32  54  75  97 130 175 220 255 295
#     4   9  17  29  47  73 103 131 160 199 246 295
#     4   9  18  32  50  72  99 133 172 209 246 295
#     4   9  16  27  47  75 102 127 161 208 256 299
#
# _framework density 20.961569999999998
#
# number of rings (size 3 to 8) (size 9 to 14) (size 15 to 20)
#    0.000    2.692    1.538    1.615    1.077    3.692 
#    0.000    3.077    0.000    0.923    0.000    3.231 
#    0.000    2.462    0.000    5.231    0.000    5.538 
#
# Total GULP energy -290132.543233 kJ/mol
# GULP energy per Si atom -5579.471985 kJ/mol
# Density = 2.091386 g / cm^3
# Si number density = 20.961570 Si / 1000 Ang^3
#
#
#
# Elastic Constant Matrix: (Units=GPa)
#
#
# Indices 1 2 3 4 5 6 
#
# 1 142.0061 1.1015 83.6207 0.0000 0.0000 0.0000
# 2 1.1015 45.7506 -0.9011 0.0000 0.0000 0.0000
# 3 83.6207 -0.9011 134.9651 0.0000 0.0000 0.0000
# 4 0.0000 0.0000 0.0000 -11.4972 0.0000 0.0000
# 5 0.0000 0.0000 0.0000 0.0000 18.7368 0.0000
# 6 0.0000 0.0000 0.0000 0.0000 0.0000 33.4440
#
#
#
# Elastic Compliance Matrix: (Units=1/GPa)
#
#
# Indices 1 2 3 4 5 6 
#
# 1 0.011094 -0.000403 -0.006876 0.000000 0.000000 0.000000
# 2 -0.000403 0.021875 0.000395 0.000000 0.000000 0.000000
# 3 -0.006876 0.000395 0.011672 0.000000 0.000000 0.000000
# 4 0.000000 0.000000 0.000000 -0.086978 0.000000 0.000000
# 5 0.000000 0.000000 0.000000 0.000000 0.053371 0.000000
# 6 0.000000 0.000000 0.000000 0.000000 0.000000 0.029901
#
#
# Mechanical properties :
#
#
# Convention : Reuss Voigt Hill
#
# Bulk Modulus (GPa) = 32.38889 54.48491 43.43690
# Shear Modulus (GPa) = 76.92998 24.06343 50.49670
#
# Velocity S-wave (km/s) = 6.06466 3.39186 4.91349
# Velocity P-wave (km/s) = 8.03276 6.43341 7.27716
#
# Compressibility (1/GPa) = 0.03087478
#
# Stress axis : x y z
#
# Youngs Moduli (GPa) = 90.13670 45.71407 85.67225
#
# Poissons Ratio (x) = 0.01840 0.58912
# Poissons Ratio (y) = 0.03628 -0.03388
# Poissons Ratio (z) = 0.61982 -0.01808
#
# Static dielectric constant tensor:
#      x y z
#    x 1.745570 0.000000 0.000000 
#    y 0.000000 1.772360 0.000000 
#    z 0.000000 0.000000 1.789770 
# 
# From -- ./inp_files/30883.got.cif
#   From: 2010.05.17/outbox.cif.g08.bks.cpg/sg47_16_cif.got.tgz:30883.got - 2010.06.03 20:15:42.
