data_PCOD9386982
_publ_section_title
;
Structure prediction by ZEFSAII (Michael W. Deem and Ramdas Pophale) SiO2 
 PCOD9386982
Probable space group: P M M M
;
_chemical_formula_sum "Si O2"
_cell_formula_units_Z 56
_cell_length_a 9.047554
_cell_length_b 23.835364
_cell_length_c 14.715542
_cell_angle_alpha 90.000000
_cell_angle_beta 90.000000
_cell_angle_gamma 90.000000
_cell_volume 3173.432280
_symmetry_space_group_name_H-M "P M M M"
_symmetry_group_IT_number 47
_symmetry_cell_setting 'orthorhombic'
loop_
_space_group_symop_operation_xyz
x,y,z
-x,-y,z
x,-y,-z
-x,y,-z
-x,-y,-z
x,y,-z
-x,y,z
x,-y,z
loop_
_atom_site_type_symbol
_atom_site_label
_atom_site_fract_x
_atom_site_fract_y
_atom_site_fract_z
Si Si1 0.822034 0.937887 0.773339
Si Si2 0.677195 0.566024 0.395593
Si Si3 0.825906 0.831431 0.107911
Si Si4 0.323804 0.884985 0.605327
Si Si5 0.176649 0.658532 0.728208
Si Si6 0.825887 0.766746 0.393151
Si Si7 0.676220 0.286816 0.893595
O O1 0.776278 0.886432 0.837875
O O2 0.753121 0.926690 0.675036
O O3 0.000000 0.935880 0.767391
O O4 0.780511 0.000000 0.806877
O O5 0.718767 0.580449 0.500000
O O6 0.500000 0.573387 0.387829
O O7 0.708692 0.500000 0.382263
O O8 0.759008 0.605185 0.324287
O O9 0.736939 0.775204 0.130440
O O10 0.000000 0.821359 0.127880
O O11 0.812274 0.841317 0.000000
O O12 0.284134 0.895837 0.500000
O O13 0.500000 0.887696 0.613904
O O14 0.266783 0.822290 0.627735
O O15 0.213682 0.713483 0.667478
O O16 0.247913 0.669338 0.826230
O O17 0.000000 0.654946 0.734887
O O18 0.805486 0.753445 0.500000
O O19 0.000000 0.779436 0.378906
O O20 0.500000 0.288269 0.883322
O O21 0.712394 0.296402 0.000000
#
# Coordination Sequence:
#
# PCOD9386982 Si02
#       7
#     8   8   8   8   8   8   8
#     4  10  21  35  51  72  96 125 163 203 246 301
#     4   9  19  36  56  79 111 151 189 220 252 296
#     4   9  18  34  55  77 102 130 160 201 255 310
#     4  10  21  35  50  69  94 126 164 206 252 299
#     4  11  21  32  52  81 110 140 175 217 263 307
#     4   9  18  32  49  72 103 134 163 199 248 306
#     4  10  21  36  54  77 105 137 173 213 259 313
#
# _framework density 17.646508000000001
#
# number of rings (size 3 to 8) (size 9 to 14) (size 15 to 20)
#    0.000    2.286    0.000    3.000    0.000    8.857 
#    0.000    5.000    0.000    0.429    0.000    6.000 
#    0.000    0.000    0.000    0.000    0.000    0.000 
#
# Total GULP energy -312659.516208 kJ/mol
# GULP energy per Si atom -5583.205647 kJ/mol
# Density = 1.760634 g / cm^3
# Si number density = 17.646508 Si / 1000 Ang^3
#
#
#
# Elastic Constant Matrix: (Units=GPa)
#
#
# Indices 1 2 3 4 5 6 
#
# 1 32.2444 42.1253 44.5925 0.0000 0.0000 0.0000
# 2 42.1253 90.7700 71.9111 0.0000 0.0000 0.0000
# 3 44.5925 71.9111 93.4504 0.0000 0.0000 0.0000
# 4 0.0000 0.0000 0.0000 26.7534 0.0000 0.0000
# 5 0.0000 0.0000 0.0000 0.0000 24.1680 0.0000
# 6 0.0000 0.0000 0.0000 0.0000 0.0000 38.9931
#
#
#
# Elastic Compliance Matrix: (Units=1/GPa)
#
#
# Indices 1 2 3 4 5 6 
#
# 1 0.108178 -0.023846 -0.033270 0.000000 0.000000 0.000000
# 2 -0.023846 0.033478 -0.014383 0.000000 0.000000 0.000000
# 3 -0.033270 -0.014383 0.037645 0.000000 0.000000 0.000000
# 4 0.000000 0.000000 0.000000 0.037378 0.000000 0.000000
# 5 0.000000 0.000000 0.000000 0.000000 0.041377 0.000000
# 6 0.000000 0.000000 0.000000 0.000000 0.000000 0.025646
#
#
# Mechanical properties :
#
#
# Convention : Reuss Voigt Hill
#
# Bulk Modulus (GPa) = 27.54682 59.30251 43.42466
# Shear Modulus (GPa) = 11.39468 21.83863 16.61665
#
# Velocity S-wave (km/s) = 2.54386 3.52172 3.07194
# Velocity P-wave (km/s) = 4.92671 7.08628 6.10278
#
# Compressibility (1/GPa) = 0.03630183
#
# Stress axis : x y z
#
# Youngs Moduli (GPa) = 9.24403 29.87003 26.56427
#
# Poissons Ratio (x) = 0.71229 0.88380
# Poissons Ratio (y) = 0.22044 0.38207
# Poissons Ratio (z) = 0.30755 0.42962
#
# Static dielectric constant tensor:
#      x y z
#    x 1.587120 0.000000 0.000000 
#    y 0.000000 1.582170 0.000000 
#    z 0.000000 0.000000 1.610190 
# 
# From -- ./inp_files/7231.got.cif
#   From: 2010.05.17/outbox.cif.g08.bks.cpg/sg47_4_cif.got.tgz:7231.got - 2010.06.03 20:15:42.
