data_PCOD9386444
_publ_section_title
;
Structure prediction by ZEFSAII (Michael W. Deem and Ramdas Pophale) SiO2 
 PCOD9386444
Probable space group: P M M M
;
_chemical_formula_sum "Si O2"
_cell_formula_units_Z 41
_cell_length_a 8.051283
_cell_length_b 29.785307
_cell_length_c 8.340668
_cell_angle_alpha 90.000000
_cell_angle_beta 90.000000
_cell_angle_gamma 90.000000
_cell_volume 2000.175058
_symmetry_space_group_name_H-M "P M M M"
_symmetry_group_IT_number 47
_symmetry_cell_setting 'orthorhombic'
loop_
_space_group_symop_operation_xyz
x,y,z
-x,-y,z
x,-y,-z
-x,y,-z
-x,-y,-z
x,y,-z
-x,y,z
x,-y,z
loop_
_atom_site_type_symbol
_atom_site_label
_atom_site_fract_x
_atom_site_fract_y
_atom_site_fract_z
Si Si1 0.689008 0.500000 0.242529
Si Si2 0.701423 0.190874 0.683052
Si Si3 0.805604 0.567202 0.500000
Si Si4 0.000000 0.500000 0.000000
Si Si5 0.699645 0.095529 0.815559
Si Si6 0.196485 0.282294 0.178590
Si Si7 0.307548 0.333345 0.500000
Si Si8 0.197354 0.000000 0.815424
O O1 0.500000 0.500000 0.179059
O O2 0.713932 0.544367 0.350539
O O3 0.850838 0.500000 0.133536
O O4 0.749140 0.200964 0.500000
O O5 0.500000 0.192446 0.693046
O O6 0.756136 0.140628 0.728052
O O7 0.771445 0.229302 0.796980
O O8 0.793376 0.620567 0.500000
O O9 0.000000 0.554340 0.500000
O O10 0.500000 0.096965 0.819059
O O11 0.748070 0.047427 0.742605
O O12 0.761091 0.096828 0.000000
O O13 0.271775 0.305983 0.336051
O O14 0.000000 0.290999 0.182157
O O15 0.258845 0.295709 0.000000
O O16 0.500000 0.345231 0.500000
O O17 0.000000 0.000000 0.822654
O O18 0.265516 0.000000 0.000000
#
# Coordination Sequence:
#
# PCOD9386444 Si02
#       8
#     4   8   4   1   8   8   4   4
#     4  11  22  42  70 102 142 191 243 292 351 412
#     4  10  20  35  57  83 112 148 192 244 304 369
#     4  11  21  44  71  96 134 184 235 285 347 412
#     4  12  22  42  64 110 152 190 238 304 356 400
#     4   9  17  30  49  73 100 136 179 228 289 359
#     4  11  24  42  63  91 125 166 210 262 325 392
#     4  12  25  43  68  98 131 175 225 278 335 396
#     4   9  17  29  46  69  98 128 172 229 288 350
#
# _framework density 20.498208000000002
#
# number of rings (size 3 to 8) (size 9 to 14) (size 15 to 20)
#    0.000    1.659    1.951    3.951    0.000    4.293 
#    1.756    2.439    0.000    2.927    0.000    0.000 
#    0.000    0.000    0.000    0.000    0.000    0.000 
#
# Total GULP energy -228527.883013 kJ/mol
# GULP energy per Si atom -5573.850805 kJ/mol
# Density = 2.045155 g / cm^3
# Si number density = 20.498208 Si / 1000 Ang^3
#
#
#
# Elastic Constant Matrix: (Units=GPa)
#
#
# Indices 1 2 3 4 5 6 
#
# 1 85.1844 5.8747 27.8095 0.0000 0.0000 0.0000
# 2 5.8747 110.7819 32.5214 0.0000 0.0000 0.0000
# 3 27.8095 32.5214 112.0314 0.0000 0.0000 0.0000
# 4 0.0000 0.0000 0.0000 904.2310 0.0000 0.0000
# 5 0.0000 0.0000 0.0000 0.0000 27.4626 0.0000
# 6 0.0000 0.0000 0.0000 0.0000 0.0000 -410.5422
#
#
#
# Elastic Compliance Matrix: (Units=1/GPa)
#
#
# Indices 1 2 3 4 5 6 
#
# 1 0.012782 0.000277 -0.003253 0.000000 0.000000 0.000000
# 2 0.000277 0.009874 -0.002935 0.000000 0.000000 0.000000
# 3 -0.003253 -0.002935 0.010586 0.000000 0.000000 0.000000
# 4 0.000000 0.000000 0.000000 0.001106 0.000000 0.000000
# 5 0.000000 0.000000 0.000000 0.000000 0.036413 0.000000
# 6 0.000000 0.000000 0.000000 0.000000 0.000000 -0.002436
#
#
# Mechanical properties :
#
#
# Convention : Reuss Voigt Hill
#
# Bulk Modulus (GPa) = 46.68714 48.93431 47.81072
# Shear Modulus (GPa) = 57.28233 120.34975 88.81604
#
# Velocity S-wave (km/s) = 5.29204 7.67071 6.58959
# Velocity P-wave (km/s) = 7.75671 10.11817 9.01510
#
# Compressibility (1/GPa) = 0.02141918
#
# Stress axis : x y z
#
# Youngs Moduli (GPa) = 78.23361 101.27963 94.46738
#
# Poissons Ratio (x) = -0.02808 0.30734
# Poissons Ratio (y) = -0.02169 0.27726
# Poissons Ratio (z) = 0.25453 0.29726
#
# Static dielectric constant tensor:
#      x y z
#    x 1.716450 0.000000 0.000000 
#    y 0.000000 1.724340 0.000000 
#    z 0.000000 0.000000 1.745570 
# 
# From -- ./inp_files/1937.got.cif
#   From: 2010.05.17/outbox.cif.g08.bks.cpg/sg47_1_cif.got.tgz:1937.got - 2010.06.03 20:15:42.
