data_PCOD9386016
_publ_section_title
;
Structure prediction by ZEFSAII (Michael W. Deem and Ramdas Pophale) SiO2 
 PCOD9386016
Probable space group: P M M M
;
_chemical_formula_sum "Si O2"
_cell_formula_units_Z 44
_cell_length_a 8.080903
_cell_length_b 14.188395
_cell_length_c 19.908906
_cell_angle_alpha 90.000000
_cell_angle_beta 90.000000
_cell_angle_gamma 90.000000
_cell_volume 2282.656488
_symmetry_space_group_name_H-M "P M M M"
_symmetry_group_IT_number 47
_symmetry_cell_setting 'orthorhombic'
loop_
_space_group_symop_operation_xyz
x,y,z
-x,-y,z
x,-y,-z
-x,y,-z
-x,-y,-z
x,y,-z
-x,y,z
x,-y,z
loop_
_atom_site_type_symbol
_atom_site_label
_atom_site_fract_x
_atom_site_fract_y
_atom_site_fract_z
Si Si1 0.199901 0.108340 0.923705
Si Si2 0.500000 0.115026 0.576781
Si Si3 0.302194 0.393779 0.281068
Si Si4 0.817921 0.886487 0.338505
Si Si5 0.302819 0.787860 0.792276
Si Si6 0.801546 0.387799 0.572444
O O1 0.264714 0.177229 0.866653
O O2 0.000000 0.109944 0.922185
O O3 0.251558 0.000000 0.909536
O O4 0.251912 0.131404 0.000000
O O5 0.500000 0.145390 0.500000
O O6 0.665840 0.145215 0.615224
O O7 0.500000 0.000000 0.577387
O O8 0.500000 0.400555 0.276088
O O9 0.233042 0.500000 0.274319
O O10 0.246740 0.318085 0.226102
O O11 0.263158 0.354881 0.355608
O O12 0.784658 0.853754 0.262713
O O13 0.000000 0.853297 0.361026
O O14 0.818550 0.000000 0.340146
O O15 0.500000 0.794088 0.780954
O O16 0.742182 0.349322 0.500000
O O17 0.761440 0.500000 0.571873
O O18 0.000000 0.379360 0.573418
#
# Coordination Sequence:
#
# PCOD9386016 Si02
#       6
#     8   4   8   8   8   8
#     4   9  19  36  57  83 114 143 171 210 266 332
#     4   9  18  34  54  76 106 144 188 235 276 324
#     4   9  19  34  50  71 101 139 183 228 274 323
#     4  10  20  34  54  80 109 142 181 227 281 335
#     4  11  21  33  53  79 109 144 182 226 272 324
#     4   8  14  26  45  68  93 122 161 215 275 326
#
# _framework density 19.275787999999999
#
# number of rings (size 3 to 8) (size 9 to 14) (size 15 to 20)
#    0.000    2.636    0.909    2.182    0.000    5.091 
#    0.000    5.455    0.000    0.545    0.000    3.818 
#    0.000    0.000    0.000    0.000    0.000    0.000 
#
# Total GULP energy -245505.556328 kJ/mol
# GULP energy per Si atom -5579.671735 kJ/mol
# Density = 1.923192 g / cm^3
# Si number density = 19.275788 Si / 1000 Ang^3
#
#
#
# Elastic Constant Matrix: (Units=GPa)
#
#
# Indices 1 2 3 4 5 6 
#
# 1 72.3731 25.0494 35.6165 0.0000 0.0000 0.0000
# 2 25.0494 86.1510 68.8438 0.0000 0.0000 0.0000
# 3 35.6165 68.8438 149.9161 0.0000 0.0000 0.0000
# 4 0.0000 0.0000 0.0000 -1.3339 0.0000 0.0000
# 5 0.0000 0.0000 0.0000 0.0000 25.5388 0.0000
# 6 0.0000 0.0000 0.0000 0.0000 0.0000 9.1872
#
#
#
# Elastic Compliance Matrix: (Units=1/GPa)
#
#
# Indices 1 2 3 4 5 6 
#
# 1 0.015993 -0.002550 -0.002629 0.000000 0.000000 0.000000
# 2 -0.002550 0.018743 -0.008001 0.000000 0.000000 0.000000
# 3 -0.002629 -0.008001 0.010969 0.000000 0.000000 0.000000
# 4 0.000000 0.000000 0.000000 -0.749661 0.000000 0.000000
# 5 0.000000 0.000000 0.000000 0.000000 0.039156 0.000000
# 6 0.000000 0.000000 0.000000 0.000000 0.000000 0.108847
#
#
# Mechanical properties :
#
#
# Convention : Reuss Voigt Hill
#
# Bulk Modulus (GPa) = 51.69001 63.05107 57.37054
# Shear Modulus (GPa) = -9.55758 18.60711 4.52476
#
# Velocity S-wave (km/s) = -2.22915 3.11031 1.53378
# Velocity P-wave (km/s) = 4.49986 6.75868 5.74145
#
# Compressibility (1/GPa) = 0.01934610
#
# Stress axis : x y z
#
# Youngs Moduli (GPa) = 62.52561 53.35425 91.16403
#
# Poissons Ratio (x) = 0.13603 0.23966
# Poissons Ratio (y) = 0.15941 0.72942
# Poissons Ratio (z) = 0.16437 0.42690
#
# Static dielectric constant tensor:
#      x y z
#    x 1.690140 0.000000 0.000000 
#    y 0.000000 1.713000 0.000000 
#    z 0.000000 0.000000 1.637650 
# 
# From -- ./inp_files/8986.got.cif
#   From: 2010.05.17/outbox.cif.g08.bks.cpg/sg47_5_cif.got.tgz:8986.got - 2010.06.03 20:15:42.
