data_PCOD9386452
_publ_section_title
;
Structure prediction by ZEFSAII (Michael W. Deem and Ramdas Pophale) SiO2 
 PCOD9386452
Probable space group: P M M M
;
_chemical_formula_sum "Si O2"
_cell_formula_units_Z 48
_cell_length_a 8.053636
_cell_length_b 33.519265
_cell_length_c 9.301703
_cell_angle_alpha 90.000000
_cell_angle_beta 90.000000
_cell_angle_gamma 90.000000
_cell_volume 2511.012950
_symmetry_space_group_name_H-M "P M M M"
_symmetry_group_IT_number 47
_symmetry_cell_setting 'orthorhombic'
loop_
_space_group_symop_operation_xyz
x,y,z
-x,-y,z
x,-y,-z
-x,y,-z
-x,-y,-z
x,y,-z
-x,y,z
x,-y,z
loop_
_atom_site_type_symbol
_atom_site_label
_atom_site_fract_x
_atom_site_fract_y
_atom_site_fract_z
Si Si1 0.698835 0.922093 0.162710
Si Si2 0.799815 0.309680 0.334908
Si Si3 0.190598 0.400198 0.675059
Si Si4 0.500000 0.453962 0.675589
Si Si5 0.697154 0.232378 0.836547
Si Si6 0.703634 0.000000 0.334435
Si Si7 0.803286 0.155243 0.662851
O O1 0.500000 0.926479 0.153631
O O2 0.760183 0.960258 0.252035
O O3 0.733060 0.881090 0.244601
O O4 0.765089 0.921283 0.000000
O O5 0.741021 0.304272 0.500000
O O6 0.760589 0.354773 0.286464
O O7 0.733658 0.275069 0.233964
O O8 0.000000 0.307197 0.337465
O O9 0.186455 0.400818 0.500000
O O10 0.332784 0.430853 0.721817
O O11 0.000000 0.408333 0.722464
O O12 0.500000 0.500000 0.720683
O O13 0.500000 0.453337 0.500000
O O14 0.500000 0.226462 0.840739
O O15 0.769646 0.197223 0.739342
O O16 0.761701 0.230403 0.000000
O O17 0.500000 0.000000 0.334478
O O18 0.756690 0.000000 0.500000
O O19 0.735767 0.155126 0.500000
O O20 0.000000 0.149616 0.655586
#
# Coordination Sequence:
#
# PCOD9386452 Si02
#       7
#     8   8   8   4   8   4   8
#     4  10  20  35  57  84 112 141 176 219 266 317
#     4   9  18  33  53  76 101 134 177 219 262 316
#     4   8  15  27  42  64  96 132 173 221 268 320
#     4   9  16  24  38  64  97 137 181 219 267 328
#     4  11  24  38  53  78 108 136 171 215 263 317
#     4   9  17  31  54  83 112 143 178 218 266 317
#     4  11  24  40  57  78 105 139 179 219 261 314
#
# _framework density 19.115793
#
# number of rings (size 3 to 8) (size 9 to 14) (size 15 to 20)
#    0.000    2.333    0.000    3.750    1.167    9.333 
#    0.000    2.083    0.000    2.500    0.000    0.000 
#    0.000    1.333    0.000    3.667    0.000    3.667 
#
# Total GULP energy -267904.442653 kJ/mol
# GULP energy per Si atom -5581.342555 kJ/mol
# Density = 1.907228 g / cm^3
# Si number density = 19.115793 Si / 1000 Ang^3
#
#
#
# Elastic Constant Matrix: (Units=GPa)
#
#
# Indices 1 2 3 4 5 6 
#
# 1 37.9174 35.0347 21.4057 0.0000 0.0000 0.0000
# 2 35.0347 137.0053 65.5630 0.0000 0.0000 0.0000
# 3 21.4057 65.5630 120.8334 0.0000 0.0000 0.0000
# 4 0.0000 0.0000 0.0000 -31.2161 0.0000 0.0000
# 5 0.0000 0.0000 0.0000 0.0000 7.1736 0.0000
# 6 0.0000 0.0000 0.0000 0.0000 0.0000 74.1260
#
#
#
# Elastic Compliance Matrix: (Units=1/GPa)
#
#
# Indices 1 2 3 4 5 6 
#
# 1 0.034822 -0.008040 -0.001806 0.000000 0.000000 0.000000
# 2 -0.008040 0.011715 -0.004932 0.000000 0.000000 0.000000
# 3 -0.001806 -0.004932 0.011272 0.000000 0.000000 0.000000
# 4 0.000000 0.000000 0.000000 -0.032035 0.000000 0.000000
# 5 0.000000 0.000000 0.000000 0.000000 0.139400 0.000000
# 6 0.000000 0.000000 0.000000 0.000000 0.000000 0.013491
#
#
# Mechanical properties :
#
#
# Convention : Reuss Voigt Hill
#
# Bulk Modulus (GPa) = 35.39604 59.97366 47.68485
# Shear Modulus (GPa) = 22.97381 21.60022 22.28702
#
# Velocity S-wave (km/s) = 3.47049 3.36515 3.41823
# Velocity P-wave (km/s) = 5.88353 6.82209 6.37012
#
# Compressibility (1/GPa) = 0.02825174
#
# Stress axis : x y z
#
# Youngs Moduli (GPa) = 28.71776 85.35825 88.71515
#
# Poissons Ratio (x) = 0.68630 0.16023
# Poissons Ratio (y) = 0.23090 0.43757
# Poissons Ratio (z) = 0.05187 0.42101
#
# Static dielectric constant tensor:
#      x y z
#    x 1.684280 0.000000 0.000000 
#    y 0.000000 1.634000 0.000000 
#    z 0.000000 0.000000 1.659520 
# 
# From -- ./inp_files/2572.got.cif
#   From: 2010.05.17/outbox.cif.g08.bks.cpg/sg47_2_cif.got.tgz:2572.got - 2010.06.03 20:15:42.
