data_PCOD9386585
_publ_section_title
;
Structure prediction by ZEFSAII (Michael W. Deem and Ramdas Pophale) SiO2 
 PCOD9386585
Probable space group: P M M M
;
_chemical_formula_sum "Si O2"
_cell_formula_units_Z 40
_cell_length_a 7.851173
_cell_length_b 21.378387
_cell_length_c 12.943535
_cell_angle_alpha 90.000000
_cell_angle_beta 90.000000
_cell_angle_gamma 90.000000
_cell_volume 2172.513001
_symmetry_space_group_name_H-M "P M M M"
_symmetry_group_IT_number 47
_symmetry_cell_setting 'orthorhombic'
loop_
_space_group_symop_operation_xyz
x,y,z
-x,-y,z
x,-y,-z
-x,y,-z
-x,-y,-z
x,y,-z
-x,y,z
x,-y,z
loop_
_atom_site_type_symbol
_atom_site_label
_atom_site_fract_x
_atom_site_fract_y
_atom_site_fract_z
Si Si1 0.207469 0.926529 0.500000
Si Si2 0.297223 0.000000 0.880167
Si Si3 0.199533 0.748067 0.796306
Si Si4 0.500000 0.328155 0.887319
Si Si5 0.500000 0.426731 0.703192
Si Si6 0.795416 0.113798 0.727659
Si Si7 0.808532 0.646763 0.382524
O O1 0.268388 0.898955 0.610289
O O2 0.000000 0.921091 0.500000
O O3 0.248590 0.000000 0.500000
O O4 0.247703 0.939982 0.810501
O O5 0.500000 0.000000 0.888039
O O6 0.230451 0.000000 0.000000
O O7 0.333087 0.714733 0.871265
O O8 0.255450 0.818364 0.769942
O O9 0.209866 0.705752 0.693049
O O10 0.000000 0.748070 0.829837
O O11 0.500000 0.383698 0.804875
O O12 0.500000 0.356021 0.000000
O O13 0.500000 0.500000 0.723016
O O14 0.667353 0.404559 0.642065
O O15 0.000000 0.114765 0.719571
O O16 0.790484 0.668093 0.500000
O O17 0.000000 0.621648 0.367899
#
# Coordination Sequence:
#
# PCOD9386585 Si02
#       7
#     4   4   8   4   4   8   8
#     4   9  16  30  54  80 106 136 170 219 277 333
#     4  11  25  40  53  70 104 147 186 237 288 333
#     4   9  20  36  57  84 112 144 182 227 278 335
#     4  10  22  40  61  81 109 144 182 235 281 323
#     4  10  21  37  56  81 114 148 187 230 267 315
#     4  10  20  36  58  82 106 138 183 228 279 341
#     4   9  18  33  54  83 118 152 184 219 266 326
#
# _framework density 18.411859
#
# number of rings (size 3 to 8) (size 9 to 14) (size 15 to 20)
#    0.000    2.400    1.000    0.600    2.800    3.400 
#    0.000    4.000    0.000    0.000    0.000    5.600 
#    0.000    0.000    0.000    0.000    0.000    0.000 
#
# Total GULP energy -223004.372923 kJ/mol
# GULP energy per Si atom -5575.109323 kJ/mol
# Density = 1.836995 g / cm^3
# Si number density = 18.411859 Si / 1000 Ang^3
#
#
#
# Elastic Constant Matrix: (Units=GPa)
#
#
# Indices 1 2 3 4 5 6 
#
# 1 51.4666 24.3956 15.0799 0.0000 0.0000 0.0000
# 2 24.3956 91.7153 5.7508 0.0000 0.0000 0.0000
# 3 15.0799 5.7508 84.3261 0.0000 0.0000 0.0000
# 4 0.0000 0.0000 0.0000 -2.0537 0.0000 0.0000
# 5 0.0000 0.0000 0.0000 0.0000 15.4983 0.0000
# 6 0.0000 0.0000 0.0000 0.0000 0.0000 75.7146
#
#
#
# Elastic Compliance Matrix: (Units=1/GPa)
#
#
# Indices 1 2 3 4 5 6 
#
# 1 0.023370 -0.005980 -0.003771 0.000000 0.000000 0.000000
# 2 -0.005980 0.012480 0.000218 0.000000 0.000000 0.000000
# 3 -0.003771 0.000218 0.012518 0.000000 0.000000 0.000000
# 4 0.000000 0.000000 0.000000 -0.486927 0.000000 0.000000
# 5 0.000000 0.000000 0.000000 0.000000 0.064523 0.000000
# 6 0.000000 0.000000 0.000000 0.000000 0.000000 0.013207
#
#
# Mechanical properties :
#
#
# Convention : Reuss Voigt Hill
#
# Bulk Modulus (GPa) = 34.12692 35.32899 34.72796
# Shear Modulus (GPa) = -15.06045 29.98395 7.46175
#
# Velocity S-wave (km/s) = -2.86313 4.03986 2.01531
# Velocity P-wave (km/s) = 2.76505 6.40238 4.93133
#
# Compressibility (1/GPa) = 0.02930238
#
# Stress axis : x y z
#
# Youngs Moduli (GPa) = 42.79080 80.12713 79.88330
#
# Poissons Ratio (x) = 0.47913 0.30127
# Poissons Ratio (y) = 0.25587 -0.01743
# Poissons Ratio (z) = 0.16138 -0.01749
#
# Static dielectric constant tensor:
#      x y z
#    x 1.659770 0.000000 0.000000 
#    y 0.000000 1.605710 0.000000 
#    z 0.000000 0.000000 1.637150 
# 
# From -- ./inp_files/15176.got.cif
#   From: 2010.05.17/outbox.cif.g08.bks.cpg/sg47_8_cif.got.tgz:15176.got - 2010.06.03 20:15:42.
