data_PCOD9386394
_publ_section_title
;
Structure prediction by ZEFSAII (Michael W. Deem and Ramdas Pophale) SiO2 
 PCOD9386394
Probable space group: P M M M
;
_chemical_formula_sum "Si O2"
_cell_formula_units_Z 48
_cell_length_a 7.656391
_cell_length_b 9.366867
_cell_length_c 34.038754
_cell_angle_alpha 90.000000
_cell_angle_beta 90.000000
_cell_angle_gamma 90.000000
_cell_volume 2441.136768
_symmetry_space_group_name_H-M "P M M M"
_symmetry_group_IT_number 47
_symmetry_cell_setting 'orthorhombic'
loop_
_space_group_symop_operation_xyz
x,y,z
-x,-y,z
x,-y,-z
-x,y,-z
-x,-y,-z
x,y,-z
-x,y,z
x,-y,z
loop_
_atom_site_type_symbol
_atom_site_label
_atom_site_fract_x
_atom_site_fract_y
_atom_site_fract_z
Si Si1 0.714269 0.335878 0.845910
Si Si2 0.204675 0.671294 0.605469
Si Si3 0.291185 0.162936 0.229798
Si Si4 0.708855 0.838245 0.078067
Si Si5 0.209754 0.836953 0.316933
Si Si6 0.500000 0.673745 0.544793
Si Si7 0.208046 0.661976 0.000000
O O1 0.500000 0.335898 0.846046
O O2 0.769744 0.500000 0.848381
O O3 0.773046 0.260666 0.805672
O O4 0.773948 0.245646 0.883606
O O5 0.216501 0.500000 0.609674
O O6 0.266054 0.744270 0.645916
O O7 0.329121 0.715715 0.569683
O O8 0.000000 0.706497 0.598686
O O9 0.500000 0.154528 0.225422
O O10 0.256186 0.218684 0.273656
O O11 0.222124 0.000000 0.227354
O O12 0.500000 0.848632 0.082669
O O13 0.740394 0.748492 0.038801
O O14 0.777767 0.000000 0.075161
O O15 0.000000 0.841541 0.318620
O O16 0.276324 0.000000 0.319736
O O17 0.500000 0.500000 0.543452
O O18 0.500000 0.725323 0.500000
O O19 0.279402 0.500000 0.000000
O O20 0.000000 0.652691 0.000000
#
# Coordination Sequence:
#
# PCOD9386394 Si02
#       7
#     8   8   8   8   8   4   4
#     4   9  17  30  49  74 102 131 165 207 254 301
#     4   9  18  32  50  73 101 133 170 214 262 310
#     4   9  17  29  46  69  96 127 164 204 246 295
#     4  10  20  35  57  81 103 132 172 214 255 306
#     4   9  18  32  49  70  98 133 170 208 252 303
#     4   9  18  32  51  77 105 133 171 217 263 314
#     4  11  24  39  54  76 106 135 166 209 260 312
#
# _framework density 19.662970000000001
#
# number of rings (size 3 to 8) (size 9 to 14) (size 15 to 20)
#    0.000    2.667    0.000    1.500    1.167    5.667 
#    0.000    2.500    0.000    4.000    0.000    2.333 
#    0.000    0.000    0.000    0.000    0.000    0.000 
#
# Total GULP energy -267834.847685 kJ/mol
# GULP energy per Si atom -5579.892660 kJ/mol
# Density = 1.961822 g / cm^3
# Si number density = 19.662970 Si / 1000 Ang^3
#
#
#
# Elastic Constant Matrix: (Units=GPa)
#
#
# Indices 1 2 3 4 5 6 
#
# 1 50.1449 24.5615 36.9374 0.0000 0.0000 0.0000
# 2 24.5615 110.1255 99.2242 0.0000 0.0000 0.0000
# 3 36.9374 99.2242 226.9282 0.0000 0.0000 0.0000
# 4 0.0000 0.0000 0.0000 47.7650 0.0000 0.0000
# 5 0.0000 0.0000 0.0000 0.0000 131.9237 0.0000
# 6 0.0000 0.0000 0.0000 0.0000 0.0000 7.4878
#
#
#
# Elastic Compliance Matrix: (Units=1/GPa)
#
#
# Indices 1 2 3 4 5 6 
#
# 1 0.023217 -0.002926 -0.002500 0.000000 0.000000 0.000000
# 2 -0.002926 0.015352 -0.006237 0.000000 0.000000 0.000000
# 3 -0.002500 -0.006237 0.007540 0.000000 0.000000 0.000000
# 4 0.000000 0.000000 0.000000 0.020936 0.000000 0.000000
# 5 0.000000 0.000000 0.000000 0.000000 0.007580 0.000000
# 6 0.000000 0.000000 0.000000 0.000000 0.000000 0.133550
#
#
# Mechanical properties :
#
#
# Convention : Reuss Voigt Hill
#
# Bulk Modulus (GPa) = 43.88792 78.73830 61.31311
# Shear Modulus (GPa) = 20.91222 52.53367 36.72295
#
# Velocity S-wave (km/s) = 3.26472 5.17446 4.32628
# Velocity P-wave (km/s) = 6.04812 8.70810 7.49702
#
# Compressibility (1/GPa) = 0.02278532
#
# Stress axis : x y z
#
# Youngs Moduli (GPa) = 43.07258 65.13694 132.61764
#
# Poissons Ratio (x) = 0.19058 0.33150
# Poissons Ratio (y) = 0.12602 0.82707
# Poissons Ratio (z) = 0.10767 0.40623
#
# Static dielectric constant tensor:
#      x y z
#    x 1.732060 0.000000 0.000000 
#    y 0.000000 1.683840 0.000000 
#    z 0.000000 0.000000 1.663520 
# 
# From -- ./inp_files/13941.got.cif
#   From: 2010.05.17/outbox.cif.g08.bks.cpg/sg47_7_cif.got.tgz:13941.got - 2010.06.03 20:15:42.
