data_PCOD9386746
_publ_section_title
;
Structure prediction by ZEFSAII (Michael W. Deem and Ramdas Pophale) SiO2 
 PCOD9386746
Probable space group: P M M M
;
_chemical_formula_sum "Si O2"
_cell_formula_units_Z 64
_cell_length_a 9.941082
_cell_length_b 14.972235
_cell_length_c 22.359985
_cell_angle_alpha 90.000000
_cell_angle_beta 90.000000
_cell_angle_gamma 90.000000
_cell_volume 3328.064994
_symmetry_space_group_name_H-M "P M M M"
_symmetry_group_IT_number 47
_symmetry_cell_setting 'orthorhombic'
loop_
_space_group_symop_operation_xyz
x,y,z
-x,-y,z
x,-y,-z
-x,y,-z
-x,-y,-z
x,y,-z
-x,y,z
x,-y,z
loop_
_atom_site_type_symbol
_atom_site_label
_atom_site_fract_x
_atom_site_fract_y
_atom_site_fract_z
Si Si1 0.652382 0.761207 0.428589
Si Si2 0.155453 0.217022 0.250728
Si Si3 0.157179 0.646269 0.066161
Si Si4 0.846744 0.397517 0.427015
Si Si5 0.163119 0.402605 0.199055
Si Si6 0.851274 0.138019 0.068675
Si Si7 0.654262 0.899771 0.169010
Si Si8 0.152972 0.894498 0.626950
O O1 0.644107 0.751670 0.500000
O O2 0.500000 0.762539 0.404483
O O3 0.740831 0.676661 0.406626
O O4 0.734389 0.851185 0.414721
O O5 0.194269 0.320866 0.243300
O O6 0.256753 0.164535 0.208772
O O7 0.159989 0.167236 0.313994
O O8 0.000000 0.209572 0.229554
O O9 0.211752 0.613082 0.130222
O O10 0.158473 0.754034 0.069813
O O11 0.000000 0.618804 0.064729
O O12 0.213977 0.621096 0.000000
O O13 0.847717 0.396340 0.500000
O O14 0.816630 0.500000 0.409362
O O15 0.000000 0.375891 0.407469
O O16 0.208761 0.500000 0.219729
O O17 0.000000 0.403870 0.195781
O O18 0.729176 0.100187 0.105825
O O19 0.000000 0.113638 0.092671
O O20 0.846083 0.110415 0.000000
O O21 0.500000 0.871354 0.164196
O O22 0.657646 0.000000 0.194201
O O23 0.000000 0.885404 0.602636
O O24 0.174011 0.000000 0.639238
#
# Coordination Sequence:
#
# PCOD9386746 Si02
#       8
#     8   8   8   8   8   8   8   8
#     4  10  21  36  56  85 120 154 185 225 281 341
#     4  10  20  38  60  80 106 139 179 228 272 320
#     4   8  13  23  42  71 105 137 171 214 264 317
#     4   8  14  27  50  80 114 153 194 231 265 305
#     4   9  16  27  49  81 111 139 173 219 275 325
#     4   9  17  31  51  73  99 135 179 224 270 322
#     4  11  23  35  50  75 104 136 176 223 277 331
#     4  10  22  39  59  82 107 142 188 235 283 334
#
# _framework density 19.230392999999999
#
# number of rings (size 3 to 8) (size 9 to 14) (size 15 to 20)
#    0.000    2.625    1.250    2.250    0.000    4.250 
#    0.000    5.625    0.000    2.625    0.000    0.000 
#    0.000    2.000    0.000    0.000    0.000    0.000 
#
# Total GULP energy -356578.065063 kJ/mol
# GULP energy per Si atom -5571.532267 kJ/mol
# Density = 1.918662 g / cm^3
# Si number density = 19.230393 Si / 1000 Ang^3
#
#
#
# Elastic Constant Matrix: (Units=GPa)
#
#
# Indices 1 2 3 4 5 6 
#
# 1 107.4182 58.4731 27.2994 0.0000 0.0000 0.0000
# 2 58.4731 126.3342 20.8664 0.0000 0.0000 0.0000
# 3 27.2994 20.8664 15.6518 0.0000 0.0000 0.0000
# 4 0.0000 0.0000 0.0000 42.9398 0.0000 0.0000
# 5 0.0000 0.0000 0.0000 0.0000 2.6328 0.0000
# 6 0.0000 0.0000 0.0000 0.0000 0.0000 24.9754
#
#
#
# Elastic Compliance Matrix: (Units=1/GPa)
#
#
# Indices 1 2 3 4 5 6 
#
# 1 0.018230 -0.004086 -0.026349 0.000000 0.000000 0.000000
# 2 -0.004086 0.011066 -0.007627 0.000000 0.000000 0.000000
# 3 -0.026349 -0.007627 0.120016 0.000000 0.000000 0.000000
# 4 0.000000 0.000000 0.000000 0.023288 0.000000 0.000000
# 5 0.000000 0.000000 0.000000 0.000000 0.379826 0.000000
# 6 0.000000 0.000000 0.000000 0.000000 0.000000 0.040039
#
#
# Mechanical properties :
#
#
# Convention : Reuss Voigt Hill
#
# Bulk Modulus (GPa) = 13.66343 51.40911 32.53627
# Shear Modulus (GPa) = 7.21516 23.62728 15.42122
#
# Velocity S-wave (km/s) = 1.93910 3.50900 2.83489
# Velocity P-wave (km/s) = 3.48339 6.57334 5.26036
#
# Compressibility (1/GPa) = 0.07318805
#
# Stress axis : x y z
#
# Youngs Moduli (GPa) = 54.85556 90.36471 8.33225
#
# Poissons Ratio (x) = 0.36919 0.21955
# Poissons Ratio (y) = 0.22411 0.06355
# Poissons Ratio (z) = 1.44539 0.68924
#
# Static dielectric constant tensor:
#      x y z
#    x 1.646150 0.000000 0.000000 
#    y 0.000000 1.696770 0.000000 
#    z 0.000000 0.000000 1.718240 
# 
# From -- ./inp_files/32147.got.cif
#   From: 2010.05.17/outbox.cif.g08.bks.cpg/sg47_17_cif.got.tgz:32147.got - 2010.06.03 20:15:42.
