data_PCOD9386484
_publ_section_title
;
Structure prediction by ZEFSAII (Michael W. Deem and Ramdas Pophale) SiO2 
 PCOD9386484
Probable space group: P M M M
;
_chemical_formula_sum "Si O2"
_cell_formula_units_Z 56
_cell_length_a 15.451732
_cell_length_b 20.597602
_cell_length_c 8.967272
_cell_angle_alpha 90.000000
_cell_angle_beta 90.000000
_cell_angle_gamma 90.000000
_cell_volume 2854.001338
_symmetry_space_group_name_H-M "P M M M"
_symmetry_group_IT_number 47
_symmetry_cell_setting 'orthorhombic'
loop_
_space_group_symop_operation_xyz
x,y,z
-x,-y,z
x,-y,-z
-x,y,-z
-x,-y,-z
x,y,-z
-x,y,z
x,-y,z
loop_
_atom_site_type_symbol
_atom_site_label
_atom_site_fract_x
_atom_site_fract_y
_atom_site_fract_z
Si Si1 0.723894 0.428915 0.820838
Si Si2 0.899517 0.389943 0.323228
Si Si3 0.398537 0.309100 0.820187
Si Si4 0.500000 0.075620 0.821236
Si Si5 0.895924 0.000000 0.824761
Si Si6 0.102575 0.741776 0.835050
Si Si7 0.635835 0.830277 0.671646
Si Si8 0.164215 0.868430 0.671179
O O1 0.686123 0.500000 0.782785
O O2 0.821033 0.426403 0.756005
O O3 0.664088 0.368334 0.771797
O O4 0.729847 0.424775 0.000000
O O5 0.896304 0.399948 0.500000
O O6 0.877861 0.315476 0.280005
O O7 0.000000 0.403779 0.275677
O O8 0.500000 0.322083 0.786195
O O9 0.372709 0.240479 0.746865
O O10 0.391492 0.302869 0.000000
O O11 0.419420 0.116268 0.758868
O O12 0.500000 0.000000 0.773957
O O13 0.500000 0.077286 0.000000
O O14 0.859380 0.063413 0.744120
O O15 0.000000 0.000000 0.813552
O O16 0.873047 0.000000 0.000000
O O17 0.125644 0.810975 0.769996
O O18 0.000000 0.739690 0.850968
O O19 0.141974 0.730278 0.000000
O O20 0.606343 0.825548 0.500000
O O21 0.733922 0.854663 0.671176
O O22 0.132702 0.865571 0.500000
#
# Coordination Sequence:
#
# PCOD9386484 Si02
#       8
#     8   8   8   4   4   8   8   8
#     4  10  22  39  60  89 124 162 206 258 313 369
#     4  10  21  37  58  85 118 157 201 250 307 371
#     4  10  21  39  64  92 123 162 208 255 306 371
#     4  11  25  43  65  93 122 155 196 243 299 360
#     4  11  25  43  61  84 117 160 209 257 304 357
#     4  10  20  35  57  85 115 150 195 246 298 353
#     4  11  24  41  63  92 124 159 199 246 301 362
#     4  11  24  39  58  86 118 155 198 245 301 362
#
# _framework density 19.621575
#
# number of rings (size 3 to 8) (size 9 to 14) (size 15 to 20)
#    0.000    1.571    0.714    3.429    1.000   10.571 
#    0.000    2.857    0.000    0.000    0.000    2.000 
#    0.000    0.000    0.000    0.000    0.000    0.000 
#
# Total GULP energy -312730.081560 kJ/mol
# GULP energy per Si atom -5584.465742 kJ/mol
# Density = 1.957692 g / cm^3
# Si number density = 19.621575 Si / 1000 Ang^3
#
#
#
# Elastic Constant Matrix: (Units=GPa)
#
#
# Indices 1 2 3 4 5 6 
#
# 1 67.1154 57.5393 30.8208 0.0000 0.0000 0.0000
# 2 57.5393 157.3295 34.6064 0.0000 0.0000 0.0000
# 3 30.8208 34.6064 58.8200 0.0000 0.0000 0.0000
# 4 0.0000 0.0000 0.0000 -13.8306 0.0000 0.0000
# 5 0.0000 0.0000 0.0000 0.0000 27.9932 0.0000
# 6 0.0000 0.0000 0.0000 0.0000 0.0000 31.0228
#
#
#
# Elastic Compliance Matrix: (Units=1/GPa)
#
#
# Indices 1 2 3 4 5 6 
#
# 1 0.025234 -0.007260 -0.008951 0.000000 0.000000 0.000000
# 2 -0.007260 0.009390 -0.001720 0.000000 0.000000 0.000000
# 3 -0.008951 -0.001720 0.022703 0.000000 0.000000 0.000000
# 4 0.000000 0.000000 0.000000 -0.072304 0.000000 0.000000
# 5 0.000000 0.000000 0.000000 0.000000 0.035723 0.000000
# 6 0.000000 0.000000 0.000000 0.000000 0.000000 0.032234
#
#
# Mechanical properties :
#
#
# Convention : Reuss Voigt Hill
#
# Bulk Modulus (GPa) = 46.58790 58.79977 52.69384
# Shear Modulus (GPa) = 52.08431 19.72365 35.90398
#
# Velocity S-wave (km/s) = 5.15772 3.17393 4.28228
# Velocity P-wave (km/s) = 7.69832 6.59270 7.16686
#
# Compressibility (1/GPa) = 0.02146480
#
# Stress axis : x y z
#
# Youngs Moduli (GPa) = 39.62864 106.50079 44.04640
#
# Poissons Ratio (x) = 0.77319 0.39426
# Poissons Ratio (y) = 0.28770 0.07577
# Poissons Ratio (z) = 0.35472 0.18321
#
# Static dielectric constant tensor:
#      x y z
#    x 2.193060 0.000000 0.000000 
#    y 0.000000 1.681910 0.000000 
#    z 0.000000 0.000000 1.679460 
# 
# From -- ./inp_files/7407.got.cif
#   From: 2010.05.17/outbox.cif.g08.bks.cpg/sg47_4_cif.got.tgz:7407.got - 2010.06.03 20:15:42.
