data_PCOD9386918
_publ_section_title
;
Structure prediction by ZEFSAII (Michael W. Deem and Ramdas Pophale) SiO2 
 PCOD9386918
Probable space group: P M M M
;
_chemical_formula_sum "Si O2"
_cell_formula_units_Z 64
_cell_length_a 9.937408
_cell_length_b 14.937242
_cell_length_c 25.000604
_cell_angle_alpha 90.000000
_cell_angle_beta 90.000000
_cell_angle_gamma 90.000000
_cell_volume 3711.026360
_symmetry_space_group_name_H-M "P M M M"
_symmetry_group_IT_number 47
_symmetry_cell_setting 'orthorhombic'
loop_
_space_group_symop_operation_xyz
x,y,z
-x,-y,z
x,-y,-z
-x,y,-z
-x,-y,-z
x,y,-z
-x,y,z
x,-y,z
loop_
_atom_site_type_symbol
_atom_site_label
_atom_site_fract_x
_atom_site_fract_y
_atom_site_fract_z
Si Si1 0.742434 0.099909 0.773860
Si Si2 0.152401 0.103444 0.344031
Si Si3 0.155063 0.605160 0.564126
Si Si4 0.840378 0.097544 0.105808
Si Si5 0.160472 0.394434 0.836060
Si Si6 0.658540 0.265138 0.631684
Si Si7 0.835924 0.714898 0.059832
Si Si8 0.647348 0.293439 0.243638
O O1 0.834115 0.105978 0.720763
O O2 0.818170 0.106410 0.830444
O O3 0.651213 0.187438 0.769578
O O4 0.679217 0.000000 0.772107
O O5 0.262768 0.170503 0.367567
O O6 0.000000 0.129528 0.358698
O O7 0.174617 0.000000 0.359744
O O8 0.165365 0.615146 0.500000
O O9 0.176772 0.500000 0.576464
O O10 0.261937 0.667354 0.593526
O O11 0.000000 0.627200 0.579322
O O12 0.788025 0.185487 0.076148
O O13 0.000000 0.095622 0.095996
O O14 0.784786 0.000000 0.089444
O O15 0.186332 0.500000 0.834024
O O16 0.202394 0.352954 0.893200
O O17 0.238794 0.342560 0.789837
O O18 0.000000 0.380075 0.830214
O O19 0.500000 0.256048 0.618907
O O20 0.667945 0.300540 0.692800
O O21 0.000000 0.716412 0.059444
O O22 0.791845 0.691225 0.000000
O O23 0.500000 0.329602 0.229761
#
# Coordination Sequence:
#
# PCOD9386918 Si02
#       8
#     8   8   8   8   8   8   8   8
#     4   9  16  27  46  72 100 131 168 207 247 300
#     4   9  17  29  48  75 106 142 182 221 261 304
#     4   9  19  37  60  84 109 139 178 223 267 310
#     4   9  15  23  40  68  99 127 155 194 247 303
#     4  10  21  36  53  72  94 125 167 214 263 312
#     4  10  21  34  51  79 112 146 179 213 260 314
#     4   9  17  29  46  69  96 125 159 204 257 312
#     4  10  21  35  51  75 107 139 169 205 252 305
#
# _framework density 17.245902999999998
#
# number of rings (size 3 to 8) (size 9 to 14) (size 15 to 20)
#    0.000    2.625    1.250    1.125    0.000    6.250 
#    0.000    8.125    0.000    0.750    0.000    3.500 
#    0.000    2.000    0.000    0.000    0.000    0.000 
#
# Total GULP energy -356479.961265 kJ/mol
# GULP energy per Si atom -5569.999395 kJ/mol
# Density = 1.720665 g / cm^3
# Si number density = 17.245903 Si / 1000 Ang^3
#
#
#
# Elastic Constant Matrix: (Units=GPa)
#
#
# Indices 1 2 3 4 5 6 
#
# 1 91.8420 70.1167 43.4034 0.0000 0.0000 0.0000
# 2 70.1167 100.3452 46.9977 0.0000 0.0000 0.0000
# 3 43.4034 46.9977 45.1024 0.0000 0.0000 0.0000
# 4 0.0000 0.0000 0.0000 18.3123 0.0000 0.0000
# 5 0.0000 0.0000 0.0000 0.0000 7.6565 0.0000
# 6 0.0000 0.0000 0.0000 0.0000 0.0000 8.3510
#
#
#
# Elastic Compliance Matrix: (Units=1/GPa)
#
#
# Indices 1 2 3 4 5 6 
#
# 1 0.026305 -0.012745 -0.012034 0.000000 0.000000 0.000000
# 2 -0.012745 0.025640 -0.014453 0.000000 0.000000 0.000000
# 3 -0.012034 -0.014453 0.048813 0.000000 0.000000 0.000000
# 4 0.000000 0.000000 0.000000 0.054608 0.000000 0.000000
# 5 0.000000 0.000000 0.000000 0.000000 0.130607 0.000000
# 6 0.000000 0.000000 0.000000 0.000000 0.000000 0.119746
#
#
# Mechanical properties :
#
#
# Convention : Reuss Voigt Hill
#
# Bulk Modulus (GPa) = 44.85363 62.03614 53.44488
# Shear Modulus (GPa) = 10.17053 11.98209 11.07631
#
# Velocity S-wave (km/s) = 2.43108 2.63873 2.53703
# Velocity P-wave (km/s) = 5.82623 6.73301 6.29597
#
# Compressibility (1/GPa) = 0.02229474
#
# Stress axis : x y z
#
# Youngs Moduli (GPa) = 38.01498 39.00105 20.48622
#
# Poissons Ratio (x) = 0.49706 0.24654
# Poissons Ratio (y) = 0.48449 0.29609
# Poissons Ratio (z) = 0.45748 0.56369
#
# Static dielectric constant tensor:
#      x y z
#    x 1.573300 0.000000 0.000000 
#    y 0.000000 1.600140 0.000000 
#    z 0.000000 0.000000 1.568830 
# 
# From -- ./inp_files/32104.got.cif
#   From: 2010.05.17/outbox.cif.g08.bks.cpg/sg47_17_cif.got.tgz:32104.got - 2010.06.03 20:15:42.
