data_PCOD9386487
_publ_section_title
;
Structure prediction by ZEFSAII (Michael W. Deem and Ramdas Pophale) SiO2 
 PCOD9386487
Probable space group: P M M M
;
_chemical_formula_sum "Si O2"
_cell_formula_units_Z 52
_cell_length_a 15.168878
_cell_length_b 8.599602
_cell_length_c 21.073610
_cell_angle_alpha 90.000000
_cell_angle_beta 90.000000
_cell_angle_gamma 90.000000
_cell_volume 2748.974738
_symmetry_space_group_name_H-M "P M M M"
_symmetry_group_IT_number 47
_symmetry_cell_setting 'orthorhombic'
loop_
_space_group_symop_operation_xyz
x,y,z
-x,-y,z
x,-y,-z
-x,y,-z
-x,-y,-z
x,y,-z
-x,y,z
x,-y,z
loop_
_atom_site_type_symbol
_atom_site_label
_atom_site_fract_x
_atom_site_fract_y
_atom_site_fract_z
Si Si1 0.812654 0.815768 0.073712
Si Si2 0.242629 0.683929 0.798198
Si Si3 0.598243 0.682059 0.591407
Si Si4 0.897838 0.687440 0.308340
Si Si5 0.403382 0.177836 0.273537
Si Si6 0.000000 0.324621 0.924074
Si Si7 0.790835 0.185727 0.569838
O O1 0.762590 0.722040 0.127628
O O2 0.913404 0.772241 0.089847
O O3 0.798353 0.000000 0.079536
O O4 0.796029 0.771849 0.000000
O O5 0.255158 0.500000 0.788823
O O6 0.157014 0.729560 0.755493
O O7 0.324119 0.779238 0.771140
O O8 0.500000 0.738181 0.570926
O O9 0.604189 0.500000 0.575766
O O10 0.599227 0.707627 0.666922
O O11 0.687752 0.765211 0.570325
O O12 0.899673 0.500000 0.310801
O O13 0.843602 0.744512 0.370290
O O14 0.000000 0.742176 0.307745
O O15 0.500000 0.190393 0.243097
O O16 0.394175 0.000000 0.297279
O O17 0.000000 0.500000 0.895780
O O18 0.000000 0.343106 0.000000
O O19 0.826587 0.232951 0.500000
O O20 0.795738 0.000000 0.574823
#
# Coordination Sequence:
#
# PCOD9386487 Si02
#       7
#     8   8   8   8   8   4   8
#     4  10  21  36  54  80 116 156 197 239 287 346
#     4  11  22  36  60  89 117 151 192 240 289 341
#     4  10  20  35  57  85 116 149 187 233 287 346
#     4  10  23  42  61  84 114 149 194 243 289 340
#     4  10  20  35  58  87 118 151 187 231 286 346
#     4   9  17  31  51  75 107 147 190 235 282 335
#     4  11  24  40  59  84 115 152 194 240 291 347
#
# _framework density 18.916142000000001
#
# number of rings (size 3 to 8) (size 9 to 14) (size 15 to 20)
#    0.000    1.769    1.538    2.538    1.077    6.462 
#    0.000    3.077    0.000    0.462    0.000    3.231 
#    0.000    0.000    0.000    0.000    0.000    0.000 
#
# Total GULP energy -290011.510496 kJ/mol
# GULP energy per Si atom -5577.144433 kJ/mol
# Density = 1.887309 g / cm^3
# Si number density = 18.916142 Si / 1000 Ang^3
#
#
#
# Elastic Constant Matrix: (Units=GPa)
#
#
# Indices 1 2 3 4 5 6 
#
# 1 99.1421 19.5364 41.4199 0.0000 0.0000 0.0000
# 2 19.5364 39.0000 16.5864 0.0000 0.0000 0.0000
# 3 41.4199 16.5864 95.9436 0.0000 0.0000 0.0000
# 4 0.0000 0.0000 0.0000 27.1835 0.0000 0.0000
# 5 0.0000 0.0000 0.0000 0.0000 -5.7085 0.0000
# 6 0.0000 0.0000 0.0000 0.0000 0.0000 24.9502
#
#
#
# Elastic Compliance Matrix: (Units=1/GPa)
#
#
# Indices 1 2 3 4 5 6 
#
# 1 0.012983 -0.004447 -0.004836 0.000000 0.000000 0.000000
# 2 -0.004447 0.029199 -0.003128 0.000000 0.000000 0.000000
# 3 -0.004836 -0.003128 0.013051 0.000000 0.000000 0.000000
# 4 0.000000 0.000000 0.000000 0.036787 0.000000 0.000000
# 5 0.000000 0.000000 0.000000 0.000000 -0.175179 0.000000
# 6 0.000000 0.000000 0.000000 0.000000 0.000000 0.040080
#
#
# Mechanical properties :
#
#
# Convention : Reuss Voigt Hill
#
# Bulk Modulus (GPa) = 32.88259 43.24123 38.06191
# Shear Modulus (GPa) = -615.86061 19.72126 -298.06968
#
# Velocity S-wave (km/s) = -18.06325 3.23238 -12.56648
# Velocity P-wave (km/s) = 20.43576 6.06960 13.79819
#
# Compressibility (1/GPa) = 0.03041123
#
# Stress axis : x y z
#
# Youngs Moduli (GPa) = 77.02178 34.24781 76.61994
#
# Poissons Ratio (x) = 0.15230 0.37056
# Poissons Ratio (y) = 0.34251 0.23967
# Poissons Ratio (z) = 0.37250 0.10713
#
# Static dielectric constant tensor:
#      x y z
#    x 1.612920 0.000000 0.000000 
#    y 0.000000 1.645980 0.000000 
#    z 0.000000 0.000000 1.677590 
# 
# From -- ./inp_files/29593.got.cif
#   From: 2010.05.17/outbox.cif.g08.bks.cpg/sg47_15_cif.got.tgz:29593.got - 2010.06.03 20:15:42.
