data_PCOD9386884
_publ_section_title
;
Structure prediction by ZEFSAII (Michael W. Deem and Ramdas Pophale) SiO2 
 PCOD9386884
Probable space group: P M M M
;
_chemical_formula_sum "Si O2"
_cell_formula_units_Z 48
_cell_length_a 15.666376
_cell_length_b 19.641250
_cell_length_c 8.278183
_cell_angle_alpha 90.000000
_cell_angle_beta 90.000000
_cell_angle_gamma 90.000000
_cell_volume 2547.256575
_symmetry_space_group_name_H-M "P M M M"
_symmetry_group_IT_number 47
_symmetry_cell_setting 'orthorhombic'
loop_
_space_group_symop_operation_xyz
x,y,z
-x,-y,z
x,-y,-z
-x,y,-z
-x,-y,-z
x,y,-z
-x,y,z
x,-y,z
loop_
_atom_site_type_symbol
_atom_site_label
_atom_site_fract_x
_atom_site_fract_y
_atom_site_fract_z
Si Si1 0.597188 0.922391 0.695004
Si Si2 0.749591 0.327108 0.194882
Si Si3 0.097000 0.422129 0.802974
Si Si4 0.097354 0.077640 0.694996
Si Si5 0.597994 0.422497 0.304920
Si Si6 0.250119 0.827746 0.807427
O O1 0.598099 0.922367 0.500000
O O2 0.500000 0.906767 0.746838
O O3 0.666799 0.869439 0.753545
O O4 0.617483 0.000000 0.747251
O O5 0.831689 0.369665 0.254169
O O6 0.664982 0.368396 0.240617
O O7 0.749065 0.249658 0.255797
O O8 0.754624 0.325062 0.000000
O O9 0.116256 0.500000 0.753632
O O10 0.000000 0.405639 0.752918
O O11 0.097688 0.421528 0.000000
O O12 0.098429 0.077690 0.500000
O O13 0.166561 0.130965 0.753955
O O14 0.000000 0.092816 0.746755
O O15 0.118065 0.000000 0.747054
O O16 0.600054 0.421387 0.500000
O O17 0.500000 0.408777 0.255285
O O18 0.619805 0.500000 0.253274
O O19 0.250169 0.824702 0.000000
#
# Coordination Sequence:
#
# PCOD9386884 Si02
#       6
#     8   8   8   8   8   8
#     4   9  19  37  59  78  96 127 174 220 260 308
#     4  10  21  34  49  74 107 140 171 204 247 303
#     4   8  14  27  49  73  94 122 164 208 244 281
#     4   9  19  37  59  79 100 133 179 224 261 304
#     4   9  19  36  56  77 101 131 170 216 263 307
#     4  11  23  34  48  77 113 143 170 207 259 315
#
# _framework density 18.843802
#
# number of rings (size 3 to 8) (size 9 to 14) (size 15 to 20)
#    0.000    2.667    0.000    3.500    0.000    7.333 
#    0.000    7.500    0.000    0.500    0.000    2.333 
#    0.000    0.000    0.000    0.000    0.000    0.000 
#
# Total GULP energy -267827.556141 kJ/mol
# GULP energy per Si atom -5579.740753 kJ/mol
# Density = 1.880091 g / cm^3
# Si number density = 18.843802 Si / 1000 Ang^3
#
#
#
# Elastic Constant Matrix: (Units=GPa)
#
#
# Indices 1 2 3 4 5 6 
#
# 1 161.9167 147.0236 18.0319 0.0000 0.0000 0.0000
# 2 147.0236 192.3647 21.4991 0.0000 0.0000 0.0000
# 3 18.0319 21.4991 9.0032 0.0000 0.0000 0.0000
# 4 0.0000 0.0000 0.0000 17.5193 0.0000 0.0000
# 5 0.0000 0.0000 0.0000 0.0000 56.0006 0.0000
# 6 0.0000 0.0000 0.0000 0.0000 0.0000 -15.6313
#
#
#
# Elastic Compliance Matrix: (Units=1/GPa)
#
#
# Indices 1 2 3 4 5 6 
#
# 1 0.020342 -0.014996 -0.004932 0.000000 0.000000 0.000000
# 2 -0.014996 0.018146 -0.013297 0.000000 0.000000 0.000000
# 3 -0.004932 -0.013297 0.152702 0.000000 0.000000 0.000000
# 4 0.000000 0.000000 0.000000 0.057080 0.000000 0.000000
# 5 0.000000 0.000000 0.000000 0.000000 0.017857 0.000000
# 6 0.000000 0.000000 0.000000 0.000000 0.000000 -0.063974
#
#
# Mechanical properties :
#
#
# Convention : Reuss Voigt Hill
#
# Bulk Modulus (GPa) = 8.01666 81.82153 44.91910
# Shear Modulus (GPa) = 16.11954 23.35973 19.73964
#
# Velocity S-wave (km/s) = 2.92795 3.52469 3.24008
# Velocity P-wave (km/s) = 3.96156 7.75111 6.15523
#
# Compressibility (1/GPa) = 0.12474019
#
# Stress axis : x y z
#
# Youngs Moduli (GPa) = 49.15914 55.10827 6.54871
#
# Poissons Ratio (x) = 0.82641 0.03230
# Poissons Ratio (y) = 0.73720 0.08708
# Poissons Ratio (z) = 0.24244 0.73277
#
# Static dielectric constant tensor:
#      x y z
#    x 1.638210 0.000000 0.000000 
#    y 0.000000 1.643050 0.000000 
#    z 0.000000 0.000000 1.663940 
# 
# From -- ./inp_files/6323.got.cif
#   From: 2010.05.17/outbox.cif.g08.bks.cpg/sg47_4_cif.got.tgz:6323.got - 2010.06.03 20:15:42.
