data_PCOD9386820
_publ_section_title
;
Structure prediction by ZEFSAII (Michael W. Deem and Ramdas Pophale) SiO2 
 PCOD9386820
Probable space group: P M M M
;
_chemical_formula_sum "Si O2"
_cell_formula_units_Z 52
_cell_length_a 15.318172
_cell_length_b 20.642082
_cell_length_c 7.453491
_cell_angle_alpha 90.000000
_cell_angle_beta 90.000000
_cell_angle_gamma 90.000000
_cell_volume 2356.786121
_symmetry_space_group_name_H-M "P M M M"
_symmetry_group_IT_number 47
_symmetry_cell_setting 'orthorhombic'
loop_
_space_group_symop_operation_xyz
x,y,z
-x,-y,z
x,-y,-z
-x,y,-z
-x,-y,-z
x,y,-z
-x,y,z
x,-y,z
loop_
_atom_site_type_symbol
_atom_site_label
_atom_site_fract_x
_atom_site_fract_y
_atom_site_fract_z
Si Si1 0.404397 0.608231 0.708652
Si Si2 0.901244 0.837522 0.781049
Si Si3 0.398984 0.000000 0.780656
Si Si4 0.219495 0.569298 0.284855
Si Si5 0.715954 0.122620 0.219208
Si Si6 0.903362 0.310128 0.214017
Si Si7 0.598379 0.241202 0.783446
O O1 0.408465 0.588847 0.500000
O O2 0.500000 0.594421 0.788057
O O3 0.317751 0.577152 0.787329
O O4 0.390866 0.685906 0.715275
O O5 0.817159 0.878756 0.724066
O O6 0.883866 0.762905 0.723415
O O7 0.000000 0.855245 0.723815
O O8 0.902324 0.838956 0.000000
O O9 0.344630 0.936850 0.724053
O O10 0.500000 0.000000 0.722589
O O11 0.400672 0.000000 0.000000
O O12 0.225231 0.566947 0.500000
O O13 0.182019 0.500000 0.223407
O O14 0.164322 0.633192 0.248031
O O15 0.669962 0.189640 0.275841
O O16 0.715592 0.122412 0.000000
O O17 0.000000 0.328082 0.281175
O O18 0.907855 0.304154 0.000000
O O19 0.500000 0.219236 0.735868
O O20 0.602670 0.244927 0.000000
#
# Coordination Sequence:
#
# PCOD9386820 Si02
#       7
#     8   8   4   8   8   8   8
#     4   9  18  32  48  66  89 117 150 188 228 269
#     4   8  14  25  41  60  80 104 139 180 218 258
#     4   9  16  24  33  51  84 120 149 176 210 256
#     4  10  21  34  47  66  92 121 151 183 223 271
#     4   9  15  23  37  57  83 114 143 175 217 258
#     4   9  18  33  52  71  90 115 148 186 228 273
#     4   9  16  26  43  66  87 109 143 186 228 267
#
# _framework density 22.063946000000001
#
# number of rings (size 3 to 8) (size 9 to 14) (size 15 to 20)
#    0.000    3.000    0.000    2.308    0.000    4.923 
#    0.000    3.462    0.000    2.308    0.000    3.769 
#    0.000    3.077    0.000    0.000    0.000   25.692 
#
# Total GULP energy -290122.803855 kJ/mol
# GULP energy per Si atom -5579.284690 kJ/mol
# Density = 2.201373 g / cm^3
# Si number density = 22.063946 Si / 1000 Ang^3
#
#
#
# Elastic Constant Matrix: (Units=GPa)
#
#
# Indices 1 2 3 4 5 6 
#
# 1 175.6163 70.4902 5.0972 0.0000 0.0000 0.0000
# 2 70.4902 60.5639 -0.3049 0.0000 0.0000 0.0000
# 3 5.0972 -0.3049 63.3544 0.0000 0.0000 0.0000
# 4 0.0000 0.0000 0.0000 6.4538 0.0000 0.0000
# 5 0.0000 0.0000 0.0000 0.0000 5.2761 0.0000
# 6 0.0000 0.0000 0.0000 0.0000 0.0000 -1.6559
#
#
#
# Elastic Compliance Matrix: (Units=1/GPa)
#
#
# Indices 1 2 3 4 5 6 
#
# 1 0.010741 -0.012506 -0.000924 0.000000 0.000000 0.000000
# 2 -0.012506 0.031073 0.001156 0.000000 0.000000 0.000000
# 3 -0.000924 0.001156 0.015864 0.000000 0.000000 0.000000
# 4 0.000000 0.000000 0.000000 0.154948 0.000000 0.000000
# 5 0.000000 0.000000 0.000000 0.000000 0.189535 0.000000
# 6 0.000000 0.000000 0.000000 0.000000 0.000000 -0.603885
#
#
# Mechanical properties :
#
#
# Convention : Reuss Voigt Hill
#
# Bulk Modulus (GPa) = 30.18520 50.01106 40.09813
# Shear Modulus (GPa) = -30.09626 16.96493 -6.56566
#
# Velocity S-wave (km/s) = -3.69731 2.77591 -1.72691
# Velocity P-wave (km/s) = 2.12516 5.74368 3.77317
#
# Compressibility (1/GPa) = 0.03312881
#
# Stress axis : x y z
#
# Youngs Moduli (GPa) = 93.10373 32.18259 63.03520
#
# Poissons Ratio (x) = 0.40247 0.05827
# Poissons Ratio (y) = 1.16433 -0.07285
# Poissons Ratio (z) = 0.08606 -0.03719
#
# Static dielectric constant tensor:
#      x y z
#    x 1.826030 0.000000 0.000000 
#    y 0.000000 1.779180 0.000000 
#    z 0.000000 0.000000 1.852030 
# 
# From -- ./inp_files/7105.got.cif
#   From: 2010.05.17/outbox.cif.g08.bks.cpg/sg47_4_cif.got.tgz:7105.got - 2010.06.03 20:15:42.
