data_PCOD9386479
_publ_section_title
;
Structure prediction by ZEFSAII (Michael W. Deem and Ramdas Pophale) SiO2 
 PCOD9386479
Probable space group: P M M M
;
_chemical_formula_sum "Si O2"
_cell_formula_units_Z 48
_cell_length_a 9.245140
_cell_length_b 31.623755
_cell_length_c 8.938658
_cell_angle_alpha 90.000000
_cell_angle_beta 90.000000
_cell_angle_gamma 90.000000
_cell_volume 2613.360063
_symmetry_space_group_name_H-M "P M M M"
_symmetry_group_IT_number 47
_symmetry_cell_setting 'orthorhombic'
loop_
_space_group_symop_operation_xyz
x,y,z
-x,-y,z
x,-y,-z
-x,y,-z
-x,-y,-z
x,y,-z
-x,y,z
x,-y,z
loop_
_atom_site_type_symbol
_atom_site_label
_atom_site_fract_x
_atom_site_fract_y
_atom_site_fract_z
Si Si1 0.329996 0.746230 0.821145
Si Si2 0.828988 0.078614 0.321208
Si Si3 0.833247 0.500000 0.182042
Si Si4 0.170054 0.666103 0.679339
Si Si5 0.171491 0.174810 0.320401
Si Si6 0.329934 0.585731 0.180773
Si Si7 0.333112 0.000000 0.178575
O O1 0.500000 0.743261 0.783769
O O2 0.243329 0.707974 0.745627
O O3 0.264002 0.790092 0.762617
O O4 0.315267 0.743461 0.000000
O O5 0.809163 0.074825 0.500000
O O6 0.788188 0.126646 0.278575
O O7 0.743068 0.041876 0.240627
O O8 0.000000 0.073804 0.291358
O O9 0.748852 0.457672 0.227469
O O10 0.000000 0.500000 0.232538
O O11 0.834621 0.500000 0.000000
O O12 0.182228 0.666522 0.500000
O O13 0.251362 0.625481 0.745556
O O14 0.000000 0.664765 0.718583
O O15 0.189309 0.179007 0.500000
O O16 0.000000 0.180442 0.289376
O O17 0.500000 0.584692 0.218196
O O18 0.318668 0.589239 0.000000
O O19 0.500000 0.000000 0.225291
O O20 0.324870 0.000000 0.000000
#
# Coordination Sequence:
#
# PCOD9386479 Si02
#       7
#     8   8   4   8   8   8   4
#     4  11  24  39  56  82 114 146 181 222 269 323
#     4   9  19  37  60  83 107 139 182 228 271 321
#     4   9  17  31  54  83 114 149 186 224 270 323
#     4  11  24  40  58  81 109 143 185 231 276 324
#     4   9  19  37  60  85 111 140 178 224 272 323
#     4  10  20  35  57  85 115 146 183 227 274 326
#     4  11  24  37  50  76 114 149 182 225 274 322
#
# _framework density 18.367156999999999
#
# number of rings (size 3 to 8) (size 9 to 14) (size 15 to 20)
#    0.000    2.000    0.000    4.250    0.000   12.333 
#    0.000    5.417    0.000    2.500    0.000    0.000 
#    0.000    0.000    0.000    0.000    0.000    0.000 
#
# Total GULP energy -268173.937548 kJ/mol
# GULP energy per Si atom -5586.957032 kJ/mol
# Density = 1.832535 g / cm^3
# Si number density = 18.367157 Si / 1000 Ang^3
#
#
#
# Elastic Constant Matrix: (Units=GPa)
#
#
# Indices 1 2 3 4 5 6 
#
# 1 159.0837 124.7911 65.7838 0.0000 0.0000 0.0000
# 2 124.7911 195.6751 61.5546 0.0000 0.0000 0.0000
# 3 65.7838 61.5546 35.2399 0.0000 0.0000 0.0000
# 4 0.0000 0.0000 0.0000 34.6418 0.0000 0.0000
# 5 0.0000 0.0000 0.0000 0.0000 31.5327 0.0000
# 6 0.0000 0.0000 0.0000 0.0000 0.0000 182.0192
#
#
#
# Elastic Compliance Matrix: (Units=1/GPa)
#
#
# Indices 1 2 3 4 5 6 
#
# 1 0.028430 -0.003188 -0.047504 0.000000 0.000000 0.000000
# 2 -0.003188 0.011701 -0.014488 0.000000 0.000000 0.000000
# 3 -0.047504 -0.014488 0.142361 0.000000 0.000000 0.000000
# 4 0.000000 0.000000 0.000000 0.028867 0.000000 0.000000
# 5 0.000000 0.000000 0.000000 0.000000 0.031713 0.000000
# 6 0.000000 0.000000 0.000000 0.000000 0.000000 0.005494
#
#
# Mechanical properties :
#
#
# Convention : Reuss Voigt Hill
#
# Bulk Modulus (GPa) = 19.18159 99.36197 59.27178
# Shear Modulus (GPa) = 12.61661 58.83002 35.72332
#
# Velocity S-wave (km/s) = 2.62374 5.66565 4.41495
# Velocity P-wave (km/s) = 4.43224 9.84959 7.63738
#
# Compressibility (1/GPa) = 0.05213331
#
# Stress axis : x y z
#
# Youngs Moduli (GPa) = 35.17372 85.46301 7.02439
#
# Poissons Ratio (x) = 0.27243 0.33369
# Poissons Ratio (y) = 0.11212 0.10177
# Poissons Ratio (z) = 1.67089 1.23817
#
# Static dielectric constant tensor:
#      x y z
#    x 1.611580 0.000000 0.000000 
#    y 0.000000 1.604050 0.000000 
#    z 0.000000 0.000000 1.614580 
# 
# From -- ./inp_files/2548.got.cif
#   From: 2010.05.17/outbox.cif.g08.bks.cpg/sg47_2_cif.got.tgz:2548.got - 2010.06.03 20:15:42.
