data_PCOD9386388
_publ_section_title
;
Structure prediction by ZEFSAII (Michael W. Deem and Ramdas Pophale) SiO2 
 PCOD9386388
Probable space group: P M M M
;
_chemical_formula_sum "Si O2"
_cell_formula_units_Z 33
_cell_length_a 21.093828
_cell_length_b 9.773928
_cell_length_c 7.851637
_cell_angle_alpha 90.000000
_cell_angle_beta 90.000000
_cell_angle_gamma 90.000000
_cell_volume 1618.768515
_symmetry_space_group_name_H-M "P M M M"
_symmetry_group_IT_number 47
_symmetry_cell_setting 'orthorhombic'
loop_
_space_group_symop_operation_xyz
x,y,z
-x,-y,z
x,-y,-z
-x,y,-z
-x,-y,-z
x,y,-z
-x,y,z
x,-y,z
loop_
_atom_site_type_symbol
_atom_site_label
_atom_site_fract_x
_atom_site_fract_y
_atom_site_fract_z
Si Si1 0.000000 0.774678 0.192920
Si Si2 0.637839 0.656811 0.201769
Si Si3 0.500000 0.343549 0.296880
Si Si4 0.245113 0.154419 0.296744
Si Si5 0.000000 0.000000 0.500000
Si Si6 0.868153 0.654007 0.293217
O O1 0.936512 0.686207 0.217353
O O2 0.000000 0.882452 0.347876
O O3 0.000000 0.831571 0.000000
O O4 0.642259 0.500000 0.271752
O O5 0.567545 0.714248 0.240568
O O6 0.692728 0.754834 0.267338
O O7 0.644587 0.648185 0.000000
O O8 0.500000 0.500000 0.228404
O O9 0.500000 0.347076 0.500000
O O10 0.236882 0.144086 0.500000
O O11 0.183675 0.236290 0.232473
O O12 0.250252 0.000000 0.228192
O O13 0.872770 0.662849 0.500000
O O14 0.847281 0.500000 0.251142
#
# Coordination Sequence:
#
# PCOD9386388 Si02
#       6
#     4   8   4   8   1   8
#     4  12  26  42  70  99 128 173 217 260 319 379
#     4  10  20  35  56  84 118 154 194 246 303 358
#     4   9  17  31  56  85 112 145 192 244 296 361
#     4  10  22  38  60  87 120 162 207 248 300 363
#     4  12  26  48  66  94 144 168 208 266 316 386
#     4  10  21  40  66  94 127 167 208 262 320 370
#
# _framework density 20.385867999999999
#
# number of rings (size 3 to 8) (size 9 to 14) (size 15 to 20)
#    0.000    1.818    1.212    2.364    1.697    7.273 
#    0.000    0.606    0.000    3.636    0.000    0.000 
#    0.000    0.000    0.000    0.000    0.000    0.000 
#
# Total GULP energy -183976.163679 kJ/mol
# GULP energy per Si atom -5575.035263 kJ/mol
# Density = 2.033947 g / cm^3
# Si number density = 20.385868 Si / 1000 Ang^3
#
#
#
# Elastic Constant Matrix: (Units=GPa)
#
#
# Indices 1 2 3 4 5 6 
#
# 1 174.6487 82.7035 -0.4405 0.0000 0.0000 0.0000
# 2 82.7035 134.1335 26.1707 0.0000 0.0000 0.0000
# 3 -0.4405 26.1707 68.0389 0.0000 0.0000 0.0000
# 4 0.0000 0.0000 0.0000 10.9782 0.0000 0.0000
# 5 0.0000 0.0000 0.0000 0.0000 156.7342 0.0000
# 6 0.0000 0.0000 0.0000 0.0000 0.0000 -7.9555
#
#
#
# Elastic Compliance Matrix: (Units=1/GPa)
#
#
# Indices 1 2 3 4 5 6 
#
# 1 0.008383 -0.005600 0.002208 0.000000 0.000000 0.000000
# 2 -0.005600 0.011800 -0.004575 0.000000 0.000000 0.000000
# 3 0.002208 -0.004575 0.016472 0.000000 0.000000 0.000000
# 4 0.000000 0.000000 0.000000 0.091090 0.000000 0.000000
# 5 0.000000 0.000000 0.000000 0.000000 0.006380 0.000000
# 6 0.000000 0.000000 0.000000 0.000000 0.000000 -0.125699
#
#
# Mechanical properties :
#
#
# Convention : Reuss Voigt Hill
#
# Bulk Modulus (GPa) = 48.25862 65.96538 57.11200
# Shear Modulus (GPa) = 159.91339 49.84387 104.87863
#
# Velocity S-wave (km/s) = 8.86643 4.95008 7.18042
# Velocity P-wave (km/s) = 11.33764 8.06844 9.83976
#
# Compressibility (1/GPa) = 0.02072169
#
# Stress axis : x y z
#
# Youngs Moduli (GPa) = 119.28936 84.74233 60.71060
#
# Poissons Ratio (x) = 0.47452 -0.13406
# Poissons Ratio (y) = 0.66797 0.27776
# Poissons Ratio (z) = -0.26340 0.38771
#
# Static dielectric constant tensor:
#      x y z
#    x 1.710320 0.000000 0.000000 
#    y 0.000000 1.733450 0.000000 
#    z 0.000000 0.000000 1.731390 
# 
# From -- ./inp_files/10410.got.cif
#   From: 2010.05.17/outbox.cif.g08.bks.cpg/sg47_6_cif.got.tgz:10410.got - 2010.06.03 20:15:42.
