data_PCOD9386574
_publ_section_title
;
Structure prediction by ZEFSAII (Michael W. Deem and Ramdas Pophale) SiO2 
 PCOD9386574
Probable space group: P M M M
;
_chemical_formula_sum "Si O2"
_cell_formula_units_Z 64
_cell_length_a 25.285368
_cell_length_b 7.395798
_cell_length_c 15.390519
_cell_angle_alpha 90.000000
_cell_angle_beta 90.000000
_cell_angle_gamma 90.000000
_cell_volume 2878.111302
_symmetry_space_group_name_H-M "P M M M"
_symmetry_group_IT_number 47
_symmetry_cell_setting 'orthorhombic'
loop_
_space_group_symop_operation_xyz
x,y,z
-x,-y,z
x,-y,-z
-x,y,-z
-x,-y,-z
x,y,-z
-x,y,z
x,-y,z
loop_
_atom_site_type_symbol
_atom_site_label
_atom_site_fract_x
_atom_site_fract_y
_atom_site_fract_z
Si Si1 0.757482 0.209291 0.405817
Si Si2 0.752504 0.211442 0.782069
Si Si3 0.560803 0.720963 0.219201
Si Si4 0.882120 0.280996 0.595564
Si Si5 0.939985 0.717767 0.229030
Si Si6 0.563705 0.283129 0.407531
Si Si7 0.653341 0.718712 0.098011
Si Si8 0.847116 0.214201 0.098998
O O1 0.742403 0.289779 0.500000
O O2 0.740616 0.290315 0.313391
O O3 0.821489 0.217121 0.400833
O O4 0.740364 0.000000 0.408442
O O5 0.702074 0.224744 0.843001
O O6 0.802194 0.289310 0.835736
O O7 0.765065 0.000000 0.766328
O O8 0.500000 0.777701 0.208821
O O9 0.560303 0.500000 0.220761
O O10 0.582285 0.782135 0.313698
O O11 0.599179 0.778903 0.142960
O O12 0.903631 0.228683 0.500000
O O13 0.880943 0.500000 0.597996
O O14 0.913813 0.218388 0.680257
O O15 0.941437 0.500000 0.234053
O O16 0.902700 0.763403 0.147865
O O17 0.000000 0.782588 0.219765
O O18 0.584331 0.212264 0.500000
O O19 0.500000 0.254127 0.406851
O O20 0.571344 0.500000 0.408603
O O21 0.652899 0.500000 0.096505
O O22 0.659144 0.783330 0.000000
O O23 0.836746 0.000000 0.092138
O O24 0.845808 0.285666 0.000000
#
# Coordination Sequence:
#
# PCOD9386574 Si02
#       8
#     8   8   8   8   8   8   8   8
#     4   9  17  31  54  80 102 127 162 203 248 299
#     4  10  20  36  57  77 100 131 166 206 252 305
#     4   8  14  26  44  66  95 131 167 203 246 297
#     4   9  17  30  50  76 105 136 167 200 243 296
#     4  10  21  35  51  75 107 139 170 206 250 303
#     4   7   9  15  31  56  85 118 155 192 232 281
#     4  10  21  34  49  74 104 132 168 215 260 299
#     4  10  21  37  56  76  96 125 171 220 262 304
#
# _framework density 22.236803999999999
#
# number of rings (size 3 to 8) (size 9 to 14) (size 15 to 20)
#    0.000    2.875    1.250    1.500    0.000    3.000 
#    0.000    4.375    0.000    1.125    0.000    3.500 
#    0.000    0.000    0.000    6.250    0.000    2.500 
#
# Total GULP energy -357073.709720 kJ/mol
# GULP energy per Si atom -5579.276714 kJ/mol
# Density = 2.218619 g / cm^3
# Si number density = 22.236804 Si / 1000 Ang^3
#
#
#
# Elastic Constant Matrix: (Units=GPa)
#
#
# Indices 1 2 3 4 5 6 
#
# 1 56.3803 -11.9928 60.5604 0.0000 0.0000 0.0000
# 2 -11.9928 76.8352 5.8176 0.0000 0.0000 0.0000
# 3 60.5604 5.8176 243.3667 0.0000 0.0000 0.0000
# 4 0.0000 0.0000 0.0000 2.3395 0.0000 0.0000
# 5 0.0000 0.0000 0.0000 0.0000 84.8802 0.0000
# 6 0.0000 0.0000 0.0000 0.0000 0.0000 4.6485
#
#
#
# Elastic Compliance Matrix: (Units=1/GPa)
#
#
# Indices 1 2 3 4 5 6 
#
# 1 0.025671 0.004499 -0.006496 0.000000 0.000000 0.000000
# 2 0.004499 0.013827 -0.001450 0.000000 0.000000 0.000000
# 3 -0.006496 -0.001450 0.005760 0.000000 0.000000 0.000000
# 4 0.000000 0.000000 0.000000 0.427441 0.000000 0.000000
# 5 0.000000 0.000000 0.000000 0.000000 0.011781 0.000000
# 6 0.000000 0.000000 0.000000 0.000000 0.000000 0.215122
#
#
# Mechanical properties :
#
#
# Convention : Reuss Voigt Hill
#
# Bulk Modulus (GPa) = 26.06622 53.92806 39.99714
# Shear Modulus (GPa) = 6.95136 39.85344 23.40240
#
# Velocity S-wave (km/s) = 1.76999 4.23807 3.24762
# Velocity P-wave (km/s) = 3.99057 6.94641 5.66468
#
# Compressibility (1/GPa) = 0.03836384
#
# Stress axis : x y z
#
# Youngs Moduli (GPa) = 38.95481 72.32323 173.60897
#
# Poissons Ratio (x) = -0.32536 1.12769
# Poissons Ratio (y) = -0.17524 0.25173
# Poissons Ratio (z) = 0.25303 0.10487
#
# Static dielectric constant tensor:
#      x y z
#    x 1.769640 0.000000 0.000000 
#    y 0.000000 2.201190 0.000000 
#    z 0.000000 0.000000 1.851660 
# 
# From -- ./inp_files/25519.got.cif
#   From: 2010.05.17/outbox.cif.g08.bks.cpg/sg47_13_cif.got.tgz:25519.got - 2010.06.03 20:15:42.
