data_PCOD9386971
_publ_section_title
;
Structure prediction by ZEFSAII (Michael W. Deem and Ramdas Pophale) SiO2 
 PCOD9386971
Probable space group: P M M M
;
_chemical_formula_sum "Si O2"
_cell_formula_units_Z 52
_cell_length_a 23.756317
_cell_length_b 9.181007
_cell_length_c 15.267590
_cell_angle_alpha 90.000000
_cell_angle_beta 90.000000
_cell_angle_gamma 90.000000
_cell_volume 3329.966919
_symmetry_space_group_name_H-M "P M M M"
_symmetry_group_IT_number 47
_symmetry_cell_setting 'orthorhombic'
loop_
_space_group_symop_operation_xyz
x,y,z
-x,-y,z
x,-y,-z
-x,y,-z
-x,-y,-z
x,y,-z
-x,y,z
x,-y,z
loop_
_atom_site_type_symbol
_atom_site_label
_atom_site_fract_x
_atom_site_fract_y
_atom_site_fract_z
Si Si1 0.937068 0.326183 0.357712
Si Si2 0.063627 0.172251 0.000000
Si Si3 0.897390 0.663420 0.834746
Si Si4 0.770466 0.668409 0.236746
Si Si5 0.179546 0.827563 0.599630
Si Si6 0.314442 0.176937 0.896310
Si Si7 0.560381 0.828124 0.894162
O O1 0.929659 0.500000 0.374145
O O2 0.932852 0.305375 0.252713
O O3 0.883506 0.240268 0.394503
O O4 0.000000 0.284798 0.387808
O O5 0.092807 0.227557 0.912748
O O6 0.000000 0.229859 0.000000
O O7 0.062437 0.000000 0.000000
O O8 0.911578 0.500000 0.864510
O O9 0.832639 0.666776 0.805673
O O10 0.753226 0.500000 0.249403
O O11 0.780901 0.749198 0.329149
O O12 0.729437 0.750644 0.169711
O O13 0.199602 0.807525 0.500000
O O14 0.176440 0.000000 0.618611
O O15 0.377804 0.227172 0.869539
O O16 0.312070 0.000000 0.890614
O O17 0.305089 0.212796 0.000000
O O18 0.500000 0.765298 0.863447
O O19 0.559948 0.000000 0.871863
O O20 0.559998 0.820327 0.000000
#
# Coordination Sequence:
#
# PCOD9386971 Si02
#       7
#     8   4   8   8   8   8   8
#     4   9  18  33  52  72  92 115 144 178 222 280
#     4  11  23  33  43  63  85 107 142 187 232 273
#     4   9  19  34  48  61  81 114 151 184 221 266
#     4  10  21  35  50  68  92 123 158 194 233 279
#     4  10  21  36  53  72  93 117 147 188 239 288
#     4   9  17  28  45  71 100 131 166 201 235 268
#     4   7  10  19  37  62  93 128 164 198 229 263
#
# _framework density 15.615769999999999
#
# number of rings (size 3 to 8) (size 9 to 14) (size 15 to 20)
#    0.000    2.846    0.000    3.923    1.077    6.462 
#    0.000    1.538    0.000    0.462    0.000    2.154 
#    0.000    0.615    0.000    7.077    0.000    2.308 
#
# Total GULP energy -289523.892431 kJ/mol
# GULP energy per Si atom -5567.767162 kJ/mol
# Density = 1.558023 g / cm^3
# Si number density = 15.615770 Si / 1000 Ang^3
#
#
#
# Elastic Constant Matrix: (Units=GPa)
#
#
# Indices 1 2 3 4 5 6 
#
# 1 89.3639 28.3255 42.6808 0.0000 0.0000 0.0000
# 2 28.3255 57.7715 50.0862 0.0000 0.0000 0.0000
# 3 42.6808 50.0862 79.3861 0.0000 0.0000 0.0000
# 4 0.0000 0.0000 0.0000 29.3878 0.0000 0.0000
# 5 0.0000 0.0000 0.0000 0.0000 8.9586 0.0000
# 6 0.0000 0.0000 0.0000 0.0000 0.0000 5.3748
#
#
#
# Elastic Compliance Matrix: (Units=1/GPa)
#
#
# Indices 1 2 3 4 5 6 
#
# 1 0.015073 -0.000805 -0.007596 0.000000 0.000000 0.000000
# 2 -0.000805 0.038253 -0.023702 0.000000 0.000000 0.000000
# 3 -0.007596 -0.023702 0.031634 0.000000 0.000000 0.000000
# 4 0.000000 0.000000 0.000000 0.034028 0.000000 0.000000
# 5 0.000000 0.000000 0.000000 0.000000 0.111624 0.000000
# 6 0.000000 0.000000 0.000000 0.000000 0.000000 0.186054
#
#
# Mechanical properties :
#
#
# Convention : Reuss Voigt Hill
#
# Bulk Modulus (GPa) = 48.18070 52.07852 50.12961
# Shear Modulus (GPa) = 10.25031 15.77284 13.01158
#
# Velocity S-wave (km/s) = 2.56482 3.18159 2.88971
# Velocity P-wave (km/s) = 6.30016 6.84975 6.58069
#
# Compressibility (1/GPa) = 0.02075520
#
# Stress axis : x y z
#
# Youngs Moduli (GPa) = 66.34257 26.14182 31.61107
#
# Poissons Ratio (x) = 0.02104 0.24012
# Poissons Ratio (y) = 0.05339 0.74924
# Poissons Ratio (z) = 0.50395 0.61961
#
# Static dielectric constant tensor:
#      x y z
#    x 1.543360 0.000000 0.000000 
#    y 0.000000 1.525680 0.000000 
#    z 0.000000 0.000000 1.503100 
# 
# From -- ./inp_files/7682.got.cif
#   From: 2010.05.17/outbox.cif.g08.bks.cpg/sg47_4_cif.got.tgz:7682.got - 2010.06.03 20:15:42.
