data_PCOD9386868
_publ_section_title
;
Structure prediction by ZEFSAII (Michael W. Deem and Ramdas Pophale) SiO2 
 PCOD9386868
Probable space group: P M M M
;
_chemical_formula_sum "Si O2"
_cell_formula_units_Z 64
_cell_length_a 7.821291
_cell_length_b 22.315026
_cell_length_c 19.423365
_cell_angle_alpha 90.000000
_cell_angle_beta 90.000000
_cell_angle_gamma 90.000000
_cell_volume 3390.004801
_symmetry_space_group_name_H-M "P M M M"
_symmetry_group_IT_number 47
_symmetry_cell_setting 'orthorhombic'
loop_
_space_group_symop_operation_xyz
x,y,z
-x,-y,z
x,-y,-z
-x,y,-z
-x,-y,-z
x,y,-z
-x,y,z
x,-y,z
loop_
_atom_site_type_symbol
_atom_site_label
_atom_site_fract_x
_atom_site_fract_y
_atom_site_fract_z
Si Si1 0.702777 0.674520 0.674049
Si Si2 0.794666 0.765272 0.779255
Si Si3 0.201096 0.193289 0.074670
Si Si4 0.205129 0.431630 0.423159
Si Si5 0.792184 0.893480 0.277340
Si Si6 0.296855 0.934401 0.874022
Si Si7 0.298747 0.777025 0.576867
Si Si8 0.802767 0.087820 0.424682
O O1 0.500000 0.677339 0.668392
O O2 0.749425 0.700512 0.748620
O O3 0.752551 0.611997 0.639919
O O4 0.776932 0.727235 0.626042
O O5 0.726955 0.776033 0.856470
O O6 0.736147 0.823501 0.733904
O O7 0.000000 0.770057 0.780712
O O8 0.215860 0.122184 0.088165
O O9 0.000000 0.208257 0.072656
O O10 0.276475 0.208084 0.000000
O O11 0.266197 0.411658 0.500000
O O12 0.266159 0.500000 0.412710
O O13 0.000000 0.433419 0.426640
O O14 0.737535 0.925972 0.207520
O O15 0.729217 0.924160 0.348406
O O16 0.000000 0.893952 0.280488
O O17 0.500000 0.931548 0.885465
O O18 0.234361 0.000000 0.895565
O O19 0.292157 0.752024 0.500000
O O20 0.500000 0.789452 0.591757
O O21 0.203093 0.839856 0.576913
O O22 0.726973 0.070628 0.500000
O O23 0.000000 0.067998 0.425503
#
# Coordination Sequence:
#
# PCOD9386868 Si02
#       8
#     8   8   8   8   8   8   8   8
#     4  11  20  28  43  67  96 127 160 200 241 283
#     4   9  17  30  47  69  95 122 155 190 229 280
#     4   9  19  36  56  76  99 127 156 187 227 278
#     4   9  19  35  51  66  89 128 177 221 257 290
#     4   9  17  30  47  66  90 120 155 195 239 285
#     4  10  21  34  49  71  96 123 157 194 232 278
#     4   9  17  26  35  54  86 119 149 182 223 271
#     4   9  16  26  41  61  84 110 144 187 233 278
#
# _framework density 18.879028999999999
#
# number of rings (size 3 to 8) (size 9 to 14) (size 15 to 20)
#    0.000    2.625    1.250    2.250    0.000    5.500 
#    0.000    3.125    0.000    0.375    0.000    2.625 
#    0.000    0.500    0.000    5.750    0.000    1.625 
#
# Total GULP energy -356569.150894 kJ/mol
# GULP energy per Si atom -5571.392983 kJ/mol
# Density = 1.883606 g / cm^3
# Si number density = 18.879029 Si / 1000 Ang^3
#
#
#
# Elastic Constant Matrix: (Units=GPa)
#
#
# Indices 1 2 3 4 5 6 
#
# 1 27.7966 3.3043 7.9601 0.0000 0.0000 0.0000
# 2 3.3043 89.7721 42.1189 0.0000 0.0000 0.0000
# 3 7.9601 42.1189 120.1963 0.0000 0.0000 0.0000
# 4 0.0000 0.0000 0.0000 -18.4343 0.0000 0.0000
# 5 0.0000 0.0000 0.0000 0.0000 1.5571 0.0000
# 6 0.0000 0.0000 0.0000 0.0000 0.0000 1.9100
#
#
#
# Elastic Compliance Matrix: (Units=1/GPa)
#
#
# Indices 1 2 3 4 5 6 
#
# 1 0.036676 -0.000252 -0.002341 0.000000 0.000000 0.000000
# 2 -0.000252 0.013333 -0.004655 0.000000 0.000000 0.000000
# 3 -0.002341 -0.004655 0.010106 0.000000 0.000000 0.000000
# 4 0.000000 0.000000 0.000000 -0.054247 0.000000 0.000000
# 5 0.000000 0.000000 0.000000 0.000000 0.642237 0.000000
# 6 0.000000 0.000000 0.000000 0.000000 0.000000 0.523561
#
#
# Mechanical properties :
#
#
# Convention : Reuss Voigt Hill
#
# Bulk Modulus (GPa) = 21.92065 38.28129 30.10097
# Shear Modulus (GPa) = 4.16192 9.29866 6.73029
#
# Velocity S-wave (km/s) = 1.48637 2.22173 1.89016
# Velocity P-wave (km/s) = 3.81865 5.18677 4.55438
#
# Compressibility (1/GPa) = 0.04561909
#
# Stress axis : x y z
#
# Youngs Moduli (GPa) = 27.26588 75.00323 98.95066
#
# Poissons Ratio (x) = 0.01888 0.23161
# Poissons Ratio (y) = 0.00687 0.46065
# Poissons Ratio (z) = 0.06382 0.34917
#
# Static dielectric constant tensor:
#      x y z
#    x 1.672750 0.000000 0.000000 
#    y 0.000000 1.659650 0.000000 
#    z 0.000000 0.000000 1.742310 
# 
# From -- ./inp_files/30121.got.cif
#   From: 2010.05.17/outbox.cif.g08.bks.cpg/sg47_16_cif.got.tgz:30121.got - 2010.06.03 20:15:42.
