data_PCOD9386512
_publ_section_title
;
Structure prediction by ZEFSAII (Michael W. Deem and Ramdas Pophale) SiO2 
 PCOD9386512
Probable space group: P M M M
;
_chemical_formula_sum "Si O2"
_cell_formula_units_Z 40
_cell_length_a 8.061881
_cell_length_b 9.519984
_cell_length_c 27.895763
_cell_angle_alpha 90.000000
_cell_angle_beta 90.000000
_cell_angle_gamma 90.000000
_cell_volume 2140.971304
_symmetry_space_group_name_H-M "P M M M"
_symmetry_group_IT_number 47
_symmetry_cell_setting 'orthorhombic'
loop_
_space_group_symop_operation_xyz
x,y,z
-x,-y,z
x,-y,-z
-x,y,-z
-x,-y,-z
x,y,-z
-x,y,z
x,-y,z
loop_
_atom_site_type_symbol
_atom_site_label
_atom_site_fract_x
_atom_site_fract_y
_atom_site_fract_z
Si Si1 0.000000 0.329350 0.945255
Si Si2 0.687111 0.332230 0.880425
Si Si3 0.699884 0.659771 0.409682
Si Si4 0.299433 0.336213 0.698284
Si Si5 0.803804 0.837119 0.210316
Si Si6 0.802586 0.157421 0.500000
O O1 0.833605 0.288600 0.916620
O O2 0.000000 0.500000 0.946598
O O3 0.000000 0.278857 0.000000
O O4 0.500000 0.308976 0.898967
O O5 0.705035 0.500000 0.871574
O O6 0.711499 0.249354 0.831009
O O7 0.500000 0.655879 0.408575
O O8 0.758089 0.500000 0.418785
O O9 0.753977 0.701198 0.355959
O O10 0.751131 0.760197 0.452346
O O11 0.500000 0.328167 0.700354
O O12 0.254477 0.500000 0.706652
O O13 0.227812 0.236592 0.738849
O O14 0.000000 0.831266 0.199805
O O15 0.752017 0.000000 0.211217
O O16 0.000000 0.149654 0.500000
O O17 0.732428 0.000000 0.500000
#
# Coordination Sequence:
#
# PCOD9386512 Si02
#       6
#     4   8   8   8   8   4
#     4   9  18  34  57  87 121 151 185 236 289 332
#     4  10  20  35  58  85 113 150 193 234 281 338
#     4   9  19  37  59  80 102 132 175 224 271 325
#     4   9  19  36  57  81 107 136 175 224 277 332
#     4  11  23  36  52  78 113 151 188 228 276 330
#     4  11  24  37  50  74 108 141 174 217 268 324
#
# _framework density 18.683107
#
# number of rings (size 3 to 8) (size 9 to 14) (size 15 to 20)
#    0.000    2.200    1.000    3.000    0.000    8.800 
#    0.000    8.000    0.000    1.200    0.000    1.400 
#    0.000    0.000    0.000    0.000    0.000    0.000 
#
# Total GULP energy -223268.895025 kJ/mol
# GULP energy per Si atom -5581.722376 kJ/mol
# Density = 1.864058 g / cm^3
# Si number density = 18.683107 Si / 1000 Ang^3
#
#
#
# Elastic Constant Matrix: (Units=GPa)
#
#
# Indices 1 2 3 4 5 6 
#
# 1 78.8167 39.7957 52.5364 0.0000 0.0000 0.0000
# 2 39.7957 74.5118 74.8352 0.0000 0.0000 0.0000
# 3 52.5364 74.8352 149.1754 0.0000 0.0000 0.0000
# 4 0.0000 0.0000 0.0000 -10.3798 0.0000 0.0000
# 5 0.0000 0.0000 0.0000 0.0000 35.6613 0.0000
# 6 0.0000 0.0000 0.0000 0.0000 0.0000 23.4959
#
#
#
# Elastic Compliance Matrix: (Units=1/GPa)
#
#
# Indices 1 2 3 4 5 6 
#
# 1 0.018041 -0.006559 -0.003063 0.000000 0.000000 0.000000
# 2 -0.006559 0.029433 -0.012456 0.000000 0.000000 0.000000
# 3 -0.003063 -0.012456 0.014031 0.000000 0.000000 0.000000
# 4 0.000000 0.000000 0.000000 -0.096341 0.000000 0.000000
# 5 0.000000 0.000000 0.000000 0.000000 0.028042 0.000000
# 6 0.000000 0.000000 0.000000 0.000000 0.000000 0.042561
#
#
# Mechanical properties :
#
#
# Convention : Reuss Voigt Hill
#
# Bulk Modulus (GPa) = 57.63794 70.75982 64.19888
# Shear Modulus (GPa) = 58.33890 18.77791 38.55840
#
# Velocity S-wave (km/s) = 5.59404 3.17373 4.54785
# Velocity P-wave (km/s) = 8.52301 7.16840 7.87488
#
# Compressibility (1/GPa) = 0.01734968
#
# Stress axis : x y z
#
# Youngs Moduli (GPa) = 55.42833 33.97507 71.27147
#
# Poissons Ratio (x) = 0.22284 0.21834
# Poissons Ratio (y) = 0.36355 0.88773
# Poissons Ratio (z) = 0.16980 0.42318
#
# Static dielectric constant tensor:
#      x y z
#    x 1.667320 0.000000 0.000000 
#    y 0.000000 1.627630 0.000000 
#    z 0.000000 0.000000 1.624010 
# 
# From -- ./inp_files/1766.got.cif
#   From: 2010.05.17/outbox.cif.g08.bks.cpg/sg47_1_cif.got.tgz:1766.got - 2010.06.03 20:15:42.
