data_PCOD9386737
_publ_section_title
;
Structure prediction by ZEFSAII (Michael W. Deem and Ramdas Pophale) SiO2 
 PCOD9386737
Probable space group: P M M M
;
_chemical_formula_sum "Si O2"
_cell_formula_units_Z 44
_cell_length_a 9.414210
_cell_length_b 7.961856
_cell_length_c 30.699860
_cell_angle_alpha 90.000000
_cell_angle_beta 90.000000
_cell_angle_gamma 90.000000
_cell_volume 2301.095247
_symmetry_space_group_name_H-M "P M M M"
_symmetry_group_IT_number 47
_symmetry_cell_setting 'orthorhombic'
loop_
_space_group_symop_operation_xyz
x,y,z
-x,-y,z
x,-y,-z
-x,y,-z
-x,-y,-z
x,y,-z
-x,y,z
x,-y,z
loop_
_atom_site_type_symbol
_atom_site_label
_atom_site_fract_x
_atom_site_fract_y
_atom_site_fract_z
Si Si1 0.166685 0.500000 0.052200
Si Si2 0.336628 0.297292 0.451392
Si Si3 0.336555 0.202769 0.715707
Si Si4 0.328759 0.810502 0.904458
Si Si5 0.671363 0.694175 0.810615
Si Si6 0.839932 0.201724 0.632796
O O1 0.245906 0.335088 0.070513
O O2 0.000000 0.500000 0.064767
O O3 0.175170 0.500000 0.000000
O O4 0.291729 0.241724 0.500000
O O5 0.500000 0.242129 0.444677
O O6 0.336559 0.500000 0.451511
O O7 0.239719 0.239169 0.412062
O O8 0.500000 0.262308 0.711888
O O9 0.276474 0.253273 0.762940
O O10 0.246788 0.265178 0.674695
O O11 0.339874 0.000000 0.714652
O O12 0.500000 0.781606 0.907206
O O13 0.287070 0.796851 0.853330
O O14 0.300342 0.000000 0.920132
O O15 0.500000 0.710599 0.807895
O O16 0.705760 0.500000 0.818788
O O17 0.000000 0.267892 0.632104
O O18 0.846067 0.000000 0.637121
#
# Coordination Sequence:
#
# PCOD9386737 Si02
#       6
#     4   8   8   8   8   8
#     4  11  25  43  61  85 123 167 207 249 298 359
#     4   9  19  36  56  76  97 124 164 215 268 323
#     4   9  17  30  49  73 102 139 181 221 265 320
#     4  10  20  37  64  94 122 155 199 253 308 358
#     4   9  16  29  53  84 114 143 181 233 287 337
#     4  10  21  35  50  72 105 141 175 214 262 318
#
# _framework density 19.121328999999999
#
# number of rings (size 3 to 8) (size 9 to 14) (size 15 to 20)
#    0.000    2.455    0.909    1.909    0.000    6.545 
#    0.000    7.273    0.000    2.182    0.000    0.000 
#    0.000    0.000    0.000    0.000    0.000    0.000 
#
# Total GULP energy -245434.094233 kJ/mol
# GULP energy per Si atom -5578.047596 kJ/mol
# Density = 1.907781 g / cm^3
# Si number density = 19.121329 Si / 1000 Ang^3
#
#
#
# Elastic Constant Matrix: (Units=GPa)
#
#
# Indices 1 2 3 4 5 6 
#
# 1 80.1076 41.4721 68.4896 0.0000 0.0000 0.0000
# 2 41.4721 60.3437 52.1680 0.0000 0.0000 0.0000
# 3 68.4896 52.1680 119.6837 0.0000 0.0000 0.0000
# 4 0.0000 0.0000 0.0000 37.3857 0.0000 0.0000
# 5 0.0000 0.0000 0.0000 0.0000 -29.4936 0.0000
# 6 0.0000 0.0000 0.0000 0.0000 0.0000 13.5332
#
#
#
# Elastic Compliance Matrix: (Units=1/GPa)
#
#
# Indices 1 2 3 4 5 6 
#
# 1 0.026792 -0.008278 -0.011724 0.000000 0.000000 0.000000
# 2 -0.008278 0.029150 -0.007969 0.000000 0.000000 0.000000
# 3 -0.011724 -0.007969 0.018538 0.000000 0.000000 0.000000
# 4 0.000000 0.000000 0.000000 0.026748 0.000000 0.000000
# 5 0.000000 0.000000 0.000000 0.000000 -0.033906 0.000000
# 6 0.000000 0.000000 0.000000 0.000000 0.000000 0.073892
#
#
# Mechanical properties :
#
#
# Convention : Reuss Voigt Hill
#
# Bulk Modulus (GPa) = 53.94062 64.93273 59.43667
# Shear Modulus (GPa) = 24.58980 10.81874 17.70427
#
# Velocity S-wave (km/s) = 3.58996 2.38122 3.04615
# Velocity P-wave (km/s) = 6.74201 6.44921 6.59723
#
# Compressibility (1/GPa) = 0.01853890
#
# Stress axis : x y z
#
# Youngs Moduli (GPa) = 37.32424 34.30510 53.94366
#
# Poissons Ratio (x) = 0.28398 0.63242
# Poissons Ratio (y) = 0.30897 0.42987
# Poissons Ratio (z) = 0.43758 0.27338
#
# Static dielectric constant tensor:
#      x y z
#    x 1.649900 0.000000 0.000000 
#    y 0.000000 1.679980 0.000000 
#    z 0.000000 0.000000 1.669350 
# 
# From -- ./inp_files/33912.got.cif
#   From: 2010.05.17/outbox.cif.g08.bks.cpg/sg47_17_cif.got.tgz:33912.got - 2010.06.03 20:15:42.
