data_PCOD9386403
_publ_section_title
;
Structure prediction by ZEFSAII (Michael W. Deem and Ramdas Pophale) SiO2 
 PCOD9386403
Probable space group: P M M M
;
_chemical_formula_sum "Si O2"
_cell_formula_units_Z 44
_cell_length_a 29.497211
_cell_length_b 7.548890
_cell_length_c 9.459291
_cell_angle_alpha 90.000000
_cell_angle_beta 90.000000
_cell_angle_gamma 90.000000
_cell_volume 2106.311689
_symmetry_space_group_name_H-M "P M M M"
_symmetry_group_IT_number 47
_symmetry_cell_setting 'orthorhombic'
loop_
_space_group_symop_operation_xyz
x,y,z
-x,-y,z
x,-y,-z
-x,y,-z
-x,-y,-z
x,y,-z
-x,y,z
x,-y,z
loop_
_atom_site_type_symbol
_atom_site_label
_atom_site_fract_x
_atom_site_fract_y
_atom_site_fract_z
Si Si1 0.176612 0.282761 0.162868
Si Si2 0.450026 0.783819 0.836076
Si Si3 0.736712 0.711780 0.661761
Si Si4 0.000000 0.789237 0.839092
Si Si5 0.089762 0.288906 0.660526
Si Si6 0.635933 0.787263 0.339162
O O1 0.176357 0.500000 0.162179
O O2 0.222802 0.223863 0.239276
O O3 0.133395 0.221997 0.253743
O O4 0.173876 0.226515 0.000000
O O5 0.500000 0.729094 0.783247
O O6 0.406748 0.720401 0.749253
O O7 0.449560 0.000000 0.832751
O O8 0.446289 0.732227 0.000000
O O9 0.739829 0.781062 0.500000
O O10 0.741645 0.500000 0.653344
O O11 0.686144 0.747775 0.717506
O O12 0.044526 0.738685 0.751178
O O13 0.000000 0.000000 0.849407
O O14 0.000000 0.717111 0.000000
O O15 0.086171 0.218859 0.500000
O O16 0.095918 0.500000 0.648789
O O17 0.634358 0.719468 0.500000
O O18 0.632100 0.000000 0.344191
#
# Coordination Sequence:
#
# PCOD9386403 Si02
#       6
#     8   8   8   4   8   8
#     4   9  17  30  50  75  99 124 159 202 241 277
#     4   8  14  25  41  61  85 113 145 182 225 271
#     4   9  17  30  47  66  91 123 155 187 228 279
#     4  11  24  39  54  76 108 141 170 203 246 294
#     4  10  20  35  57  82 104 130 168 209 247 290
#     4   9  17  28  43  65  90 114 145 187 230 271
#
# _framework density 20.889595
#
# number of rings (size 3 to 8) (size 9 to 14) (size 15 to 20)
#    0.000    2.818    0.000    2.182    0.000    6.182 
#    0.000    2.727    0.000    3.818    0.000    3.818 
#    0.000    0.000    0.000    0.000    0.000    0.000 
#
# Total GULP energy -245564.668746 kJ/mol
# GULP energy per Si atom -5581.015199 kJ/mol
# Density = 2.084205 g / cm^3
# Si number density = 20.889595 Si / 1000 Ang^3
#
#
#
# Elastic Constant Matrix: (Units=GPa)
#
#
# Indices 1 2 3 4 5 6 
#
# 1 249.9377 -1.1529 134.4156 0.0000 0.0000 0.0000
# 2 -1.1529 49.7826 6.1572 0.0000 0.0000 0.0000
# 3 134.4156 6.1572 156.7364 0.0000 0.0000 0.0000
# 4 0.0000 0.0000 0.0000 3.2015 0.0000 0.0000
# 5 0.0000 0.0000 0.0000 0.0000 50.1194 0.0000
# 6 0.0000 0.0000 0.0000 0.0000 0.0000 19.0149
#
#
#
# Elastic Compliance Matrix: (Units=1/GPa)
#
#
# Indices 1 2 3 4 5 6 
#
# 1 0.007472 0.000970 -0.006446 0.000000 0.000000 0.000000
# 2 0.000970 0.020311 -0.001630 0.000000 0.000000 0.000000
# 3 -0.006446 -0.001630 0.011972 0.000000 0.000000 0.000000
# 4 0.000000 0.000000 0.000000 0.312349 0.000000 0.000000
# 5 0.000000 0.000000 0.000000 0.000000 0.019952 0.000000
# 6 0.000000 0.000000 0.000000 0.000000 0.000000 0.052590
#
#
# Mechanical properties :
#
#
# Convention : Reuss Voigt Hill
#
# Bulk Modulus (GPa) = 39.14791 81.69959 60.42375
# Shear Modulus (GPa) = 11.17632 35.60295 23.38963
#
# Velocity S-wave (km/s) = 2.31556 4.13284 3.34979
# Velocity P-wave (km/s) = 5.09216 7.87204 6.62944
#
# Compressibility (1/GPa) = 0.02554415
#
# Stress axis : x y z
#
# Youngs Moduli (GPa) = 133.82890 49.23339 83.52550
#
# Poissons Ratio (x) = -0.04777 0.53842
# Poissons Ratio (y) = -0.12986 0.13615
# Poissons Ratio (z) = 0.86269 0.08025
#
# Static dielectric constant tensor:
#      x y z
#    x 1.729140 0.000000 0.000000 
#    y 0.000000 1.804970 0.000000 
#    z 0.000000 0.000000 1.729030 
# 
# From -- ./inp_files/2056.got.cif
#   From: 2010.05.17/outbox.cif.g08.bks.cpg/sg47_2_cif.got.tgz:2056.got - 2010.06.03 20:15:42.
