data_PCOD9386422
_publ_section_title
;
Structure prediction by ZEFSAII (Michael W. Deem and Ramdas Pophale) SiO2 
 PCOD9386422
Probable space group: P M M M
;
_chemical_formula_sum "Si O2"
_cell_formula_units_Z 48
_cell_length_a 9.126012
_cell_length_b 9.089725
_cell_length_c 31.998670
_cell_angle_alpha 90.000000
_cell_angle_beta 90.000000
_cell_angle_gamma 90.000000
_cell_volume 2654.383734
_symmetry_space_group_name_H-M "P M M M"
_symmetry_group_IT_number 47
_symmetry_cell_setting 'orthorhombic'
loop_
_space_group_symop_operation_xyz
x,y,z
-x,-y,z
x,-y,-z
-x,y,-z
-x,-y,-z
x,y,-z
-x,y,z
x,-y,z
loop_
_atom_site_type_symbol
_atom_site_label
_atom_site_fract_x
_atom_site_fract_y
_atom_site_fract_z
Si Si1 0.325840 0.325197 0.665257
Si Si2 0.176067 0.825886 0.585953
Si Si3 0.173166 0.823190 0.255571
Si Si4 0.821763 0.330654 0.500000
Si Si5 0.826333 0.176215 0.914653
Si Si6 0.178485 0.669834 0.000000
Si Si7 0.668423 0.820846 0.170113
O O1 0.500000 0.299430 0.666104
O O2 0.299672 0.500000 0.663848
O O3 0.255510 0.249779 0.624698
O O4 0.252827 0.256517 0.706391
O O5 0.222890 0.752428 0.542214
O O6 0.000000 0.805812 0.590310
O O7 0.204734 0.000000 0.585250
O O8 0.241696 0.776834 0.211176
O O9 0.000000 0.793814 0.256337
O O10 0.193347 0.000000 0.259799
O O11 0.772943 0.500000 0.500000
O O12 0.000000 0.330451 0.500000
O O13 0.774068 0.251057 0.957405
O O14 0.742018 0.226982 0.873250
O O15 0.000000 0.205668 0.909397
O O16 0.809488 0.000000 0.918672
O O17 0.221651 0.500000 0.000000
O O18 0.000000 0.677262 0.000000
O O19 0.500000 0.773591 0.173045
O O20 0.670659 0.000000 0.169475
#
# Coordination Sequence:
#
# PCOD9386422 Si02
#       7
#     8   8   8   4   8   4   8
#     4  11  24  39  54  76 108 144 180 219 265 316
#     4  10  20  35  57  84 111 141 181 226 268 313
#     4  10  20  35  57  83 107 134 172 216 261 312
#     4   9  17  31  54  83 114 147 180 218 266 315
#     4   9  16  28  48  72  96 125 165 210 251 295
#     4   9  17  29  46  69  96 126 162 205 252 300
#     4   9  17  30  50  76 104 133 166 207 255 305
#
# _framework density 18.083293000000001
#
# number of rings (size 3 to 8) (size 9 to 14) (size 15 to 20)
#    0.000    2.333    0.000    3.000    0.000    9.333 
#    0.000    1.667    0.000    8.500    0.000    0.000 
#    0.000    0.000    0.000    0.000    0.000    0.000 
#
# Total GULP energy -267930.211185 kJ/mol
# GULP energy per Si atom -5581.879400 kJ/mol
# Density = 1.804214 g / cm^3
# Si number density = 18.083293 Si / 1000 Ang^3
#
#
#
# Elastic Constant Matrix: (Units=GPa)
#
#
# Indices 1 2 3 4 5 6 
#
# 1 80.4688 69.1146 92.5480 0.0000 0.0000 0.0000
# 2 69.1146 75.1169 91.0437 0.0000 0.0000 0.0000
# 3 92.5480 91.0437 232.4714 0.0000 0.0000 0.0000
# 4 0.0000 0.0000 0.0000 -19.0273 0.0000 0.0000
# 5 0.0000 0.0000 0.0000 0.0000 -17.8335 0.0000
# 6 0.0000 0.0000 0.0000 0.0000 0.0000 19.3215
#
#
#
# Elastic Compliance Matrix: (Units=1/GPa)
#
#
# Indices 1 2 3 4 5 6 
#
# 1 0.061555 -0.051273 -0.004425 0.000000 0.000000 0.000000
# 2 -0.051273 0.068050 -0.006239 0.000000 0.000000 0.000000
# 3 -0.004425 -0.006239 0.008507 0.000000 0.000000 0.000000
# 4 0.000000 0.000000 0.000000 -0.052556 0.000000 0.000000
# 5 0.000000 0.000000 0.000000 0.000000 -0.056074 0.000000
# 6 0.000000 0.000000 0.000000 0.000000 0.000000 0.051756
#
#
# Mechanical properties :
#
#
# Convention : Reuss Voigt Hill
#
# Bulk Modulus (GPa) = 70.23482 99.27445 84.75463
# Shear Modulus (GPa) = 23.82596 5.51553 14.67075
#
# Velocity S-wave (km/s) = 3.63377 1.74834 2.85140
# Velocity P-wave (km/s) = 7.51862 7.68721 7.60338
#
# Compressibility (1/GPa) = 0.01423795
#
# Stress axis : x y z
#
# Youngs Moduli (GPa) = 16.24575 14.69513 117.55708
#
# Poissons Ratio (x) = 0.75346 0.52019
# Poissons Ratio (y) = 0.83296 0.73340
# Poissons Ratio (z) = 0.07189 0.09168
#
# Static dielectric constant tensor:
#      x y z
#    x 1.603030 0.000000 0.000000 
#    y 0.000000 1.602830 0.000000 
#    z 0.000000 0.000000 1.592880 
# 
# From -- ./inp_files/2533.got.cif
#   From: 2010.05.17/outbox.cif.g08.bks.cpg/sg47_2_cif.got.tgz:2533.got - 2010.06.03 20:15:42.
