data_PCOD9386774
_publ_section_title
;
Structure prediction by ZEFSAII (Michael W. Deem and Ramdas Pophale) SiO2 
 PCOD9386774
Probable space group: P M M M
;
_chemical_formula_sum "Si O2"
_cell_formula_units_Z 46
_cell_length_a 7.541587
_cell_length_b 32.291615
_cell_length_c 9.502446
_cell_angle_alpha 90.000000
_cell_angle_beta 90.000000
_cell_angle_gamma 90.000000
_cell_volume 2314.130901
_symmetry_space_group_name_H-M "P M M M"
_symmetry_group_IT_number 47
_symmetry_cell_setting 'orthorhombic'
loop_
_space_group_symop_operation_xyz
x,y,z
-x,-y,z
x,-y,-z
-x,y,-z
-x,-y,-z
x,y,-z
-x,y,z
x,-y,z
loop_
_atom_site_type_symbol
_atom_site_label
_atom_site_fract_x
_atom_site_fract_y
_atom_site_fract_z
Si Si1 0.789548 0.626165 0.841467
Si Si2 0.000000 0.000000 0.000000
Si Si3 0.287219 0.215588 0.838909
Si Si4 0.000000 0.000000 0.500000
Si Si5 0.000000 0.933030 0.748315
Si Si6 0.211909 0.297390 0.340561
Si Si7 0.286276 0.453238 0.659775
Si Si8 0.286879 0.866559 0.331891
O O1 0.716685 0.662254 0.740651
O O2 0.766818 0.581811 0.768658
O O3 0.000000 0.633543 0.852193
O O4 0.716601 0.627432 0.000000
O O5 0.000000 0.036919 0.880303
O O6 0.500000 0.213671 0.846992
O O7 0.242432 0.257037 0.754089
O O8 0.233038 0.175530 0.748431
O O9 0.219283 0.215704 0.000000
O O10 0.000000 0.036137 0.381107
O O11 0.172424 0.903544 0.734129
O O12 0.281719 0.293063 0.500000
O O13 0.000000 0.302368 0.352356
O O14 0.226182 0.443365 0.500000
O O15 0.500000 0.454000 0.657119
O O16 0.226249 0.500000 0.694292
O O17 0.251720 0.863594 0.500000
O O18 0.500000 0.872670 0.315191
#
# Coordination Sequence:
#
# PCOD9386774 Si02
#       8
#     8   1   8   1   4   8   8   8
#     4  10  21  36  54  78 110 145 182 229 282 342
#     4  10  28  42  66  94 132 164 216 246 318 362
#     4  10  22  38  57  85 120 152 190 238 286 346
#     4  10  20  42  66  90 128 156 204 266 294 346
#     4  11  22  44  64  94 128 166 204 264 297 364
#     4  10  21  37  57  81 110 146 192 233 279 339
#     4   9  19  36  56  78 104 137 182 231 279 337
#     4  10  21  39  65  93 122 162 207 252 306 359
#
# _framework density 19.877873999999998
#
# number of rings (size 3 to 8) (size 9 to 14) (size 15 to 20)
#    0.000    2.087    0.870    2.087    2.435    4.870 
#    0.000    5.217    0.000    0.000    0.000    0.000 
#    0.000    0.000    0.000    0.000    0.000    0.000 
#
# Total GULP energy -256270.600161 kJ/mol
# GULP energy per Si atom -5571.100003 kJ/mol
# Density = 1.983263 g / cm^3
# Si number density = 19.877874 Si / 1000 Ang^3
#
#
#
# Elastic Constant Matrix: (Units=GPa)
#
#
# Indices 1 2 3 4 5 6 
#
# 1 54.8810 20.8085 27.1075 0.0000 0.0000 0.0000
# 2 20.8085 177.2801 121.0877 0.0000 0.0000 0.0000
# 3 27.1075 121.0877 216.4593 0.0000 0.0000 0.0000
# 4 0.0000 0.0000 0.0000 37.5505 0.0000 0.0000
# 5 0.0000 0.0000 0.0000 0.0000 16.4683 0.0000
# 6 0.0000 0.0000 0.0000 0.0000 0.0000 -45.1034
#
#
#
# Elastic Compliance Matrix: (Units=1/GPa)
#
#
# Indices 1 2 3 4 5 6 
#
# 1 0.019533 -0.001006 -0.001883 0.000000 0.000000 0.000000
# 2 -0.001006 0.009181 -0.005010 0.000000 0.000000 0.000000
# 3 -0.001883 -0.005010 0.007658 0.000000 0.000000 0.000000
# 4 0.000000 0.000000 0.000000 0.026631 0.000000 0.000000
# 5 0.000000 0.000000 0.000000 0.000000 0.060723 0.000000
# 6 0.000000 0.000000 0.000000 0.000000 0.000000 -0.022171
#
#
# Mechanical properties :
#
#
# Convention : Reuss Voigt Hill
#
# Bulk Modulus (GPa) = 48.60694 87.40310 68.00502
# Shear Modulus (GPa) = 40.25435 20.42418 30.33926
#
# Velocity S-wave (km/s) = 4.50497 3.20892 3.91101
# Velocity P-wave (km/s) = 7.18092 7.60230 7.39461
#
# Compressibility (1/GPa) = 0.02057319
#
# Stress axis : x y z
#
# Youngs Moduli (GPa) = 51.19547 108.92464 130.58191
#
# Poissons Ratio (x) = 0.10963 0.24590
# Poissons Ratio (y) = 0.05153 0.65417
# Poissons Ratio (z) = 0.09641 0.54567
#
# Static dielectric constant tensor:
#      x y z
#    x 1.733050 0.000000 0.000000 
#    y 0.000000 1.660580 0.000000 
#    z 0.000000 0.000000 1.694440 
# 
# From -- ./inp_files/2852.got.cif
#   From: 2010.05.17/outbox.cif.g08.bks.cpg/sg47_2_cif.got.tgz:2852.got - 2010.06.03 20:15:42.
