data_PCOD9386655
_publ_section_title
;
Structure prediction by ZEFSAII (Michael W. Deem and Ramdas Pophale) SiO2 
 PCOD9386655
Probable space group: P M M M
;
_chemical_formula_sum "Si O2"
_cell_formula_units_Z 30
_cell_length_a 7.333012
_cell_length_b 17.781730
_cell_length_c 10.367475
_cell_angle_alpha 90.000000
_cell_angle_beta 90.000000
_cell_angle_gamma 90.000000
_cell_volume 1351.852797
_symmetry_space_group_name_H-M "P M M M"
_symmetry_group_IT_number 47
_symmetry_cell_setting 'orthorhombic'
loop_
_space_group_symop_operation_xyz
x,y,z
-x,-y,z
x,-y,-z
-x,y,-z
-x,-y,-z
x,y,-z
-x,y,z
x,-y,z
loop_
_atom_site_type_symbol
_atom_site_label
_atom_site_fract_x
_atom_site_fract_y
_atom_site_fract_z
Si Si1 0.709511 0.734990 0.717752
Si Si2 0.220246 0.121488 0.858348
Si Si3 0.222797 0.000000 0.649612
Si Si4 0.000000 0.771431 0.500000
Si Si5 0.278424 0.416158 0.851488
O O1 0.500000 0.728594 0.674304
O O2 0.717683 0.793484 0.835639
O O3 0.841648 0.768253 0.611346
O O4 0.776873 0.652951 0.762672
O O5 0.000000 0.119090 0.857601
O O6 0.279788 0.071029 0.736795
O O7 0.278613 0.094236 0.000000
O O8 0.282536 0.000000 0.500000
O O9 0.000000 0.000000 0.644437
O O10 0.500000 0.415285 0.852289
O O11 0.221975 0.500000 0.809640
O O12 0.220655 0.405533 0.000000
#
# Coordination Sequence:
#
# PCOD9386655 Si02
#       5
#     8   8   4   2   8
#     4  11  23  40  65  91 122 165 213 260 316 377
#     4  10  20  36  61  93 130 168 212 265 317 370
#     4   9  19  33  58  89 128 178 217 251 307 380
#     4  12  26  44  59  87 128 168 208 268 314 379
#     4   8  15  32  60  92 124 159 203 257 316 375
#
# _framework density 22.191763999999999
#
# number of rings (size 3 to 8) (size 9 to 14) (size 15 to 20)
#    0.000    2.267    1.333    2.400    1.867    3.200 
#    0.000    2.667    0.000    7.200    0.000    0.000 
#    0.000    0.000    0.000    0.000    0.000    0.000 
#
# Total GULP energy -167068.441818 kJ/mol
# GULP energy per Si atom -5568.948061 kJ/mol
# Density = 2.214125 g / cm^3
# Si number density = 22.191764 Si / 1000 Ang^3
#
#
#
# Elastic Constant Matrix: (Units=GPa)
#
#
# Indices 1 2 3 4 5 6 
#
# 1 113.3420 2.6100 23.2186 0.0000 0.0000 0.0000
# 2 2.6100 104.4307 44.8618 0.0000 0.0000 0.0000
# 3 23.2186 44.8618 145.0264 0.0000 0.0000 0.0000
# 4 0.0000 0.0000 0.0000 -87.5593 0.0000 0.0000
# 5 0.0000 0.0000 0.0000 0.0000 68.9791 0.0000
# 6 0.0000 0.0000 0.0000 0.0000 0.0000 5.8470
#
#
#
# Elastic Compliance Matrix: (Units=1/GPa)
#
#
# Indices 1 2 3 4 5 6 
#
# 1 0.009141 0.000462 -0.001606 0.000000 0.000000 0.000000
# 2 0.000462 0.011067 -0.003497 0.000000 0.000000 0.000000
# 3 -0.001606 -0.003497 0.008234 0.000000 0.000000 0.000000
# 4 0.000000 0.000000 0.000000 -0.011421 0.000000 0.000000
# 5 0.000000 0.000000 0.000000 0.000000 0.014497 0.000000
# 6 0.000000 0.000000 0.000000 0.000000 0.000000 0.171029
#
#
# Mechanical properties :
#
#
# Convention : Reuss Voigt Hill
#
# Bulk Modulus (GPa) = 52.19670 56.01998 54.10834
# Shear Modulus (GPa) = 22.91300 16.92727 19.92013
#
# Velocity S-wave (km/s) = 3.21674 2.76483 2.99931
# Velocity P-wave (km/s) = 6.11297 5.95741 6.03569
#
# Compressibility (1/GPa) = 0.01915830
#
# Stress axis : x y z
#
# Youngs Moduli (GPa) = 109.39388 90.36262 121.44386
#
# Poissons Ratio (x) = -0.04171 0.19507
# Poissons Ratio (y) = -0.05049 0.42471
# Poissons Ratio (z) = 0.17572 0.31601
#
# Static dielectric constant tensor:
#      x y z
#    x 1.846780 0.000000 0.000000 
#    y 0.000000 1.826740 0.000000 
#    z 0.000000 0.000000 1.770450 
# 
# From -- ./inp_files/1024.got.cif
#   From: 2010.05.17/outbox.cif.g08.bks.cpg/sg47_1_cif.got.tgz:1024.got - 2010.06.03 20:15:42.
