data_PCOD9386330
_publ_section_title
;
Structure prediction by ZEFSAII (Michael W. Deem and Ramdas Pophale) SiO2 
 PCOD9386330
Probable space group: P M M M
;
_chemical_formula_sum "Si O2"
_cell_formula_units_Z 64
_cell_length_a 7.468354
_cell_length_b 25.755998
_cell_length_c 15.290749
_cell_angle_alpha 90.000000
_cell_angle_beta 90.000000
_cell_angle_gamma 90.000000
_cell_volume 2941.250658
_symmetry_space_group_name_H-M "P M M M"
_symmetry_group_IT_number 47
_symmetry_cell_setting 'orthorhombic'
loop_
_space_group_symop_operation_xyz
x,y,z
-x,-y,z
x,-y,-z
-x,y,-z
-x,-y,-z
x,y,-z
-x,y,z
x,-y,z
loop_
_atom_site_type_symbol
_atom_site_label
_atom_site_fract_x
_atom_site_fract_y
_atom_site_fract_z
Si Si1 0.286025 0.937234 0.593566
Si Si2 0.284136 0.442040 0.219727
Si Si3 0.715909 0.059255 0.782748
Si Si4 0.787503 0.655662 0.900669
Si Si5 0.211950 0.846551 0.097492
Si Si6 0.219995 0.752688 0.215977
Si Si7 0.213089 0.273962 0.595060
Si Si8 0.715411 0.397073 0.596203
O O1 0.213583 0.918056 0.500000
O O2 0.500000 0.927990 0.592141
O O3 0.217814 0.919621 0.688157
O O4 0.262972 0.000000 0.594659
O O5 0.500000 0.443071 0.224192
O O6 0.221750 0.500000 0.197938
O O7 0.238231 0.398831 0.148287
O O8 0.218497 0.425282 0.316457
O O9 0.500000 0.057450 0.777608
O O10 0.764420 0.097251 0.860352
O O11 0.778150 0.000000 0.794818
O O12 0.720534 0.701689 0.837676
O O13 0.000000 0.664264 0.907449
O O14 0.715736 0.656601 0.000000
O O15 0.281718 0.803042 0.163460
O O16 0.000000 0.836776 0.091181
O O17 0.287131 0.842872 0.000000
O O18 0.282955 0.751223 0.316117
O O19 0.000000 0.751933 0.218639
O O20 0.286318 0.257818 0.500000
O O21 0.241515 0.335973 0.603349
O O22 0.000000 0.265013 0.592867
O O23 0.779882 0.414952 0.500000
O O24 0.500000 0.402310 0.595543
#
# Coordination Sequence:
#
# PCOD9386330 Si02
#       8
#     8   8   8   8   8   8   8   8
#     4   7  10  20  42  70  96 124 160 197 233 281
#     4  10  21  35  50  72 104 138 169 205 253 306
#     4   9  18  33  53  77 105 136 169 208 254 299
#     4  10  20  35  56  77  95 124 170 218 260 302
#     4  10  21  36  53  73  99 134 174 213 254 301
#     4   9  17  33  55  76  99 128 163 205 251 300
#     4   9  16  28  51  79 102 127 161 201 249 304
#     4   9  17  30  49  73 101 133 168 204 243 293
#
# _framework density 21.759450000000001
#
# number of rings (size 3 to 8) (size 9 to 14) (size 15 to 20)
#    0.000    2.875    1.250    1.500    0.000    3.250 
#    0.000    5.625    0.000    2.625    0.000    4.375 
#    0.000    0.000    0.000    0.000    0.000    0.000 
#
# Total GULP energy -357038.990082 kJ/mol
# GULP energy per Si atom -5578.734220 kJ/mol
# Density = 2.170992 g / cm^3
# Si number density = 21.759450 Si / 1000 Ang^3
#
#
#
# Elastic Constant Matrix: (Units=GPa)
#
#
# Indices 1 2 3 4 5 6 
#
# 1 64.0591 -4.7688 9.3606 0.0000 0.0000 0.0000
# 2 -4.7688 89.0800 87.8921 0.0000 0.0000 0.0000
# 3 9.3606 87.8921 186.3800 0.0000 0.0000 0.0000
# 4 0.0000 0.0000 0.0000 3.3778 0.0000 0.0000
# 5 0.0000 0.0000 0.0000 0.0000 5.3468 0.0000
# 6 0.0000 0.0000 0.0000 0.0000 0.0000 15.3935
#
#
#
# Elastic Compliance Matrix: (Units=1/GPa)
#
#
# Indices 1 2 3 4 5 6 
#
# 1 0.016176 0.003119 -0.002283 0.000000 0.000000 0.000000
# 2 0.003119 0.021595 -0.010340 0.000000 0.000000 0.000000
# 3 -0.002283 -0.010340 0.010356 0.000000 0.000000 0.000000
# 4 0.000000 0.000000 0.000000 0.296049 0.000000 0.000000
# 5 0.000000 0.000000 0.000000 0.000000 0.187029 0.000000
# 6 0.000000 0.000000 0.000000 0.000000 0.000000 0.064963
#
#
# Mechanical properties :
#
#
# Convention : Reuss Voigt Hill
#
# Bulk Modulus (GPa) = 34.34275 58.27633 46.30954
# Shear Modulus (GPa) = 8.00148 21.29262 14.64705
#
# Velocity S-wave (km/s) = 1.91969 3.13157 2.59730
# Velocity P-wave (km/s) = 4.55311 6.31790 5.50666
#
# Compressibility (1/GPa) = 0.02911823
#
# Stress axis : x y z
#
# Youngs Moduli (GPa) = 61.81861 46.30617 96.55912
#
# Poissons Ratio (x) = -0.14441 0.22045
# Poissons Ratio (y) = -0.19279 0.99847
# Poissons Ratio (z) = 0.14114 0.47883
#
# Static dielectric constant tensor:
#      x y z
#    x 7.876620 0.000000 0.000000 
#    y 0.000000 1.752590 0.000000 
#    z 0.000000 0.000000 1.822390 
# 
# From -- ./inp_files/21925.got.cif
#   From: 2010.05.17/outbox.cif.g08.bks.cpg/sg47_11_cif.got.tgz:21925.got - 2010.06.03 20:15:42.
