data_PCOD9386933
_publ_section_title
;
Structure prediction by ZEFSAII (Michael W. Deem and Ramdas Pophale) SiO2 
 PCOD9386933
Probable space group: P M M M
;
_chemical_formula_sum "Si O2"
_cell_formula_units_Z 64
_cell_length_a 15.202163
_cell_length_b 7.704537
_cell_length_c 28.854432
_cell_angle_alpha 90.000000
_cell_angle_beta 90.000000
_cell_angle_gamma 90.000000
_cell_volume 3379.593449
_symmetry_space_group_name_H-M "P M M M"
_symmetry_group_IT_number 47
_symmetry_cell_setting 'orthorhombic'
loop_
_space_group_symop_operation_xyz
x,y,z
-x,-y,z
x,-y,-z
-x,y,-z
-x,-y,-z
x,y,-z
-x,y,z
x,-y,z
loop_
_atom_site_type_symbol
_atom_site_label
_atom_site_fract_x
_atom_site_fract_y
_atom_site_fract_z
Si Si1 0.098432 0.790983 0.947119
Si Si2 0.099033 0.711834 0.323067
Si Si3 0.598531 0.795416 0.176754
Si Si4 0.278164 0.287000 0.363534
Si Si5 0.400757 0.294432 0.719772
Si Si6 0.899643 0.288143 0.216809
Si Si7 0.399982 0.711719 0.552946
Si Si8 0.225548 0.295485 0.864177
O O1 0.173008 0.740036 0.911108
O O2 0.000000 0.730591 0.932921
O O3 0.096024 0.000000 0.948020
O O4 0.114087 0.731678 0.000000
O O5 0.098079 0.500000 0.323264
O O6 0.177714 0.768802 0.356241
O O7 0.118955 0.763545 0.269812
O O8 0.000000 0.769167 0.334606
O O9 0.500000 0.725421 0.166878
O O10 0.628222 0.726326 0.227067
O O11 0.673891 0.762938 0.139372
O O12 0.591162 0.000000 0.182133
O O13 0.277843 0.500000 0.363843
O O14 0.334156 0.227832 0.318775
O O15 0.328871 0.229946 0.409620
O O16 0.500000 0.221690 0.715894
O O17 0.406855 0.500000 0.711243
O O18 0.897893 0.500000 0.216262
O O19 0.831486 0.221482 0.178768
O O20 0.000000 0.236675 0.205438
O O21 0.382889 0.766441 0.500000
O O22 0.500000 0.763552 0.565613
O O23 0.399373 0.500000 0.553176
O O24 0.227974 0.500000 0.857535
#
# Coordination Sequence:
#
# PCOD9386933 Si02
#       8
#     8   8   8   8   8   8   8   8
#     4   9  19  36  55  75 103 137 166 192 229 280
#     4   8  13  20  29  43  68 102 135 164 196 242
#     4  10  21  35  48  64  92 129 162 190 226 278
#     4   9  14  20  33  52  74 100 131 170 217 263
#     4   9  16  26  42  64  86 107 138 182 226 265
#     4   8  14  24  38  61  92 118 140 172 217 266
#     4   8  13  20  29  43  66  96 128 164 213 272
#     4  11  20  30  50  76  98 122 157 201 241 274
#
# _framework density 18.937190000000001
#
# number of rings (size 3 to 8) (size 9 to 14) (size 15 to 20)
#    0.000    3.000    0.000    3.750    0.000    5.250 
#    0.000    0.625    0.000    0.750    0.000    5.250 
#    0.000    0.500    0.000    4.625    0.000    4.500 
#
# Total GULP energy -356870.926592 kJ/mol
# GULP energy per Si atom -5576.108228 kJ/mol
# Density = 1.889409 g / cm^3
# Si number density = 18.937190 Si / 1000 Ang^3
#
#
#
# Elastic Constant Matrix: (Units=GPa)
#
#
# Indices 1 2 3 4 5 6 
#
# 1 140.6609 4.1001 91.9696 0.0000 0.0000 0.0000
# 2 4.1001 29.4914 -1.5330 0.0000 0.0000 0.0000
# 3 91.9696 -1.5330 86.5984 0.0000 0.0000 0.0000
# 4 0.0000 0.0000 0.0000 66.3051 0.0000 0.0000
# 5 0.0000 0.0000 0.0000 0.0000 82.3940 0.0000
# 6 0.0000 0.0000 0.0000 0.0000 0.0000 6.2234
#
#
#
# Elastic Compliance Matrix: (Units=1/GPa)
#
#
# Indices 1 2 3 4 5 6 
#
# 1 0.023881 -0.004643 -0.025445 0.000000 0.000000 0.000000
# 2 -0.004643 0.034842 0.005548 0.000000 0.000000 0.000000
# 3 -0.025445 0.005548 0.038669 0.000000 0.000000 0.000000
# 4 0.000000 0.000000 0.000000 0.015082 0.000000 0.000000
# 5 0.000000 0.000000 0.000000 0.000000 0.012137 0.000000
# 6 0.000000 0.000000 0.000000 0.000000 0.000000 0.160683
#
#
# Mechanical properties :
#
#
# Convention : Reuss Voigt Hill
#
# Bulk Modulus (GPa) = 20.69875 49.53601 35.11738
# Shear Modulus (GPa) = 14.26622 41.79878 28.03250
#
# Velocity S-wave (km/s) = 2.74769 4.70322 3.85163
# Velocity P-wave (km/s) = 4.58479 7.46381 6.19390
#
# Compressibility (1/GPa) = 0.04831209
#
# Stress axis : x y z
#
# Youngs Moduli (GPa) = 41.87347 28.70093 25.86064
#
# Poissons Ratio (x) = 0.13325 0.65802
# Poissons Ratio (y) = 0.19441 -0.14346
# Poissons Ratio (z) = 1.06546 -0.15922
#
# Static dielectric constant tensor:
#      x y z
#    x 1.470090 0.000000 0.000000 
#    y 0.000000 1.743680 0.000000 
#    z 0.000000 0.000000 1.637560 
# 
# From -- ./inp_files/34687.got.cif
#   From: 2010.05.17/outbox.cif.g08.bks.cpg/sg47_18_cif.got.tgz:34687.got - 2010.06.03 20:15:42.
