data_PCOD9386724
_publ_section_title
;
Structure prediction by ZEFSAII (Michael W. Deem and Ramdas Pophale) SiO2 
 PCOD9386724
Probable space group: P M M M
;
_chemical_formula_sum "Si O2"
_cell_formula_units_Z 33
_cell_length_a 7.646140
_cell_length_b 7.979204
_cell_length_c 26.491480
_cell_angle_alpha 90.000000
_cell_angle_beta 90.000000
_cell_angle_gamma 90.000000
_cell_volume 1616.248132
_symmetry_space_group_name_H-M "P M M M"
_symmetry_group_IT_number 47
_symmetry_cell_setting 'orthorhombic'
loop_
_space_group_symop_operation_xyz
x,y,z
-x,-y,z
x,-y,-z
-x,y,-z
-x,-y,-z
x,y,-z
-x,y,z
x,-y,z
loop_
_atom_site_type_symbol
_atom_site_label
_atom_site_fract_x
_atom_site_fract_y
_atom_site_fract_z
Si Si1 0.000000 0.000000 0.000000
Si Si2 0.206911 0.500000 0.443490
Si Si3 0.296016 0.198338 0.155697
Si Si4 0.290075 0.181979 0.625066
Si Si5 0.000000 0.689622 0.081221
Si Si6 0.712876 0.694123 0.732990
O O1 0.000000 0.848212 0.956517
O O2 0.283842 0.500000 0.500000
O O3 0.252835 0.664902 0.411793
O O4 0.000000 0.500000 0.448090
O O5 0.500000 0.251668 0.151454
O O6 0.169971 0.290437 0.116956
O O7 0.236459 0.229011 0.213377
O O8 0.288551 0.000000 0.145566
O O9 0.500000 0.174574 0.628626
O O10 0.224436 0.218332 0.681865
O O11 0.226266 0.000000 0.607435
O O12 0.000000 0.500000 0.059701
O O13 0.500000 0.701412 0.732042
O O14 0.764354 0.500000 0.731387
#
# Coordination Sequence:
#
# PCOD9386724 Si02
#       6
#     1   4   8   8   4   8
#     4  12  26  52  70  94 140 170 230 284 320 370
#     4  11  25  43  59  79 117 165 209 257 310 369
#     4  10  20  38  64  96 137 174 212 265 323 388
#     4  10  20  37  62  90 118 151 200 257 313 373
#     4  12  25  45  71  98 129 175 222 272 326 378
#     4   9  16  30  56  90 127 163 197 246 313 381
#
# _framework density 20.417656999999998
#
# number of rings (size 3 to 8) (size 9 to 14) (size 15 to 20)
#    0.000    1.818    2.424    2.000    0.000    6.303 
#    2.182    3.636    0.000    1.455    0.000    0.000 
#    0.000    0.000    0.000    0.000    0.000    0.000 
#
# Total GULP energy -184001.328134 kJ/mol
# GULP energy per Si atom -5575.797822 kJ/mol
# Density = 2.037119 g / cm^3
# Si number density = 20.417657 Si / 1000 Ang^3
#
#
#
# Elastic Constant Matrix: (Units=GPa)
#
#
# Indices 1 2 3 4 5 6 
#
# 1 64.2226 28.9660 36.4116 0.0000 0.0000 0.0000
# 2 28.9660 175.0992 81.6177 0.0000 0.0000 0.0000
# 3 36.4116 81.6177 155.0745 0.0000 0.0000 0.0000
# 4 0.0000 0.0000 0.0000 62.9450 0.0000 0.0000
# 5 0.0000 0.0000 0.0000 0.0000 -20.0959 0.0000
# 6 0.0000 0.0000 0.0000 0.0000 0.0000 -6.5567
#
#
#
# Elastic Compliance Matrix: (Units=1/GPa)
#
#
# Indices 1 2 3 4 5 6 
#
# 1 0.018200 -0.001350 -0.003563 0.000000 0.000000 0.000000
# 2 -0.001350 0.007668 -0.003719 0.000000 0.000000 0.000000
# 3 -0.003563 -0.003719 0.009242 0.000000 0.000000 0.000000
# 4 0.000000 0.000000 0.000000 0.015887 0.000000 0.000000
# 5 0.000000 0.000000 0.000000 0.000000 -0.049761 0.000000
# 6 0.000000 0.000000 0.000000 0.000000 0.000000 -0.152517
#
#
# Mechanical properties :
#
#
# Convention : Reuss Voigt Hill
#
# Bulk Modulus (GPa) = 56.03251 76.48743 66.25997
# Shear Modulus (GPa) = -39.04115 23.75190 -7.64463
#
# Velocity S-wave (km/s) = -4.37753 3.41442 -1.93707
# Velocity P-wave (km/s) = 1.39727 7.28609 5.24593
#
# Compressibility (1/GPa) = 0.01784678
#
# Stress axis : x y z
#
# Youngs Moduli (GPa) = 54.94602 130.41698 108.19914
#
# Poissons Ratio (x) = 0.17606 0.38549
# Poissons Ratio (y) = 0.07418 0.40235
# Poissons Ratio (z) = 0.19576 0.48497
#
# Static dielectric constant tensor:
#      x y z
#    x 1.755900 0.000000 0.000000 
#    y 0.000000 1.696120 0.000000 
#    z 0.000000 0.000000 1.714750 
# 
# From -- ./inp_files/29131.got.cif
#   From: 2010.05.17/outbox.cif.g08.bks.cpg/sg47_15_cif.got.tgz:29131.got - 2010.06.03 20:15:42.
