data_PCOD9386847
_publ_section_title
;
Structure prediction by ZEFSAII (Michael W. Deem and Ramdas Pophale) SiO2 
 PCOD9386847
Probable space group: P M M M
;
_chemical_formula_sum "Si O2"
_cell_formula_units_Z 64
_cell_length_a 14.739222
_cell_length_b 29.459355
_cell_length_c 9.070673
_cell_angle_alpha 90.000000
_cell_angle_beta 90.000000
_cell_angle_gamma 90.000000
_cell_volume 3938.558540
_symmetry_space_group_name_H-M "P M M M"
_symmetry_group_IT_number 47
_symmetry_cell_setting 'orthorhombic'
loop_
_space_group_symop_operation_xyz
x,y,z
-x,-y,z
x,-y,-z
-x,y,-z
-x,-y,-z
x,y,-z
-x,y,z
x,-y,z
loop_
_atom_site_type_symbol
_atom_site_label
_atom_site_fract_x
_atom_site_fract_y
_atom_site_fract_z
Si Si1 0.894630 0.642752 0.822678
Si Si2 0.890084 0.549862 0.327269
Si Si3 0.104136 0.912608 0.323289
Si Si4 0.607769 0.137052 0.173297
Si Si5 0.277972 0.950084 0.177590
Si Si6 0.224803 0.270747 0.176422
Si Si7 0.394239 0.767365 0.675875
Si Si8 0.107170 0.806242 0.325879
O O1 0.861549 0.594614 0.759464
O O2 0.831011 0.684454 0.777518
O O3 0.000000 0.650237 0.775747
O O4 0.894702 0.640629 0.000000
O O5 0.866965 0.553956 0.500000
O O6 0.858625 0.500000 0.274282
O O7 0.000000 0.549244 0.317821
O O8 0.112086 0.917976 0.500000
O O9 0.178041 0.942204 0.241064
O O10 0.121637 0.859294 0.290033
O O11 0.000000 0.922857 0.282874
O O12 0.500000 0.128926 0.183655
O O13 0.660829 0.092478 0.225206
O O14 0.628813 0.182124 0.265232
O O15 0.629113 0.145364 0.000000
O O16 0.312114 0.000000 0.222363
O O17 0.275638 0.948969 0.000000
O O18 0.323564 0.266480 0.248788
O O19 0.167261 0.227446 0.230964
O O20 0.232158 0.270279 0.000000
O O21 0.385035 0.766090 0.500000
O O22 0.500000 0.758820 0.713917
O O23 0.127247 0.800077 0.500000
O O24 0.000000 0.796949 0.304401
#
# Coordination Sequence:
#
# PCOD9386847 Si02
#       8
#     8   8   8   8   8   8   8   8
#     4   9  18  30  42  62  95 131 164 196 231 272
#     4   8  14  25  41  61  86 120 164 208 242 271
#     4   9  19  35  51  66  86 115 152 189 222 260
#     4   9  18  34  55  75  94 117 144 175 217 271
#     4  10  21  34  48  70  96 118 143 177 218 264
#     4  11  21  31  46  69  98 128 157 192 233 278
#     4  10  21  36  53  72  93 118 151 191 232 276
#     4   9  18  32  49  69  93 122 156 191 227 270
#
# _framework density 16.249599
#
# number of rings (size 3 to 8) (size 9 to 14) (size 15 to 20)
#    0.000    2.625    0.000    3.000    0.000    6.750 
#    0.000    6.250    0.000    0.000    0.000    2.625 
#    0.000    0.500    0.000    5.500    0.000    4.250 
#
# Total GULP energy -356886.670758 kJ/mol
# GULP energy per Si atom -5576.354231 kJ/mol
# Density = 1.621261 g / cm^3
# Si number density = 16.249599 Si / 1000 Ang^3
#
#
#
# Elastic Constant Matrix: (Units=GPa)
#
#
# Indices 1 2 3 4 5 6 
#
# 1 60.6198 58.6040 27.0112 0.0000 0.0000 0.0000
# 2 58.6040 84.2170 31.6264 0.0000 0.0000 0.0000
# 3 27.0112 31.6264 24.1240 0.0000 0.0000 0.0000
# 4 0.0000 0.0000 0.0000 54.8090 0.0000 0.0000
# 5 0.0000 0.0000 0.0000 0.0000 23.7132 0.0000
# 6 0.0000 0.0000 0.0000 0.0000 0.0000 15.0946
#
#
#
# Elastic Compliance Matrix: (Units=1/GPa)
#
#
# Indices 1 2 3 4 5 6 
#
# 1 0.056195 -0.030483 -0.022958 0.000000 0.000000 0.000000
# 2 -0.030483 0.039925 -0.018210 0.000000 0.000000 0.000000
# 3 -0.022958 -0.018210 0.091030 0.000000 0.000000 0.000000
# 4 0.000000 0.000000 0.000000 0.018245 0.000000 0.000000
# 5 0.000000 0.000000 0.000000 0.000000 0.042171 0.000000
# 6 0.000000 0.000000 0.000000 0.000000 0.000000 0.066249
#
#
# Mechanical properties :
#
#
# Convention : Reuss Voigt Hill
#
# Bulk Modulus (GPa) = 22.80519 44.82714 33.81617
# Shear Modulus (GPa) = 10.59922 22.17130 16.38526
#
# Velocity S-wave (km/s) = 2.55674 3.69781 3.17890
# Velocity P-wave (km/s) = 4.77291 6.77335 5.85914
#
# Compressibility (1/GPa) = 0.04384967
#
# Stress axis : x y z
#
# Youngs Moduli (GPa) = 17.79506 25.04709 10.98533
#
# Poissons Ratio (x) = 0.76352 0.25220
# Poissons Ratio (y) = 0.54245 0.20004
# Poissons Ratio (z) = 0.40853 0.45610
#
# Static dielectric constant tensor:
#      x y z
#    x 1.543990 0.000000 0.000000 
#    y 0.000000 1.548150 0.000000 
#    z 0.000000 0.000000 1.541540 
# 
# From -- ./inp_files/8301.got.cif
#   From: 2010.05.17/outbox.cif.g08.bks.cpg/sg47_5_cif.got.tgz:8301.got - 2010.06.03 20:15:42.
