data_PCOD9386287
_publ_section_title
;
Structure prediction by ZEFSAII (Michael W. Deem and Ramdas Pophale) SiO2 
 PCOD9386287
Probable space group: P M M M
;
_chemical_formula_sum "Si O2"
_cell_formula_units_Z 64
_cell_length_a 20.636072
_cell_length_b 21.185213
_cell_length_c 7.633723
_cell_angle_alpha 90.000000
_cell_angle_beta 90.000000
_cell_angle_gamma 90.000000
_cell_volume 3337.307821
_symmetry_space_group_name_H-M "P M M M"
_symmetry_group_IT_number 47
_symmetry_cell_setting 'orthorhombic'
loop_
_space_group_symop_operation_xyz
x,y,z
-x,-y,z
x,-y,-z
-x,y,-z
-x,-y,-z
x,y,-z
-x,y,z
x,-y,z
loop_
_atom_site_type_symbol
_atom_site_label
_atom_site_fract_x
_atom_site_fract_y
_atom_site_fract_z
Si Si1 0.290426 0.391531 0.712812
Si Si2 0.159139 0.188536 0.715161
Si Si3 0.430424 0.740911 0.791857
Si Si4 0.708793 0.754243 0.290930
Si Si5 0.429689 0.405337 0.297396
Si Si6 0.073941 0.071908 0.713646
Si Si7 0.072637 0.305424 0.706444
Si Si8 0.147219 0.568097 0.206453
O O1 0.293574 0.391513 0.500000
O O2 0.285624 0.318341 0.773944
O O3 0.358643 0.421270 0.776508
O O4 0.224133 0.424496 0.764657
O O5 0.159399 0.187683 0.500000
O O6 0.232486 0.202693 0.773369
O O7 0.125245 0.123968 0.772643
O O8 0.115758 0.247863 0.775561
O O9 0.500000 0.769927 0.742566
O O10 0.364234 0.775939 0.746925
O O11 0.428163 0.671328 0.706473
O O12 0.430400 0.730536 0.000000
O O13 0.715529 0.750090 0.500000
O O14 0.430718 0.425706 0.500000
O O15 0.500000 0.423623 0.219332
O O16 0.074436 0.072075 0.500000
O O17 0.000000 0.088233 0.765653
O O18 0.087462 0.000000 0.769261
O O19 0.066728 0.292559 0.500000
O O20 0.110167 0.371290 0.722134
O O21 0.000000 0.308518 0.780564
O O22 0.126420 0.500000 0.279461
O O23 0.135045 0.568071 0.000000
#
# Coordination Sequence:
#
# PCOD9386287 Si02
#       8
#     8   8   8   8   8   8   8   8
#     4   9  16  29  48  68  88 113 149 188 225 270
#     4   9  15  26  43  66  96 125 153 185 222 264
#     4   9  16  24  35  56  87 119 150 184 222 266
#     4   9  16  26  42  63  89 119 149 185 227 267
#     4   8  14  25  42  64  89 115 142 176 221 269
#     4   8  13  21  36  62  96 131 160 183 214 261
#     4  10  20  35  55  74  90 113 148 189 231 274
#     4  11  24  38  50  65  88 118 149 187 237 286
#
# _framework density 19.177133999999999
#
# number of rings (size 3 to 8) (size 9 to 14) (size 15 to 20)
#    0.000    2.875    1.250    2.250    0.000    5.750 
#    0.000    1.250    0.000    0.375    0.000    2.625 
#    0.000    2.500    0.000   13.125    0.000    7.375 
#
# Total GULP energy -356726.835060 kJ/mol
# GULP energy per Si atom -5573.856798 kJ/mol
# Density = 1.913349 g / cm^3
# Si number density = 19.177134 Si / 1000 Ang^3
#
#
#
# Elastic Constant Matrix: (Units=GPa)
#
#
# Indices 1 2 3 4 5 6 
#
# 1 173.9209 75.4811 -0.2872 0.0000 0.0000 0.0000
# 2 75.4811 95.3114 2.0254 0.0000 0.0000 0.0000
# 3 -0.2872 2.0254 35.9876 0.0000 0.0000 0.0000
# 4 0.0000 0.0000 0.0000 2.9045 0.0000 0.0000
# 5 0.0000 0.0000 0.0000 0.0000 397.8437 0.0000
# 6 0.0000 0.0000 0.0000 0.0000 0.0000 47.4321
#
#
#
# Elastic Compliance Matrix: (Units=1/GPa)
#
#
# Indices 1 2 3 4 5 6 
#
# 1 0.008768 -0.006954 0.000461 0.000000 0.000000 0.000000
# 2 -0.006954 0.016019 -0.000957 0.000000 0.000000 0.000000
# 3 0.000461 -0.000957 0.027845 0.000000 0.000000 0.000000
# 4 0.000000 0.000000 0.000000 0.344295 0.000000 0.000000
# 5 0.000000 0.000000 0.000000 0.000000 0.002514 0.000000
# 6 0.000000 0.000000 0.000000 0.000000 0.000000 0.021083
#
#
# Mechanical properties :
#
#
# Convention : Reuss Voigt Hill
#
# Bulk Modulus (GPa) = 26.50172 51.07319 38.78746
# Shear Modulus (GPa) = 11.16068 104.83608 57.99838
#
# Velocity S-wave (km/s) = 2.41504 7.40175 5.50538
# Velocity P-wave (km/s) = 4.65038 9.98689 7.78987
#
# Compressibility (1/GPa) = 0.03773339
#
# Stress axis : x y z
#
# Youngs Moduli (GPa) = 114.04479 62.42442 35.91325
#
# Poissons Ratio (x) = 0.43410 -0.01657
# Poissons Ratio (y) = 0.79306 0.03437
# Poissons Ratio (z) = -0.05261 0.05975
#
# Static dielectric constant tensor:
#      x y z
#    x 1.722860 0.000000 0.000000 
#    y 0.000000 1.649250 0.000000 
#    z 0.000000 0.000000 1.725280 
# 
# From -- ./inp_files/11891.got.cif
#   From: 2010.05.17/outbox.cif.g08.bks.cpg/sg47_6_cif.got.tgz:11891.got - 2010.06.03 20:15:42.
