data_PCOD9386766
_publ_section_title
;
Structure prediction by ZEFSAII (Michael W. Deem and Ramdas Pophale) SiO2 
 PCOD9386766
Probable space group: P M M M
;
_chemical_formula_sum "Si O2"
_cell_formula_units_Z 38
_cell_length_a 10.898622
_cell_length_b 22.683566
_cell_length_c 7.849054
_cell_angle_alpha 90.000000
_cell_angle_beta 90.000000
_cell_angle_gamma 90.000000
_cell_volume 1940.440080
_symmetry_space_group_name_H-M "P M M M"
_symmetry_group_IT_number 47
_symmetry_cell_setting 'orthorhombic'
loop_
_space_group_symop_operation_xyz
x,y,z
-x,-y,z
x,-y,-z
-x,y,-z
-x,-y,-z
x,y,-z
-x,y,z
x,-y,z
loop_
_atom_site_type_symbol
_atom_site_label
_atom_site_fract_x
_atom_site_fract_y
_atom_site_fract_z
Si Si1 0.144227 0.500000 0.795802
Si Si2 0.138866 0.847050 0.297411
Si Si3 0.139876 0.713661 0.800283
Si Si4 0.303298 0.609829 0.309881
Si Si5 0.500000 0.604924 0.000000
Si Si6 0.362505 0.067938 0.205558
O O1 0.205604 0.442245 0.717233
O O2 0.000000 0.500000 0.766066
O O3 0.165585 0.500000 0.000000
O O4 0.134510 0.839299 0.500000
O O5 0.165800 0.783108 0.218225
O O6 0.247969 0.892266 0.258528
O O7 0.000000 0.865333 0.241425
O O8 0.234410 0.672368 0.704562
O O9 0.000000 0.704450 0.739663
O O10 0.144755 0.697996 0.000000
O O11 0.356565 0.603989 0.500000
O O12 0.395206 0.604941 0.151869
O O13 0.500000 0.087539 0.262113
O O14 0.346369 0.000000 0.261966
O O15 0.364455 0.067891 0.000000
#
# Coordination Sequence:
#
# PCOD9386766 Si02
#       6
#     4   8   8   8   2   8
#     4  11  23  43  70 100 130 162 207 264 324 379
#     4  10  21  36  56  86 120 155 199 248 303 369
#     4  10  20  39  65  91 121 157 198 253 317 370
#     4  12  25  43  68  94 126 168 210 260 314 369
#     4  12  26  49  62  90 130 172 215 258 298 378
#     4   9  19  37  58  81 111 151 198 247 303 366
#
# _framework density 19.583186999999999
#
# number of rings (size 3 to 8) (size 9 to 14) (size 15 to 20)
#    0.000    1.579    2.105    3.158    0.000    8.000 
#    1.895    4.211    0.000    0.000    0.000    0.000 
#    0.000    0.000    0.000    0.000    0.000    0.000 
#
# Total GULP energy -211641.767286 kJ/mol
# GULP energy per Si atom -5569.520192 kJ/mol
# Density = 1.953861 g / cm^3
# Si number density = 19.583187 Si / 1000 Ang^3
#
#
#
# Elastic Constant Matrix: (Units=GPa)
#
#
# Indices 1 2 3 4 5 6 
#
# 1 134.8899 70.4454 50.8296 0.0000 0.0000 0.0000
# 2 70.4454 72.0675 19.0874 0.0000 0.0000 0.0000
# 3 50.8296 19.0874 126.6716 0.0000 0.0000 0.0000
# 4 0.0000 0.0000 0.0000 40.6533 0.0000 0.0000
# 5 0.0000 0.0000 0.0000 0.0000 -0.0292 0.0000
# 6 0.0000 0.0000 0.0000 0.0000 0.0000 -84.2398
#
#
#
# Elastic Compliance Matrix: (Units=1/GPa)
#
#
# Indices 1 2 3 4 5 6 
#
# 1 0.017385 -0.015776 -0.004599 0.000000 0.000000 0.000000
# 2 -0.015776 0.028768 0.001996 0.000000 0.000000 0.000000
# 3 -0.004599 0.001996 0.009439 0.000000 0.000000 0.000000
# 4 0.000000 0.000000 0.000000 0.024598 0.000000 0.000000
# 5 0.000000 0.000000 0.000000 0.000000-34.233693 0.000000
# 6 0.000000 0.000000 0.000000 0.000000 0.000000 -0.011871
#
#
# Mechanical properties :
#
#
# Convention : Reuss Voigt Hill
#
# Bulk Modulus (GPa) = 53.09602 68.26153 60.67877
# Shear Modulus (GPa) = -0.14653 4.16129 2.00738
#
# Velocity S-wave (km/s) = -0.27384 1.45929 1.01355
# Velocity P-wave (km/s) = 5.20307 6.14592 5.69404
#
# Compressibility (1/GPa) = 0.01883380
#
# Stress axis : x y z
#
# Youngs Moduli (GPa) = 57.51950 34.76055 105.94106
#
# Poissons Ratio (x) = 0.54838 0.48723
# Poissons Ratio (y) = 0.90743 -0.21141
# Poissons Ratio (z) = 0.26454 -0.06937
#
# Static dielectric constant tensor:
#      x y z
#    x 1.673470 0.000000 0.000000 
#    y 0.000000 1.664090 0.000000 
#    z 0.000000 0.000000 1.704870 
# 
# From -- ./inp_files/1510.got.cif
#   From: 2010.05.17/outbox.cif.g08.bks.cpg/sg47_1_cif.got.tgz:1510.got - 2010.06.03 20:15:42.
