data_PCOD9386052
_publ_section_title
;
Structure prediction by ZEFSAII (Michael W. Deem and Ramdas Pophale) SiO2 
 PCOD9386052
Probable space group: P M M M
;
_chemical_formula_sum "Si O2"
_cell_formula_units_Z 52
_cell_length_a 28.586354
_cell_length_b 11.987947
_cell_length_c 8.820325
_cell_angle_alpha 90.000000
_cell_angle_beta 90.000000
_cell_angle_gamma 90.000000
_cell_volume 3022.652139
_symmetry_space_group_name_H-M "P M M M"
_symmetry_group_IT_number 47
_symmetry_cell_setting 'orthorhombic'
loop_
_space_group_symop_operation_xyz
x,y,z
-x,-y,z
x,-y,-z
-x,y,-z
-x,-y,-z
x,y,-z
-x,y,z
x,-y,z
loop_
_atom_site_type_symbol
_atom_site_label
_atom_site_fract_x
_atom_site_fract_y
_atom_site_fract_z
Si Si1 0.183587 0.235994 0.818705
Si Si2 0.097900 0.365879 0.322590
Si Si3 0.554188 0.870630 0.182416
Si Si4 0.276392 0.629160 0.182812
Si Si5 0.801929 0.000000 0.318146
Si Si6 0.643295 0.772714 0.318070
Si Si7 0.306254 0.000000 0.316446
Si Si8 0.000000 0.364359 0.175080
O O1 0.140486 0.311973 0.767573
O O2 0.232495 0.293922 0.767933
O O3 0.177711 0.114255 0.746588
O O4 0.185016 0.227337 0.000000
O O5 0.101454 0.337973 0.500000
O O6 0.100353 0.500000 0.307915
O O7 0.047600 0.329096 0.257675
O O8 0.500000 0.847293 0.219987
O O9 0.590763 0.786827 0.257631
O O10 0.563719 0.000000 0.229143
O O11 0.558816 0.866246 0.000000
O O12 0.268077 0.500000 0.224241
O O13 0.324517 0.674909 0.252445
O O14 0.279204 0.635487 0.000000
O O15 0.747434 0.000000 0.269621
O O16 0.804483 0.000000 0.500000
O O17 0.643404 0.767643 0.500000
O O18 0.668406 0.887750 0.265945
O O19 0.307441 0.000000 0.500000
O O20 0.000000 0.500000 0.177812
O O21 0.000000 0.329266 0.000000
#
# Coordination Sequence:
#
# PCOD9386052 Si02
#       8
#     8   8   8   8   4   8   4   4
#     4  11  22  36  55  80 109 142 182 224 267 316
#     4  10  20  34  54  81 112 146 183 224 273 324
#     4   9  18  32  50  75 106 138 172 210 256 311
#     4  10  22  38  54  75 105 141 180 219 261 312
#     4  11  21  37  55  75 109 145 180 219 263 318
#     4  11  20  33  53  78 107 138 173 215 263 314
#     4   9  18  31  48  74 106 137 170 209 258 311
#     4   9  17  31  53  80 109 142 181 227 274 317
#
# _framework density 17.203436
#
# number of rings (size 3 to 8) (size 9 to 14) (size 15 to 20)
#    0.000    1.923    2.308    2.769    0.000    3.692 
#    0.000    0.769    0.000    0.923    0.000    6.462 
#    0.000    0.000    0.000    0.000    0.000    0.000 
#
# Total GULP energy -290188.477594 kJ/mol
# GULP energy per Si atom -5580.547646 kJ/mol
# Density = 1.716428 g / cm^3
# Si number density = 17.203436 Si / 1000 Ang^3
#
#
#
# Elastic Constant Matrix: (Units=GPa)
#
#
# Indices 1 2 3 4 5 6 
#
# 1 102.9866 26.3076 31.6370 0.0000 0.0000 0.0000
# 2 26.3076 66.0542 29.3828 0.0000 0.0000 0.0000
# 3 31.6370 29.3828 50.6473 0.0000 0.0000 0.0000
# 4 0.0000 0.0000 0.0000 23.2691 0.0000 0.0000
# 5 0.0000 0.0000 0.0000 0.0000 27.4485 0.0000
# 6 0.0000 0.0000 0.0000 0.0000 0.0000 14.9980
#
#
#
# Elastic Compliance Matrix: (Units=1/GPa)
#
#
# Indices 1 2 3 4 5 6 
#
# 1 0.012205 -0.001981 -0.006475 0.000000 0.000000 0.000000
# 2 -0.001981 0.020726 -0.010787 0.000000 0.000000 0.000000
# 3 -0.006475 -0.010787 0.030047 0.000000 0.000000 0.000000
# 4 0.000000 0.000000 0.000000 0.042976 0.000000 0.000000
# 5 0.000000 0.000000 0.000000 0.000000 0.036432 0.000000
# 6 0.000000 0.000000 0.000000 0.000000 0.000000 0.066675
#
#
# Mechanical properties :
#
#
# Convention : Reuss Voigt Hill
#
# Bulk Modulus (GPa) = 40.82770 43.81589 42.32180
# Shear Modulus (GPa) = 19.55337 21.96716 20.76026
#
# Velocity S-wave (km/s) = 3.37500 3.57726 3.47760
# Velocity P-wave (km/s) = 6.24270 6.52587 6.38585
#
# Compressibility (1/GPa) = 0.02449317
#
# Stress axis : x y z
#
# Youngs Moduli (GPa) = 81.93368 48.24779 33.28133
#
# Poissons Ratio (x) = 0.09557 0.21549
# Poissons Ratio (y) = 0.16229 0.35901
# Poissons Ratio (z) = 0.53050 0.52045
#
# Static dielectric constant tensor:
#      x y z
#    x 1.577230 0.000000 0.000000 
#    y 0.000000 1.574920 0.000000 
#    z 0.000000 0.000000 1.573910 
# 
# From -- ./inp_files/13332.got.cif
#   From: 2010.05.17/outbox.cif.g08.bks.cpg/sg47_7_cif.got.tgz:13332.got - 2010.06.03 20:15:42.
