data_PCOD9386657
_publ_section_title
;
Structure prediction by ZEFSAII (Michael W. Deem and Ramdas Pophale) SiO2 
 PCOD9386657
Probable space group: P M M M
;
_chemical_formula_sum "Si O2"
_cell_formula_units_Z 37
_cell_length_a 8.410060
_cell_length_b 7.805069
_cell_length_c 27.065879
_cell_angle_alpha 90.000000
_cell_angle_beta 90.000000
_cell_angle_gamma 90.000000
_cell_volume 1776.634032
_symmetry_space_group_name_H-M "P M M M"
_symmetry_group_IT_number 47
_symmetry_cell_setting 'orthorhombic'
loop_
_space_group_symop_operation_xyz
x,y,z
-x,-y,z
x,-y,-z
-x,y,-z
-x,-y,-z
x,y,-z
-x,y,z
x,-y,z
loop_
_atom_site_type_symbol
_atom_site_label
_atom_site_fract_x
_atom_site_fract_y
_atom_site_fract_z
Si Si1 0.500000 0.197619 0.083312
Si Si2 0.314855 0.293357 0.446249
Si Si3 0.500000 0.500000 0.000000
Si Si4 0.822284 0.708690 0.857962
Si Si5 0.326387 0.296606 0.240576
Si Si6 0.175160 0.202385 0.341160
O O1 0.665028 0.224467 0.114063
O O2 0.500000 0.000000 0.065389
O O3 0.500000 0.347493 0.042749
O O4 0.251417 0.235476 0.500000
O O5 0.500000 0.241920 0.443605
O O6 0.309910 0.500000 0.446211
O O7 0.230237 0.234088 0.396909
O O8 0.818956 0.500000 0.861696
O O9 0.798653 0.762200 0.800503
O O10 0.000000 0.762376 0.875010
O O11 0.500000 0.221358 0.229989
O O12 0.335180 0.500000 0.233410
O O13 0.284908 0.269441 0.297538
O O14 0.000000 0.278241 0.334504
O O15 0.168610 0.000000 0.334146
#
# Coordination Sequence:
#
# PCOD9386657 Si02
#       6
#     4   8   1   8   8   8
#     4  12  25  45  75 108 143 191 237 288 348 398
#     4   9  19  37  59  79  99 131 184 246 305 371
#     4  12  26  52  78 102 156 186 246 296 332 406
#     4  10  20  40  70 101 140 185 228 283 345 406
#     4  10  20  36  62  91 122 162 210 258 316 384
#     4  11  24  37  49  75 117 156 193 244 305 370
#
# _framework density 20.825899
#
# number of rings (size 3 to 8) (size 9 to 14) (size 15 to 20)
#    0.000    1.730    2.162    2.757    0.000    8.216 
#    0.000    4.324    0.000    1.297    0.000    0.000 
#    0.000    0.000    0.000    0.000    0.000    0.000 
#
# Total GULP energy -206117.212547 kJ/mol
# GULP energy per Si atom -5570.735474 kJ/mol
# Density = 2.077850 g / cm^3
# Si number density = 20.825899 Si / 1000 Ang^3
#
#
#
# Elastic Constant Matrix: (Units=GPa)
#
#
# Indices 1 2 3 4 5 6 
#
# 1 128.4109 22.9493 48.0175 0.0000 0.0000 0.0000
# 2 22.9493 63.4716 17.9065 0.0000 0.0000 0.0000
# 3 48.0175 17.9065 110.6254 0.0000 0.0000 0.0000
# 4 0.0000 0.0000 0.0000 -151.6009 0.0000 0.0000
# 5 0.0000 0.0000 0.0000 0.0000 -11.4888 0.0000
# 6 0.0000 0.0000 0.0000 0.0000 0.0000 16.7881
#
#
#
# Elastic Compliance Matrix: (Units=1/GPa)
#
#
# Indices 1 2 3 4 5 6 
#
# 1 0.009637 -0.002415 -0.003792 0.000000 0.000000 0.000000
# 2 -0.002415 0.017114 -0.001722 0.000000 0.000000 0.000000
# 3 -0.003792 -0.001722 0.010964 0.000000 0.000000 0.000000
# 4 0.000000 0.000000 0.000000 -0.006596 0.000000 0.000000
# 5 0.000000 0.000000 0.000000 0.000000 -0.087041 0.000000
# 6 0.000000 0.000000 0.000000 0.000000 0.000000 0.059566
#
#
# Mechanical properties :
#
#
# Convention : Reuss Voigt Hill
#
# Bulk Modulus (GPa) = 45.75081 53.36162 49.55621
# Shear Modulus (GPa) = 186.65598 -15.01800 85.81899
#
# Velocity S-wave (km/s) = 9.47742 -2.68828 6.42630
# Velocity P-wave (km/s) = 11.90705 4.00531 8.88314
#
# Compressibility (1/GPa) = 0.02185754
#
# Stress axis : x y z
#
# Youngs Moduli (GPa) = 103.76601 58.43184 91.20528
#
# Poissons Ratio (x) = 0.14109 0.34587
# Poissons Ratio (y) = 0.25056 0.15706
# Poissons Ratio (z) = 0.39350 0.10063
#
# Static dielectric constant tensor:
#      x y z
#    x 1.789760 0.000000 0.000000 
#    y 0.000000 1.749030 0.000000 
#    z 0.000000 0.000000 1.756100 
# 
# From -- ./inp_files/31676.got.cif
#   From: 2010.05.17/outbox.cif.g08.bks.cpg/sg47_16_cif.got.tgz:31676.got - 2010.06.03 20:15:42.
