data_PCOD9386137
_publ_section_title
;
Structure prediction by ZEFSAII (Michael W. Deem and Ramdas Pophale) SiO2 
 PCOD9386137
Probable space group: P M M M
;
_chemical_formula_sum "Si O2"
_cell_formula_units_Z 44
_cell_length_a 8.195267
_cell_length_b 9.246210
_cell_length_c 30.456294
_cell_angle_alpha 90.000000
_cell_angle_beta 90.000000
_cell_angle_gamma 90.000000
_cell_volume 2307.830541
_symmetry_space_group_name_H-M "P M M M"
_symmetry_group_IT_number 47
_symmetry_cell_setting 'orthorhombic'
loop_
_space_group_symop_operation_xyz
x,y,z
-x,-y,z
x,-y,-z
-x,y,-z
-x,-y,-z
x,y,-z
-x,y,z
x,-y,z
loop_
_atom_site_type_symbol
_atom_site_label
_atom_site_fract_x
_atom_site_fract_y
_atom_site_fract_z
Si Si1 0.302944 0.831342 0.951132
Si Si2 0.805707 0.335807 0.134841
Si Si3 0.315726 0.824919 0.593792
Si Si4 0.306417 0.834160 0.220101
Si Si5 0.814229 0.175127 0.686506
Si Si6 0.000000 0.669409 0.552660
O O1 0.500000 0.825170 0.949841
O O2 0.236111 0.741241 0.910806
O O3 0.256574 0.000000 0.946405
O O4 0.250986 0.782531 0.000000
O O5 0.744554 0.500000 0.133919
O O6 0.733455 0.252672 0.176434
O O7 0.000000 0.336678 0.140029
O O8 0.500000 0.788536 0.578570
O O9 0.297904 0.785274 0.645444
O O10 0.164413 0.748041 0.569879
O O11 0.296805 0.000000 0.590160
O O12 0.500000 0.838508 0.226422
O O13 0.231790 0.771722 0.265064
O O14 0.247415 0.000000 0.214327
O O15 0.000000 0.215259 0.675791
O O16 0.805612 0.000000 0.689384
O O17 0.000000 0.500000 0.565962
O O18 0.000000 0.676263 0.500000
#
# Coordination Sequence:
#
# PCOD9386137 Si02
#       6
#     8   8   8   8   8   4
#     4   9  19  37  60  83 104 129 168 219 272 328
#     4  11  24  38  51  73 108 146 182 222 269 323
#     4  10  20  37  64  95 124 156 201 258 313 364
#     4  10  20  34  55  83 111 142 184 230 276 331
#     4   9  16  30  56  88 119 149 184 233 291 346
#     4  11  25  43  61  85 123 169 211 253 304 365
#
# _framework density 19.065524
#
# number of rings (size 3 to 8) (size 9 to 14) (size 15 to 20)
#    0.000    2.091    0.909    3.000    0.000    9.455 
#    0.000    5.455    0.000    2.182    0.000    0.000 
#    0.000    0.000    0.000    0.000    0.000    0.000 
#
# Total GULP energy -245525.494243 kJ/mol
# GULP energy per Si atom -5580.124869 kJ/mol
# Density = 1.902213 g / cm^3
# Si number density = 19.065524 Si / 1000 Ang^3
#
#
#
# Elastic Constant Matrix: (Units=GPa)
#
#
# Indices 1 2 3 4 5 6 
#
# 1 92.2047 35.6484 39.5558 0.0000 0.0000 0.0000
# 2 35.6484 59.2229 41.1712 0.0000 0.0000 0.0000
# 3 39.5558 41.1712 99.0137 0.0000 0.0000 0.0000
# 4 0.0000 0.0000 0.0000 -57.8887 0.0000 0.0000
# 5 0.0000 0.0000 0.0000 0.0000 21.7736 0.0000
# 6 0.0000 0.0000 0.0000 0.0000 0.0000 22.5060
#
#
#
# Elastic Compliance Matrix: (Units=1/GPa)
#
#
# Indices 1 2 3 4 5 6 
#
# 1 0.014783 -0.006741 -0.003103 0.000000 0.000000 0.000000
# 2 -0.006741 0.026825 -0.008461 0.000000 0.000000 0.000000
# 3 -0.003103 -0.008461 0.014857 0.000000 0.000000 0.000000
# 4 0.000000 0.000000 0.000000 -0.017275 0.000000 0.000000
# 5 0.000000 0.000000 0.000000 0.000000 0.045927 0.000000
# 6 0.000000 0.000000 0.000000 0.000000 0.000000 0.044433
#
#
# Mechanical properties :
#
#
# Convention : Reuss Voigt Hill
#
# Bulk Modulus (GPa) = 50.36447 53.68801 52.02624
# Shear Modulus (GPa) = 28.93864 6.21592 17.57728
#
# Velocity S-wave (km/s) = 3.90019 1.80759 3.03964
# Velocity P-wave (km/s) = 6.83782 5.70766 6.29814
#
# Compressibility (1/GPa) = 0.01985527
#
# Stress axis : x y z
#
# Youngs Moduli (GPa) = 67.64609 37.27806 67.30693
#
# Poissons Ratio (x) = 0.25131 0.20882
# Poissons Ratio (y) = 0.45604 0.56949
# Poissons Ratio (z) = 0.20987 0.31542
#
# Static dielectric constant tensor:
#      x y z
#    x 1.669890 0.000000 0.000000 
#    y 0.000000 1.653920 0.000000 
#    z 0.000000 0.000000 1.656900 
# 
# From -- ./inp_files/33929.got.cif
#   From: 2010.05.17/outbox.cif.g08.bks.cpg/sg47_17_cif.got.tgz:33929.got - 2010.06.03 20:15:42.
