data_PCOD9386092
_publ_section_title
;
Structure prediction by ZEFSAII (Michael W. Deem and Ramdas Pophale) SiO2 
 PCOD9386092
Probable space group: P M M M
;
_chemical_formula_sum "Si O2"
_cell_formula_units_Z 52
_cell_length_a 7.693889
_cell_length_b 24.619295
_cell_length_c 13.470361
_cell_angle_alpha 90.000000
_cell_angle_beta 90.000000
_cell_angle_gamma 90.000000
_cell_volume 2551.530497
_symmetry_space_group_name_H-M "P M M M"
_symmetry_group_IT_number 47
_symmetry_cell_setting 'orthorhombic'
loop_
_space_group_symop_operation_xyz
x,y,z
-x,-y,z
x,-y,-z
-x,y,-z
-x,-y,-z
x,y,-z
-x,y,z
x,-y,z
loop_
_atom_site_type_symbol
_atom_site_label
_atom_site_fract_x
_atom_site_fract_y
_atom_site_fract_z
Si Si1 0.787633 0.562311 0.887494
Si Si2 0.792321 0.357604 0.283266
Si Si3 0.205351 0.765621 0.717758
Si Si4 0.706147 0.061477 0.000000
Si Si5 0.291702 0.767835 0.500000
Si Si6 0.209073 0.873104 0.801741
Si Si7 0.293569 0.357404 0.500000
Si Si8 0.211752 0.063627 0.608453
O O1 0.734648 0.500000 0.868376
O O2 0.725057 0.603703 0.803642
O O3 0.000000 0.562781 0.885958
O O4 0.735418 0.576945 0.000000
O O5 0.720730 0.295606 0.278259
O O6 0.761611 0.380688 0.393984
O O7 0.000000 0.354320 0.271337
O O8 0.228086 0.789088 0.605889
O O9 0.274527 0.811089 0.792838
O O10 0.000000 0.759996 0.735182
O O11 0.754459 0.094878 0.901950
O O12 0.500000 0.056697 0.000000
O O13 0.780330 0.000000 0.000000
O O14 0.500000 0.768973 0.500000
O O15 0.226871 0.704948 0.500000
O O16 0.275807 0.905446 0.705364
O O17 0.000000 0.870528 0.792835
O O18 0.500000 0.355417 0.500000
O O19 0.270164 0.084340 0.500000
O O20 0.000000 0.066196 0.608724
O O21 0.257585 0.000000 0.615137
#
# Coordination Sequence:
#
# PCOD9386092 Si02
#       8
#     8   8   8   4   4   8   4   8
#     4   8  14  26  46  72  98 126 165 211 257 306
#     4   9  16  29  48  73 102 133 164 205 255 299
#     4   9  18  30  47  76 107 132 162 207 257 298
#     4  11  25  43  59  73  97 135 174 213 254 294
#     4   9  17  29  47  70  99 142 178 200 235 297
#     4  10  20  34  55  79 101 130 167 207 248 301
#     4   9  17  29  46  68  97 135 175 208 239 292
#     4   8  14  25  44  72 100 121 146 187 237 283
#
# _framework density 20.379925
#
# number of rings (size 3 to 8) (size 9 to 14) (size 15 to 20)
#    0.000    3.000    0.000    2.077    1.077    3.692 
#    1.385    0.385    0.000    3.231    0.000    3.231 
#    0.000    0.000    0.000    0.000    0.000    0.000 
#
# Total GULP energy -289897.414736 kJ/mol
# GULP energy per Si atom -5574.950283 kJ/mol
# Density = 2.033354 g / cm^3
# Si number density = 20.379925 Si / 1000 Ang^3
#
#
#
# Elastic Constant Matrix: (Units=GPa)
#
#
# Indices 1 2 3 4 5 6 
#
# 1 34.1883 5.9348 -0.4848 0.0000 0.0000 0.0000
# 2 5.9348 113.6637 110.9702 0.0000 0.0000 0.0000
# 3 -0.4848 110.9702 187.2891 0.0000 0.0000 0.0000
# 4 0.0000 0.0000 0.0000 40.7941 0.0000 0.0000
# 5 0.0000 0.0000 0.0000 0.0000 -121.8890 0.0000
# 6 0.0000 0.0000 0.0000 0.0000 0.0000 1.8760
#
#
#
# Elastic Compliance Matrix: (Units=1/GPa)
#
#
# Indices 1 2 3 4 5 6 
#
# 1 0.029959 -0.003891 0.002383 0.000000 0.000000 0.000000
# 2 -0.003891 0.021376 -0.012676 0.000000 0.000000 0.000000
# 3 0.002383 -0.012676 0.012856 0.000000 0.000000 0.000000
# 4 0.000000 0.000000 0.000000 0.024513 0.000000 0.000000
# 5 0.000000 0.000000 0.000000 0.000000 -0.008204 0.000000
# 6 0.000000 0.000000 0.000000 0.000000 0.000000 0.533041
#
#
# Mechanical properties :
#
#
# Convention : Reuss Voigt Hill
#
# Bulk Modulus (GPa) = 27.91410 63.10907 45.51158
# Shear Modulus (GPa) = 7.64702 -1.26238 3.19232
#
# Velocity S-wave (km/s) = 1.93917 -0.78789 1.25292
# Velocity P-wave (km/s) = 4.32902 5.49598 4.94703
#
# Compressibility (1/GPa) = 0.03582419
#
# Stress axis : x y z
#
# Youngs Moduli (GPa) = 33.37904 46.78058 77.78479
#
# Poissons Ratio (x) = 0.18200 -0.18534
# Poissons Ratio (y) = 0.12986 0.98598
# Poissons Ratio (z) = -0.07953 0.59298
#
# Static dielectric constant tensor:
#      x y z
#    x 1.731580 0.000000 0.000000 
#    y 0.000000 1.755800 0.000000 
#    z 0.000000 0.000000 1.760800 
# 
# From -- ./inp_files/15585.got.cif
#   From: 2010.05.17/outbox.cif.g08.bks.cpg/sg47_8_cif.got.tgz:15585.got - 2010.06.03 20:15:42.
