data_PCOD9386732
_publ_section_title
;
Structure prediction by ZEFSAII (Michael W. Deem and Ramdas Pophale) SiO2 
 PCOD9386732
Probable space group: P M M M
;
_chemical_formula_sum "Si O2"
_cell_formula_units_Z 48
_cell_length_a 18.103529
_cell_length_b 8.337436
_cell_length_c 15.940758
_cell_angle_alpha 90.000000
_cell_angle_beta 90.000000
_cell_angle_gamma 90.000000
_cell_volume 2406.050420
_symmetry_space_group_name_H-M "P M M M"
_symmetry_group_IT_number 47
_symmetry_cell_setting 'orthorhombic'
loop_
_space_group_symop_operation_xyz
x,y,z
-x,-y,z
x,-y,-z
-x,y,-z
-x,-y,-z
x,y,-z
-x,y,z
x,-y,z
loop_
_atom_site_type_symbol
_atom_site_label
_atom_site_fract_x
_atom_site_fract_y
_atom_site_fract_z
Si Si1 0.701702 0.691376 0.594279
Si Si2 0.154136 0.809084 0.678703
Si Si3 0.356204 0.191140 0.907492
Si Si4 0.914925 0.807345 0.000000
Si Si5 0.416597 0.805647 0.269675
Si Si6 0.000000 0.195789 0.596806
Si Si7 0.804321 0.311840 0.861504
O O1 0.677229 0.734154 0.500000
O O2 0.710930 0.500000 0.598907
O O3 0.780326 0.771450 0.614111
O O4 0.643064 0.743605 0.664293
O O5 0.176717 0.727096 0.765682
O O6 0.074916 0.754102 0.643644
O O7 0.150546 0.000000 0.692991
O O8 0.397981 0.252233 0.824773
O O9 0.269639 0.221498 0.890622
O O10 0.369053 0.000000 0.910164
O O11 0.375905 0.256228 0.000000
O O12 0.871702 0.743044 0.919403
O O13 0.000000 0.756882 0.000000
O O14 0.911873 0.000000 0.000000
O O15 0.500000 0.759175 0.292327
O O16 0.412180 0.000000 0.269283
O O17 0.000000 0.248720 0.500000
O O18 0.000000 0.000000 0.596077
O O19 0.791038 0.500000 0.872265
#
# Coordination Sequence:
#
# PCOD9386732 Si02
#       7
#     8   8   8   4   8   4   8
#     4  11  24  41  62  90 124 164 209 258 317 377
#     4  11  22  39  64  91 121 160 207 253 306 370
#     4  10  20  37  63  91 122 161 203 247 300 367
#     4  11  25  43  63  87 120 163 214 261 307 364
#     4  10  22  40  63  93 126 162 207 259 313 372
#     4   9  20  38  61  90 119 150 195 251 304 357
#     4  12  24  38  59  89 124 160 202 252 308 367
#
# _framework density 19.949707
#
# number of rings (size 3 to 8) (size 9 to 14) (size 15 to 20)
#    0.000    1.333    2.500    3.250    1.167    3.667 
#    0.000    4.583    0.000    3.000    0.000    2.333 
#    0.000    0.000    0.000    0.000    0.000    0.000 
#
# Total GULP energy -268306.409236 kJ/mol
# GULP energy per Si atom -5589.716859 kJ/mol
# Density = 1.990430 g / cm^3
# Si number density = 19.949707 Si / 1000 Ang^3
#
#
#
# Elastic Constant Matrix: (Units=GPa)
#
#
# Indices 1 2 3 4 5 6 
#
# 1 93.8702 -6.0507 22.6648 0.0000 0.0000 0.0000
# 2 -6.0507 12.0474 2.8446 0.0000 0.0000 0.0000
# 3 22.6648 2.8446 116.3224 0.0000 0.0000 0.0000
# 4 0.0000 0.0000 0.0000 35.4125 0.0000 0.0000
# 5 0.0000 0.0000 0.0000 0.0000 12.6289 0.0000
# 6 0.0000 0.0000 0.0000 0.0000 0.0000 -19.3825
#
#
#
# Elastic Compliance Matrix: (Units=1/GPa)
#
#
# Indices 1 2 3 4 5 6 
#
# 1 0.011653 0.006426 -0.002428 0.000000 0.000000 0.000000
# 2 0.006426 0.087031 -0.003380 0.000000 0.000000 0.000000
# 3 -0.002428 -0.003380 0.009152 0.000000 0.000000 0.000000
# 4 0.000000 0.000000 0.000000 0.028239 0.000000 0.000000
# 5 0.000000 0.000000 0.000000 0.000000 0.079183 0.000000
# 6 0.000000 0.000000 0.000000 0.000000 0.000000 -0.051593
#
#
# Mechanical properties :
#
#
# Convention : Reuss Voigt Hill
#
# Bulk Modulus (GPa) = 9.16822 29.01750 19.09286
# Shear Modulus (GPa) = 25.15250 19.25054 22.20152
#
# Velocity S-wave (km/s) = 3.55462 3.10974 3.33960
# Velocity P-wave (km/s) = 4.63171 5.24127 4.94589
#
# Compressibility (1/GPa) = 0.10907241
#
# Stress axis : x y z
#
# Youngs Moduli (GPa) = 85.81194 11.49019 109.25979
#
# Poissons Ratio (x) = -0.07384 0.26525
# Poissons Ratio (y) = -0.55143 0.36934
# Poissons Ratio (z) = 0.20833 0.03884
#
# Static dielectric constant tensor:
#      x y z
#    x 1.665540 0.000000 0.000000 
#    y 0.000000 1.694470 0.000000 
#    z 0.000000 0.000000 1.706660 
# 
# From -- ./inp_files/21150.got.cif
#   From: 2010.05.17/outbox.cif.g08.bks.cpg/sg47_11_cif.got.tgz:21150.got - 2010.06.03 20:15:42.
