data_PCOD9386873
_publ_section_title
;
Structure prediction by ZEFSAII (Michael W. Deem and Ramdas Pophale) SiO2 
 PCOD9386873
Probable space group: P M M M
;
_chemical_formula_sum "Si O2"
_cell_formula_units_Z 60
_cell_length_a 12.176368
_cell_length_b 22.413354
_cell_length_c 13.145611
_cell_angle_alpha 90.000000
_cell_angle_beta 90.000000
_cell_angle_gamma 90.000000
_cell_volume 3587.611374
_symmetry_space_group_name_H-M "P M M M"
_symmetry_group_IT_number 47
_symmetry_cell_setting 'orthorhombic'
loop_
_space_group_symop_operation_xyz
x,y,z
-x,-y,z
x,-y,-z
-x,y,-z
-x,-y,-z
x,y,-z
-x,y,z
x,-y,z
loop_
_atom_site_type_symbol
_atom_site_label
_atom_site_fract_x
_atom_site_fract_y
_atom_site_fract_z
Si Si1 0.211277 0.142014 0.287879
Si Si2 0.867981 0.229565 0.880566
Si Si3 0.247273 0.335365 0.756276
Si Si4 0.627520 0.565732 0.121761
Si Si5 0.628743 0.757226 0.379596
Si Si6 0.625008 0.929093 0.612877
Si Si7 0.000000 0.071909 0.622437
Si Si8 0.131968 0.432543 0.617654
O O1 0.177745 0.172840 0.182489
O O2 0.279199 0.192821 0.351118
O O3 0.303495 0.091315 0.292557
O O4 0.105482 0.109571 0.337660
O O5 0.822270 0.287396 0.820966
O O6 0.000000 0.228984 0.874502
O O7 0.836815 0.229650 0.000000
O O8 0.308134 0.379875 0.831794
O O9 0.333319 0.299216 0.686731
O O10 0.176096 0.378720 0.684939
O O11 0.500000 0.569300 0.151747
O O12 0.669170 0.500000 0.152753
O O13 0.632324 0.568216 0.000000
O O14 0.635071 0.745965 0.500000
O O15 0.500000 0.772081 0.356635
O O16 0.667973 0.909986 0.500000
O O17 0.500000 0.907776 0.619475
O O18 0.623686 0.000000 0.610407
O O19 0.000000 0.072652 0.500000
O O20 0.000000 0.000000 0.651486
O O21 0.165739 0.424464 0.500000
O O22 0.166305 0.500000 0.648661
O O23 0.000000 0.431640 0.620858
#
# Coordination Sequence:
#
# PCOD9386873 Si02
#       8
#     8   8   8   8   8   8   4   8
#     4  11  20  34  55  75 103 141 175 206 254 310
#     4  10  22  39  54  70  97 133 177 227 272 311
#     4  11  19  31  54  76  96 126 177 222 264 303
#     4   9  18  32  49  71  99 127 158 205 265 321
#     4  10  21  34  49  73 106 142 175 209 249 303
#     4   9  17  30  52  83 115 144 171 200 242 303
#     4  11  22  34  53  85 117 137 161 206 256 299
#     4   9  18  32  49  72 105 140 170 206 258 323
#
# _framework density 16.724218
#
# number of rings (size 3 to 8) (size 9 to 14) (size 15 to 20)
#    0.000    2.067    0.667    5.200    0.000    2.133 
#    0.000    0.000    0.000   10.000    0.000   12.133 
#    0.000    0.000    0.000    0.000    0.000    0.000 
#
# Total GULP energy -334085.203199 kJ/mol
# GULP energy per Si atom -5568.086720 kJ/mol
# Density = 1.668615 g / cm^3
# Si number density = 16.724218 Si / 1000 Ang^3
#
#
#
# Elastic Constant Matrix: (Units=GPa)
#
#
# Indices 1 2 3 4 5 6 
#
# 1 84.7561 49.9656 52.3126 0.0000 0.0000 0.0000
# 2 49.9656 111.6590 58.2404 0.0000 0.0000 0.0000
# 3 52.3126 58.2404 100.2616 0.0000 0.0000 0.0000
# 4 0.0000 0.0000 0.0000 46.0624 0.0000 0.0000
# 5 0.0000 0.0000 0.0000 0.0000 12.5471 0.0000
# 6 0.0000 0.0000 0.0000 0.0000 0.0000 33.9441
#
#
#
# Elastic Compliance Matrix: (Units=1/GPa)
#
#
# Indices 1 2 3 4 5 6 
#
# 1 0.019034 -0.004788 -0.007150 0.000000 0.000000 0.000000
# 2 -0.004788 0.014053 -0.005665 0.000000 0.000000 0.000000
# 3 -0.007150 -0.005665 0.016995 0.000000 0.000000 0.000000
# 4 0.000000 0.000000 0.000000 0.021710 0.000000 0.000000
# 5 0.000000 0.000000 0.000000 0.000000 0.079700 0.000000
# 6 0.000000 0.000000 0.000000 0.000000 0.000000 0.029460
#
#
# Mechanical properties :
#
#
# Convention : Reuss Voigt Hill
#
# Bulk Modulus (GPa) = 67.22044 68.63486 67.92765
# Shear Modulus (GPa) = 22.61234 27.58792 25.10013
#
# Velocity S-wave (km/s) = 3.68104 4.06591 3.87825
# Velocity P-wave (km/s) = 7.63855 7.94798 7.79480
#
# Compressibility (1/GPa) = 0.01487643
#
# Stress axis : x y z
#
# Youngs Moduli (GPa) = 52.53646 71.15747 58.83992
#
# Poissons Ratio (x) = 0.34072 0.42071
# Poissons Ratio (y) = 0.25156 0.33333
# Poissons Ratio (z) = 0.37564 0.40311
#
# Static dielectric constant tensor:
#      x y z
#    x 1.574100 0.000000 0.000000 
#    y 0.000000 1.609690 0.000000 
#    z 0.000000 0.000000 1.552360 
# 
# From -- ./inp_files/16880.got.cif
#   From: 2010.05.17/outbox.cif.g08.bks.cpg/sg47_9_cif.got.tgz:16880.got - 2010.06.03 20:15:42.
