data_PCOD9386618
_publ_section_title
;
Structure prediction by ZEFSAII (Michael W. Deem and Ramdas Pophale) SiO2 
 PCOD9386618
Probable space group: P M M M
;
_chemical_formula_sum "Si O2"
_cell_formula_units_Z 44
_cell_length_a 9.577332
_cell_length_b 7.822814
_cell_length_c 29.996388
_cell_angle_alpha 90.000000
_cell_angle_beta 90.000000
_cell_angle_gamma 90.000000
_cell_volume 2247.379988
_symmetry_space_group_name_H-M "P M M M"
_symmetry_group_IT_number 47
_symmetry_cell_setting 'orthorhombic'
loop_
_space_group_symop_operation_xyz
x,y,z
-x,-y,z
x,-y,-z
-x,y,-z
-x,-y,-z
x,y,-z
-x,y,z
x,-y,z
loop_
_atom_site_type_symbol
_atom_site_label
_atom_site_fract_x
_atom_site_fract_y
_atom_site_fract_z
Si Si1 0.841081 0.793607 0.782738
Si Si2 0.658866 0.296501 0.302220
Si Si3 0.841018 0.706319 0.949564
Si Si4 0.334441 0.805252 0.402545
Si Si5 0.342418 0.795507 0.134561
Si Si6 0.836539 0.500000 0.446610
O O1 0.764257 0.747793 0.736994
O O2 0.751084 0.728467 0.824627
O O3 0.000000 0.730305 0.784115
O O4 0.845677 0.000000 0.785575
O O5 0.500000 0.247184 0.289188
O O6 0.660878 0.500000 0.309806
O O7 0.691406 0.210251 0.349456
O O8 0.842177 0.500000 0.949901
O O9 0.734380 0.763040 0.912000
O O10 0.000000 0.763457 0.939352
O O11 0.806492 0.763174 0.000000
O O12 0.500000 0.768622 0.409044
O O13 0.241369 0.666231 0.427321
O O14 0.307401 0.000000 0.416962
O O15 0.500000 0.726698 0.135217
O O16 0.350875 0.000000 0.140212
O O17 0.827290 0.500000 0.500000
O O18 0.000000 0.500000 0.433846
#
# Coordination Sequence:
#
# PCOD9386618 Si02
#       6
#     8   8   8   8   8   4
#     4  10  21  36  54  78 109 146 187 229 278 338
#     4  10  20  36  59  86 117 152 192 239 291 349
#     4   9  19  36  56  77 102 134 173 218 271 333
#     4  10  21  40  67  95 124 163 211 262 314 368
#     4  10  21  36  54  77 106 140 180 227 277 331
#     4  11  25  43  63  91 131 173 211 259 314 371
#
# _framework density 19.578354000000001
#
# number of rings (size 3 to 8) (size 9 to 14) (size 15 to 20)
#    0.000    2.091    0.909    2.455    0.000    7.273 
#    0.000    4.545    0.000    0.000    0.000    0.000 
#    0.000    0.000    0.000    0.000    0.000    0.000 
#
# Total GULP energy -245796.405685 kJ/mol
# GULP energy per Si atom -5586.281947 kJ/mol
# Density = 1.953379 g / cm^3
# Si number density = 19.578354 Si / 1000 Ang^3
#
#
#
# Elastic Constant Matrix: (Units=GPa)
#
#
# Indices 1 2 3 4 5 6 
#
# 1 163.3031 57.5722 101.2540 0.0000 0.0000 0.0000
# 2 57.5722 69.4766 38.3400 0.0000 0.0000 0.0000
# 3 101.2540 38.3400 103.0886 0.0000 0.0000 0.0000
# 4 0.0000 0.0000 0.0000 26.1932 0.0000 0.0000
# 5 0.0000 0.0000 0.0000 0.0000 38.4612 0.0000
# 6 0.0000 0.0000 0.0000 0.0000 0.0000 24.3908
#
#
#
# Elastic Compliance Matrix: (Units=1/GPa)
#
#
# Indices 1 2 3 4 5 6 
#
# 1 0.017646 -0.006364 -0.014965 0.000000 0.000000 0.000000
# 2 -0.006364 0.020406 -0.001338 0.000000 0.000000 0.000000
# 3 -0.014965 -0.001338 0.024897 0.000000 0.000000 0.000000
# 4 0.000000 0.000000 0.000000 0.038178 0.000000 0.000000
# 5 0.000000 0.000000 0.000000 0.000000 0.026000 0.000000
# 6 0.000000 0.000000 0.000000 0.000000 0.000000 0.040999
#
#
# Mechanical properties :
#
#
# Convention : Reuss Voigt Hill
#
# Bulk Modulus (GPa) = 56.77450 81.13341 68.95395
# Shear Modulus (GPa) = 22.79639 27.05584 24.92612
#
# Velocity S-wave (km/s) = 3.41598 3.72146 3.57199
# Velocity P-wave (km/s) = 6.67983 7.74571 7.23243
#
# Compressibility (1/GPa) = 0.01761354
#
# Stress axis : x y z
#
# Youngs Moduli (GPa) = 56.66872 49.00634 40.16524
#
# Poissons Ratio (x) = 0.31189 0.60109
# Poissons Ratio (y) = 0.36065 0.05374
# Poissons Ratio (z) = 0.84807 0.06557
#
# Static dielectric constant tensor:
#      x y z
#    x 1.673690 0.000000 0.000000 
#    y 0.000000 1.704250 0.000000 
#    z 0.000000 0.000000 1.650430 
# 
# From -- ./inp_files/33877.got.cif
#   From: 2010.05.17/outbox.cif.g08.bks.cpg/sg47_17_cif.got.tgz:33877.got - 2010.06.03 20:15:42.
