data_PCOD9386937
_publ_section_title
;
Structure prediction by ZEFSAII (Michael W. Deem and Ramdas Pophale) SiO2 
 PCOD9386937
Probable space group: P M M M
;
_chemical_formula_sum "Si O2"
_cell_formula_units_Z 48
_cell_length_a 25.158340
_cell_length_b 14.027344
_cell_length_c 7.952076
_cell_angle_alpha 90.000000
_cell_angle_beta 90.000000
_cell_angle_gamma 90.000000
_cell_volume 2806.324913
_symmetry_space_group_name_H-M "P M M M"
_symmetry_group_IT_number 47
_symmetry_cell_setting 'orthorhombic'
loop_
_space_group_symop_operation_xyz
x,y,z
-x,-y,z
x,-y,-z
-x,y,-z
-x,-y,-z
x,y,-z
-x,y,z
x,-y,z
loop_
_atom_site_type_symbol
_atom_site_label
_atom_site_fract_x
_atom_site_fract_y
_atom_site_fract_z
Si Si1 0.941075 0.802569 0.296291
Si Si2 0.219693 0.699258 0.700372
Si Si3 0.831361 0.105548 0.800490
Si Si4 0.442684 0.388748 0.797728
Si Si5 0.889549 0.393617 0.705544
Si Si6 0.671849 0.390317 0.297898
O O1 0.940109 0.805064 0.500000
O O2 0.892643 0.867255 0.235473
O O3 0.927526 0.693602 0.244561
O O4 0.000000 0.830313 0.239730
O O5 0.220782 0.684494 0.500000
O O6 0.204239 0.808684 0.730675
O O7 0.169895 0.635927 0.762557
O O8 0.276890 0.666718 0.766766
O O9 0.819724 0.000000 0.732754
O O10 0.823907 0.104629 0.000000
O O11 0.500000 0.348458 0.740436
O O12 0.441905 0.500000 0.742338
O O13 0.386057 0.347833 0.743515
O O14 0.443141 0.388327 0.000000
O O15 0.889531 0.394479 0.500000
O O16 0.903686 0.500000 0.761665
O O17 0.674956 0.394092 0.500000
O O18 0.674283 0.500000 0.234997
#
# Coordination Sequence:
#
# PCOD9386937 Si02
#       6
#     8   8   8   8   8   8
#     4   9  18  31  47  68  89 109 137 170 204 247
#     4   9  17  29  45  65  87 110 139 174 211 253
#     4  10  21  35  49  64  82 106 136 172 216 260
#     4   8  14  24  36  52  80 120 160 189 211 239
#     4   8  13  23  41  63  86 111 137 166 199 236
#     4   9  16  25  40  64  91 117 146 180 214 246
#
# _framework density 17.104220999999999
#
# number of rings (size 3 to 8) (size 9 to 14) (size 15 to 20)
#    0.000    3.167    0.000    2.500    0.000    5.333 
#    0.000    5.000    0.000   12.000    0.000    4.667 
#    0.000    0.667    0.000    7.333    0.000    5.667 
#
# Total GULP energy -267257.819211 kJ/mol
# GULP energy per Si atom -5567.871234 kJ/mol
# Density = 1.706529 g / cm^3
# Si number density = 17.104221 Si / 1000 Ang^3
#
#
#
# Elastic Constant Matrix: (Units=GPa)
#
#
# Indices 1 2 3 4 5 6 
#
# 1 111.0349 4.7011 0.3804 0.0000 0.0000 0.0000
# 2 4.7011 40.6075 -9.7066 0.0000 0.0000 0.0000
# 3 0.3804 -9.7066 9.2051 0.0000 0.0000 0.0000
# 4 0.0000 0.0000 0.0000 285.6126 0.0000 0.0000
# 5 0.0000 0.0000 0.0000 0.0000 -150.5824 0.0000
# 6 0.0000 0.0000 0.0000 0.0000 0.0000 10.1972
#
#
#
# Elastic Compliance Matrix: (Units=1/GPa)
#
#
# Indices 1 2 3 4 5 6 
#
# 1 0.009078 -0.001525 -0.001983 0.000000 0.000000 0.000000
# 2 -0.001525 0.033181 0.035052 0.000000 0.000000 0.000000
# 3 -0.001983 0.035052 0.145680 0.000000 0.000000 0.000000
# 4 0.000000 0.000000 0.000000 0.003501 0.000000 0.000000
# 5 0.000000 0.000000 0.000000 0.000000 -0.006641 0.000000
# 6 0.000000 0.000000 0.000000 0.000000 0.000000 0.098066
#
#
# Mechanical properties :
#
#
# Convention : Reuss Voigt Hill
#
# Bulk Modulus (GPa) = 3.98363 16.84413 10.41388
# Shear Modulus (GPa) = 16.47703 40.07699 28.27701
#
# Velocity S-wave (km/s) = 3.10712 4.84581 4.07039
# Velocity P-wave (km/s) = 3.89954 6.41705 5.30966
#
# Compressibility (1/GPa) = 0.25102754
#
# Stress axis : x y z
#
# Youngs Moduli (GPa) = 110.16208 30.13749 6.86435
#
# Poissons Ratio (x) = 0.04596 0.01361
# Poissons Ratio (y) = 0.16799 -0.24061
# Poissons Ratio (z) = 0.21846 -1.05639
#
# Static dielectric constant tensor:
#      x y z
#    x 1.613170 0.000000 0.000000 
#    y 0.000000 1.574480 0.000000 
#    z 0.000000 0.000000 1.622330 
# 
# From -- ./inp_files/7491.got.cif
#   From: 2010.05.17/outbox.cif.g08.bks.cpg/sg47_4_cif.got.tgz:7491.got - 2010.06.03 20:15:42.
