data_PCOD9386259
_publ_section_title
;
Structure prediction by ZEFSAII (Michael W. Deem and Ramdas Pophale) SiO2 
 PCOD9386259
Probable space group: P M M M
;
_chemical_formula_sum "Si O2"
_cell_formula_units_Z 46
_cell_length_a 7.550672
_cell_length_b 14.599732
_cell_length_c 21.910965
_cell_angle_alpha 90.000000
_cell_angle_beta 90.000000
_cell_angle_gamma 90.000000
_cell_volume 2415.416306
_symmetry_space_group_name_H-M "P M M M"
_symmetry_group_IT_number 47
_symmetry_cell_setting 'orthorhombic'
loop_
_space_group_symop_operation_xyz
x,y,z
-x,-y,z
x,-y,-z
-x,y,-z
-x,-y,-z
x,y,-z
-x,y,z
x,-y,z
loop_
_atom_site_type_symbol
_atom_site_label
_atom_site_fract_x
_atom_site_fract_y
_atom_site_fract_z
Si Si1 0.713741 0.604104 0.668412
Si Si2 0.713149 0.000000 0.070242
Si Si3 0.212682 0.103523 0.332115
Si Si4 0.209511 0.751443 0.232545
Si Si5 0.712273 0.250815 0.568947
Si Si6 0.000000 0.256299 0.000000
Si Si7 0.295283 0.203670 0.901926
O O1 0.500000 0.601918 0.664808
O O2 0.778139 0.500000 0.666785
O O3 0.760494 0.658249 0.730022
O O4 0.779065 0.666705 0.612082
O O5 0.763478 0.096059 0.100351
O O6 0.500000 0.000000 0.068600
O O7 0.778458 0.000000 0.000000
O O8 0.279041 0.167304 0.276706
O O9 0.251606 0.157378 0.394520
O O10 0.000000 0.100106 0.326456
O O11 0.280548 0.000000 0.330854
O O12 0.290267 0.755716 0.165764
O O13 0.000000 0.764482 0.225078
O O14 0.781298 0.251659 0.500000
O O15 0.500000 0.260632 0.565778
O O16 0.843243 0.250890 0.946900
O O17 0.500000 0.206159 0.923985
#
# Coordination Sequence:
#
# PCOD9386259 Si02
#       7
#     8   4   8   8   8   2   8
#     4   9  18  34  56  79 105 138 176 225 285 342
#     4   9  18  32  48  72 106 142 185 224 267 322
#     4   9  19  34  50  71 102 142 188 231 271 322
#     4  10  20  35  53  79 107 140 184 232 283 333
#     4   9  18  32  50  75 107 140 178 226 277 333
#     4  12  22  37  54  82 109 156 190 230 279 330
#     4  11  22  36  53  78 113 150 190 235 277 331
#
# _framework density 19.044336999999999
#
# number of rings (size 3 to 8) (size 9 to 14) (size 15 to 20)
#    0.000    2.348    1.739    0.783    1.217    3.130 
#    0.000    3.478    0.000    0.000    0.000    6.087 
#    0.000    2.783    0.000    0.000    0.000    0.000 
#
# Total GULP energy -256109.030938 kJ/mol
# GULP energy per Si atom -5567.587629 kJ/mol
# Density = 1.900099 g / cm^3
# Si number density = 19.044337 Si / 1000 Ang^3
#
#
#
# Elastic Constant Matrix: (Units=GPa)
#
#
# Indices 1 2 3 4 5 6 
#
# 1 82.8955 9.2579 23.5986 0.0000 0.0000 0.0000
# 2 9.2579 108.8183 49.8162 0.0000 0.0000 0.0000
# 3 23.5986 49.8162 151.9333 0.0000 0.0000 0.0000
# 4 0.0000 0.0000 0.0000 10.7067 0.0000 0.0000
# 5 0.0000 0.0000 0.0000 0.0000 24.3538 0.0000
# 6 0.0000 0.0000 0.0000 0.0000 0.0000 8.9210
#
#
#
# Elastic Compliance Matrix: (Units=1/GPa)
#
#
# Indices 1 2 3 4 5 6 
#
# 1 0.012625 -0.000208 -0.001893 0.000000 0.000000 0.000000
# 2 -0.000208 0.010816 -0.003514 0.000000 0.000000 0.000000
# 3 -0.001893 -0.003514 0.008028 0.000000 0.000000 0.000000
# 4 0.000000 0.000000 0.000000 0.093399 0.000000 0.000000
# 5 0.000000 0.000000 0.000000 0.000000 0.041061 0.000000
# 6 0.000000 0.000000 0.000000 0.000000 0.000000 0.112095
#
#
# Mechanical properties :
#
#
# Convention : Reuss Voigt Hill
#
# Bulk Modulus (GPa) = 49.40652 56.55474 52.98063
# Shear Modulus (GPa) = 16.89180 26.19459 21.54319
#
# Velocity S-wave (km/s) = 2.98144 3.71273 3.36700
# Velocity P-wave (km/s) = 6.15233 6.93830 6.55710
#
# Compressibility (1/GPa) = 0.02024024
#
# Stress axis : x y z
#
# Youngs Moduli (GPa) = 79.20517 92.45522 124.56280
#
# Poissons Ratio (x) = 0.01919 0.23579
# Poissons Ratio (y) = 0.01644 0.43773
# Poissons Ratio (z) = 0.14993 0.32490
#
# Static dielectric constant tensor:
#      x y z
#    x 1.763240 0.000000 0.000000 
#    y 0.000000 1.653140 0.000000 
#    z 0.000000 0.000000 1.646340 
# 
# From -- ./inp_files/29479.got.cif
#   From: 2010.05.17/outbox.cif.g08.bks.cpg/sg47_15_cif.got.tgz:29479.got - 2010.06.03 20:15:42.
