data_PCOD9386163
_publ_section_title
;
Structure prediction by ZEFSAII (Michael W. Deem and Ramdas Pophale) SiO2 
 PCOD9386163
Probable space group: P M M M
;
_chemical_formula_sum "Si O2"
_cell_formula_units_Z 64
_cell_length_a 8.952251
_cell_length_b 14.822343
_cell_length_c 25.906598
_cell_angle_alpha 90.000000
_cell_angle_beta 90.000000
_cell_angle_gamma 90.000000
_cell_volume 3437.632886
_symmetry_space_group_name_H-M "P M M M"
_symmetry_group_IT_number 47
_symmetry_cell_setting 'orthorhombic'
loop_
_space_group_symop_operation_xyz
x,y,z
-x,-y,z
x,-y,-z
-x,y,-z
-x,-y,-z
x,y,-z
-x,y,z
x,-y,z
loop_
_atom_site_type_symbol
_atom_site_label
_atom_site_fract_x
_atom_site_fract_y
_atom_site_fract_z
Si Si1 0.177874 0.215293 0.940024
Si Si2 0.678308 0.600382 0.707904
Si Si3 0.821471 0.397742 0.594853
Si Si4 0.679959 0.791276 0.749028
Si Si5 0.679625 0.896029 0.851269
Si Si6 0.673551 0.599420 0.062694
Si Si7 0.821160 0.893704 0.348341
Si Si8 0.677612 0.783435 0.558495
O O1 0.249523 0.141152 0.903422
O O2 0.232813 0.313947 0.921549
O O3 0.000000 0.210945 0.937931
O O4 0.224355 0.204420 0.000000
O O5 0.500000 0.605387 0.696645
O O6 0.708194 0.500000 0.729208
O O7 0.766402 0.609437 0.654152
O O8 0.715484 0.685215 0.743658
O O9 0.785325 0.500000 0.577301
O O10 0.740945 0.317705 0.564836
O O11 0.000000 0.386402 0.592255
O O12 0.500000 0.800918 0.745160
O O13 0.727822 0.835125 0.802853
O O14 0.752979 0.843874 0.701348
O O15 0.500000 0.890057 0.855277
O O16 0.719568 0.000000 0.841880
O O17 0.500000 0.610894 0.077777
O O18 0.724410 0.500000 0.080351
O O19 0.677557 0.597594 0.000000
O O20 0.755330 0.845931 0.399047
O O21 0.000000 0.884045 0.348044
O O22 0.784170 0.000000 0.347345
O O23 0.705507 0.814787 0.500000
O O24 0.500000 0.782264 0.567687
#
# Coordination Sequence:
#
# PCOD9386163 Si02
#       8
#     8   8   8   8   8   8   8   8
#     4  10  21  36  55  81 114 152 192 236 288 345
#     4   9  17  31  55  86 117 149 184 221 269 333
#     4  10  20  34  55  84 117 152 189 231 281 337
#     4  10  20  37  62  88 115 148 186 231 280 334
#     4  10  22  39  58  82 112 148 193 243 290 337
#     4   8  14  27  50  79 109 143 184 227 270 322
#     4  11  24  40  60  86 113 145 187 235 290 348
#     4  11  24  40  58  82 113 151 195 241 286 336
#
# _framework density 18.617462
#
# number of rings (size 3 to 8) (size 9 to 14) (size 15 to 20)
#    0.000    2.125    1.250    2.250    0.000    5.750 
#    0.000    5.625    0.000    2.250    0.000    0.000 
#    0.000    0.000    0.000    0.000    0.000    0.000 
#
# Total GULP energy -357233.710499 kJ/mol
# GULP energy per Si atom -5581.776727 kJ/mol
# Density = 1.857509 g / cm^3
# Si number density = 18.617462 Si / 1000 Ang^3
#
#
#
# Elastic Constant Matrix: (Units=GPa)
#
#
# Indices 1 2 3 4 5 6 
#
# 1 28.8421 40.5642 32.5546 0.0000 0.0000 0.0000
# 2 40.5642 122.4447 64.6836 0.0000 0.0000 0.0000
# 3 32.5546 64.6836 88.8099 0.0000 0.0000 0.0000
# 4 0.0000 0.0000 0.0000 5.0923 0.0000 0.0000
# 5 0.0000 0.0000 0.0000 0.0000 -10.7102 0.0000
# 6 0.0000 0.0000 0.0000 0.0000 0.0000 22.9773
#
#
#
# Elastic Compliance Matrix: (Units=1/GPa)
#
#
# Indices 1 2 3 4 5 6 
#
# 1 0.076114 -0.017028 -0.015498 0.000000 0.000000 0.000000
# 2 -0.017028 0.017084 -0.006201 0.000000 0.000000 0.000000
# 3 -0.015498 -0.006201 0.021458 0.000000 0.000000 0.000000
# 4 0.000000 0.000000 0.000000 0.196376 0.000000 0.000000
# 5 0.000000 0.000000 0.000000 0.000000 -0.093369 0.000000
# 6 0.000000 0.000000 0.000000 0.000000 0.000000 0.043521
#
#
# Mechanical properties :
#
#
# Convention : Reuss Voigt Hill
#
# Bulk Modulus (GPa) = 26.88153 57.30017 42.09085
# Shear Modulus (GPa) = 14.24345 10.29150 12.26747
#
# Velocity S-wave (km/s) = 2.76897 2.35369 2.56973
# Velocity P-wave (km/s) = 4.96922 6.18312 5.60910
#
# Compressibility (1/GPa) = 0.03720026
#
# Stress axis : x y z
#
# Youngs Moduli (GPa) = 13.13824 58.53477 46.60359
#
# Poissons Ratio (x) = 0.99673 0.72228
# Poissons Ratio (y) = 0.22372 0.28899
# Poissons Ratio (z) = 0.20362 0.36297
#
# Static dielectric constant tensor:
#      x y z
#    x 1.619500 0.000000 0.000000 
#    y 0.000000 1.653260 0.000000 
#    z 0.000000 0.000000 1.625850 
# 
# From -- ./inp_files/32099.got.cif
#   From: 2010.05.17/outbox.cif.g08.bks.cpg/sg47_17_cif.got.tgz:32099.got - 2010.06.03 20:15:42.
