data_PCOD9386101
_publ_section_title
;
Structure prediction by ZEFSAII (Michael W. Deem and Ramdas Pophale) SiO2 
 PCOD9386101
Probable space group: P M M M
;
_chemical_formula_sum "Si O2"
_cell_formula_units_Z 52
_cell_length_a 7.613212
_cell_length_b 16.330943
_cell_length_c 20.085544
_cell_angle_alpha 90.000000
_cell_angle_beta 90.000000
_cell_angle_gamma 90.000000
_cell_volume 2497.254390
_symmetry_space_group_name_H-M "P M M M"
_symmetry_group_IT_number 47
_symmetry_cell_setting 'orthorhombic'
loop_
_space_group_symop_operation_xyz
x,y,z
-x,-y,z
x,-y,-z
-x,y,-z
-x,-y,-z
x,y,-z
-x,y,z
x,-y,z
loop_
_atom_site_type_symbol
_atom_site_label
_atom_site_fract_x
_atom_site_fract_y
_atom_site_fract_z
Si Si1 0.789296 0.909825 0.790702
Si Si2 0.785927 0.832805 0.073185
Si Si3 0.707004 0.320621 0.424957
Si Si4 0.288246 0.749946 0.707075
Si Si5 0.209559 0.500000 0.577516
Si Si6 0.212281 0.641201 0.073773
Si Si7 0.706379 0.588122 0.781272
O O1 0.722584 0.883631 0.863799
O O2 0.752550 0.835815 0.740834
O O3 0.000000 0.914430 0.795708
O O4 0.723969 0.000000 0.771419
O O5 0.737278 0.737135 0.080277
O O6 0.000000 0.834780 0.073569
O O7 0.729107 0.861430 0.000000
O O8 0.783215 0.317163 0.500000
O O9 0.500000 0.305268 0.431311
O O10 0.778122 0.260793 0.368444
O O11 0.726392 0.413038 0.396354
O O12 0.500000 0.744067 0.705720
O O13 0.220520 0.671851 0.749595
O O14 0.269390 0.500000 0.500000
O O15 0.000000 0.500000 0.579350
O O16 0.277833 0.595667 0.138925
O O17 0.000000 0.637034 0.074839
O O18 0.269183 0.612904 0.000000
O O19 0.500000 0.586350 0.764726
O O20 0.783153 0.500000 0.759901
#
# Coordination Sequence:
#
# PCOD9386101 Si02
#       7
#     8   8   8   8   4   8   8
#     4  10  20  34  55  81 106 133 168 211 258 312
#     4   8  14  27  48  73 100 128 161 205 253 300
#     4   9  18  33  54  77 102 138 181 217 252 300
#     4  10  21  36  55  76 103 137 170 212 261 307
#     4   9  17  29  47  77 113 141 168 205 252 303
#     4   9  17  31  51  71  94 129 173 218 256 292
#     4  10  21  34  48  70 101 136 172 209 253 304
#
# _framework density 20.822866999999999
#
# number of rings (size 3 to 8) (size 9 to 14) (size 15 to 20)
#    0.000    2.692    1.538    1.154    1.077    3.077 
#    0.000    3.077    0.000    0.923    0.000    4.308 
#    0.000    0.000    0.000    0.000    0.000    0.000 
#
# Total GULP energy -290136.532134 kJ/mol
# GULP energy per Si atom -5579.548695 kJ/mol
# Density = 2.077547 g / cm^3
# Si number density = 20.822867 Si / 1000 Ang^3
#
#
#
# Elastic Constant Matrix: (Units=GPa)
#
#
# Indices 1 2 3 4 5 6 
#
# 1 43.4392 5.1675 3.0295 0.0000 0.0000 0.0000
# 2 5.1675 154.0397 89.8603 0.0000 0.0000 0.0000
# 3 3.0295 89.8603 134.9437 0.0000 0.0000 0.0000
# 4 0.0000 0.0000 0.0000 16.2474 0.0000 0.0000
# 5 0.0000 0.0000 0.0000 0.0000 20.3407 0.0000
# 6 0.0000 0.0000 0.0000 0.0000 0.0000 17.7216
#
#
#
# Elastic Compliance Matrix: (Units=1/GPa)
#
#
# Indices 1 2 3 4 5 6 
#
# 1 0.023113 -0.000773 -0.000004 0.000000 0.000000 0.000000
# 2 -0.000773 0.010641 -0.007069 0.000000 0.000000 0.000000
# 3 -0.000004 -0.007069 0.012118 0.000000 0.000000 0.000000
# 4 0.000000 0.000000 0.000000 0.061548 0.000000 0.000000
# 5 0.000000 0.000000 0.000000 0.000000 0.049162 0.000000
# 6 0.000000 0.000000 0.000000 0.000000 0.000000 0.056428
#
#
# Mechanical properties :
#
#
# Convention : Reuss Voigt Hill
#
# Bulk Modulus (GPa) = 33.13428 58.72634 45.93031
# Shear Modulus (GPa) = 20.94122 26.48630 23.71376
#
# Velocity S-wave (km/s) = 3.17469 3.57035 3.37832
# Velocity P-wave (km/s) = 5.42081 6.72760 6.10925
#
# Compressibility (1/GPa) = 0.03018023
#
# Stress axis : x y z
#
# Youngs Moduli (GPa) = 43.26582 93.97213 82.52298
#
# Poissons Ratio (x) = 0.07263 0.00035
# Poissons Ratio (y) = 0.03344 0.58335
# Poissons Ratio (z) = 0.00018 0.66428
#
# Static dielectric constant tensor:
#      x y z
#    x 1.786560 0.000000 0.000000 
#    y 0.000000 1.751830 0.000000 
#    z 0.000000 0.000000 1.782320 
# 
# From -- ./inp_files/11079.got.cif
#   From: 2010.05.17/outbox.cif.g08.bks.cpg/sg47_6_cif.got.tgz:11079.got - 2010.06.03 20:15:42.
