data_PCOD9386850
_publ_section_title
;
Structure prediction by ZEFSAII (Michael W. Deem and Ramdas Pophale) SiO2 
 PCOD9386850
Probable space group: P M M M
;
_chemical_formula_sum "Si O2"
_cell_formula_units_Z 52
_cell_length_a 37.030855
_cell_length_b 7.991974
_cell_length_c 9.748851
_cell_angle_alpha 90.000000
_cell_angle_beta 90.000000
_cell_angle_gamma 90.000000
_cell_volume 2885.168850
_symmetry_space_group_name_H-M "P M M M"
_symmetry_group_IT_number 47
_symmetry_cell_setting 'orthorhombic'
loop_
_space_group_symop_operation_xyz
x,y,z
-x,-y,z
x,-y,-z
-x,y,-z
-x,-y,-z
x,y,-z
-x,y,z
x,-y,z
loop_
_atom_site_type_symbol
_atom_site_label
_atom_site_fract_x
_atom_site_fract_y
_atom_site_fract_z
Si Si1 0.458390 0.500000 0.167379
Si Si2 0.961035 0.298611 0.838721
Si Si3 0.738836 0.300660 0.656025
Si Si4 0.817914 0.201002 0.656542
Si Si5 0.672321 0.201152 0.844460
Si Si6 0.116871 0.799341 0.843187
Si Si7 0.591662 0.806982 0.167160
O O1 0.500000 0.500000 0.211354
O O2 0.437215 0.331915 0.210762
O O3 0.458070 0.500000 0.000000
O O4 0.960742 0.500000 0.833814
O O5 0.922819 0.237721 0.782472
O O6 0.000000 0.241753 0.781067
O O7 0.960917 0.248892 0.000000
O O8 0.734769 0.234441 0.500000
O O9 0.740163 0.500000 0.649994
O O10 0.777763 0.240323 0.709309
O O11 0.705158 0.250959 0.748493
O O12 0.820431 0.265492 0.500000
O O13 0.850232 0.265517 0.751433
O O14 0.821221 0.000000 0.650926
O O15 0.632270 0.248855 0.793382
O O16 0.671400 0.000000 0.851660
O O17 0.677308 0.265766 0.000000
O O18 0.120188 0.000000 0.850709
O O19 0.118563 0.733714 0.000000
O O20 0.584960 0.000000 0.211361
O O21 0.591796 0.810476 0.000000
#
# Coordination Sequence:
#
# PCOD9386850 Si02
#       7
#     4   8   8   8   8   8   8
#     4   9  16  24  38  62  91 129 169 199 239 293
#     4   8  14  25  41  62  88 115 140 169 212 264
#     4  10  21  34  48  70  97 123 156 198 240 285
#     4   9  18  33  49  62  84 121 154 180 222 277
#     4   9  18  32  50  71  94 125 163 199 241 290
#     4   9  17  28  44  67  89 109 141 186 225 257
#     4   8  15  27  41  61  91 124 160 202 244 290
#
# _framework density 18.023208
#
# number of rings (size 3 to 8) (size 9 to 14) (size 15 to 20)
#    0.000    3.154    0.000    1.846    1.077    3.077 
#    0.000    4.615    0.000    0.462    0.000    3.231 
#    0.000    1.231    0.000    3.385    0.000    3.385 
#
# Total GULP energy -289515.310734 kJ/mol
# GULP energy per Si atom -5567.602129 kJ/mol
# Density = 1.798219 g / cm^3
# Si number density = 18.023208 Si / 1000 Ang^3
#
#
#
# Elastic Constant Matrix: (Units=GPa)
#
#
# Indices 1 2 3 4 5 6 
#
# 1 208.1241 45.9799 56.5087 0.0000 0.0000 0.0000
# 2 45.9799 35.2521 13.9718 0.0000 0.0000 0.0000
# 3 56.5087 13.9718 28.3273 0.0000 0.0000 0.0000
# 4 0.0000 0.0000 0.0000 9.8430 0.0000 0.0000
# 5 0.0000 0.0000 0.0000 0.0000 -10.4223 0.0000
# 6 0.0000 0.0000 0.0000 0.0000 0.0000 34.3477
#
#
#
# Elastic Compliance Matrix: (Units=1/GPa)
#
#
# Indices 1 2 3 4 5 6 
#
# 1 0.011928 -0.007616 -0.020038 0.000000 0.000000 0.000000
# 2 -0.007616 0.040123 -0.004597 0.000000 0.000000 0.000000
# 3 -0.020038 -0.004597 0.077542 0.000000 0.000000 0.000000
# 4 0.000000 0.000000 0.000000 0.101595 0.000000 0.000000
# 5 0.000000 0.000000 0.000000 0.000000 -0.095948 0.000000
# 6 0.000000 0.000000 0.000000 0.000000 0.000000 0.029114
#
#
# Mechanical properties :
#
#
# Convention : Reuss Voigt Hill
#
# Bulk Modulus (GPa) = 15.36313 56.06934 35.71624
# Shear Modulus (GPa) = 19.95578 17.10320 18.52949
#
# Velocity S-wave (km/s) = 3.33111 3.08385 3.20986
# Velocity P-wave (km/s) = 4.83091 6.62248 5.79633
#
# Compressibility (1/GPa) = 0.06509091
#
# Stress axis : x y z
#
# Youngs Moduli (GPa) = 83.83571 24.92351 12.89617
#
# Poissons Ratio (x) = 0.18982 0.25842
# Poissons Ratio (y) = 0.63850 0.05928
# Poissons Ratio (z) = 1.67993 0.11457
#
# Static dielectric constant tensor:
#      x y z
#    x 1.638290 0.000000 0.000000 
#    y 0.000000 1.633280 0.000000 
#    z 0.000000 0.000000 1.624190 
# 
# From -- ./inp_files/20047.got.cif
#   From: 2010.05.17/outbox.cif.g08.bks.cpg/sg47_11_cif.got.tgz:20047.got - 2010.06.03 20:15:42.
