data_PCOD9386661
_publ_section_title
;
Structure prediction by ZEFSAII (Michael W. Deem and Ramdas Pophale) SiO2 
 PCOD9386661
Probable space group: P M M M
;
_chemical_formula_sum "Si O2"
_cell_formula_units_Z 44
_cell_length_a 7.814884
_cell_length_b 31.629982
_cell_length_c 9.352678
_cell_angle_alpha 90.000000
_cell_angle_beta 90.000000
_cell_angle_gamma 90.000000
_cell_volume 2311.838347
_symmetry_space_group_name_H-M "P M M M"
_symmetry_group_IT_number 47
_symmetry_cell_setting 'orthorhombic'
loop_
_space_group_symop_operation_xyz
x,y,z
-x,-y,z
x,-y,-z
-x,y,-z
-x,-y,-z
x,y,-z
-x,y,z
x,-y,z
loop_
_atom_site_type_symbol
_atom_site_label
_atom_site_fract_x
_atom_site_fract_y
_atom_site_fract_z
Si Si1 0.000000 0.550416 0.831060
Si Si2 0.801307 0.688991 0.326376
Si Si3 0.293519 0.136723 0.836394
Si Si4 0.704244 0.954512 0.173198
Si Si5 0.692868 0.596334 0.671174
Si Si6 0.205858 0.780147 0.662326
O O1 0.165704 0.570538 0.756062
O O2 0.000000 0.500000 0.812051
O O3 0.000000 0.559752 0.000000
O O4 0.798714 0.691828 0.500000
O O5 0.706598 0.645975 0.288117
O O6 0.733378 0.734727 0.276977
O O7 0.000000 0.683936 0.283036
O O8 0.500000 0.133953 0.839779
O O9 0.229958 0.091235 0.776725
O O10 0.247158 0.178230 0.749956
O O11 0.233122 0.140978 0.000000
O O12 0.500000 0.955467 0.202340
O O13 0.775417 0.000000 0.222821
O O14 0.721711 0.953638 0.000000
O O15 0.726771 0.593826 0.500000
O O16 0.500000 0.581300 0.697227
O O17 0.270193 0.785124 0.500000
O O18 0.000000 0.776097 0.656275
#
# Coordination Sequence:
#
# PCOD9386661 Si02
#       6
#     4   8   8   8   8   8
#     4  11  25  43  61  83 119 165 199 227 274 337
#     4   8  14  29  53  77 102 133 172 219 265 309
#     4   9  17  28  43  66  94 120 151 198 252 301
#     4   7  10  19  37  59  81 108 146 193 244 295
#     4  10  20  36  63  94 117 143 188 245 293 329
#     4   9  18  31  48  70  96 131 170 201 237 295
#
# _framework density 19.032473
#
# number of rings (size 3 to 8) (size 9 to 14) (size 15 to 20)
#    0.000    3.182    0.909    3.000    0.000    2.909 
#    0.000    4.545    0.000    1.091    0.000    6.364 
#    0.000    0.000    0.000    0.000    0.000    0.000 
#
# Total GULP energy -244989.458720 kJ/mol
# GULP energy per Si atom -5567.942244 kJ/mol
# Density = 1.898915 g / cm^3
# Si number density = 19.032473 Si / 1000 Ang^3
#
#
#
# Elastic Constant Matrix: (Units=GPa)
#
#
# Indices 1 2 3 4 5 6 
#
# 1 66.4970 57.5913 34.7280 0.0000 0.0000 0.0000
# 2 57.5913 163.7034 64.2929 0.0000 0.0000 0.0000
# 3 34.7280 64.2929 43.9320 0.0000 0.0000 0.0000
# 4 0.0000 0.0000 0.0000 29.0747 0.0000 0.0000
# 5 0.0000 0.0000 0.0000 0.0000 13.6103 0.0000
# 6 0.0000 0.0000 0.0000 0.0000 0.0000 21.3384
#
#
#
# Elastic Compliance Matrix: (Units=1/GPa)
#
#
# Indices 1 2 3 4 5 6 
#
# 1 0.026051 -0.002533 -0.016886 0.000000 0.000000 0.000000
# 2 -0.002533 0.014611 -0.019381 0.000000 0.000000 0.000000
# 3 -0.016886 -0.019381 0.064474 0.000000 0.000000 0.000000
# 4 0.000000 0.000000 0.000000 0.034394 0.000000 0.000000
# 5 0.000000 0.000000 0.000000 0.000000 0.073474 0.000000
# 6 0.000000 0.000000 0.000000 0.000000 0.000000 0.046864
#
#
# Mechanical properties :
#
#
# Convention : Reuss Voigt Hill
#
# Bulk Modulus (GPa) = 36.31580 65.26185 50.78882
# Shear Modulus (GPa) = 14.42389 20.63935 17.53162
#
# Velocity S-wave (km/s) = 2.75591 3.29664 3.03833
# Velocity P-wave (km/s) = 5.40824 6.98961 6.24915
#
# Compressibility (1/GPa) = 0.02753623
#
# Stress axis : x y z
#
# Youngs Moduli (GPa) = 38.38675 68.43999 15.51008
#
# Poissons Ratio (x) = 0.17334 0.26191
# Poissons Ratio (y) = 0.09723 0.30060
# Poissons Ratio (z) = 0.64821 1.32643
#
# Static dielectric constant tensor:
#      x y z
#    x 1.702210 0.000000 0.000000 
#    y 0.000000 1.715450 0.000000 
#    z 0.000000 0.000000 1.637470 
# 
# From -- ./inp_files/2213.got.cif
#   From: 2010.05.17/outbox.cif.g08.bks.cpg/sg47_2_cif.got.tgz:2213.got - 2010.06.03 20:15:42.
