data_PCOD9386573
_publ_section_title
;
Structure prediction by ZEFSAII (Michael W. Deem and Ramdas Pophale) SiO2 
 PCOD9386573
Probable space group: P M M M
;
_chemical_formula_sum "Si O2"
_cell_formula_units_Z 64
_cell_length_a 7.911053
_cell_length_b 15.340065
_cell_length_c 25.702170
_cell_angle_alpha 90.000000
_cell_angle_beta 90.000000
_cell_angle_gamma 90.000000
_cell_volume 3119.114271
_symmetry_space_group_name_H-M "P M M M"
_symmetry_group_IT_number 47
_symmetry_cell_setting 'orthorhombic'
loop_
_space_group_symop_operation_xyz
x,y,z
-x,-y,z
x,-y,-z
-x,y,-z
-x,-y,-z
x,y,-z
-x,y,z
x,-y,z
loop_
_atom_site_type_symbol
_atom_site_label
_atom_site_fract_x
_atom_site_fract_y
_atom_site_fract_z
Si Si1 0.298590 0.746936 0.365423
Si Si2 0.797957 0.599036 0.842156
Si Si3 0.202390 0.727505 0.753335
Si Si4 0.796180 0.100616 0.558457
Si Si5 0.201619 0.095837 0.921872
Si Si6 0.706372 0.597122 0.559326
Si Si7 0.796499 0.093047 0.797842
Si Si8 0.300999 0.708341 0.943628
O O1 0.500000 0.740480 0.362608
O O2 0.232763 0.727644 0.307912
O O3 0.257949 0.837572 0.394375
O O4 0.230635 0.671917 0.403398
O O5 0.730818 0.500000 0.847475
O O6 0.732729 0.650062 0.790709
O O7 0.769373 0.658751 0.893205
O O8 0.000000 0.591879 0.836572
O O9 0.274045 0.819767 0.773255
O O10 0.000000 0.728704 0.761497
O O11 0.738847 0.129625 0.500000
O O12 0.000000 0.100922 0.557603
O O13 0.741457 0.000000 0.565285
O O14 0.227079 0.096630 0.859702
O O15 0.275019 0.187050 0.940938
O O16 0.000000 0.098345 0.931959
O O17 0.263399 0.000000 0.940155
O O18 0.760367 0.611141 0.500000
O O19 0.500000 0.599192 0.559344
O O20 0.756868 0.500000 0.575706
O O21 0.000000 0.092489 0.789285
O O22 0.729933 0.000000 0.778299
O O23 0.500000 0.691336 0.943230
O O24 0.230762 0.678973 0.000000
#
# Coordination Sequence:
#
# PCOD9386573 Si02
#       8
#     8   8   8   8   8   8   8   8
#     4  11  22  33  51  83 117 146 182 229 279 331
#     4  10  22  42  66  87 108 142 193 248 295 341
#     4  10  20  36  56  79 110 147 184 225 278 337
#     4   9  19  37  59  81 109 151 199 240 284 340
#     4   9  17  33  59  87 113 146 190 233 271 319
#     4   8  15  30  51  73 100 137 178 217 261 317
#     4   8  14  28  53  79 100 130 175 222 266 313
#     4  11  24  39  57  85 122 157 186 226 285 351
#
# _framework density 20.518643999999998
#
# number of rings (size 3 to 8) (size 9 to 14) (size 15 to 20)
#    0.000    2.500    1.250    2.625    0.000    4.500 
#    0.000    4.375    0.000    1.125    0.000    4.375 
#    0.000    0.000    0.000    0.000    0.000    0.000 
#
# Total GULP energy -356857.111884 kJ/mol
# GULP energy per Si atom -5575.892373 kJ/mol
# Density = 2.047194 g / cm^3
# Si number density = 20.518644 Si / 1000 Ang^3
#
#
#
# Elastic Constant Matrix: (Units=GPa)
#
#
# Indices 1 2 3 4 5 6 
#
# 1 18.6242 6.6789 2.4644 0.0000 0.0000 0.0000
# 2 6.6789 154.4183 89.2145 0.0000 0.0000 0.0000
# 3 2.4644 89.2145 115.2178 0.0000 0.0000 0.0000
# 4 0.0000 0.0000 0.0000 82.1916 0.0000 0.0000
# 5 0.0000 0.0000 0.0000 0.0000 16.7221 0.0000
# 6 0.0000 0.0000 0.0000 0.0000 0.0000 1.9190
#
#
#
# Elastic Compliance Matrix: (Units=1/GPa)
#
#
# Indices 1 2 3 4 5 6 
#
# 1 0.054630 -0.003054 0.001196 0.000000 0.000000 0.000000
# 2 -0.003054 0.011889 -0.009140 0.000000 0.000000 0.000000
# 3 0.001196 -0.009140 0.015731 0.000000 0.000000 0.000000
# 4 0.000000 0.000000 0.000000 0.012167 0.000000 0.000000
# 5 0.000000 0.000000 0.000000 0.000000 0.059801 0.000000
# 6 0.000000 0.000000 0.000000 0.000000 0.000000 0.521117
#
#
# Mechanical properties :
#
#
# Convention : Reuss Voigt Hill
#
# Bulk Modulus (GPa) = 16.59636 53.88623 35.24130
# Shear Modulus (GPa) = 6.96945 32.82669 19.89807
#
# Velocity S-wave (km/s) = 1.84500 4.00415 3.11747
# Velocity P-wave (km/s) = 3.55594 6.90628 5.49279
#
# Compressibility (1/GPa) = 0.06025417
#
# Stress axis : x y z
#
# Youngs Moduli (GPa) = 18.30482 84.11290 63.56845
#
# Poissons Ratio (x) = 0.25688 -0.07605
# Poissons Ratio (y) = 0.05590 0.58104
# Poissons Ratio (z) = -0.02190 0.76882
#
# Static dielectric constant tensor:
#      x y z
#    x 1.738480 0.000000 0.000000 
#    y 0.000000 1.753920 0.000000 
#    z 0.000000 0.000000 1.740930 
# 
# From -- ./inp_files/32117.got.cif
#   From: 2010.05.17/outbox.cif.g08.bks.cpg/sg47_17_cif.got.tgz:32117.got - 2010.06.03 20:15:42.
