data_PCOD9386880
_publ_section_title
;
Structure prediction by ZEFSAII (Michael W. Deem and Ramdas Pophale) SiO2 
 PCOD9386880
Probable space group: P M M M
;
_chemical_formula_sum "Si O2"
_cell_formula_units_Z 36
_cell_length_a 7.948375
_cell_length_b 25.665820
_cell_length_c 9.625616
_cell_angle_alpha 90.000000
_cell_angle_beta 90.000000
_cell_angle_gamma 90.000000
_cell_volume 1963.640700
_symmetry_space_group_name_H-M "P M M M"
_symmetry_group_IT_number 47
_symmetry_cell_setting 'orthorhombic'
loop_
_space_group_symop_operation_xyz
x,y,z
-x,-y,z
x,-y,-z
-x,y,-z
-x,-y,-z
x,y,-z
-x,y,z
x,-y,z
loop_
_atom_site_type_symbol
_atom_site_label
_atom_site_fract_x
_atom_site_fract_y
_atom_site_fract_z
Si Si1 0.798046 0.843558 0.157103
Si Si2 0.312323 0.630347 0.669114
Si Si3 0.296959 0.941168 0.658504
Si Si4 0.795879 0.254054 0.661305
Si Si5 0.000000 0.560031 0.669806
O O1 0.759999 0.896768 0.237382
O O2 0.736750 0.793931 0.245166
O O3 0.000000 0.838574 0.150777
O O4 0.732121 0.844138 0.000000
O O5 0.308870 0.629885 0.500000
O O6 0.500000 0.615401 0.713514
O O7 0.272657 0.689973 0.708440
O O8 0.165636 0.591513 0.715377
O O9 0.240683 0.930044 0.500000
O O10 0.500000 0.941468 0.657518
O O11 0.241186 0.000000 0.694816
O O12 0.747556 0.245686 0.500000
O O13 0.000000 0.256818 0.665160
O O14 0.000000 0.500000 0.713820
O O15 0.000000 0.560347 0.500000
#
# Coordination Sequence:
#
# PCOD9386880 Si02
#       5
#     8   8   8   8   4
#     4  10  21  34  49  74 105 133 163 203 254 310
#     4   9  16  26  42  65  92 126 169 210 250 301
#     4   9  19  36  55  73  95 127 169 213 254 301
#     4   9  16  29  48  66  91 129 168 207 252 300
#     4   9  16  26  40  62  97 135 166 203 252 301
#
# _framework density 18.333292
#
# number of rings (size 3 to 8) (size 9 to 14) (size 15 to 20)
#    0.000    2.778    1.111    1.333    0.000    4.000 
#    0.000    7.778    0.000    0.000    0.000    0.000 
#    0.000    1.778    0.000    2.000    0.000    2.222 
#
# Total GULP energy -200750.997425 kJ/mol
# GULP energy per Si atom -5576.416595 kJ/mol
# Density = 1.829156 g / cm^3
# Si number density = 18.333292 Si / 1000 Ang^3
#
#
#
# Elastic Constant Matrix: (Units=GPa)
#
#
# Indices 1 2 3 4 5 6 
#
# 1 67.8281 59.2861 30.6675 0.0000 0.0000 0.0000
# 2 59.2861 177.4525 77.0878 0.0000 0.0000 0.0000
# 3 30.6675 77.0878 65.6177 0.0000 0.0000 0.0000
# 4 0.0000 0.0000 0.0000 -3.8860 0.0000 0.0000
# 5 0.0000 0.0000 0.0000 0.0000 10.5114 0.0000
# 6 0.0000 0.0000 0.0000 0.0000 0.0000 -47.4181
#
#
#
# Elastic Compliance Matrix: (Units=1/GPa)
#
#
# Indices 1 2 3 4 5 6 
#
# 1 0.021155 -0.005663 -0.003235 0.000000 0.000000 0.000000
# 2 -0.005663 0.013025 -0.012655 0.000000 0.000000 0.000000
# 3 -0.003235 -0.012655 0.031618 0.000000 0.000000 0.000000
# 4 0.000000 0.000000 0.000000 -0.257336 0.000000 0.000000
# 5 0.000000 0.000000 0.000000 0.000000 0.095135 0.000000
# 6 0.000000 0.000000 0.000000 0.000000 0.000000 -0.021089
#
#
# Mechanical properties :
#
#
# Convention : Reuss Voigt Hill
#
# Bulk Modulus (GPa) = 44.06462 71.66456 57.86459
# Shear Modulus (GPa) = -74.82486 1.43193 -36.69647
#
# Velocity S-wave (km/s) = -6.39549 0.88473 -4.47881
# Velocity P-wave (km/s) = 5.51805 6.34180 2.21015
#
# Compressibility (1/GPa) = 0.02269394
#
# Stress axis : x y z
#
# Youngs Moduli (GPa) = 47.26966 76.77781 31.62709
#
# Poissons Ratio (x) = 0.43477 0.10230
# Poissons Ratio (y) = 0.26767 0.40023
# Poissons Ratio (z) = 0.15290 0.97161
#
# Static dielectric constant tensor:
#      x y z
#    x 1.659990 0.000000 0.000000 
#    y 0.000000 1.609070 0.000000 
#    z 0.000000 0.000000 1.606900 
# 
# From -- ./inp_files/1442.got.cif
#   From: 2010.05.17/outbox.cif.g08.bks.cpg/sg47_1_cif.got.tgz:1442.got - 2010.06.03 20:15:42.
