data_PCOD9386081
_publ_section_title
;
Structure prediction by ZEFSAII (Michael W. Deem and Ramdas Pophale) SiO2 
 PCOD9386081
Probable space group: P M M M
;
_chemical_formula_sum "Si O2"
_cell_formula_units_Z 56
_cell_length_a 23.546964
_cell_length_b 8.804770
_cell_length_c 14.363663
_cell_angle_alpha 90.000000
_cell_angle_beta 90.000000
_cell_angle_gamma 90.000000
_cell_volume 2977.955082
_symmetry_space_group_name_H-M "P M M M"
_symmetry_group_IT_number 47
_symmetry_cell_setting 'orthorhombic'
loop_
_space_group_symop_operation_xyz
x,y,z
-x,-y,z
x,-y,-z
-x,y,-z
-x,-y,-z
x,y,-z
-x,y,z
x,-y,z
loop_
_atom_site_type_symbol
_atom_site_label
_atom_site_fract_x
_atom_site_fract_y
_atom_site_fract_z
Si Si1 0.613575 0.317719 0.715039
Si Si2 0.660157 0.181480 0.892087
Si Si3 0.500000 0.684984 0.606954
Si Si4 0.844530 0.681427 0.608253
Si Si5 0.000000 0.682409 0.109342
Si Si6 0.783624 0.677450 0.111452
Si Si7 0.278537 0.822893 0.388663
Si Si8 0.891492 0.180807 0.213480
O O1 0.615860 0.500000 0.716014
O O2 0.616908 0.254299 0.819447
O O3 0.556854 0.268533 0.660941
O O4 0.668715 0.253557 0.662290
O O5 0.722650 0.247577 0.869681
O O6 0.661193 0.000000 0.882328
O O7 0.648022 0.218838 0.000000
O O8 0.500000 0.500000 0.605188
O O9 0.500000 0.737388 0.500000
O O10 0.855720 0.720135 0.500000
O O11 0.846706 0.500000 0.618171
O O12 0.780866 0.739400 0.630682
O O13 0.886589 0.759148 0.681000
O O14 0.944564 0.747727 0.159717
O O15 0.000000 0.500000 0.115689
O O16 0.000000 0.723780 0.000000
O O17 0.782810 0.500000 0.138568
O O18 0.834268 0.762613 0.162687
O O19 0.792834 0.685573 0.000000
O O20 0.287633 0.814634 0.500000
O O21 0.273856 0.000000 0.361965
O O22 0.894802 0.000000 0.211696
#
# Coordination Sequence:
#
# PCOD9386081 Si02
#       8
#     8   8   4   8   4   8   8   8
#     4  11  21  35  57  81 108 144 186 232 279 330
#     4  10  21  37  56  80 112 147 183 227 279 334
#     4   9  20  38  58  81 108 140 181 227 274 327
#     4  10  21  38  60  85 114 150 192 235 278 329
#     4  11  25  45  66  87 114 149 191 236 276 323
#     4  10  20  35  57  85 116 150 189 232 277 329
#     4  10  20  34  54  83 118 151 184 227 280 336
#     4  12  24  38  59  86 118 153 188 231 283 337
#
# _framework density 18.804849000000001
#
# number of rings (size 3 to 8) (size 9 to 14) (size 15 to 20)
#    0.000    1.571    0.000    5.357    0.000    6.286 
#    0.000    2.143    0.000    6.857    0.000    0.000 
#    0.000    0.000    0.000    0.000    0.000    0.000 
#
# Total GULP energy -313145.919768 kJ/mol
# GULP energy per Si atom -5591.891424 kJ/mol
# Density = 1.876205 g / cm^3
# Si number density = 18.804849 Si / 1000 Ang^3
#
#
#
# Elastic Constant Matrix: (Units=GPa)
#
#
# Indices 1 2 3 4 5 6 
#
# 1 98.0126 51.0585 99.5701 0.0000 0.0000 0.0000
# 2 51.0585 103.1589 65.3651 0.0000 0.0000 0.0000
# 3 99.5701 65.3651 136.6973 0.0000 0.0000 0.0000
# 4 0.0000 0.0000 0.0000 31.0102 0.0000 0.0000
# 5 0.0000 0.0000 0.0000 0.0000 31.5328 0.0000
# 6 0.0000 0.0000 0.0000 0.0000 0.0000 503.1256
#
#
#
# Elastic Compliance Matrix: (Units=1/GPa)
#
#
# Indices 1 2 3 4 5 6 
#
# 1 0.039493 -0.001893 -0.027862 0.000000 0.000000 0.000000
# 2 -0.001893 0.013998 -0.005315 0.000000 0.000000 0.000000
# 3 -0.027862 -0.005315 0.030151 0.000000 0.000000 0.000000
# 4 0.000000 0.000000 0.000000 0.032247 0.000000 0.000000
# 5 0.000000 0.000000 0.000000 0.000000 0.031713 0.000000
# 6 0.000000 0.000000 0.000000 0.000000 0.000000 0.001988
#
#
# Mechanical properties :
#
#
# Convention : Reuss Voigt Hill
#
# Bulk Modulus (GPa) = 74.05251 85.53958 79.79605
# Shear Modulus (GPa) = 22.29840 121.25872 71.77856
#
# Velocity S-wave (km/s) = 3.44725 8.03882 6.18491
# Velocity P-wave (km/s) = 7.43705 11.47826 9.67109
#
# Compressibility (1/GPa) = 0.01350393
#
# Stress axis : x y z
#
# Youngs Moduli (GPa) = 25.32072 71.43683 33.16616
#
# Poissons Ratio (x) = 0.13524 0.92406
# Poissons Ratio (y) = 0.04793 0.17627
# Poissons Ratio (z) = 0.70548 0.37967
#
# Static dielectric constant tensor:
#      x y z
#    x 1.608790 0.000000 0.000000 
#    y 0.000000 1.627140 0.000000 
#    z 0.000000 0.000000 1.677380 
# 
# From -- ./inp_files/25161.got.cif
#   From: 2010.05.17/outbox.cif.g08.bks.cpg/sg47_13_cif.got.tgz:25161.got - 2010.06.03 20:15:42.
