data_PCOD9386617
_publ_section_title
;
Structure prediction by ZEFSAII (Michael W. Deem and Ramdas Pophale) SiO2 
 PCOD9386617
Probable space group: P M M M
;
_chemical_formula_sum "Si O2"
_cell_formula_units_Z 45
_cell_length_a 12.959434
_cell_length_b 17.254398
_cell_length_c 10.762478
_cell_angle_alpha 90.000000
_cell_angle_beta 90.000000
_cell_angle_gamma 90.000000
_cell_volume 2406.567916
_symmetry_space_group_name_H-M "P M M M"
_symmetry_group_IT_number 47
_symmetry_cell_setting 'orthorhombic'
loop_
_space_group_symop_operation_xyz
x,y,z
-x,-y,z
x,-y,-z
-x,y,-z
-x,-y,-z
x,y,-z
-x,y,z
x,-y,z
loop_
_atom_site_type_symbol
_atom_site_label
_atom_site_fract_x
_atom_site_fract_y
_atom_site_fract_z
Si Si1 0.500000 0.122430 0.268576
Si Si2 0.884048 0.349100 0.642510
Si Si3 0.500000 0.000000 0.500000
Si Si4 0.323624 0.588912 0.727399
Si Si5 0.618313 0.406856 0.000000
Si Si6 0.500000 0.704089 0.641598
Si Si7 0.719158 0.085528 0.851201
Si Si8 0.118868 0.218235 0.145336
O O1 0.500000 0.068845 0.391277
O O2 0.500000 0.215520 0.285263
O O3 0.394993 0.102355 0.197010
O O4 0.874768 0.319094 0.500000
O O5 0.788911 0.405491 0.668177
O O6 0.874131 0.284974 0.750917
O O7 0.000000 0.382601 0.653211
O O8 0.361629 0.500000 0.717759
O O9 0.324159 0.612457 0.873022
O O10 0.401564 0.649652 0.666851
O O11 0.610323 0.500000 0.000000
O O12 0.500000 0.376210 0.000000
O O13 0.500000 0.728159 0.500000
O O14 0.800605 0.151822 0.817982
O O15 0.751256 0.000000 0.806217
O O16 0.716581 0.084231 0.000000
O O17 0.000000 0.190027 0.147846
O O18 0.138559 0.242067 0.000000
#
# Coordination Sequence:
#
# PCOD9386617 Si02
#       8
#     4   8   1   8   4   4   8   8
#     4  12  23  42  58  85 117 155 201 241 292 360
#     4  10  22  40  60  85 119 161 205 253 302 355
#     4  12  24  44  66  76 120 176 200 234 300 354
#     4  11  23  40  61  88 121 159 201 252 312 365
#     4   9  18  38  61  83 117 157 196 240 302 374
#     4  12  25  38  58  87 120 153 200 256 301 366
#     4  10  20  36  59  86 116 149 189 242 300 359
#     4   9  19  37  60  87 118 155 200 249 303 361
#
# _framework density 18.698829
#
# number of rings (size 3 to 8) (size 9 to 14) (size 15 to 20)
#    0.000    1.689    2.222    2.133    1.244    3.200 
#    4.800    2.667    0.000    1.600    0.000    3.111 
#    0.000    0.000    0.000    0.000    0.000    0.000 
#
# Total GULP energy -250659.175901 kJ/mol
# GULP energy per Si atom -5570.203909 kJ/mol
# Density = 1.865627 g / cm^3
# Si number density = 18.698829 Si / 1000 Ang^3
#
#
#
# Elastic Constant Matrix: (Units=GPa)
#
#
# Indices 1 2 3 4 5 6 
#
# 1 88.1265 27.2753 18.7579 0.0000 0.0000 0.0000
# 2 27.2753 67.3162 1.1005 0.0000 0.0000 0.0000
# 3 18.7579 1.1005 48.3435 0.0000 0.0000 0.0000
# 4 0.0000 0.0000 0.0000 26.9667 0.0000 0.0000
# 5 0.0000 0.0000 0.0000 0.0000 14.8988 0.0000
# 6 0.0000 0.0000 0.0000 0.0000 0.0000 3.2329
#
#
#
# Elastic Compliance Matrix: (Units=1/GPa)
#
#
# Indices 1 2 3 4 5 6 
#
# 1 0.014258 -0.005689 -0.005403 0.000000 0.000000 0.000000
# 2 -0.005689 0.017131 0.001817 0.000000 0.000000 0.000000
# 3 -0.005403 0.001817 0.022740 0.000000 0.000000 0.000000
# 4 0.000000 0.000000 0.000000 0.037083 0.000000 0.000000
# 5 0.000000 0.000000 0.000000 0.000000 0.067120 0.000000
# 6 0.000000 0.000000 0.000000 0.000000 0.000000 0.309317
#
#
# Mechanical properties :
#
#
# Convention : Reuss Voigt Hill
#
# Bulk Modulus (GPa) = 28.10536 33.11708 30.61122
# Shear Modulus (GPa) = 10.03901 19.46318 14.75110
#
# Velocity S-wave (km/s) = 2.31958 3.22976 2.81174
# Velocity P-wave (km/s) = 4.71562 5.62652 5.19109
#
# Compressibility (1/GPa) = 0.03558041
#
# Stress axis : x y z
#
# Youngs Moduli (GPa) = 70.13608 58.37534 43.97481
#
# Poissons Ratio (x) = 0.33208 0.23759
# Poissons Ratio (y) = 0.39899 -0.07992
# Poissons Ratio (z) = 0.37893 -0.10609
#
# Static dielectric constant tensor:
#      x y z
#    x 1.643770 0.000000 0.000000 
#    y 0.000000 1.642790 0.000000 
#    z 0.000000 0.000000 1.655460 
# 
# From -- ./inp_files/16370.got.cif
#   From: 2010.05.17/outbox.cif.g08.bks.cpg/sg47_9_cif.got.tgz:16370.got - 2010.06.03 20:15:42.
