data_PCOD9386815
_publ_section_title
;
Structure prediction by ZEFSAII (Michael W. Deem and Ramdas Pophale) SiO2 
 PCOD9386815
Probable space group: P M M M
;
_chemical_formula_sum "Si O2"
_cell_formula_units_Z 44
_cell_length_a 15.178631
_cell_length_b 7.343236
_cell_length_c 17.953237
_cell_angle_alpha 90.000000
_cell_angle_beta 90.000000
_cell_angle_gamma 90.000000
_cell_volume 2001.072636
_symmetry_space_group_name_H-M "P M M M"
_symmetry_group_IT_number 47
_symmetry_cell_setting 'orthorhombic'
loop_
_space_group_symop_operation_xyz
x,y,z
-x,-y,z
x,-y,-z
-x,y,-z
-x,-y,-z
x,y,-z
-x,y,z
x,-y,z
loop_
_atom_site_type_symbol
_atom_site_label
_atom_site_fract_x
_atom_site_fract_y
_atom_site_fract_z
Si Si1 0.214413 0.719265 0.085003
Si Si2 0.402689 0.221364 0.412823
Si Si3 0.098218 0.214520 0.222840
Si Si4 0.216586 0.777568 0.356602
Si Si5 0.594451 0.717924 0.910219
Si Si6 0.898260 0.221515 0.500000
O O1 0.219528 0.500000 0.082127
O O2 0.136761 0.766796 0.140471
O O3 0.309970 0.785635 0.115123
O O4 0.201893 0.782513 0.000000
O O5 0.392319 0.271356 0.500000
O O6 0.500000 0.281243 0.387597
O O7 0.317051 0.283475 0.368171
O O8 0.402940 0.000000 0.411002
O O9 0.168688 0.286922 0.282011
O O10 0.000000 0.290894 0.230237
O O11 0.091703 0.000000 0.238934
O O12 0.156166 0.724101 0.426891
O O13 0.219358 0.000000 0.356453
O O14 0.500000 0.789364 0.882099
O O15 0.593141 0.500000 0.898193
O O16 0.595288 0.744900 0.000000
O O17 0.000000 0.281880 0.500000
O O18 0.900122 0.000000 0.500000
#
# Coordination Sequence:
#
# PCOD9386815 Si02
#       6
#     8   8   8   8   8   4
#     4   9  18  33  53  74  92 116 157 202 238 279
#     4   8  12  19  34  57  85 118 153 185 222 271
#     4  10  21  34  46  64  94 128 157 193 246 296
#     4   9  15  25  39  58  86 118 150 186 226 270
#     4   7  10  20  42  70  93 110 134 175 225 271
#     4   9  14  20  35  57  78 106 147 188 218 250
#
# _framework density 21.988206999999999
#
# number of rings (size 3 to 8) (size 9 to 14) (size 15 to 20)
#    0.000    3.364    0.909    2.727    0.000    3.273 
#    0.000    2.727    0.000    1.636    0.000    3.182 
#    0.000    2.182    0.000    2.000    0.000    1.818 
#
# Total GULP energy -245386.130709 kJ/mol
# GULP energy per Si atom -5576.957516 kJ/mol
# Density = 2.193816 g / cm^3
# Si number density = 21.988207 Si / 1000 Ang^3
#
#
#
# Elastic Constant Matrix: (Units=GPa)
#
#
# Indices 1 2 3 4 5 6 
#
# 1 240.2898 8.3714 83.9366 0.0000 0.0000 0.0000
# 2 8.3714 81.3697 -2.7377 0.0000 0.0000 0.0000
# 3 83.9366 -2.7377 85.0727 0.0000 0.0000 0.0000
# 4 0.0000 0.0000 0.0000 5.8591 0.0000 0.0000
# 5 0.0000 0.0000 0.0000 0.0000 7.1538 0.0000
# 6 0.0000 0.0000 0.0000 0.0000 0.0000 -6.3338
#
#
#
# Elastic Compliance Matrix: (Units=1/GPa)
#
#
# Indices 1 2 3 4 5 6 
#
# 1 0.006412 -0.000873 -0.006354 0.000000 0.000000 0.000000
# 2 -0.000873 0.012422 0.001262 0.000000 0.000000 0.000000
# 3 -0.006354 0.001262 0.018065 0.000000 0.000000 0.000000
# 4 0.000000 0.000000 0.000000 0.170675 0.000000 0.000000
# 5 0.000000 0.000000 0.000000 0.000000 0.139785 0.000000
# 6 0.000000 0.000000 0.000000 0.000000 0.000000 -0.157883
#
#
# Mechanical properties :
#
#
# Convention : Reuss Voigt Hill
#
# Bulk Modulus (GPa) = 40.05455 65.09697 52.57576
# Shear Modulus (GPa) = 23.84028 22.47996 23.16012
#
# Velocity S-wave (km/s) = 3.29634 3.20091 3.24898
# Velocity P-wave (km/s) = 5.72221 6.58261 6.16743
#
# Compressibility (1/GPa) = 0.02496595
#
# Stress axis : x y z
#
# Youngs Moduli (GPa) = 155.96587 80.50310 55.35710
#
# Poissons Ratio (x) = 0.07031 0.35175
# Poissons Ratio (y) = 0.13622 -0.06983
# Poissons Ratio (z) = 0.99103 -0.10155
#
# Static dielectric constant tensor:
#      x y z
#    x 1.830260 0.000000 0.000000 
#    y 0.000000 1.906190 0.000000 
#    z 0.000000 0.000000 1.762910 
# 
# From -- ./inp_files/23467.got.cif
#   From: 2010.05.17/outbox.cif.g08.bks.cpg/sg47_12_cif.got.tgz:23467.got - 2010.06.03 20:15:42.
