data_PCOD9386664
_publ_section_title
;
Structure prediction by ZEFSAII (Michael W. Deem and Ramdas Pophale) SiO2 
 PCOD9386664
Probable space group: P M M M
;
_chemical_formula_sum "Si O2"
_cell_formula_units_Z 48
_cell_length_a 19.130742
_cell_length_b 16.795398
_cell_length_c 7.974892
_cell_angle_alpha 90.000000
_cell_angle_beta 90.000000
_cell_angle_gamma 90.000000
_cell_volume 2562.399995
_symmetry_space_group_name_H-M "P M M M"
_symmetry_group_IT_number 47
_symmetry_cell_setting 'orthorhombic'
loop_
_space_group_symop_operation_xyz
x,y,z
-x,-y,z
x,-y,-z
-x,y,-z
-x,-y,-z
x,y,-z
-x,y,z
x,-y,z
loop_
_atom_site_type_symbol
_atom_site_label
_atom_site_fract_x
_atom_site_fract_y
_atom_site_fract_z
Si Si1 0.079716 0.760890 0.800215
Si Si2 0.584267 0.412616 0.000000
Si Si3 0.582957 0.297225 0.699442
Si Si4 0.918181 0.412701 0.701845
Si Si5 0.579327 0.000000 0.201281
Si Si6 0.326563 0.853436 0.300928
Si Si7 0.824347 0.091136 0.297909
O O1 0.111164 0.673605 0.754743
O O2 0.121022 0.839114 0.742516
O O3 0.000000 0.763382 0.732264
O O4 0.076746 0.763721 0.000000
O O5 0.600504 0.367565 0.827416
O O6 0.615383 0.500000 0.000000
O O7 0.500000 0.417790 0.000000
O O8 0.592092 0.314294 0.500000
O O9 0.500000 0.276445 0.720851
O O10 0.634252 0.226197 0.753565
O O11 0.916686 0.413470 0.500000
O O12 0.889748 0.500000 0.758070
O O13 0.000000 0.411570 0.755619
O O14 0.620311 0.924017 0.265447
O O15 0.500000 0.000000 0.261317
O O16 0.579578 0.000000 0.000000
O O17 0.317329 0.844939 0.500000
O O18 0.250996 0.878419 0.231521
O O19 0.820431 0.086064 0.500000
O O20 0.838938 0.000000 0.238487
#
# Coordination Sequence:
#
# PCOD9386664 Si02
#       7
#     8   4   8   8   4   8   8
#     4  10  21  35  52  78 110 142 177 220 272 326
#     4   9  18  32  52  79 111 145 182 230 279 325
#     4   9  18  32  53  81 111 144 181 224 275 327
#     4   8  14  27  50  79 107 134 167 210 260 314
#     4  11  23  33  49  81 114 145 178 215 261 318
#     4  10  20  37  56  76 105 141 181 225 271 321
#     4  10  21  38  57  76 101 137 185 231 271 322
#
# _framework density 18.732438999999999
#
# number of rings (size 3 to 8) (size 9 to 14) (size 15 to 20)
#    0.000    2.500    0.833    1.750    1.167    4.333 
#    0.000    5.000    0.000    1.000    0.000    2.333 
#    0.000    0.000    0.000    0.000    0.000    0.000 
#
# Total GULP energy -267290.182411 kJ/mol
# GULP energy per Si atom -5568.545467 kJ/mol
# Density = 1.868980 g / cm^3
# Si number density = 18.732439 Si / 1000 Ang^3
#
#
#
# Elastic Constant Matrix: (Units=GPa)
#
#
# Indices 1 2 3 4 5 6 
#
# 1 67.8346 65.8161 5.8585 0.0000 0.0000 0.0000
# 2 65.8161 210.6951 39.8812 0.0000 0.0000 0.0000
# 3 5.8585 39.8812 23.9322 0.0000 0.0000 0.0000
# 4 0.0000 0.0000 0.0000 -16.3834 0.0000 0.0000
# 5 0.0000 0.0000 0.0000 0.0000 15.7808 0.0000
# 6 0.0000 0.0000 0.0000 0.0000 0.0000 46.0218
#
#
#
# Elastic Compliance Matrix: (Units=1/GPa)
#
#
# Indices 1 2 3 4 5 6 
#
# 1 0.022413 -0.008710 0.009028 0.000000 0.000000 0.000000
# 2 -0.008710 0.010318 -0.015062 0.000000 0.000000 0.000000
# 3 0.009028 -0.015062 0.064674 0.000000 0.000000 0.000000
# 4 0.000000 0.000000 0.000000 -0.061037 0.000000 0.000000
# 5 0.000000 0.000000 0.000000 0.000000 0.063368 0.000000
# 6 0.000000 0.000000 0.000000 0.000000 0.000000 0.021729
#
#
# Mechanical properties :
#
#
# Convention : Reuss Voigt Hill
#
# Bulk Modulus (GPa) = 14.72377 58.39704 36.56041
# Shear Modulus (GPa) = 28.80318 21.81091 25.30704
#
# Velocity S-wave (km/s) = 3.92549 3.41594 3.67955
# Velocity P-wave (km/s) = 5.33133 6.84107 6.13283
#
# Compressibility (1/GPa) = 0.06791739
#
# Stress axis : x y z
#
# Youngs Moduli (GPa) = 44.61689 96.91761 15.46212
#
# Poissons Ratio (x) = 0.84417 -0.13960
# Poissons Ratio (y) = 0.38862 0.23289
# Poissons Ratio (z) = -0.40281 1.45977
#
# Static dielectric constant tensor:
#      x y z
#    x 1.654460 0.000000 0.000000 
#    y 0.000000 1.689300 0.000000 
#    z 0.000000 0.000000 1.653150 
# 
# From -- ./inp_files/9191.got.cif
#   From: 2010.05.17/outbox.cif.g08.bks.cpg/sg47_5_cif.got.tgz:9191.got - 2010.06.03 20:15:42.
