data_PCOD9386173
_publ_section_title
;
Structure prediction by ZEFSAII (Michael W. Deem and Ramdas Pophale) SiO2 
 PCOD9386173
Probable space group: P M M M
;
_chemical_formula_sum "Si O2"
_cell_formula_units_Z 48
_cell_length_a 30.028951
_cell_length_b 9.948911
_cell_length_c 8.710002
_cell_angle_alpha 90.000000
_cell_angle_beta 90.000000
_cell_angle_gamma 90.000000
_cell_volume 2602.159791
_symmetry_space_group_name_H-M "P M M M"
_symmetry_group_IT_number 47
_symmetry_cell_setting 'orthorhombic'
loop_
_space_group_symop_operation_xyz
x,y,z
-x,-y,z
x,-y,-z
-x,y,-z
-x,-y,-z
x,y,-z
-x,y,z
x,-y,z
loop_
_atom_site_type_symbol
_atom_site_label
_atom_site_fract_x
_atom_site_fract_y
_atom_site_fract_z
Si Si1 0.450970 0.662771 0.321420
Si Si2 0.051515 0.000000 0.687006
Si Si3 0.357053 0.657682 0.817329
Si Si4 0.106215 0.739503 0.316702
Si Si5 0.201438 0.656938 0.184108
Si Si6 0.279729 0.842590 0.315788
Si Si7 0.052894 0.500000 0.177368
O O1 0.445386 0.702382 0.500000
O O2 0.500000 0.709762 0.268360
O O3 0.452347 0.500000 0.318588
O O4 0.407493 0.698995 0.225587
O O5 0.081032 0.873572 0.734037
O O6 0.049329 0.000000 0.500000
O O7 0.000000 0.000000 0.740987
O O8 0.350387 0.500000 0.768680
O O9 0.322907 0.759656 0.739135
O O10 0.350753 0.661487 0.000000
O O11 0.112880 0.743063 0.500000
O O12 0.153190 0.707372 0.238644
O O13 0.072276 0.625030 0.267429
O O14 0.207847 0.500000 0.232608
O O15 0.238160 0.757507 0.251617
O O16 0.204041 0.659526 0.000000
O O17 0.277956 0.841931 0.500000
O O18 0.279750 0.000000 0.265856
O O19 0.000000 0.500000 0.176732
O O20 0.068767 0.500000 0.000000
#
# Coordination Sequence:
#
# PCOD9386173 Si02
#       7
#     8   4   8   8   8   8   4
#     4   8  14  26  47  77 113 153 196 240 286 337
#     4   9  20  38  59  87 121 153 191 239 282 327
#     4  10  20  34  55  85 119 154 193 238 292 348
#     4  11  22  38  63  90 117 153 195 237 285 340
#     4  11  24  42  63  88 119 150 185 233 292 350
#     4  11  25  42  61  85 113 148 194 242 288 343
#     4  11  23  39  59  87 123 157 193 239 286 335
#
# _framework density 18.446216
#
# number of rings (size 3 to 8) (size 9 to 14) (size 15 to 20)
#    0.000    1.833    0.833    3.750    1.167    7.000 
#    0.000    2.917    0.000    3.500    0.000    3.500 
#    0.000    0.000    0.000    0.000    0.000    0.000 
#
# Total GULP energy -267841.576423 kJ/mol
# GULP energy per Si atom -5580.032842 kJ/mol
# Density = 1.840423 g / cm^3
# Si number density = 18.446216 Si / 1000 Ang^3
#
#
#
# Elastic Constant Matrix: (Units=GPa)
#
#
# Indices 1 2 3 4 5 6 
#
# 1 143.5263 84.5698 39.2535 0.0000 0.0000 0.0000
# 2 84.5698 159.9583 40.0932 0.0000 0.0000 0.0000
# 3 39.2535 40.0932 46.7244 0.0000 0.0000 0.0000
# 4 0.0000 0.0000 0.0000 9.7543 0.0000 0.0000
# 5 0.0000 0.0000 0.0000 0.0000 34.5111 0.0000
# 6 0.0000 0.0000 0.0000 0.0000 0.0000 20.8651
#
#
#
# Elastic Compliance Matrix: (Units=1/GPa)
#
#
# Indices 1 2 3 4 5 6 
#
# 1 0.011120 -0.004507 -0.005475 0.000000 0.000000 0.000000
# 2 -0.004507 0.009791 -0.004615 0.000000 0.000000 0.000000
# 3 -0.005475 -0.004615 0.029962 0.000000 0.000000 0.000000
# 4 0.000000 0.000000 0.000000 0.102519 0.000000 0.000000
# 5 0.000000 0.000000 0.000000 0.000000 0.028976 0.000000
# 6 0.000000 0.000000 0.000000 0.000000 0.000000 0.047927
#
#
# Mechanical properties :
#
#
# Convention : Reuss Voigt Hill
#
# Bulk Modulus (GPa) = 46.12747 75.33799 60.73273
# Shear Modulus (GPa) = 18.74649 25.44560 22.09605
#
# Velocity S-wave (km/s) = 3.19137 3.71812 3.46477
# Velocity P-wave (km/s) = 6.21615 7.70475 7.00013
#
# Compressibility (1/GPa) = 0.02167905
#
# Stress axis : x y z
#
# Youngs Moduli (GPa) = 89.92471 102.13114 33.37572
#
# Poissons Ratio (x) = 0.46031 0.18273
# Poissons Ratio (y) = 0.40530 0.15404
# Poissons Ratio (z) = 0.49233 0.47137
#
# Static dielectric constant tensor:
#      x y z
#    x 1.635860 0.000000 0.000000 
#    y 0.000000 1.627470 0.000000 
#    z 0.000000 0.000000 1.627150 
# 
# From -- ./inp_files/13854.got.cif
#   From: 2010.05.17/outbox.cif.g08.bks.cpg/sg47_7_cif.got.tgz:13854.got - 2010.06.03 20:15:42.
