data_PCOD9386359
_publ_section_title
;
Structure prediction by ZEFSAII (Michael W. Deem and Ramdas Pophale) SiO2 
 PCOD9386359
Probable space group: P M M M
;
_chemical_formula_sum "Si O2"
_cell_formula_units_Z 52
_cell_length_a 12.510799
_cell_length_b 26.075062
_cell_length_c 7.585647
_cell_angle_alpha 90.000000
_cell_angle_beta 90.000000
_cell_angle_gamma 90.000000
_cell_volume 2474.588699
_symmetry_space_group_name_H-M "P M M M"
_symmetry_group_IT_number 47
_symmetry_cell_setting 'orthorhombic'
loop_
_space_group_symop_operation_xyz
x,y,z
-x,-y,z
x,-y,-z
-x,y,-z
-x,-y,-z
x,y,-z
-x,y,z
x,-y,z
loop_
_atom_site_type_symbol
_atom_site_label
_atom_site_fract_x
_atom_site_fract_y
_atom_site_fract_z
Si Si1 0.763168 0.557543 0.203896
Si Si2 0.000000 0.438387 0.302607
Si Si3 0.711379 0.334182 0.212802
Si Si4 0.876866 0.057599 0.213220
Si Si5 0.877804 0.247999 0.289566
Si Si6 0.266540 0.153954 0.706607
Si Si7 0.500000 0.726547 0.214678
Si Si8 0.500000 0.843636 0.700241
O O1 0.750522 0.500000 0.281372
O O2 0.888755 0.572545 0.209574
O O3 0.708527 0.607655 0.283482
O O4 0.730523 0.553558 0.000000
O O5 0.000000 0.500000 0.316639
O O6 0.000000 0.416221 0.500000
O O7 0.816178 0.301366 0.259780
O O8 0.606741 0.303198 0.267852
O O9 0.709604 0.337431 0.000000
O O10 0.803308 0.102976 0.279804
O O11 0.000000 0.065832 0.267705
O O12 0.845111 0.000000 0.268515
O O13 0.874661 0.058754 0.000000
O O14 0.885192 0.240395 0.500000
O O15 0.801833 0.201927 0.219079
O O16 0.000000 0.247144 0.221126
O O17 0.284683 0.166200 0.500000
O O18 0.384676 0.143992 0.783823
O O19 0.500000 0.782131 0.298403
O O20 0.500000 0.731687 0.000000
O O21 0.500000 0.864916 0.500000
#
# Coordination Sequence:
#
# PCOD9386359 Si02
#       8
#     8   4   8   8   8   8   4   4
#     4   9  18  33  50  69  98 135 170 207 258 318
#     4   9  17  29  47  71  97 127 165 207 250 301
#     4  10  21  35  53  76 102 134 174 217 262 316
#     4   9  19  36  57  82 113 148 184 221 263 312
#     4  10  21  35  52  78 109 138 171 216 267 317
#     4  10  20  35  56  81 108 141 182 223 264 313
#     4  10  20  36  55  77 103 132 176 226 262 307
#     4  10  20  36  57  78 105 142 182 219 262 317
#
# _framework density 21.013594000000001
#
# number of rings (size 3 to 8) (size 9 to 14) (size 15 to 20)
#    0.000    2.385    1.538    1.154    1.077    4.308 
#    0.000    1.538    0.000    4.615    0.000    0.000 
#    0.000    4.308    0.000    0.000    0.000    0.000 
#
# Total GULP energy -290012.334065 kJ/mol
# GULP energy per Si atom -5577.160270 kJ/mol
# Density = 2.096577 g / cm^3
# Si number density = 21.013594 Si / 1000 Ang^3
#
#
#
# Elastic Constant Matrix: (Units=GPa)
#
#
# Indices 1 2 3 4 5 6 
#
# 1 113.0405 54.3682 0.9053 0.0000 0.0000 0.0000
# 2 54.3682 124.1025 -5.3279 0.0000 0.0000 0.0000
# 3 0.9053 -5.3279 49.0162 0.0000 0.0000 0.0000
# 4 0.0000 0.0000 0.0000 23.0321 0.0000 0.0000
# 5 0.0000 0.0000 0.0000 0.0000 16.6315 0.0000
# 6 0.0000 0.0000 0.0000 0.0000 0.0000 52.0999
#
#
#
# Elastic Compliance Matrix: (Units=1/GPa)
#
#
# Indices 1 2 3 4 5 6 
#
# 1 0.011235 -0.004954 -0.000746 0.000000 0.000000 0.000000
# 2 -0.004954 0.010280 0.001209 0.000000 0.000000 0.000000
# 3 -0.000746 0.001209 0.020547 0.000000 0.000000 0.000000
# 4 0.000000 0.000000 0.000000 0.043418 0.000000 0.000000
# 5 0.000000 0.000000 0.000000 0.000000 0.060127 0.000000
# 6 0.000000 0.000000 0.000000 0.000000 0.000000 0.019194
#
#
# Mechanical properties :
#
#
# Convention : Reuss Voigt Hill
#
# Bulk Modulus (GPa) = 30.23016 42.89448 36.56232
# Shear Modulus (GPa) = 27.05498 34.10027 30.57763
#
# Velocity S-wave (km/s) = 3.59207 4.03273 3.81876
# Velocity P-wave (km/s) = 5.62327 6.49161 6.07298
#
# Compressibility (1/GPa) = 0.03307955
#
# Stress axis : x y z
#
# Youngs Moduli (GPa) = 89.00721 97.27570 48.66984
#
# Poissons Ratio (x) = 0.48190 0.03631
# Poissons Ratio (y) = 0.44094 -0.05884
# Poissons Ratio (z) = 0.06640 -0.11760
#
# Static dielectric constant tensor:
#      x y z
#    x 1.764290 0.000000 0.000000 
#    y 0.000000 1.740610 0.000000 
#    z 0.000000 0.000000 1.797680 
# 
# From -- ./inp_files/4661.got.cif
#   From: 2010.05.17/outbox.cif.g08.bks.cpg/sg47_3_cif.got.tgz:4661.got - 2010.06.03 20:15:42.
