data_PCOD9386277
_publ_section_title
;
Structure prediction by ZEFSAII (Michael W. Deem and Ramdas Pophale) SiO2 
 PCOD9386277
Probable space group: P M M M
;
_chemical_formula_sum "Si O2"
_cell_formula_units_Z 38
_cell_length_a 15.752617
_cell_length_b 12.957252
_cell_length_c 11.459366
_cell_angle_alpha 90.000000
_cell_angle_beta 90.000000
_cell_angle_gamma 90.000000
_cell_volume 2338.978392
_symmetry_space_group_name_H-M "P M M M"
_symmetry_group_IT_number 47
_symmetry_cell_setting 'orthorhombic'
loop_
_space_group_symop_operation_xyz
x,y,z
-x,-y,z
x,-y,-z
-x,y,-z
-x,-y,-z
x,y,-z
-x,y,z
x,-y,z
loop_
_atom_site_type_symbol
_atom_site_label
_atom_site_fract_x
_atom_site_fract_y
_atom_site_fract_z
Si Si1 0.593249 0.123345 0.367240
Si Si2 0.000000 0.385541 0.206705
Si Si3 0.168026 0.384184 0.638049
Si Si4 0.897618 0.000000 0.641369
Si Si5 0.818017 0.877059 0.000000
Si Si6 0.770586 0.824253 0.257138
Si Si7 0.000000 0.220007 0.000000
O O1 0.606729 0.162252 0.500000
O O2 0.500000 0.160828 0.326336
O O3 0.676028 0.143096 0.291706
O O4 0.587697 0.000000 0.374591
O O5 0.919317 0.379429 0.290641
O O6 0.000000 0.500000 0.150653
O O7 0.000000 0.295091 0.112324
O O8 0.153773 0.370297 0.500000
O O9 0.204061 0.500000 0.654873
O O10 0.219443 0.289109 0.689298
O O11 0.843894 0.901242 0.689926
O O12 0.893185 0.000000 0.500000
O O13 0.000000 0.000000 0.672424
O O14 0.781361 0.829386 0.881591
O O15 0.917402 0.850541 0.000000
O O16 0.804323 0.000000 0.000000
#
# Coordination Sequence:
#
# PCOD9386277 Si02
#       7
#     8   4   8   4   4   8   2
#     4   9  17  32  57  86 111 137 175 228 288 343
#     4  10  20  35  54  76 101 138 192 241 274 320
#     4  10  21  36  55  79 108 142 183 235 288 332
#     4  11  24  35  52  80 109 143 183 228 279 335
#     4  12  25  37  52  74 110 154 193 226 270 323
#     4  12  22  38  56  78 113 149 188 226 277 332
#     4  12  22  38  52  70 106 156 196 228 266 318
#
# _framework density 16.246409
#
# number of rings (size 3 to 8) (size 9 to 14) (size 15 to 20)
#    0.000    1.368    4.211    3.158    2.947    1.263 
#    0.000    1.053    0.000    2.526    0.000    2.947 
#    0.000    1.684    0.000    0.000    0.000    0.000 
#
# Total GULP energy -211828.433156 kJ/mol
# GULP energy per Si atom -5574.432451 kJ/mol
# Density = 1.620943 g / cm^3
# Si number density = 16.246409 Si / 1000 Ang^3
#
#
#
# Elastic Constant Matrix: (Units=GPa)
#
#
# Indices 1 2 3 4 5 6 
#
# 1 122.8641 16.9780 46.0954 0.0000 0.0000 0.0000
# 2 16.9780 78.0012 34.6516 0.0000 0.0000 0.0000
# 3 46.0954 34.6516 109.8439 0.0000 0.0000 0.0000
# 4 0.0000 0.0000 0.0000 44.3962 0.0000 0.0000
# 5 0.0000 0.0000 0.0000 0.0000 39.1964 0.0000
# 6 0.0000 0.0000 0.0000 0.0000 0.0000 15.5415
#
#
#
# Elastic Compliance Matrix: (Units=1/GPa)
#
#
# Indices 1 2 3 4 5 6 
#
# 1 0.009668 -0.000351 -0.003946 0.000000 0.000000 0.000000
# 2 -0.000351 0.014923 -0.004560 0.000000 0.000000 0.000000
# 3 -0.003946 -0.004560 0.012198 0.000000 0.000000 0.000000
# 4 0.000000 0.000000 0.000000 0.022524 0.000000 0.000000
# 5 0.000000 0.000000 0.000000 0.000000 0.025513 0.000000
# 6 0.000000 0.000000 0.000000 0.000000 0.000000 0.064344
#
#
# Mechanical properties :
#
#
# Convention : Reuss Voigt Hill
#
# Bulk Modulus (GPa) = 52.42819 56.23992 54.33406
# Shear Modulus (GPa) = 28.86113 34.02577 31.44345
#
# Velocity S-wave (km/s) = 4.21938 4.58138 4.40410
# Velocity P-wave (km/s) = 7.48854 7.91690 7.70570
#
# Compressibility (1/GPa) = 0.01907371
#
# Stress axis : x y z
#
# Youngs Moduli (GPa) = 103.43185 67.01257 81.97756
#
# Poissons Ratio (x) = 0.02354 0.32352
# Poissons Ratio (y) = 0.03633 0.37383
# Poissons Ratio (z) = 0.40818 0.30558
#
# Static dielectric constant tensor:
#      x y z
#    x 1.546290 0.000000 0.000000 
#    y 0.000000 1.571260 0.000000 
#    z 0.000000 0.000000 1.539510 
# 
# From -- ./inp_files/17291.got.cif
#   From: 2010.05.17/outbox.cif.g08.bks.cpg/sg47_9_cif.got.tgz:17291.got - 2010.06.03 20:15:42.
