data_PCOD9386925
_publ_section_title
;
Structure prediction by ZEFSAII (Michael W. Deem and Ramdas Pophale) SiO2 
 PCOD9386925
Probable space group: P M M M
;
_chemical_formula_sum "Si O2"
_cell_formula_units_Z 29
_cell_length_a 7.970175
_cell_length_b 10.060303
_cell_length_c 18.579563
_cell_angle_alpha 90.000000
_cell_angle_beta 90.000000
_cell_angle_gamma 90.000000
_cell_volume 1489.753496
_symmetry_space_group_name_H-M "P M M M"
_symmetry_group_IT_number 47
_symmetry_cell_setting 'orthorhombic'
loop_
_space_group_symop_operation_xyz
x,y,z
-x,-y,z
x,-y,-z
-x,y,-z
-x,-y,-z
x,y,-z
-x,y,z
x,-y,z
loop_
_atom_site_type_symbol
_atom_site_label
_atom_site_fract_x
_atom_site_fract_y
_atom_site_fract_z
Si Si1 0.803332 0.350032 0.359016
Si Si2 0.798391 0.842171 0.922213
Si Si3 0.301934 0.846539 0.234672
Si Si4 0.000000 0.000000 0.500000
Si Si5 0.687612 0.211262 0.500000
O O1 0.753234 0.500000 0.338706
O O2 0.778708 0.247784 0.293708
O O3 0.704839 0.299182 0.428336
O O4 0.000000 0.351384 0.377758
O O5 0.727849 0.793923 0.846442
O O6 0.000000 0.829462 0.919743
O O7 0.758990 0.000000 0.923360
O O8 0.740779 0.787328 0.000000
O O9 0.500000 0.850437 0.248018
O O10 0.238010 0.000000 0.239174
O O11 0.151702 0.886300 0.500000
O O12 0.500000 0.150594 0.500000
#
# Coordination Sequence:
#
# PCOD9386925 Si02
#       5
#     8   8   8   1   4
#     4  11  24  43  64  87 120 162 207 253 305 364
#     4   8  14  27  48  75 108 148 191 236 293 359
#     4  10  21  34  53  85 119 153 196 247 303 361
#     4  12  26  48  66 102 136 160 194 264 308 354
#     4  12  26  44  70  97 126 167 207 248 305 365
#
# _framework density 19.466308000000001
#
# number of rings (size 3 to 8) (size 9 to 14) (size 15 to 20)
#    0.000    1.931    1.379    3.103    1.931    6.069 
#    0.000    2.759    0.000    0.828    0.000    5.793 
#    0.000    0.000    0.000    0.000    0.000    0.000 
#
# Total GULP energy -161476.147361 kJ/mol
# GULP energy per Si atom -5568.143012 kJ/mol
# Density = 1.942200 g / cm^3
# Si number density = 19.466308 Si / 1000 Ang^3
#
#
#
# Elastic Constant Matrix: (Units=GPa)
#
#
# Indices 1 2 3 4 5 6 
#
# 1 85.9692 26.6174 25.1888 0.0000 0.0000 0.0000
# 2 26.6174 90.4839 57.1831 0.0000 0.0000 0.0000
# 3 25.1888 57.1831 134.1164 0.0000 0.0000 0.0000
# 4 0.0000 0.0000 0.0000 -8.0351 0.0000 0.0000
# 5 0.0000 0.0000 0.0000 0.0000 57.6768 0.0000
# 6 0.0000 0.0000 0.0000 0.0000 0.0000 9.2158
#
#
#
# Elastic Compliance Matrix: (Units=1/GPa)
#
#
# Indices 1 2 3 4 5 6 
#
# 1 0.012916 -0.003102 -0.001103 0.000000 0.000000 0.000000
# 2 -0.003102 0.015873 -0.006185 0.000000 0.000000 0.000000
# 3 -0.001103 -0.006185 0.010301 0.000000 0.000000 0.000000
# 4 0.000000 0.000000 0.000000 -0.124454 0.000000 0.000000
# 5 0.000000 0.000000 0.000000 0.000000 0.017338 0.000000
# 6 0.000000 0.000000 0.000000 0.000000 0.000000 0.108509
#
#
# Mechanical properties :
#
#
# Convention : Reuss Voigt Hill
#
# Bulk Modulus (GPa) = 54.61959 58.72755 56.67357
# Shear Modulus (GPa) = 74.22147 25.21019 49.71583
#
# Velocity S-wave (km/s) = 6.18150 3.60261 5.05914
# Velocity P-wave (km/s) = 8.89198 6.89488 7.95634
#
# Compressibility (1/GPa) = 0.01830845
#
# Stress axis : x y z
#
# Youngs Moduli (GPa) = 77.42471 62.99955 97.08237
#
# Poissons Ratio (x) = 0.19544 0.10708
# Poissons Ratio (y) = 0.24020 0.60047
# Poissons Ratio (z) = 0.08540 0.38966
#
# Static dielectric constant tensor:
#      x y z
#    x 1.696730 0.000000 0.000000 
#    y 0.000000 1.665910 0.000000 
#    z 0.000000 0.000000 1.690480 
# 
# From -- ./inp_files/29074.got.cif
#   From: 2010.05.17/outbox.cif.g08.bks.cpg/sg47_15_cif.got.tgz:29074.got - 2010.06.03 20:15:42.
