data_PCOD9386162
_publ_section_title
;
Structure prediction by ZEFSAII (Michael W. Deem and Ramdas Pophale) SiO2 
 PCOD9386162
Probable space group: P M M M
;
_chemical_formula_sum "Si O2"
_cell_formula_units_Z 64
_cell_length_a 14.984544
_cell_length_b 7.733291
_cell_length_c 26.089219
_cell_angle_alpha 90.000000
_cell_angle_beta 90.000000
_cell_angle_gamma 90.000000
_cell_volume 3023.214504
_symmetry_space_group_name_H-M "P M M M"
_symmetry_group_IT_number 47
_symmetry_cell_setting 'orthorhombic'
loop_
_space_group_symop_operation_xyz
x,y,z
-x,-y,z
x,-y,-z
-x,y,-z
-x,-y,-z
x,y,-z
-x,y,z
x,-y,z
loop_
_atom_site_type_symbol
_atom_site_label
_atom_site_fract_x
_atom_site_fract_y
_atom_site_fract_z
Si Si1 0.402309 0.295961 0.579970
Si Si2 0.748702 0.298973 0.136716
Si Si3 0.598584 0.207910 0.299906
Si Si4 0.396565 0.711172 0.942280
Si Si5 0.796262 0.795950 0.444836
Si Si6 0.101138 0.205992 0.655453
Si Si7 0.780056 0.301843 0.248167
Si Si8 0.896369 0.791041 0.057625
O O1 0.500000 0.228085 0.563025
O O2 0.400861 0.500000 0.569076
O O3 0.398399 0.266522 0.641113
O O4 0.310798 0.220260 0.558957
O O5 0.725086 0.500000 0.146823
O O6 0.667483 0.224309 0.102900
O O7 0.774210 0.219757 0.191624
O O8 0.833393 0.289333 0.099757
O O9 0.500000 0.252225 0.279538
O O10 0.680031 0.289898 0.270045
O O11 0.608583 0.000000 0.299000
O O12 0.500000 0.758750 0.934667
O O13 0.392330 0.500000 0.942345
O O14 0.369521 0.766749 0.000000
O O15 0.825033 0.721559 0.500000
O O16 0.843105 0.723978 0.393548
O O17 0.816455 0.000000 0.445827
O O18 0.154974 0.229575 0.708204
O O19 0.000000 0.275033 0.657567
O O20 0.095055 0.000000 0.648400
O O21 0.808494 0.500000 0.242109
O O22 0.000000 0.745892 0.064881
O O23 0.889609 0.000000 0.060397
O O24 0.869947 0.738201 0.000000
#
# Coordination Sequence:
#
# PCOD9386162 Si02
#       8
#     8   8   8   8   8   8   8   8
#     4  10  20  34  55  84 117 152 186 221 268 325
#     4  10  21  34  52  81 112 143 183 229 274 324
#     4  10  20  35  57  82 109 145 188 230 271 322
#     4   8  14  27  49  76 106 141 180 222 268 316
#     4  10  21  37  59  87 116 146 184 232 282 336
#     4  10  22  41  63  83 106 143 189 234 286 345
#     4  11  23  37  55  82 115 150 187 230 281 335
#     4   9  19  36  56  78 106 141 180 224 278 336
#
# _framework density 21.169521
#
# number of rings (size 3 to 8) (size 9 to 14) (size 15 to 20)
#    0.000    2.250    1.250    2.250    0.000    5.500 
#    0.000    6.875    0.000    0.375    0.000    3.500 
#    0.000    0.000    0.000    0.000    0.000    0.000 
#
# Total GULP energy -357166.771408 kJ/mol
# GULP energy per Si atom -5580.730803 kJ/mol
# Density = 2.112134 g / cm^3
# Si number density = 21.169521 Si / 1000 Ang^3
#
#
#
# Elastic Constant Matrix: (Units=GPa)
#
#
# Indices 1 2 3 4 5 6 
#
# 1 124.0635 0.8205 92.7123 0.0000 0.0000 0.0000
# 2 0.8205 34.2414 4.4111 0.0000 0.0000 0.0000
# 3 92.7123 4.4111 180.9346 0.0000 0.0000 0.0000
# 4 0.0000 0.0000 0.0000 13.2826 0.0000 0.0000
# 5 0.0000 0.0000 0.0000 0.0000 0.0798 0.0000
# 6 0.0000 0.0000 0.0000 0.0000 0.0000 11.9347
#
#
#
# Elastic Compliance Matrix: (Units=1/GPa)
#
#
# Indices 1 2 3 4 5 6 
#
# 1 0.013073 0.000551 -0.006712 0.000000 0.000000 0.000000
# 2 0.000551 0.029320 -0.000997 0.000000 0.000000 0.000000
# 3 -0.006712 -0.000997 0.008990 0.000000 0.000000 0.000000
# 4 0.000000 0.000000 0.000000 0.075287 0.000000 0.000000
# 5 0.000000 0.000000 0.000000 0.000000 12.535118 0.000000
# 6 0.000000 0.000000 0.000000 0.000000 0.000000 0.083789
#
#
# Mechanical properties :
#
#
# Convention : Reuss Voigt Hill
#
# Bulk Modulus (GPa) = 26.97821 59.45859 43.21840
# Shear Modulus (GPa) = 0.39147 21.14579 10.76863
#
# Velocity S-wave (km/s) = 0.43049 3.16393 2.25785
# Velocity P-wave (km/s) = 3.60814 6.44167 5.22081
#
# Compressibility (1/GPa) = 0.03706695
#
# Stress axis : x y z
#
# Youngs Moduli (GPa) = 76.49628 34.10674 111.22969
#
# Poissons Ratio (x) = -0.01881 0.74656
# Poissons Ratio (y) = -0.04218 0.11093
# Poissons Ratio (z) = 0.51344 0.03402
#
# Static dielectric constant tensor:
#      x y z
#    x 1.745320 0.000000 0.000000 
#    y 0.000000 1.793290 0.000000 
#    z 0.000000 0.000000 1.789880 
# 
# From -- ./inp_files/12772.got.cif
#   From: 2010.05.17/outbox.cif.g08.bks.cpg/sg47_7_cif.got.tgz:12772.got - 2010.06.03 20:15:42.
