data_PCOD9386432
_publ_section_title
;
Structure prediction by ZEFSAII (Michael W. Deem and Ramdas Pophale) SiO2 
 PCOD9386432
Probable space group: P M M M
;
_chemical_formula_sum "Si O2"
_cell_formula_units_Z 64
_cell_length_a 16.068831
_cell_length_b 8.730824
_cell_length_c 23.609536
_cell_angle_alpha 90.000000
_cell_angle_beta 90.000000
_cell_angle_gamma 90.000000
_cell_volume 3312.279439
_symmetry_space_group_name_H-M "P M M M"
_symmetry_group_IT_number 47
_symmetry_cell_setting 'orthorhombic'
loop_
_space_group_symop_operation_xyz
x,y,z
-x,-y,z
x,-y,-z
-x,y,-z
-x,-y,-z
x,y,-z
-x,y,z
x,-y,z
loop_
_atom_site_type_symbol
_atom_site_label
_atom_site_fract_x
_atom_site_fract_y
_atom_site_fract_z
Si Si1 0.588301 0.683503 0.902939
Si Si2 0.594052 0.313652 0.653131
Si Si3 0.228818 0.314819 0.936922
Si Si4 0.822162 0.179836 0.821315
Si Si5 0.097917 0.668073 0.281326
Si Si6 0.267178 0.315870 0.563065
Si Si7 0.650865 0.317124 0.220606
Si Si8 0.903405 0.819163 0.602518
O O1 0.500000 0.746255 0.923772
O O2 0.587530 0.500000 0.912990
O O3 0.674855 0.737897 0.929460
O O4 0.594585 0.705340 0.835078
O O5 0.500000 0.262818 0.638200
O O6 0.593779 0.500000 0.650494
O O7 0.667785 0.260664 0.611157
O O8 0.613230 0.274844 0.718751
O O9 0.227798 0.500000 0.930786
O O10 0.179248 0.242649 0.885055
O O11 0.199770 0.276336 0.000000
O O12 0.884316 0.267107 0.780157
O O13 0.733412 0.222678 0.793287
O O14 0.836323 0.000000 0.820669
O O15 0.137956 0.500000 0.289520
O O16 0.120318 0.781031 0.332244
O O17 0.000000 0.651604 0.286813
O O18 0.297905 0.275956 0.500000
O O19 0.263738 0.500000 0.567600
O O20 0.172665 0.256575 0.569251
O O21 0.670481 0.500000 0.221828
O O22 0.000000 0.766144 0.591775
O O23 0.903111 0.000000 0.592890
#
# Coordination Sequence:
#
# PCOD9386432 Si02
#       8
#     8   8   8   8   8   8   8   8
#     4   8  13  22  40  68  96 119 153 208 265 309
#     4   9  17  30  51  77 102 133 178 232 281 317
#     4   9  18  32  49  69  95 131 175 218 257 299
#     4  11  21  32  50  75 105 139 171 208 253 302
#     4  10  20  35  57  83 109 134 160 196 247 308
#     4  10  21  35  52  77 109 146 187 228 268 313
#     4   9  16  28  48  72  97 128 170 217 264 314
#     4  10  21  37  58  84 112 140 171 212 265 323
#
# _framework density 19.322040999999999
#
# number of rings (size 3 to 8) (size 9 to 14) (size 15 to 20)
#    0.000    2.500    0.000    3.750    0.000    5.250 
#    0.000    3.750    0.000   10.875    0.000    7.000 
#    0.000    0.000    0.000    0.000    0.000    0.000 
#
# Total GULP energy -356653.540425 kJ/mol
# GULP energy per Si atom -5572.711569 kJ/mol
# Density = 1.927806 g / cm^3
# Si number density = 19.322041 Si / 1000 Ang^3
#
#
#
# Elastic Constant Matrix: (Units=GPa)
#
#
# Indices 1 2 3 4 5 6 
#
# 1 40.5581 5.2654 22.6191 0.0000 0.0000 0.0000
# 2 5.2654 14.4957 6.0521 0.0000 0.0000 0.0000
# 3 22.6191 6.0521 79.4775 0.0000 0.0000 0.0000
# 4 0.0000 0.0000 0.0000 8.8472 0.0000 0.0000
# 5 0.0000 0.0000 0.0000 0.0000 22.7209 0.0000
# 6 0.0000 0.0000 0.0000 0.0000 0.0000 5.8808
#
#
#
# Elastic Compliance Matrix: (Units=1/GPa)
#
#
# Indices 1 2 3 4 5 6 
#
# 1 0.030097 -0.007598 -0.007987 0.000000 0.000000 0.000000
# 2 -0.007598 0.073169 -0.003410 0.000000 0.000000 0.000000
# 3 -0.007987 -0.003410 0.015115 0.000000 0.000000 0.000000
# 4 0.000000 0.000000 0.000000 0.113031 0.000000 0.000000
# 5 0.000000 0.000000 0.000000 0.000000 0.044012 0.000000
# 6 0.000000 0.000000 0.000000 0.000000 0.000000 0.170046
#
#
# Mechanical properties :
#
#
# Convention : Reuss Voigt Hill
#
# Bulk Modulus (GPa) = 12.43891 22.48939 17.46415
# Shear Modulus (GPa) = 9.79901 14.19608 11.99755
#
# Velocity S-wave (km/s) = 2.25442 2.71349 2.49454
# Velocity P-wave (km/s) = 3.63706 4.63486 4.16594
#
# Compressibility (1/GPa) = 0.08039292
#
# Stress axis : x y z
#
# Youngs Moduli (GPa) = 33.22634 13.66691 66.16012
#
# Poissons Ratio (x) = 0.10384 0.52841
# Poissons Ratio (y) = 0.25244 0.22557
# Poissons Ratio (z) = 0.26537 0.04660
#
# Static dielectric constant tensor:
#      x y z
#    x 1.781590 0.000000 0.000000 
#    y 0.000000 1.665890 0.000000 
#    z 0.000000 0.000000 1.684190 
# 
# From -- ./inp_files/31341.got.cif
#   From: 2010.05.17/outbox.cif.g08.bks.cpg/sg47_16_cif.got.tgz:31341.got - 2010.06.03 20:15:42.
