data_PCOD9386546
_publ_section_title
;
Structure prediction by ZEFSAII (Michael W. Deem and Ramdas Pophale) SiO2 
 PCOD9386546
Probable space group: P M M M
;
_chemical_formula_sum "Si O2"
_cell_formula_units_Z 38
_cell_length_a 17.818153
_cell_length_b 7.651521
_cell_length_c 12.578953
_cell_angle_alpha 90.000000
_cell_angle_beta 90.000000
_cell_angle_gamma 90.000000
_cell_volume 1714.963782
_symmetry_space_group_name_H-M "P M M M"
_symmetry_group_IT_number 47
_symmetry_cell_setting 'orthorhombic'
loop_
_space_group_symop_operation_xyz
x,y,z
-x,-y,z
x,-y,-z
-x,y,-z
-x,-y,-z
x,y,-z
-x,y,z
x,-y,z
loop_
_atom_site_type_symbol
_atom_site_label
_atom_site_fract_x
_atom_site_fract_y
_atom_site_fract_z
Si Si1 0.856914 0.793992 0.379989
Si Si2 0.000000 0.216551 0.240423
Si Si3 0.834574 0.715856 0.000000
Si Si4 0.258363 0.706623 0.794064
Si Si5 0.000000 0.751013 0.000000
Si Si6 0.409188 0.802672 0.500000
Si Si7 0.415847 0.210153 0.269412
O O1 0.853902 0.720780 0.500000
O O2 0.780564 0.773652 0.313413
O O3 0.926383 0.730812 0.307680
O O4 0.870711 0.000000 0.390295
O O5 0.000000 0.306576 0.125085
O O6 0.000000 0.000000 0.224715
O O7 0.788788 0.766447 0.895472
O O8 0.914009 0.810794 0.000000
O O9 0.846654 0.500000 0.000000
O O10 0.251723 0.500000 0.790672
O O11 0.345909 0.750971 0.804580
O O12 0.500000 0.817989 0.500000
O O13 0.393191 0.718554 0.613457
O O14 0.376552 0.000000 0.500000
O O15 0.500000 0.271299 0.240963
O O16 0.420548 0.000000 0.280227
#
# Coordination Sequence:
#
# PCOD9386546 Si02
#       7
#     8   4   4   8   2   4   8
#     4  10  21  38  59  84 119 159 192 229 288 354
#     4  10  20  35  58  89 116 146 193 245 291 336
#     4  10  23  41  60  81 111 157 198 234 286 347
#     4  11  23  39  58  84 117 151 196 244 288 339
#     4  12  18  38  64  82 112 150 200 246 282 334
#     4   7  12  26  51  79 107 140 179 220 265 329
#     4   9  18  35  58  84 114 151 193 234 285 346
#
# _framework density 22.157903000000001
#
# number of rings (size 3 to 8) (size 9 to 14) (size 15 to 20)
#    0.000    2.211    2.105    2.526    1.474    2.105 
#    0.000    3.158    0.000    6.316    0.000    0.000 
#    0.000    0.000    0.000    0.000    0.000    0.000 
#
# Total GULP energy -211781.339704 kJ/mol
# GULP energy per Si atom -5573.193150 kJ/mol
# Density = 2.210747 g / cm^3
# Si number density = 22.157903 Si / 1000 Ang^3
#
#
#
# Elastic Constant Matrix: (Units=GPa)
#
#
# Indices 1 2 3 4 5 6 
#
# 1 169.8550 1.5580 78.6986 0.0000 0.0000 0.0000
# 2 1.5580 49.2101 16.1687 0.0000 0.0000 0.0000
# 3 78.6986 16.1687 149.0798 0.0000 0.0000 0.0000
# 4 0.0000 0.0000 0.0000 5.6275 0.0000 0.0000
# 5 0.0000 0.0000 0.0000 0.0000 4.3026 0.0000
# 6 0.0000 0.0000 0.0000 0.0000 0.0000 104.8090
#
#
#
# Elastic Compliance Matrix: (Units=1/GPa)
#
#
# Indices 1 2 3 4 5 6 
#
# 1 0.007856 0.001155 -0.004273 0.000000 0.000000 0.000000
# 2 0.001155 0.021242 -0.002914 0.000000 0.000000 0.000000
# 3 -0.004273 -0.002914 0.009279 0.000000 0.000000 0.000000
# 4 0.000000 0.000000 0.000000 0.177699 0.000000 0.000000
# 5 0.000000 0.000000 0.000000 0.000000 0.232416 0.000000
# 6 0.000000 0.000000 0.000000 0.000000 0.000000 0.009541
#
#
# Mechanical properties :
#
#
# Convention : Reuss Voigt Hill
#
# Bulk Modulus (GPa) = 38.00080 62.33284 50.16682
# Shear Modulus (GPa) = 10.44131 41.06246 25.75189
#
# Velocity S-wave (km/s) = 2.17312 4.30952 3.41280
# Velocity P-wave (km/s) = 4.84601 7.27701 6.18218
#
# Compressibility (1/GPa) = 0.02631524
#
# Stress axis : x y z
#
# Youngs Moduli (GPa) = 127.28440 47.07712 107.76640
#
# Poissons Ratio (x) = -0.05438 0.46045
# Poissons Ratio (y) = -0.14703 0.31399
# Poissons Ratio (z) = 0.54384 0.13716
#
# Static dielectric constant tensor:
#      x y z
#    x 1.812150 0.000000 0.000000 
#    y 0.000000 1.900340 0.000000 
#    z 0.000000 0.000000 1.834880 
# 
# From -- ./inp_files/18257.got.cif
#   From: 2010.05.17/outbox.cif.g08.bks.cpg/sg47_10_cif.got.tgz:18257.got - 2010.06.03 20:15:42.
