data_PCOD9386273
_publ_section_title
;
Structure prediction by ZEFSAII (Michael W. Deem and Ramdas Pophale) SiO2 
 PCOD9386273
Probable space group: P M M M
;
_chemical_formula_sum "Si O2"
_cell_formula_units_Z 48
_cell_length_a 8.936206
_cell_length_b 21.537801
_cell_length_c 13.921118
_cell_angle_alpha 90.000000
_cell_angle_beta 90.000000
_cell_angle_gamma 90.000000
_cell_volume 2679.345050
_symmetry_space_group_name_H-M "P M M M"
_symmetry_group_IT_number 47
_symmetry_cell_setting 'orthorhombic'
loop_
_space_group_symop_operation_xyz
x,y,z
-x,-y,z
x,-y,-z
-x,y,-z
-x,-y,-z
x,y,-z
-x,y,z
x,-y,z
loop_
_atom_site_type_symbol
_atom_site_label
_atom_site_fract_x
_atom_site_fract_y
_atom_site_fract_z
Si Si1 0.177912 0.251504 0.792769
Si Si2 0.319013 0.797154 0.387711
Si Si3 0.323936 0.065867 0.383321
Si Si4 0.826166 0.000000 0.882423
Si Si5 0.674083 0.129572 0.883926
Si Si6 0.326396 0.371601 0.884067
Si Si7 0.172804 0.500000 0.883104
O O1 0.242288 0.249562 0.684824
O O2 0.242982 0.190210 0.844991
O O3 0.237187 0.312972 0.844462
O O4 0.000000 0.249333 0.793632
O O5 0.283989 0.787973 0.500000
O O6 0.500000 0.795576 0.378836
O O7 0.265259 0.866546 0.356520
O O8 0.319479 0.066118 0.500000
O O9 0.500000 0.064852 0.357680
O O10 0.255364 0.000000 0.351708
O O11 0.744741 0.063757 0.852214
O O12 0.000000 0.000000 0.854110
O O13 0.821645 0.000000 0.000000
O O14 0.500000 0.131988 0.855351
O O15 0.680942 0.130849 0.000000
O O16 0.500000 0.367601 0.855445
O O17 0.255538 0.437078 0.852555
O O18 0.320407 0.369880 0.000000
O O19 0.000000 0.500000 0.852884
O O20 0.174946 0.500000 0.000000
#
# Coordination Sequence:
#
# PCOD9386273 Si02
#       7
#     8   8   8   4   8   8   4
#     4  12  24  35  50  75 107 142 177 220 272 321
#     4   9  18  34  54  73  97 131 173 222 272 325
#     4   7  10  20  42  69  90 110 145 198 258 314
#     4   9  17  31  51  73  98 129 166 213 269 321
#     4  10  20  35  54  74  98 132 176 221 263 314
#     4  10  20  35  56  82 113 147 182 219 256 302
#     4   9  17  31  53  83 118 151 178 205 247 307
#
# _framework density 17.914825
#
# number of rings (size 3 to 8) (size 9 to 14) (size 15 to 20)
#    0.000    2.500    0.000    5.000    0.000    6.333 
#    1.500    0.000    0.000    0.000    0.000    2.917 
#    0.000    4.667    0.000    0.000    0.000    0.000 
#
# Total GULP energy -267906.468351 kJ/mol
# GULP energy per Si atom -5581.384757 kJ/mol
# Density = 1.787405 g / cm^3
# Si number density = 17.914825 Si / 1000 Ang^3
#
#
#
# Elastic Constant Matrix: (Units=GPa)
#
#
# Indices 1 2 3 4 5 6 
#
# 1 122.1993 71.0982 34.6628 0.0000 0.0000 0.0000
# 2 71.0982 139.3451 36.6964 0.0000 0.0000 0.0000
# 3 34.6628 36.6964 50.8285 0.0000 0.0000 0.0000
# 4 0.0000 0.0000 0.0000 15.7249 0.0000 0.0000
# 5 0.0000 0.0000 0.0000 0.0000 15.4546 0.0000
# 6 0.0000 0.0000 0.0000 0.0000 0.0000 27.5233
#
#
#
# Elastic Compliance Matrix: (Units=1/GPa)
#
#
# Indices 1 2 3 4 5 6 
#
# 1 0.012539 -0.005119 -0.004855 0.000000 0.000000 0.000000
# 2 -0.005119 0.010951 -0.004415 0.000000 0.000000 0.000000
# 3 -0.004855 -0.004415 0.026173 0.000000 0.000000 0.000000
# 4 0.000000 0.000000 0.000000 0.063593 0.000000 0.000000
# 5 0.000000 0.000000 0.000000 0.000000 0.064706 0.000000
# 6 0.000000 0.000000 0.000000 0.000000 0.000000 0.036333
#
#
# Mechanical properties :
#
#
# Convention : Reuss Voigt Hill
#
# Bulk Modulus (GPa) = 47.88459 66.36532 57.12495
# Shear Modulus (GPa) = 19.99719 23.06827 21.53273
#
# Velocity S-wave (km/s) = 3.34464 3.59230 3.47068
# Velocity P-wave (km/s) = 6.45775 7.37099 6.92943
#
# Compressibility (1/GPa) = 0.02088354
#
# Stress axis : x y z
#
# Youngs Moduli (GPa) = 79.75102 91.31454 38.20779
#
# Poissons Ratio (x) = 0.46746 0.18551
# Poissons Ratio (y) = 0.40826 0.16870
# Poissons Ratio (z) = 0.38721 0.40318
#
# Static dielectric constant tensor:
#      x y z
#    x 1.597430 0.000000 0.000000 
#    y 0.000000 1.604250 0.000000 
#    z 0.000000 0.000000 1.645130 
# 
# From -- ./inp_files/21050.got.cif
#   From: 2010.05.17/outbox.cif.g08.bks.cpg/sg47_11_cif.got.tgz:21050.got - 2010.06.03 20:15:42.
