data_PCOD9386612
_publ_section_title
;
Structure prediction by ZEFSAII (Michael W. Deem and Ramdas Pophale) SiO2 
 PCOD9386612
Probable space group: P M M M
;
_chemical_formula_sum "Si O2"
_cell_formula_units_Z 44
_cell_length_a 9.711295
_cell_length_b 7.832413
_cell_length_c 30.356086
_cell_angle_alpha 90.000000
_cell_angle_beta 90.000000
_cell_angle_gamma 90.000000
_cell_volume 2308.971120
_symmetry_space_group_name_H-M "P M M M"
_symmetry_group_IT_number 47
_symmetry_cell_setting 'orthorhombic'
loop_
_space_group_symop_operation_xyz
x,y,z
-x,-y,z
x,-y,-z
-x,y,-z
-x,-y,-z
x,y,-z
-x,y,z
x,-y,z
loop_
_atom_site_type_symbol
_atom_site_label
_atom_site_fract_x
_atom_site_fract_y
_atom_site_fract_z
Si Si1 0.657329 0.703522 0.272803
Si Si2 0.338938 0.000000 0.052817
Si Si3 0.840711 0.208519 0.549095
Si Si4 0.843531 0.799794 0.808847
Si Si5 0.164152 0.694003 0.905944
Si Si6 0.342546 0.205713 0.369845
O O1 0.500000 0.769608 0.270430
O O2 0.653772 0.500000 0.269351
O O3 0.746183 0.771062 0.232535
O O4 0.712120 0.749163 0.321363
O O5 0.257900 0.833892 0.070447
O O6 0.500000 0.000000 0.066849
O O7 0.335456 0.000000 0.000000
O O8 0.794615 0.261235 0.500000
O O9 0.747907 0.269145 0.589420
O O10 0.000000 0.259000 0.554603
O O11 0.838069 0.000000 0.549551
O O12 0.805055 0.703555 0.853617
O O13 0.000000 0.750263 0.797025
O O14 0.842662 0.000000 0.820283
O O15 0.186982 0.500000 0.921571
O O16 0.000000 0.733256 0.910787
O O17 0.500000 0.269313 0.372694
O O18 0.346198 0.000000 0.372543
#
# Coordination Sequence:
#
# PCOD9386612 Si02
#       6
#     8   4   8   8   8   8
#     4  10  21  35  50  72 105 143 180 219 267 325
#     4  11  25  43  63  91 129 169 207 253 306 359
#     4   8  14  25  42  65  91 117 150 199 258 316
#     4  10  20  36  59  85 113 145 184 232 283 336
#     4  10  21  40  66  93 123 161 206 255 304 357
#     4   9  17  29  45  66  93 125 163 208 256 310
#
# _framework density 19.056107999999998
#
# number of rings (size 3 to 8) (size 9 to 14) (size 15 to 20)
#    0.000    2.455    0.909    1.909    0.000    5.455 
#    0.000    5.455    0.000    0.545    0.000    3.818 
#    0.000    0.000    0.000    0.000    0.000    0.000 
#
# Total GULP energy -245502.758770 kJ/mol
# GULP energy per Si atom -5579.608154 kJ/mol
# Density = 1.901274 g / cm^3
# Si number density = 19.056108 Si / 1000 Ang^3
#
#
#
# Elastic Constant Matrix: (Units=GPa)
#
#
# Indices 1 2 3 4 5 6 
#
# 1 80.7301 39.5896 71.6768 0.0000 0.0000 0.0000
# 2 39.5896 73.3599 34.9797 0.0000 0.0000 0.0000
# 3 71.6768 34.9797 109.6074 0.0000 0.0000 0.0000
# 4 0.0000 0.0000 0.0000 -21.0310 0.0000 0.0000
# 5 0.0000 0.0000 0.0000 0.0000 40.3418 0.0000
# 6 0.0000 0.0000 0.0000 0.0000 0.0000 15.7362
#
#
#
# Elastic Compliance Matrix: (Units=1/GPa)
#
#
# Indices 1 2 3 4 5 6 
#
# 1 0.034053 -0.009152 -0.019348 0.000000 0.000000 0.000000
# 2 -0.009152 0.018537 0.000069 0.000000 0.000000 0.000000
# 3 -0.019348 0.000069 0.021754 0.000000 0.000000 0.000000
# 4 0.000000 0.000000 0.000000 -0.047549 0.000000 0.000000
# 5 0.000000 0.000000 0.000000 0.000000 0.024788 0.000000
# 6 0.000000 0.000000 0.000000 0.000000 0.000000 0.063548
#
#
# Mechanical properties :
#
#
# Convention : Reuss Voigt Hill
#
# Bulk Modulus (GPa) = 57.19998 61.79885 59.49941
# Shear Modulus (GPa) = 28.11794 14.83947 21.47870
#
# Velocity S-wave (km/s) = 3.84544 2.79359 3.36092
# Velocity P-wave (km/s) = 7.05679 6.55026 6.80824
#
# Compressibility (1/GPa) = 0.01748252
#
# Stress axis : x y z
#
# Youngs Moduli (GPa) = 29.36565 53.94471 45.96807
#
# Poissons Ratio (x) = 0.49368 0.88940
# Poissons Ratio (y) = 0.26874 -0.00316
# Poissons Ratio (z) = 0.56818 -0.00370
#
# Static dielectric constant tensor:
#      x y z
#    x 1.655850 0.000000 0.000000 
#    y 0.000000 1.698630 0.000000 
#    z 0.000000 0.000000 1.642770 
# 
# From -- ./inp_files/13646.got.cif
#   From: 2010.05.17/outbox.cif.g08.bks.cpg/sg47_7_cif.got.tgz:13646.got - 2010.06.03 20:15:42.
