data_PCOD9386861
_publ_section_title
;
Structure prediction by ZEFSAII (Michael W. Deem and Ramdas Pophale) SiO2 
 PCOD9386861
Probable space group: P M M M
;
_chemical_formula_sum "Si O2"
_cell_formula_units_Z 52
_cell_length_a 9.635038
_cell_length_b 21.068203
_cell_length_c 14.990955
_cell_angle_alpha 90.000000
_cell_angle_beta 90.000000
_cell_angle_gamma 90.000000
_cell_volume 3043.057976
_symmetry_space_group_name_H-M "P M M M"
_symmetry_group_IT_number 47
_symmetry_cell_setting 'orthorhombic'
loop_
_space_group_symop_operation_xyz
x,y,z
-x,-y,z
x,-y,-z
-x,y,-z
-x,-y,-z
x,y,-z
-x,y,z
x,-y,z
loop_
_atom_site_type_symbol
_atom_site_label
_atom_site_fract_x
_atom_site_fract_y
_atom_site_fract_z
Si Si1 0.657444 0.865119 0.847190
Si Si2 0.333994 0.408415 0.765564
Si Si3 0.661984 0.260091 0.743792
Si Si4 0.158877 0.810521 0.399156
Si Si5 0.164853 0.925435 0.000000
Si Si6 0.332880 0.500000 0.603836
Si Si7 0.340371 0.926030 0.348595
Si Si8 0.832717 0.500000 0.106998
O O1 0.500000 0.871259 0.882076
O O2 0.682556 0.791483 0.822164
O O3 0.663829 0.904679 0.755027
O O4 0.767613 0.892457 0.914705
O O5 0.500000 0.420589 0.779637
O O6 0.313033 0.333071 0.766265
O O7 0.297505 0.440148 0.668908
O O8 0.241820 0.441426 0.841887
O O9 0.500000 0.253401 0.717085
O O10 0.758872 0.236603 0.664540
O O11 0.161099 0.786839 0.500000
O O12 0.236029 0.878166 0.395465
O O13 0.000000 0.817833 0.369722
O O14 0.000000 0.919088 0.000000
O O15 0.200134 0.000000 0.000000
O O16 0.500000 0.500000 0.596660
O O17 0.280992 0.500000 0.500000
O O18 0.500000 0.916454 0.378772
O O19 0.306391 0.000000 0.358701
O O20 0.000000 0.500000 0.120697
O O21 0.807919 0.500000 0.000000
#
# Coordination Sequence:
#
# PCOD9386861 Si02
#       8
#     8   8   8   8   4   4   8   4
#     4   9  18  34  53  72  97 127 164 210 260 312
#     4   9  18  34  57  82 108 141 181 223 266 308
#     4   9  19  36  56  77 101 134 177 220 261 307
#     4  10  21  34  48  71 104 140 175 211 256 313
#     4  11  23  35  49  73 101 128 163 206 255 317
#     4   8  14  26  48  81 114 137 165 210 260 308
#     4   9  18  33  53  74  95 125 169 219 268 314
#     4  10  21  37  56  81 114 147 179 214 258 314
#
# _framework density 17.088073999999999
#
# number of rings (size 3 to 8) (size 9 to 14) (size 15 to 20)
#    0.000    2.692    0.000    2.769    0.000    7.385 
#    1.385    3.077    0.000    3.692    0.000    0.000 
#    0.000    0.000    0.000    0.000    0.000    0.000 
#
# Total GULP energy -289748.515562 kJ/mol
# GULP energy per Si atom -5572.086838 kJ/mol
# Density = 1.704918 g / cm^3
# Si number density = 17.088074 Si / 1000 Ang^3
#
#
#
# Elastic Constant Matrix: (Units=GPa)
#
#
# Indices 1 2 3 4 5 6 
#
# 1 96.1897 78.0804 65.3685 0.0000 0.0000 0.0000
# 2 78.0804 137.3287 48.8071 0.0000 0.0000 0.0000
# 3 65.3685 48.8071 98.4859 0.0000 0.0000 0.0000
# 4 0.0000 0.0000 0.0000 -1.5316 0.0000 0.0000
# 5 0.0000 0.0000 0.0000 0.0000 27.9101 0.0000
# 6 0.0000 0.0000 0.0000 0.0000 0.0000 14.6428
#
#
#
# Elastic Compliance Matrix: (Units=1/GPa)
#
#
# Indices 1 2 3 4 5 6 
#
# 1 0.029108 -0.011754 -0.013495 0.000000 0.000000 0.000000
# 2 -0.011754 0.013584 0.001069 0.000000 0.000000 0.000000
# 3 -0.013495 0.001069 0.018581 0.000000 0.000000 0.000000
# 4 0.000000 0.000000 0.000000 -0.652915 0.000000 0.000000
# 5 0.000000 0.000000 0.000000 0.000000 0.035829 0.000000
# 6 0.000000 0.000000 0.000000 0.000000 0.000000 0.068293
#
#
# Mechanical properties :
#
#
# Convention : Reuss Voigt Hill
#
# Bulk Modulus (GPa) = 77.43345 79.61294 78.52319
# Shear Modulus (GPa) = -11.49807 17.52081 3.01137
#
# Velocity S-wave (km/s) = -2.59679 3.20554 1.32894
# Velocity P-wave (km/s) = 6.03503 7.77120 6.95748
#
# Compressibility (1/GPa) = 0.01291432
#
# Stress axis : x y z
#
# Youngs Moduli (GPa) = 34.35500 73.61338 53.81806
#
# Poissons Ratio (x) = 0.86522 0.72628
# Poissons Ratio (y) = 0.40379 -0.05754
# Poissons Ratio (z) = 0.46363 -0.07870
#
# Static dielectric constant tensor:
#      x y z
#    x 1.568880 0.000000 0.000000 
#    y 0.000000 1.573140 0.000000 
#    z 0.000000 0.000000 1.587900 
# 
# From -- ./inp_files/21511.got.cif
#   From: 2010.05.17/outbox.cif.g08.bks.cpg/sg47_11_cif.got.tgz:21511.got - 2010.06.03 20:15:42.
