data_PCOD9386952
_publ_section_title
;
Structure prediction by ZEFSAII (Michael W. Deem and Ramdas Pophale) SiO2 
 PCOD9386952
Probable space group: P M M M
;
_chemical_formula_sum "Si O2"
_cell_formula_units_Z 44
_cell_length_a 9.847321
_cell_length_b 7.636433
_cell_length_c 29.379755
_cell_angle_alpha 90.000000
_cell_angle_beta 90.000000
_cell_angle_gamma 90.000000
_cell_volume 2209.310775
_symmetry_space_group_name_H-M "P M M M"
_symmetry_group_IT_number 47
_symmetry_cell_setting 'orthorhombic'
loop_
_space_group_symop_operation_xyz
x,y,z
-x,-y,z
x,-y,-z
-x,y,-z
-x,-y,-z
x,y,-z
-x,y,z
x,-y,z
loop_
_atom_site_type_symbol
_atom_site_label
_atom_site_fract_x
_atom_site_fract_y
_atom_site_fract_z
Si Si1 0.665601 0.297335 0.000000
Si Si2 0.154840 0.286529 0.448182
Si Si3 0.653989 0.289740 0.901615
Si Si4 0.154277 0.292149 0.284068
Si Si5 0.656036 0.714817 0.365631
Si Si6 0.846728 0.208259 0.817709
O O1 0.704415 0.220388 0.049111
O O2 0.711787 0.500000 0.000000
O O3 0.500000 0.297437 0.000000
O O4 0.184433 0.231105 0.500000
O O5 0.155575 0.500000 0.448092
O O6 0.262675 0.229413 0.410739
O O7 0.000000 0.233713 0.436714
O O8 0.500000 0.225500 0.893536
O O9 0.645810 0.500000 0.906603
O O10 0.750207 0.254702 0.859321
O O11 0.144386 0.500000 0.291896
O O12 0.258487 0.224982 0.321704
O O13 0.201396 0.266997 0.232173
O O14 0.000000 0.220297 0.287961
O O15 0.500000 0.771888 0.364979
O O16 0.654702 0.500000 0.365451
O O17 0.000000 0.279175 0.824216
O O18 0.854621 0.000000 0.816063
#
# Coordination Sequence:
#
# PCOD9386952 Si02
#       6
#     4   8   8   8   8   8
#     4   7  12  26  48  73  98 122 152 191 230 269
#     4   8  13  21  33  50  76 112 148 177 211 262
#     4   9  17  31  53  77  98 123 157 195 233 275
#     4   9  17  30  47  63  82 114 153 189 227 273
#     4   9  16  24  36  57  83 109 141 184 228 267
#     4  10  21  35  49  68  96 127 158 194 237 283
#
# _framework density 19.915714999999999
#
# number of rings (size 3 to 8) (size 9 to 14) (size 15 to 20)
#    0.000    3.182    0.000    2.727    0.000    4.727 
#    0.000    4.545    0.000    4.364    0.000    0.000 
#    0.000    0.727    0.000    8.364    0.000   10.727 
#
# Total GULP energy -245267.073506 kJ/mol
# GULP energy per Si atom -5574.251671 kJ/mol
# Density = 1.987039 g / cm^3
# Si number density = 19.915715 Si / 1000 Ang^3
#
#
#
# Elastic Constant Matrix: (Units=GPa)
#
#
# Indices 1 2 3 4 5 6 
#
# 1 124.4371 5.4425 135.2967 0.0000 0.0000 0.0000
# 2 5.4425 37.7642 0.5531 0.0000 0.0000 0.0000
# 3 135.2967 0.5531 211.2043 0.0000 0.0000 0.0000
# 4 0.0000 0.0000 0.0000 -44.5939 0.0000 0.0000
# 5 0.0000 0.0000 0.0000 0.0000 22.7671 0.0000
# 6 0.0000 0.0000 0.0000 0.0000 0.0000 7.8222
#
#
#
# Elastic Compliance Matrix: (Units=1/GPa)
#
#
# Indices 1 2 3 4 5 6 
#
# 1 0.026968 -0.003634 -0.017266 0.000000 0.000000 0.000000
# 2 -0.003634 0.026971 0.002257 0.000000 0.000000 0.000000
# 3 -0.017266 0.002257 0.015789 0.000000 0.000000 0.000000
# 4 0.000000 0.000000 0.000000 -0.022425 0.000000 0.000000
# 5 0.000000 0.000000 0.000000 0.000000 0.043923 0.000000
# 6 0.000000 0.000000 0.000000 0.000000 0.000000 0.127842
#
#
# Mechanical properties :
#
#
# Convention : Reuss Voigt Hill
#
# Bulk Modulus (GPa) = 30.82345 72.88781 51.85563
# Shear Modulus (GPa) = 18.71482 12.67330 15.69406
#
# Velocity S-wave (km/s) = 3.06878 2.52533 2.81022
# Velocity P-wave (km/s) = 5.29784 6.72165 6.05177
#
# Compressibility (1/GPa) = 0.03244283
#
# Stress axis : x y z
#
# Youngs Moduli (GPa) = 37.08093 37.07722 63.33340
#
# Poissons Ratio (x) = 0.13473 1.09352
# Poissons Ratio (y) = 0.13474 -0.14295
# Poissons Ratio (z) = 0.64024 -0.08369
#
# Static dielectric constant tensor:
#      x y z
#    x 1.663610 0.000000 0.000000 
#    y 0.000000 1.732720 0.000000 
#    z 0.000000 0.000000 1.710320 
# 
# From -- ./inp_files/2050.got.cif
#   From: 2010.05.17/outbox.cif.g08.bks.cpg/sg47_2_cif.got.tgz:2050.got - 2010.06.03 20:15:42.
