data_PCOD9386402
_publ_section_title
;
Structure prediction by ZEFSAII (Michael W. Deem and Ramdas Pophale) SiO2 
 PCOD9386402
Probable space group: P M M M
;
_chemical_formula_sum "Si O2"
_cell_formula_units_Z 40
_cell_length_a 27.339688
_cell_length_b 9.289675
_cell_length_c 7.648621
_cell_angle_alpha 90.000000
_cell_angle_beta 90.000000
_cell_angle_gamma 90.000000
_cell_volume 1942.572409
_symmetry_space_group_name_H-M "P M M M"
_symmetry_group_IT_number 47
_symmetry_cell_setting 'orthorhombic'
loop_
_space_group_symop_operation_xyz
x,y,z
-x,-y,z
x,-y,-z
-x,y,-z
-x,-y,-z
x,y,-z
-x,y,z
x,-y,z
loop_
_atom_site_type_symbol
_atom_site_label
_atom_site_fract_x
_atom_site_fract_y
_atom_site_fract_z
Si Si1 0.306812 0.334510 0.785523
Si Si2 0.894990 0.833435 0.289384
Si Si3 0.402180 0.837266 0.209042
Si Si4 0.211449 0.835398 0.791085
Si Si5 0.500000 0.337147 0.708224
Si Si6 0.000000 0.175171 0.708196
O O1 0.309179 0.500000 0.730382
O O2 0.354400 0.246747 0.725603
O O3 0.256916 0.257732 0.726670
O O4 0.306862 0.333901 0.000000
O O5 0.897671 0.836039 0.500000
O O6 0.842320 0.770182 0.243152
O O7 0.947158 0.772970 0.223988
O O8 0.892879 0.000000 0.227417
O O9 0.451458 0.748766 0.240299
O O10 0.405604 0.000000 0.278422
O O11 0.396361 0.847459 0.000000
O O12 0.213162 0.000000 0.721406
O O13 0.216527 0.844798 0.000000
O O14 0.500000 0.500000 0.780160
O O15 0.500000 0.346328 0.500000
O O16 0.000000 0.204385 0.500000
O O17 0.000000 0.000000 0.726586
#
# Coordination Sequence:
#
# PCOD9386402 Si02
#       6
#     8   8   8   8   4   4
#     4   9  17  30  49  71  94 123 158 193 231 278
#     4   8  13  22  37  57  82 113 147 181 221 272
#     4  10  20  35  57  82 103 127 165 208 244 283
#     4   9  16  26  41  63  90 116 144 184 231 273
#     4  11  24  39  54  76 108 141 168 197 238 286
#     4   7  10  18  33  53  78 109 144 180 218 265
#
# _framework density 20.591253999999999
#
# number of rings (size 3 to 8) (size 9 to 14) (size 15 to 20)
#    0.000    3.000    0.000    3.000    0.000    5.600 
#    0.000    1.500    0.000    7.200    0.000    0.700 
#    0.000    5.600    0.000    0.000    0.000    0.000 
#
# Total GULP energy -222953.541087 kJ/mol
# GULP energy per Si atom -5573.838527 kJ/mol
# Density = 2.054439 g / cm^3
# Si number density = 20.591254 Si / 1000 Ang^3
#
#
#
# Elastic Constant Matrix: (Units=GPa)
#
#
# Indices 1 2 3 4 5 6 
#
# 1 264.0906 107.1162 2.5668 0.0000 0.0000 0.0000
# 2 107.1162 123.7265 6.3420 0.0000 0.0000 0.0000
# 3 2.5668 6.3420 37.1786 0.0000 0.0000 0.0000
# 4 0.0000 0.0000 0.0000 3.5036 0.0000 0.0000
# 5 0.0000 0.0000 0.0000 0.0000 25.2731 0.0000
# 6 0.0000 0.0000 0.0000 0.0000 0.0000 -8.3944
#
#
#
# Elastic Compliance Matrix: (Units=1/GPa)
#
#
# Indices 1 2 3 4 5 6 
#
# 1 0.005844 -0.005083 0.000464 0.000000 0.000000 0.000000
# 2 -0.005083 0.012575 -0.001794 0.000000 0.000000 0.000000
# 3 0.000464 -0.001794 0.027171 0.000000 0.000000 0.000000
# 4 0.000000 0.000000 0.000000 0.285424 0.000000 0.000000
# 5 0.000000 0.000000 0.000000 0.000000 0.039568 0.000000
# 6 0.000000 0.000000 0.000000 0.000000 0.000000 -0.119127
#
#
# Mechanical properties :
#
#
# Convention : Reuss Voigt Hill
#
# Bulk Modulus (GPa) = 30.52231 73.00506 51.76369
# Shear Modulus (GPa) = 18.16843 24.67450 21.42147
#
# Velocity S-wave (km/s) = 2.97364 3.46540 3.22890
# Velocity P-wave (km/s) = 5.16190 7.17937 6.25254
#
# Compressibility (1/GPa) = 0.03276292
#
# Stress axis : x y z
#
# Youngs Moduli (GPa) = 171.12281 79.52342 36.80361
#
# Poissons Ratio (x) = 0.40422 -0.01706
# Poissons Ratio (y) = 0.86982 0.06603
# Poissons Ratio (z) = -0.07933 0.14267
#
# Static dielectric constant tensor:
#      x y z
#    x 1.765080 0.000000 0.000000 
#    y 0.000000 1.707720 0.000000 
#    z 0.000000 0.000000 1.773990 
# 
# From -- ./inp_files/13079.got.cif
#   From: 2010.05.17/outbox.cif.g08.bks.cpg/sg47_7_cif.got.tgz:13079.got - 2010.06.03 20:15:42.
