data_PCOD9386871
_publ_section_title
;
Structure prediction by ZEFSAII (Michael W. Deem and Ramdas Pophale) SiO2 
 PCOD9386871
Probable space group: P M M M
;
_chemical_formula_sum "Si O2"
_cell_formula_units_Z 64
_cell_length_a 14.069478
_cell_length_b 19.065677
_cell_length_c 13.993162
_cell_angle_alpha 90.000000
_cell_angle_beta 90.000000
_cell_angle_gamma 90.000000
_cell_volume 3753.583470
_symmetry_space_group_name_H-M "P M M M"
_symmetry_group_IT_number 47
_symmetry_cell_setting 'orthorhombic'
loop_
_space_group_symop_operation_xyz
x,y,z
-x,-y,z
x,-y,-z
-x,y,-z
-x,-y,-z
x,y,-z
-x,y,z
x,-y,z
loop_
_atom_site_type_symbol
_atom_site_label
_atom_site_fract_x
_atom_site_fract_y
_atom_site_fract_z
Si Si1 0.386660 0.357703 0.388298
Si Si2 0.887418 0.639161 0.886278
Si Si3 0.115539 0.802356 0.892520
Si Si4 0.613046 0.791275 0.706524
Si Si5 0.111603 0.079541 0.256715
Si Si6 0.707227 0.419939 0.205086
Si Si7 0.283003 0.079540 0.612664
Si Si8 0.385332 0.287979 0.892864
O O1 0.367642 0.370901 0.500000
O O2 0.500000 0.370496 0.370932
O O3 0.368926 0.276078 0.361569
O O4 0.324272 0.401825 0.313455
O O5 0.862400 0.721323 0.869352
O O6 0.817465 0.594042 0.820856
O O7 0.000000 0.629196 0.868029
O O8 0.872073 0.625372 0.000000
O O9 0.144896 0.861000 0.817086
O O10 0.000000 0.804866 0.894715
O O11 0.148862 0.817830 0.000000
O O12 0.500000 0.801327 0.709023
O O13 0.660563 0.860848 0.667956
O O14 0.645324 0.767322 0.812154
O O15 0.174709 0.084222 0.351207
O O16 0.000000 0.089504 0.275846
O O17 0.123510 0.000000 0.217847
O O18 0.682869 0.500000 0.183724
O O19 0.651539 0.363792 0.139944
O O20 0.290727 0.090465 0.500000
O O21 0.316084 0.000000 0.634377
O O22 0.500000 0.289410 0.891209
O O23 0.353425 0.271779 0.000000
#
# Coordination Sequence:
#
# PCOD9386871 Si02
#       8
#     8   8   8   8   8   8   8   8
#     4   9  19  36  57  80 105 136 174 214 261 316
#     4   9  19  35  52  72 101 138 179 218 256 303
#     4   8  15  29  49  71  95 128 169 209 249 293
#     4   9  18  34  55  76 100 131 168 209 249 296
#     4   9  18  31  47  71 103 135 165 201 249 303
#     4  11  22  33  50  79 108 135 172 215 259 307
#     4  10  21  34  49  73 102 132 169 212 255 295
#     4   9  19  35  54  77 104 135 167 201 252 315
#
# _framework density 17.050373
#
# number of rings (size 3 to 8) (size 9 to 14) (size 15 to 20)
#    0.000    2.750    0.000    2.625    3.500    4.000 
#    0.000    5.000    0.000    1.500    0.000    2.625 
#    0.000    0.000    0.000    0.000    0.000    0.000 
#
# Total GULP energy -356779.546876 kJ/mol
# GULP energy per Si atom -5574.680420 kJ/mol
# Density = 1.701157 g / cm^3
# Si number density = 17.050373 Si / 1000 Ang^3
#
#
#
# Elastic Constant Matrix: (Units=GPa)
#
#
# Indices 1 2 3 4 5 6 
#
# 1 54.3217 35.6239 37.7719 0.0000 0.0000 0.0000
# 2 35.6239 106.1159 57.6247 0.0000 0.0000 0.0000
# 3 37.7719 57.6247 101.4226 0.0000 0.0000 0.0000
# 4 0.0000 0.0000 0.0000 8.6287 0.0000 0.0000
# 5 0.0000 0.0000 0.0000 0.0000 24.3565 0.0000
# 6 0.0000 0.0000 0.0000 0.0000 0.0000 16.6021
#
#
#
# Elastic Compliance Matrix: (Units=1/GPa)
#
#
# Indices 1 2 3 4 5 6 
#
# 1 0.026652 -0.005144 -0.007003 0.000000 0.000000 0.000000
# 2 -0.005144 0.014622 -0.006392 0.000000 0.000000 0.000000
# 3 -0.007003 -0.006392 0.016099 0.000000 0.000000 0.000000
# 4 0.000000 0.000000 0.000000 0.115893 0.000000 0.000000
# 5 0.000000 0.000000 0.000000 0.000000 0.041057 0.000000
# 6 0.000000 0.000000 0.000000 0.000000 0.000000 0.060233
#
#
# Mechanical properties :
#
#
# Convention : Reuss Voigt Hill
#
# Bulk Modulus (GPa) = 49.27332 58.21126 53.74229
# Shear Modulus (GPa) = 15.70361 18.64009 17.17185
#
# Velocity S-wave (km/s) = 3.03811 3.31000 3.17697
# Velocity P-wave (km/s) = 6.42404 6.98735 6.71160
#
# Compressibility (1/GPa) = 0.02029496
#
# Stress axis : x y z
#
# Youngs Moduli (GPa) = 37.52083 68.39238 62.11498
#
# Poissons Ratio (x) = 0.35184 0.43498
# Poissons Ratio (y) = 0.19302 0.39701
# Poissons Ratio (z) = 0.26275 0.43713
#
# Static dielectric constant tensor:
#      x y z
#    x 1.601550 0.000000 0.000000 
#    y 0.000000 1.567830 0.000000 
#    z 0.000000 0.000000 1.568190 
# 
# From -- ./inp_files/24065.got.cif
#   From: 2010.05.17/outbox.cif.g08.bks.cpg/sg47_13_cif.got.tgz:24065.got - 2010.06.03 20:15:42.
