data_PCOD9386057
_publ_section_title
;
Structure prediction by ZEFSAII (Michael W. Deem and Ramdas Pophale) SiO2 
 PCOD9386057
Probable space group: P M M M
;
_chemical_formula_sum "Si O2"
_cell_formula_units_Z 45
_cell_length_a 23.749877
_cell_length_b 12.415656
_cell_length_c 7.598742
_cell_angle_alpha 90.000000
_cell_angle_beta 90.000000
_cell_angle_gamma 90.000000
_cell_volume 2240.643355
_symmetry_space_group_name_H-M "P M M M"
_symmetry_group_IT_number 47
_symmetry_cell_setting 'orthorhombic'
loop_
_space_group_symop_operation_xyz
x,y,z
-x,-y,z
x,-y,-z
-x,y,-z
-x,-y,-z
x,y,-z
-x,y,z
x,-y,z
loop_
_atom_site_type_symbol
_atom_site_label
_atom_site_fract_x
_atom_site_fract_y
_atom_site_fract_z
Si Si1 0.220446 0.878329 0.791295
Si Si2 0.000000 0.000000 0.500000
Si Si3 0.877414 0.275725 0.213164
Si Si4 0.696808 0.500000 0.790593
Si Si5 0.436645 0.124320 0.714815
Si Si6 0.331002 0.258902 0.707482
Si Si7 0.000000 0.808922 0.787838
Si Si8 0.825533 0.500000 0.215886
O O1 0.164860 0.817749 0.720795
O O2 0.274354 0.800668 0.770621
O O3 0.228945 0.000000 0.720419
O O4 0.212154 0.889200 0.000000
O O5 0.000000 0.908001 0.656157
O O6 0.855666 0.391268 0.274823
O O7 0.942422 0.254796 0.249892
O O8 0.872134 0.276111 0.000000
O O9 0.669453 0.613328 0.738682
O O10 0.760998 0.500000 0.723886
O O11 0.699320 0.500000 0.000000
O O12 0.437005 0.127165 0.500000
O O13 0.500000 0.153746 0.771675
O O14 0.386833 0.200767 0.779529
O O15 0.425920 0.000000 0.764794
O O16 0.331195 0.241499 0.500000
O O17 0.000000 0.835837 0.000000
O O18 0.825359 0.500000 0.000000
#
# Coordination Sequence:
#
# PCOD9386057 Si02
#       8
#     8   1   8   4   8   8   4   4
#     4  10  20  34  54  81 114 152 190 227 278 348
#     4  12  26  44  64  88 124 160 210 236 300 374
#     4   9  18  35  59  86 112 149 198 238 283 342
#     4  11  21  37  57  76 107 153 190 226 282 352
#     4   8  15  30  53  79 110 148 186 226 278 340
#     4  11  21  34  54  84 114 140 186 242 293 335
#     4  10  23  42  63  88 120 159 200 249 300 359
#     4   9  16  32  61  86 107 144 197 239 278 342
#
# _framework density 20.083515999999999
#
# number of rings (size 3 to 8) (size 9 to 14) (size 15 to 20)
#    0.000    2.311    1.778    2.000    1.244    1.422 
#    1.600    2.222    0.000    5.333    0.000    6.222 
#    0.000    0.000    0.000    0.000    0.000    0.000 
#
# Total GULP energy -250844.072451 kJ/mol
# GULP energy per Si atom -5574.312721 kJ/mol
# Density = 2.003781 g / cm^3
# Si number density = 20.083516 Si / 1000 Ang^3
#
#
#
# Elastic Constant Matrix: (Units=GPa)
#
#
# Indices 1 2 3 4 5 6 
#
# 1 174.1023 98.3271 6.8895 0.0000 0.0000 0.0000
# 2 98.3271 158.9038 3.7486 0.0000 0.0000 0.0000
# 3 6.8895 3.7486 49.9494 0.0000 0.0000 0.0000
# 4 0.0000 0.0000 0.0000 13.2088 0.0000 0.0000
# 5 0.0000 0.0000 0.0000 0.0000 13.0463 0.0000
# 6 0.0000 0.0000 0.0000 0.0000 0.0000 80.5659
#
#
#
# Elastic Compliance Matrix: (Units=1/GPa)
#
#
# Indices 1 2 3 4 5 6 
#
# 1 0.008862 -0.005465 -0.000812 0.000000 0.000000 0.000000
# 2 -0.005465 0.009674 0.000028 0.000000 0.000000 0.000000
# 3 -0.000812 0.000028 0.020130 0.000000 0.000000 0.000000
# 4 0.000000 0.000000 0.000000 0.075707 0.000000 0.000000
# 5 0.000000 0.000000 0.000000 0.000000 0.076650 0.000000
# 6 0.000000 0.000000 0.000000 0.000000 0.000000 0.012412
#
#
# Mechanical properties :
#
#
# Convention : Reuss Voigt Hill
#
# Bulk Modulus (GPa) = 38.21461 66.76512 52.48986
# Shear Modulus (GPa) = 22.25619 39.63021 30.94320
#
# Velocity S-wave (km/s) = 3.33255 4.44697 3.92947
# Velocity P-wave (km/s) = 5.82039 7.72550 6.83960
#
# Compressibility (1/GPa) = 0.02616800
#
# Stress axis : x y z
#
# Youngs Moduli (GPa) = 112.84015 103.37153 49.67653
#
# Poissons Ratio (x) = 0.56488 0.04035
# Poissons Ratio (y) = 0.61662 -0.00138
# Poissons Ratio (z) = 0.09165 -0.00287
#
# Static dielectric constant tensor:
#      x y z
#    x 1.703680 0.000000 0.000000 
#    y 0.000000 1.676190 0.000000 
#    z 0.000000 0.000000 1.773500 
# 
# From -- ./inp_files/12401.got.cif
#   From: 2010.05.17/outbox.cif.g08.bks.cpg/sg47_7_cif.got.tgz:12401.got - 2010.06.03 20:15:42.
