data_PCOD9386145
_publ_section_title
;
Structure prediction by ZEFSAII (Michael W. Deem and Ramdas Pophale) SiO2 
 PCOD9386145
Probable space group: P M M M
;
_chemical_formula_sum "Si O2"
_cell_formula_units_Z 64
_cell_length_a 7.816129
_cell_length_b 25.760847
_cell_length_c 15.084345
_cell_angle_alpha 90.000000
_cell_angle_beta 90.000000
_cell_angle_gamma 90.000000
_cell_volume 3037.234424
_symmetry_space_group_name_H-M "P M M M"
_symmetry_group_IT_number 47
_symmetry_cell_setting 'orthorhombic'
loop_
_space_group_symop_operation_xyz
x,y,z
-x,-y,z
x,-y,-z
-x,y,-z
-x,-y,-z
x,y,-z
-x,y,z
x,-y,z
loop_
_atom_site_type_symbol
_atom_site_label
_atom_site_fract_x
_atom_site_fract_y
_atom_site_fract_z
Si Si1 0.709459 0.557698 0.213549
Si Si2 0.703711 0.062900 0.595183
Si Si3 0.709616 0.657243 0.898211
Si Si4 0.199863 0.287248 0.402798
Si Si5 0.707530 0.940179 0.211321
Si Si6 0.798121 0.844599 0.900590
Si Si7 0.301072 0.752061 0.222619
Si Si8 0.300427 0.404616 0.401952
O O1 0.500000 0.559383 0.215522
O O2 0.759944 0.500000 0.185418
O O3 0.763174 0.603746 0.148392
O O4 0.771299 0.568947 0.313861
O O5 0.775238 0.081179 0.500000
O O6 0.500000 0.074059 0.594120
O O7 0.769743 0.079588 0.691509
O O8 0.719250 0.000000 0.596093
O O9 0.500000 0.658371 0.899045
O O10 0.769953 0.705396 0.838286
O O11 0.765568 0.661473 0.000000
O O12 0.252959 0.267139 0.500000
O O13 0.225732 0.249315 0.320767
O O14 0.291511 0.342431 0.387547
O O15 0.000000 0.300032 0.406281
O O16 0.500000 0.939726 0.213416
O O17 0.767499 0.902436 0.134538
O O18 0.761053 0.000000 0.199601
O O19 0.718989 0.804919 0.830761
O O20 0.000000 0.834527 0.902326
O O21 0.729207 0.837180 0.000000
O O22 0.500000 0.741017 0.235319
O O23 0.225496 0.415383 0.500000
O O24 0.500000 0.419618 0.406017
#
# Coordination Sequence:
#
# PCOD9386145 Si02
#       8
#     8   8   8   8   8   8   8   8
#     4   9  16  26  42  70 107 141 176 222 277 334
#     4   7  10  20  43  76 110 140 172 213 259 306
#     4   9  17  29  47  74 104 134 172 222 280 332
#     4  10  20  34  55  83 113 144 177 217 272 336
#     4   9  18  34  58  87 116 149 191 235 279 329
#     4  11  25  42  58  80 112 149 189 233 285 342
#     4  11  21  37  61  84 108 139 181 233 281 330
#     4   9  16  28  47  72 103 139 181 225 270 325
#
# _framework density 21.071802000000002
#
# number of rings (size 3 to 8) (size 9 to 14) (size 15 to 20)
#    0.000    2.625    1.250    2.625    0.000    3.250 
#    0.000    4.375    0.000    3.000    0.000    3.500 
#    0.000    1.000    0.000    0.000    0.000    0.000 
#
# Total GULP energy -356982.788101 kJ/mol
# GULP energy per Si atom -5577.856064 kJ/mol
# Density = 2.102384 g / cm^3
# Si number density = 21.071802 Si / 1000 Ang^3
#
#
#
# Elastic Constant Matrix: (Units=GPa)
#
#
# Indices 1 2 3 4 5 6 
#
# 1 28.4934 -4.0863 5.0184 0.0000 0.0000 0.0000
# 2 -4.0863 64.8017 44.9952 0.0000 0.0000 0.0000
# 3 5.0184 44.9952 124.6148 0.0000 0.0000 0.0000
# 4 0.0000 0.0000 0.0000 13.1948 0.0000 0.0000
# 5 0.0000 0.0000 0.0000 0.0000 10.0332 0.0000
# 6 0.0000 0.0000 0.0000 0.0000 0.0000 -74.2451
#
#
#
# Elastic Compliance Matrix: (Units=1/GPa)
#
#
# Indices 1 2 3 4 5 6 
#
# 1 0.036265 0.004405 -0.003051 0.000000 0.000000 0.000000
# 2 0.004405 0.021130 -0.007807 0.000000 0.000000 0.000000
# 3 -0.003051 -0.007807 0.010967 0.000000 0.000000 0.000000
# 4 0.000000 0.000000 0.000000 0.075787 0.000000 0.000000
# 5 0.000000 0.000000 0.000000 0.000000 0.099669 0.000000
# 6 0.000000 0.000000 0.000000 0.000000 0.000000 -0.013469
#
#
# Mechanical properties :
#
#
# Convention : Reuss Voigt Hill
#
# Bulk Modulus (GPa) = 18.03224 34.41829 26.22526
# Shear Modulus (GPa) = 19.10294 1.26209 10.18251
#
# Velocity S-wave (km/s) = 3.01419 0.77476 2.20063
# Velocity P-wave (km/s) = 4.54861 4.14362 4.35083
#
# Compressibility (1/GPa) = 0.05545623
#
# Stress axis : x y z
#
# Youngs Moduli (GPa) = 27.57482 47.32542 91.18668
#
# Poissons Ratio (x) = -0.20848 0.27822
# Poissons Ratio (y) = -0.12148 0.71190
# Poissons Ratio (z) = 0.08413 0.36947
#
# Static dielectric constant tensor:
#      x y z
#    x 1.797000 0.000000 0.000000 
#    y 0.000000 1.731540 0.000000 
#    z 0.000000 0.000000 1.788610 
# 
# From -- ./inp_files/21934.got.cif
#   From: 2010.05.17/outbox.cif.g08.bks.cpg/sg47_11_cif.got.tgz:21934.got - 2010.06.03 20:15:42.
