data_PCOD9386241
_publ_section_title
;
Structure prediction by ZEFSAII (Michael W. Deem and Ramdas Pophale) SiO2 
 PCOD9386241
Probable space group: P M M M
;
_chemical_formula_sum "Si O2"
_cell_formula_units_Z 52
_cell_length_a 9.580378
_cell_length_b 25.173066
_cell_length_c 13.939370
_cell_angle_alpha 90.000000
_cell_angle_beta 90.000000
_cell_angle_gamma 90.000000
_cell_volume 3361.722843
_symmetry_space_group_name_H-M "P M M M"
_symmetry_group_IT_number 47
_symmetry_cell_setting 'orthorhombic'
loop_
_space_group_symop_operation_xyz
x,y,z
-x,-y,z
x,-y,-z
-x,y,-z
-x,-y,-z
x,y,-z
-x,y,z
x,-y,z
loop_
_atom_site_type_symbol
_atom_site_label
_atom_site_fract_x
_atom_site_fract_y
_atom_site_fract_z
Si Si1 0.246888 0.864895 0.383544
Si Si2 0.500000 0.938134 0.382854
Si Si3 0.330955 0.652793 0.280217
Si Si4 0.338058 0.500000 0.115611
Si Si5 0.834806 0.253923 0.383884
Si Si6 0.000000 0.059722 0.616698
Si Si7 0.166669 0.392902 0.114410
Si Si8 0.161838 0.438058 0.615309
O O1 0.250664 0.862017 0.500000
O O2 0.375634 0.900079 0.352293
O O3 0.218115 0.804678 0.353492
O O4 0.126162 0.904206 0.353881
O O5 0.500000 0.941124 0.500000
O O6 0.500000 0.000000 0.351113
O O7 0.500000 0.653520 0.274639
O O8 0.264942 0.702510 0.336659
O O9 0.253290 0.649148 0.177207
O O10 0.271969 0.601037 0.336445
O O11 0.500000 0.500000 0.152796
O O12 0.245337 0.448362 0.138647
O O13 0.350510 0.500000 0.000000
O O14 0.825924 0.257854 0.500000
O O15 0.000000 0.260666 0.359744
O O16 0.000000 0.056680 0.500000
O O17 0.000000 0.000000 0.652656
O O18 0.000000 0.394555 0.136082
O O19 0.179479 0.384479 0.000000
O O20 0.171601 0.433436 0.500000
O O21 0.184560 0.500000 0.639989
O O22 0.000000 0.424418 0.640772
#
# Coordination Sequence:
#
# PCOD9386241 Si02
#       8
#     8   4   8   4   8   4   8   8
#     4   9  16  26  40  59  84 120 159 202 247 280
#     4   9  16  24  36  58  88 120 154 196 245 292
#     4  12  25  35  50  75  99 126 159 200 249 296
#     4   9  17  31  53  79 104 123 140 175 227 281
#     4  10  20  35  51  66  91 128 173 216 249 284
#     4   9  14  22  38  60  84 112 156 204 241 280
#     4  10  21  38  58  77  98 126 158 190 233 293
#     4   9  19  37  57  73  93 124 161 202 246 288
#
# _framework density 15.468259
#
# number of rings (size 3 to 8) (size 9 to 14) (size 15 to 20)
#    0.000    2.231    0.769    3.462    2.154    6.462 
#    0.000    0.769    0.000    0.000    0.000    0.000 
#    0.000    0.000    0.000    0.000    0.000    4.615 
#
# Total GULP energy -289479.678808 kJ/mol
# GULP energy per Si atom -5566.916900 kJ/mol
# Density = 1.543305 g / cm^3
# Si number density = 15.468259 Si / 1000 Ang^3
#
#
#
# Elastic Constant Matrix: (Units=GPa)
#
#
# Indices 1 2 3 4 5 6 
#
# 1 178.6468 81.3201 33.9240 0.0000 0.0000 0.0000
# 2 81.3201 118.9778 35.9033 0.0000 0.0000 0.0000
# 3 33.9240 35.9033 49.5737 0.0000 0.0000 0.0000
# 4 0.0000 0.0000 0.0000 4.3529 0.0000 0.0000
# 5 0.0000 0.0000 0.0000 0.0000 16.6960 0.0000
# 6 0.0000 0.0000 0.0000 0.0000 0.0000 25.9009
#
#
#
# Elastic Compliance Matrix: (Units=1/GPa)
#
#
# Indices 1 2 3 4 5 6 
#
# 1 0.008279 -0.005053 -0.002005 0.000000 0.000000 0.000000
# 2 -0.005053 0.013840 -0.006565 0.000000 0.000000 0.000000
# 3 -0.002005 -0.006565 0.026299 0.000000 0.000000 0.000000
# 4 0.000000 0.000000 0.000000 0.229730 0.000000 0.000000
# 5 0.000000 0.000000 0.000000 0.000000 0.059895 0.000000
# 6 0.000000 0.000000 0.000000 0.000000 0.000000 0.038609
#
#
# Mechanical properties :
#
#
# Convention : Reuss Voigt Hill
#
# Bulk Modulus (GPa) = 47.23743 72.16590 59.70166
# Shear Modulus (GPa) = 12.16674 22.46002 17.31338
#
# Velocity S-wave (km/s) = 2.80761 3.81466 3.34920
# Velocity P-wave (km/s) = 6.41209 8.13373 7.32368
#
# Compressibility (1/GPa) = 0.02116965
#
# Stress axis : x y z
#
# Youngs Moduli (GPa) = 120.79201 72.25436 38.02375
#
# Poissons Ratio (x) = 0.36512 0.07626
# Poissons Ratio (y) = 0.61039 0.24964
# Poissons Ratio (z) = 0.24225 0.47439
#
# Static dielectric constant tensor:
#      x y z
#    x 1.492720 0.000000 0.000000 
#    y 0.000000 1.496440 0.000000 
#    z 0.000000 0.000000 1.524880 
# 
# From -- ./inp_files/21839.got.cif
#   From: 2010.05.17/outbox.cif.g08.bks.cpg/sg47_11_cif.got.tgz:21839.got - 2010.06.03 20:15:42.
