data_PCOD9386267
_publ_section_title
;
Structure prediction by ZEFSAII (Michael W. Deem and Ramdas Pophale) SiO2 
 PCOD9386267
Probable space group: P M M M
;
_chemical_formula_sum "Si O2"
_cell_formula_units_Z 52
_cell_length_a 9.225175
_cell_length_b 19.441921
_cell_length_c 16.265557
_cell_angle_alpha 90.000000
_cell_angle_beta 90.000000
_cell_angle_gamma 90.000000
_cell_volume 2917.310986
_symmetry_space_group_name_H-M "P M M M"
_symmetry_group_IT_number 47
_symmetry_cell_setting 'orthorhombic'
loop_
_space_group_symop_operation_xyz
x,y,z
-x,-y,z
x,-y,-z
-x,y,-z
-x,-y,-z
x,y,-z
-x,y,z
x,-y,z
loop_
_atom_site_type_symbol
_atom_site_label
_atom_site_fract_x
_atom_site_fract_y
_atom_site_fract_z
Si Si1 0.176598 0.842545 0.334323
Si Si2 0.168897 0.701387 0.593979
Si Si3 0.672785 0.420393 0.331911
Si Si4 0.173728 0.918232 0.832398
Si Si5 0.332675 0.083663 0.000000
Si Si6 0.176720 0.920343 0.500000
Si Si7 0.165235 0.583410 0.162913
Si Si8 0.332642 0.415893 0.000000
O O1 0.218480 0.763175 0.347181
O O2 0.221841 0.877199 0.248934
O O3 0.224774 0.884032 0.415579
O O4 0.000000 0.843996 0.335118
O O5 0.175366 0.726994 0.500000
O O6 0.262702 0.633436 0.604406
O O7 0.000000 0.685327 0.611454
O O8 0.500000 0.415824 0.326390
O O9 0.710434 0.500000 0.350440
O O10 0.745716 0.401272 0.244892
O O11 0.252061 0.895375 0.916136
O O12 0.000000 0.910030 0.841837
O O13 0.200723 0.000000 0.820133
O O14 0.500000 0.105372 0.000000
O O15 0.329091 0.000000 0.000000
O O16 0.000000 0.917459 0.500000
O O17 0.218837 0.000000 0.500000
O O18 0.159222 0.500000 0.158092
O O19 0.248356 0.606992 0.081479
O O20 0.000000 0.608726 0.166916
O O21 0.332332 0.500000 0.000000
O O22 0.500000 0.394477 0.000000
#
# Coordination Sequence:
#
# PCOD9386267 Si02
#       8
#     8   8   8   8   4   4   8   4
#     4   9  16  28  46  73 107 139 170 207 253 302
#     4  10  20  35  54  74 100 133 167 205 253 314
#     4  10  21  36  53  73  97 125 163 215 269 317
#     4   9  16  27  47  76 107 139 177 218 256 296
#     4   9  17  29  45  68 101 140 180 221 263 303
#     4   9  14  22  42  74 110 141 168 202 245 293
#     4   9  16  27  45  70  98 126 158 196 241 296
#     4   9  15  23  39  66 101 136 163 189 231 289
#
# _framework density 17.824634
#
# number of rings (size 3 to 8) (size 9 to 14) (size 15 to 20)
#    0.000    2.692    0.769    1.846    0.000    7.077 
#    0.000    2.308    0.000    0.923    0.000    4.308 
#    0.000    3.692    0.000    0.000    0.000    0.000 
#
# Total GULP energy -289820.512718 kJ/mol
# GULP energy per Si atom -5573.471398 kJ/mol
# Density = 1.778406 g / cm^3
# Si number density = 17.824634 Si / 1000 Ang^3
#
#
#
# Elastic Constant Matrix: (Units=GPa)
#
#
# Indices 1 2 3 4 5 6 
#
# 1 58.3245 34.7703 39.0274 0.0000 0.0000 0.0000
# 2 34.7703 65.9909 48.2190 0.0000 0.0000 0.0000
# 3 39.0274 48.2190 123.0948 0.0000 0.0000 0.0000
# 4 0.0000 0.0000 0.0000 16.1800 0.0000 0.0000
# 5 0.0000 0.0000 0.0000 0.0000 5.5729 0.0000
# 6 0.0000 0.0000 0.0000 0.0000 0.0000 8.2079
#
#
#
# Elastic Compliance Matrix: (Units=1/GPa)
#
#
# Indices 1 2 3 4 5 6 
#
# 1 0.026390 -0.010915 -0.004091 0.000000 0.000000 0.000000
# 2 -0.010915 0.025745 -0.006624 0.000000 0.000000 0.000000
# 3 -0.004091 -0.006624 0.012016 0.000000 0.000000 0.000000
# 4 0.000000 0.000000 0.000000 0.061805 0.000000 0.000000
# 5 0.000000 0.000000 0.000000 0.000000 0.179441 0.000000
# 6 0.000000 0.000000 0.000000 0.000000 0.000000 0.121834
#
#
# Mechanical properties :
#
#
# Convention : Reuss Voigt Hill
#
# Bulk Modulus (GPa) = 47.87105 54.60484 51.23794
# Shear Modulus (GPa) = 10.47217 14.35173 12.41195
#
# Velocity S-wave (km/s) = 2.42649 2.84062 2.64168
# Velocity P-wave (km/s) = 5.89623 6.43893 6.17354
#
# Compressibility (1/GPa) = 0.02088945
#
# Stress axis : x y z
#
# Youngs Moduli (GPa) = 37.89257 38.84229 83.22377
#
# Poissons Ratio (x) = 0.42398 0.34049
# Poissons Ratio (y) = 0.41362 0.55129
# Poissons Ratio (z) = 0.15503 0.25730
#
# Static dielectric constant tensor:
#      x y z
#    x 1.591730 0.000000 0.000000 
#    y 0.000000 1.603980 0.000000 
#    z 0.000000 0.000000 1.618160 
# 
# From -- ./inp_files/21553.got.cif
#   From: 2010.05.17/outbox.cif.g08.bks.cpg/sg47_11_cif.got.tgz:21553.got - 2010.06.03 20:15:42.
