data_PCOD9386862
_publ_section_title
;
Structure prediction by ZEFSAII (Michael W. Deem and Ramdas Pophale) SiO2 
 PCOD9386862
Probable space group: P M M M
;
_chemical_formula_sum "Si O2"
_cell_formula_units_Z 52
_cell_length_a 16.138302
_cell_length_b 8.951508
_cell_length_c 20.889029
_cell_angle_alpha 90.000000
_cell_angle_beta 90.000000
_cell_angle_gamma 90.000000
_cell_volume 3017.673821
_symmetry_space_group_name_H-M "P M M M"
_symmetry_group_IT_number 47
_symmetry_cell_setting 'orthorhombic'
loop_
_space_group_symop_operation_xyz
x,y,z
-x,-y,z
x,-y,-z
-x,y,-z
-x,-y,-z
x,y,-z
-x,y,z
x,-y,z
loop_
_atom_site_type_symbol
_atom_site_label
_atom_site_fract_x
_atom_site_fract_y
_atom_site_fract_z
Si Si1 0.641791 0.675727 0.167276
Si Si2 0.900597 0.326232 0.929537
Si Si3 0.500000 0.681394 0.928742
Si Si4 0.593181 0.323698 0.313957
Si Si5 0.771396 0.179677 0.331477
Si Si6 0.187835 0.824152 0.188262
Si Si7 0.094336 0.321120 0.423965
O O1 0.665009 0.500000 0.159764
O O2 0.579888 0.721659 0.111853
O O3 0.598978 0.687912 0.236714
O O4 0.720465 0.780705 0.166099
O O5 0.875147 0.500000 0.926574
O O6 0.870353 0.247958 0.865143
O O7 0.000000 0.320871 0.930271
O O8 0.872231 0.267325 0.000000
O O9 0.500000 0.500000 0.931015
O O10 0.500000 0.740657 0.000000
O O11 0.500000 0.271878 0.333617
O O12 0.599271 0.500000 0.330073
O O13 0.677197 0.242539 0.337686
O O14 0.810514 0.228676 0.262530
O O15 0.833802 0.239247 0.385174
O O16 0.767200 0.000000 0.331890
O O17 0.173293 0.000000 0.189154
O O18 0.102041 0.293417 0.500000
O O19 0.101380 0.500000 0.414235
O O20 0.000000 0.277073 0.404852
#
# Coordination Sequence:
#
# PCOD9386862 Si02
#       7
#     8   8   4   8   8   8   8
#     4   9  16  29  47  67  92 124 164 208 251 298
#     4   9  19  36  55  72  90 119 165 216 263 312
#     4   9  16  26  43  67  91 117 156 207 256 299
#     4   9  16  29  51  74  98 134 179 223 264 306
#     4  10  21  34  50  79 114 144 177 215 259 315
#     4  10  21  34  48  72 104 135 166 204 253 307
#     4   9  19  37  60  84 110 142 179 217 259 309
#
# _framework density 17.231815999999998
#
# number of rings (size 3 to 8) (size 9 to 14) (size 15 to 20)
#    0.000    2.692    0.769    1.846    0.000    4.615 
#    0.000    6.538    0.000    0.923    0.000    3.231 
#    0.000    0.000    0.000    0.000    0.000    0.000 
#
# Total GULP energy -289525.340858 kJ/mol
# GULP energy per Si atom -5567.795017 kJ/mol
# Density = 1.719260 g / cm^3
# Si number density = 17.231816 Si / 1000 Ang^3
#
#
#
# Elastic Constant Matrix: (Units=GPa)
#
#
# Indices 1 2 3 4 5 6 
#
# 1 102.1828 36.8627 60.9398 0.0000 0.0000 0.0000
# 2 36.8627 32.0935 31.1886 0.0000 0.0000 0.0000
# 3 60.9398 31.1886 72.5207 0.0000 0.0000 0.0000
# 4 0.0000 0.0000 0.0000 20.4528 0.0000 0.0000
# 5 0.0000 0.0000 0.0000 0.0000 -54.4822 0.0000
# 6 0.0000 0.0000 0.0000 0.0000 0.0000 87.5002
#
#
#
# Elastic Compliance Matrix: (Units=1/GPa)
#
#
# Indices 1 2 3 4 5 6 
#
# 1 0.022273 -0.012704 -0.013253 0.000000 0.000000 0.000000
# 2 -0.012704 0.060778 -0.015463 0.000000 0.000000 0.000000
# 3 -0.013253 -0.015463 0.031576 0.000000 0.000000 0.000000
# 4 0.000000 0.000000 0.000000 0.048893 0.000000 0.000000
# 5 0.000000 0.000000 0.000000 0.000000 -0.018355 0.000000
# 6 0.000000 0.000000 0.000000 0.000000 0.000000 0.011429
#
#
# Mechanical properties :
#
#
# Convention : Reuss Voigt Hill
#
# Bulk Modulus (GPa) = 31.45948 51.64213 41.55080
# Shear Modulus (GPa) = 19.99775 15.88123 17.93949
#
# Velocity S-wave (km/s) = 3.41033 3.03912 3.23006
# Velocity P-wave (km/s) = 5.81407 6.50762 6.17059
#
# Compressibility (1/GPa) = 0.03178692
#
# Stress axis : x y z
#
# Youngs Moduli (GPa) = 44.89761 16.45344 31.66990
#
# Poissons Ratio (x) = 0.20902 0.41971
# Poissons Ratio (y) = 0.57036 0.48972
# Poissons Ratio (z) = 0.59502 0.25442
#
# Static dielectric constant tensor:
#      x y z
#    x 1.591320 0.000000 0.000000 
#    y 0.000000 1.585290 0.000000 
#    z 0.000000 0.000000 1.596790 
# 
# From -- ./inp_files/30854.got.cif
#   From: 2010.05.17/outbox.cif.g08.bks.cpg/sg47_16_cif.got.tgz:30854.got - 2010.06.03 20:15:42.
