data_PCOD9386613
_publ_section_title
;
Structure prediction by ZEFSAII (Michael W. Deem and Ramdas Pophale) SiO2 
 PCOD9386613
Probable space group: P M M M
;
_chemical_formula_sum "Si O2"
_cell_formula_units_Z 48
_cell_length_a 18.246557
_cell_length_b 16.016263
_cell_length_c 8.242883
_cell_angle_alpha 90.000000
_cell_angle_beta 90.000000
_cell_angle_gamma 90.000000
_cell_volume 2408.913776
_symmetry_space_group_name_H-M "P M M M"
_symmetry_group_IT_number 47
_symmetry_cell_setting 'orthorhombic'
loop_
_space_group_symop_operation_xyz
x,y,z
-x,-y,z
x,-y,-z
-x,y,-z
-x,-y,-z
x,y,-z
-x,y,z
x,-y,z
loop_
_atom_site_type_symbol
_atom_site_label
_atom_site_fract_x
_atom_site_fract_y
_atom_site_fract_z
Si Si1 0.186259 0.350802 0.193268
Si Si2 0.085188 0.500000 0.694921
Si Si3 0.582643 0.233583 0.198464
Si Si4 0.154398 0.833961 0.310579
Si Si5 0.349981 0.592959 0.802365
Si Si6 0.304299 0.092678 0.806048
Si Si7 0.000000 0.095809 0.194071
O O1 0.125773 0.419021 0.236231
O O2 0.169263 0.263338 0.276830
O O3 0.265712 0.386994 0.241039
O O4 0.188349 0.336396 0.000000
O O5 0.091278 0.500000 0.500000
O O6 0.000000 0.500000 0.739179
O O7 0.500000 0.211537 0.245971
O O8 0.602892 0.327525 0.251586
O O9 0.642487 0.166202 0.255817
O O10 0.585381 0.234253 0.000000
O O11 0.158965 0.851346 0.500000
O O12 0.220046 0.884302 0.226075
O O13 0.074112 0.859440 0.250444
O O14 0.370781 0.500000 0.745532
O O15 0.353495 0.591265 0.000000
O O16 0.320962 0.000000 0.741609
O O17 0.314571 0.090499 0.000000
O O18 0.000000 0.000000 0.253555
O O19 0.000000 0.094866 0.000000
#
# Coordination Sequence:
#
# PCOD9386613 Si02
#       7
#     8   4   8   8   8   8   4
#     4  11  21  38  62  85 114 157 207 250 292 353
#     4  11  25  41  57  85 126 159 196 252 307 357
#     4   9  17  30  51  83 122 157 194 250 309 356
#     4  12  25  40  61  89 122 156 196 248 305 360
#     4   9  16  29  52  82 112 147 193 243 292 346
#     4  10  20  36  59  85 116 157 204 250 298 362
#     4  11  25  45  67  90 117 152 195 243 297 361
#
# _framework density 19.925992000000001
#
# number of rings (size 3 to 8) (size 9 to 14) (size 15 to 20)
#    0.000    1.667    2.500    3.000    1.167    4.333 
#    0.000    3.333    0.000    0.500    0.000    1.167 
#    0.000    2.000    0.000    0.000    0.000    0.000 
#
# Total GULP energy -268162.825044 kJ/mol
# GULP energy per Si atom -5586.725522 kJ/mol
# Density = 1.988064 g / cm^3
# Si number density = 19.925992 Si / 1000 Ang^3
#
#
#
# Elastic Constant Matrix: (Units=GPa)
#
#
# Indices 1 2 3 4 5 6 
#
# 1 114.3115 50.9195 -2.4001 0.0000 0.0000 0.0000
# 2 50.9195 151.4717 -0.6154 0.0000 0.0000 0.0000
# 3 -2.4001 -0.6154 7.0553 0.0000 0.0000 0.0000
# 4 0.0000 0.0000 0.0000 2.2017 0.0000 0.0000
# 5 0.0000 0.0000 0.0000 0.0000 -39.6833 0.0000
# 6 0.0000 0.0000 0.0000 0.0000 0.0000 0.4674
#
#
#
# Elastic Compliance Matrix: (Units=1/GPa)
#
#
# Indices 1 2 3 4 5 6 
#
# 1 0.010361 -0.003470 0.003222 0.000000 0.000000 0.000000
# 2 -0.003470 0.007766 -0.000503 0.000000 0.000000 0.000000
# 3 0.003222 -0.000503 0.142789 0.000000 0.000000 0.000000
# 4 0.000000 0.000000 0.000000 0.454187 0.000000 0.000000
# 5 0.000000 0.000000 0.000000 0.000000 -0.025200 0.000000
# 6 0.000000 0.000000 0.000000 0.000000 0.000000 2.139563
#
#
# Mechanical properties :
#
#
# Convention : Reuss Voigt Hill
#
# Bulk Modulus (GPa) = 6.27295 40.96071 23.61683
# Shear Modulus (GPa) = 1.79591 7.59281 4.69436
#
# Velocity S-wave (km/s) = 0.95039 1.95417 1.53656
# Velocity P-wave (km/s) = 2.08789 5.06880 3.87634
#
# Compressibility (1/GPa) = 0.15941470
#
# Stress axis : x y z
#
# Youngs Moduli (GPa) = 96.51215 128.76047 7.00335
#
# Poissons Ratio (x) = 0.44680 -0.02257
# Poissons Ratio (y) = 0.33490 0.00352
# Poissons Ratio (z) = -0.31097 0.06477
#
# Static dielectric constant tensor:
#      x y z
#    x 1.729530 0.000000 0.000000 
#    y 0.000000 1.696850 0.000000 
#    z 0.000000 0.000000 1.689060 
# 
# From -- ./inp_files/9182.got.cif
#   From: 2010.05.17/outbox.cif.g08.bks.cpg/sg47_5_cif.got.tgz:9182.got - 2010.06.03 20:15:42.
