data_PCOD9386652
_publ_section_title
;
Structure prediction by ZEFSAII (Michael W. Deem and Ramdas Pophale) SiO2 
 PCOD9386652
Probable space group: P M M M
;
_chemical_formula_sum "Si O2"
_cell_formula_units_Z 32
_cell_length_a 9.198546
_cell_length_b 22.271690
_cell_length_c 8.033092
_cell_angle_alpha 90.000000
_cell_angle_beta 90.000000
_cell_angle_gamma 90.000000
_cell_volume 1645.716784
_symmetry_space_group_name_H-M "P M M M"
_symmetry_group_IT_number 47
_symmetry_cell_setting 'orthorhombic'
loop_
_space_group_symop_operation_xyz
x,y,z
-x,-y,z
x,-y,-z
-x,y,-z
-x,-y,-z
x,y,-z
-x,y,z
x,-y,z
loop_
_atom_site_type_symbol
_atom_site_label
_atom_site_fract_x
_atom_site_fract_y
_atom_site_fract_z
Si Si1 0.164741 0.000000 0.800712
Si Si2 0.669361 0.571926 0.000000
Si Si3 0.173693 0.633646 0.688669
Si Si4 0.666723 0.119079 0.301651
Si Si5 0.670674 0.749787 0.196102
O O1 0.244136 0.939754 0.742915
O O2 0.000000 0.000000 0.738091
O O3 0.163922 0.000000 0.000000
O O4 0.747709 0.596559 0.834389
O O5 0.674564 0.500000 0.000000
O O6 0.500000 0.591356 0.000000
O O7 0.204914 0.612251 0.500000
O O8 0.234421 0.701238 0.707801
O O9 0.000000 0.632473 0.713114
O O10 0.666399 0.126454 0.500000
O O11 0.500000 0.110401 0.244443
O O12 0.719770 0.181786 0.225098
O O13 0.500000 0.746208 0.246666
O O14 0.679166 0.736001 0.000000
#
# Coordination Sequence:
#
# PCOD9386652 Si02
#       5
#     4   4   8   8   8
#     4  11  24  39  54  76 108 149 196 247 306 368
#     4  11  25  45  69  97 129 168 215 264 311 363
#     4  11  24  41  64  96 133 172 211 256 315 378
#     4  10  21  37  58  84 113 149 195 247 303 364
#     4  10  20  36  61  91 121 158 204 253 306 365
#
# _framework density 19.444414999999999
#
# number of rings (size 3 to 8) (size 9 to 14) (size 15 to 20)
#    0.000    1.500    1.250    3.375    0.000    9.500 
#    0.000    2.500    0.000    0.000    0.000    0.000 
#    0.000    0.000    0.000    0.000    0.000    0.000 
#
# Total GULP energy -178855.595817 kJ/mol
# GULP energy per Si atom -5589.237369 kJ/mol
# Density = 1.940016 g / cm^3
# Si number density = 19.444415 Si / 1000 Ang^3
#
#
#
# Elastic Constant Matrix: (Units=GPa)
#
#
# Indices 1 2 3 4 5 6 
#
# 1 98.3477 57.1449 62.0401 0.0000 0.0000 0.0000
# 2 57.1449 106.3574 48.7374 0.0000 0.0000 0.0000
# 3 62.0401 48.7374 116.3341 0.0000 0.0000 0.0000
# 4 0.0000 0.0000 0.0000 10.1057 0.0000 0.0000
# 5 0.0000 0.0000 0.0000 0.0000 25.2394 0.0000
# 6 0.0000 0.0000 0.0000 0.0000 0.0000 -23.3811
#
#
#
# Elastic Compliance Matrix: (Units=1/GPa)
#
#
# Indices 1 2 3 4 5 6 
#
# 1 0.018529 -0.006717 -0.007067 0.000000 0.000000 0.000000
# 2 -0.006717 0.014071 -0.002313 0.000000 0.000000 0.000000
# 3 -0.007067 -0.002313 0.013334 0.000000 0.000000 0.000000
# 4 0.000000 0.000000 0.000000 0.098954 0.000000 0.000000
# 5 0.000000 0.000000 0.000000 0.000000 0.039621 0.000000
# 6 0.000000 0.000000 0.000000 0.000000 0.000000 -0.042769
#
#
# Mechanical properties :
#
#
# Convention : Reuss Voigt Hill
#
# Bulk Modulus (GPa) = 72.78230 72.98709 72.88470
# Shear Modulus (GPa) = 28.00900 12.60058 20.30479
#
# Velocity S-wave (km/s) = 3.79946 2.54841 3.23499
# Velocity P-wave (km/s) = 7.53393 6.80271 7.17764
#
# Compressibility (1/GPa) = 0.01373960
#
# Stress axis : x y z
#
# Youngs Moduli (GPa) = 53.96881 71.06768 74.99670
#
# Poissons Ratio (x) = 0.47736 0.53004
# Poissons Ratio (y) = 0.36251 0.17346
# Poissons Ratio (z) = 0.38142 0.16437
#
# Static dielectric constant tensor:
#      x y z
#    x 1.664410 0.000000 0.000000 
#    y 0.000000 1.670480 0.000000 
#    z 0.000000 0.000000 1.681970 
# 
# From -- ./inp_files/1293.got.cif
#   From: 2010.05.17/outbox.cif.g08.bks.cpg/sg47_1_cif.got.tgz:1293.got - 2010.06.03 20:15:42.
