data_PCOD9386113
_publ_section_title
;
Structure prediction by ZEFSAII (Michael W. Deem and Ramdas Pophale) SiO2 
 PCOD9386113
Probable space group: P M M M
;
_chemical_formula_sum "Si O2"
_cell_formula_units_Z 48
_cell_length_a 31.898787
_cell_length_b 9.410196
_cell_length_c 9.012199
_cell_angle_alpha 90.000000
_cell_angle_beta 90.000000
_cell_angle_gamma 90.000000
_cell_volume 2705.226361
_symmetry_space_group_name_H-M "P M M M"
_symmetry_group_IT_number 47
_symmetry_cell_setting 'orthorhombic'
loop_
_space_group_symop_operation_xyz
x,y,z
-x,-y,z
x,-y,-z
-x,y,-z
-x,-y,-z
x,y,-z
-x,y,z
x,-y,z
loop_
_atom_site_type_symbol
_atom_site_label
_atom_site_fract_x
_atom_site_fract_y
_atom_site_fract_z
Si Si1 0.577580 0.666800 0.820638
Si Si2 0.500000 0.832524 0.678001
Si Si3 0.753452 0.829423 0.825893
Si Si4 0.000000 0.834268 0.822582
Si Si5 0.828931 0.335391 0.321488
Si Si6 0.660175 0.836095 0.180610
Si Si7 0.076571 0.668879 0.677825
O O1 0.575104 0.500000 0.783488
O O2 0.540553 0.755053 0.745373
O O3 0.622195 0.734605 0.775766
O O4 0.573872 0.679209 0.000000
O O5 0.500000 0.819981 0.500000
O O6 0.500000 0.000000 0.716464
O O7 0.791583 0.757108 0.742446
O O8 0.706698 0.789568 0.770684
O O9 0.755924 0.000000 0.813987
O O10 0.756201 0.792456 0.000000
O O11 0.040944 0.757171 0.758283
O O12 0.000000 0.000000 0.780355
O O13 0.000000 0.823853 0.000000
O O14 0.828029 0.330470 0.500000
O O15 0.823553 0.500000 0.276714
O O16 0.876016 0.290223 0.276457
O O17 0.652755 0.000000 0.227185
O O18 0.661494 0.837628 0.000000
O O19 0.072927 0.688151 0.500000
O O20 0.071588 0.500000 0.706350
#
# Coordination Sequence:
#
# PCOD9386113 Si02
#       7
#     8   4   8   4   8   8   8
#     4  10  20  34  55  82 106 130 167 213 257 303
#     4  11  24  39  54  74 102 137 174 209 250 304
#     4   9  18  32  51  77 107 137 170 209 253 300
#     4  11  24  37  50  76 110 135 160 203 256 306
#     4   9  19  35  53  75 103 134 171 213 253 297
#     4   8  15  30  51  74 102 136 172 209 249 295
#     4   9  19  37  58  76  97 131 174 214 251 297
#
# _framework density 17.743433
#
# number of rings (size 3 to 8) (size 9 to 14) (size 15 to 20)
#    0.000    2.667    0.000    3.500    0.000    7.333 
#    0.000    7.500    0.000    1.000    0.000    0.000 
#    0.000    0.000    0.000    0.000    0.000    0.000 
#
# Total GULP energy -267725.654344 kJ/mol
# GULP energy per Si atom -5577.617799 kJ/mol
# Density = 1.770305 g / cm^3
# Si number density = 17.743433 Si / 1000 Ang^3
#
#
#
# Elastic Constant Matrix: (Units=GPa)
#
#
# Indices 1 2 3 4 5 6 
#
# 1 198.1528 101.1070 51.6562 0.0000 0.0000 0.0000
# 2 101.1070 97.3370 41.0353 0.0000 0.0000 0.0000
# 3 51.6562 41.0353 23.1176 0.0000 0.0000 0.0000
# 4 0.0000 0.0000 0.0000 27.8939 0.0000 0.0000
# 5 0.0000 0.0000 0.0000 0.0000 41.4957 0.0000
# 6 0.0000 0.0000 0.0000 0.0000 0.0000 38.2531
#
#
#
# Elastic Compliance Matrix: (Units=1/GPa)
#
#
# Indices 1 2 3 4 5 6 
#
# 1 0.012641 -0.004858 -0.019623 0.000000 0.000000 0.000000
# 2 -0.004858 0.042689 -0.064921 0.000000 0.000000 0.000000
# 3 -0.019623 -0.064921 0.202345 0.000000 0.000000 0.000000
# 4 0.000000 0.000000 0.000000 0.035850 0.000000 0.000000
# 5 0.000000 0.000000 0.000000 0.000000 0.024099 0.000000
# 6 0.000000 0.000000 0.000000 0.000000 0.000000 0.026142
#
#
# Mechanical properties :
#
#
# Convention : Reuss Voigt Hill
#
# Bulk Modulus (GPa) = 12.67906 78.46715 45.57310
# Shear Modulus (GPa) = 9.10981 29.84913 19.47947
#
# Velocity S-wave (km/s) = 2.26833 4.10599 3.31696
# Velocity P-wave (km/s) = 3.74456 8.17301 6.35688
#
# Compressibility (1/GPa) = 0.07887023
#
# Stress axis : x y z
#
# Youngs Moduli (GPa) = 79.10946 23.42529 4.94207
#
# Poissons Ratio (x) = 0.11379 0.09698
# Poissons Ratio (y) = 0.38429 0.32085
# Poissons Ratio (z) = 1.55236 1.52080
#
# Static dielectric constant tensor:
#      x y z
#    x 1.600420 0.000000 0.000000 
#    y 0.000000 1.587160 0.000000 
#    z 0.000000 0.000000 1.595790 
# 
# From -- ./inp_files/13923.got.cif
#   From: 2010.05.17/outbox.cif.g08.bks.cpg/sg47_7_cif.got.tgz:13923.got - 2010.06.03 20:15:42.
