data_PCOD9386310
_publ_section_title
;
Structure prediction by ZEFSAII (Michael W. Deem and Ramdas Pophale) SiO2 
 PCOD9386310
Probable space group: P M M M
;
_chemical_formula_sum "Si O2"
_cell_formula_units_Z 48
_cell_length_a 9.994519
_cell_length_b 7.635980
_cell_length_c 30.587035
_cell_angle_alpha 90.000000
_cell_angle_beta 90.000000
_cell_angle_gamma 90.000000
_cell_volume 2334.339722
_symmetry_space_group_name_H-M "P M M M"
_symmetry_group_IT_number 47
_symmetry_cell_setting 'orthorhombic'
loop_
_space_group_symop_operation_xyz
x,y,z
-x,-y,z
x,-y,-z
-x,y,-z
-x,-y,-z
x,y,-z
-x,y,z
x,-y,z
loop_
_atom_site_type_symbol
_atom_site_label
_atom_site_fract_x
_atom_site_fract_y
_atom_site_fract_z
Si Si1 0.653647 0.292897 0.356584
Si Si2 0.154978 0.284914 0.278825
Si Si3 0.752305 0.201360 0.892691
Si Si4 0.000000 0.215352 0.949300
Si Si5 0.348101 0.295036 0.797992
Si Si6 0.500000 0.711080 0.949259
Si Si7 0.656612 0.210843 0.453024
O O1 0.500000 0.221131 0.353491
O O2 0.641931 0.500000 0.348806
O O3 0.758491 0.226456 0.320864
O O4 0.707608 0.269277 0.405944
O O5 0.151015 0.500000 0.278800
O O6 0.240913 0.224989 0.236766
O O7 0.000000 0.227772 0.278709
O O8 0.710597 0.283164 0.846723
O O9 0.627178 0.214388 0.924683
O O10 0.873531 0.275613 0.921079
O O11 0.784683 0.000000 0.882730
O O12 0.000000 0.000000 0.950682
O O13 0.000000 0.272090 0.000000
O O14 0.500000 0.220345 0.796347
O O15 0.361332 0.500000 0.787263
O O16 0.500000 0.500000 0.945100
O O17 0.500000 0.756801 0.000000
O O18 0.714291 0.270555 0.500000
O O19 0.500000 0.264212 0.453073
O O20 0.660652 0.000000 0.453057
#
# Coordination Sequence:
#
# PCOD9386310 Si02
#       7
#     8   8   8   4   8   4   8
#     4   9  16  27  46  72  99 126 164 213 258 299
#     4   9  18  32  51  74  99 134 175 212 256 313
#     4  11  22  37  59  84 111 144 180 218 263 315
#     4   9  20  38  57  79 109 145 181 215 256 309
#     4  10  20  35  55  78 107 138 172 216 263 311
#     4  11  23  39  59  85 115 143 177 221 264 309
#     4   8  14  25  42  66  97 131 165 202 249 304
#
# _framework density 20.562560999999999
#
# number of rings (size 3 to 8) (size 9 to 14) (size 15 to 20)
#    0.000    2.500    0.833    2.250    1.167    3.667 
#    0.000    3.750    0.000    7.000    0.000    3.500 
#    0.000    0.000    0.000    0.000    0.000    0.000 
#
# Total GULP energy -267619.383988 kJ/mol
# GULP energy per Si atom -5575.403833 kJ/mol
# Density = 2.051576 g / cm^3
# Si number density = 20.562561 Si / 1000 Ang^3
#
#
#
# Elastic Constant Matrix: (Units=GPa)
#
#
# Indices 1 2 3 4 5 6 
#
# 1 165.4329 1.0291 104.1948 0.0000 0.0000 0.0000
# 2 1.0291 35.9258 -1.6569 0.0000 0.0000 0.0000
# 3 104.1948 -1.6569 196.5317 0.0000 0.0000 0.0000
# 4 0.0000 0.0000 0.0000 37.2008 0.0000 0.0000
# 5 0.0000 0.0000 0.0000 0.0000 17.4851 0.0000
# 6 0.0000 0.0000 0.0000 0.0000 0.0000 7.5515
#
#
#
# Elastic Compliance Matrix: (Units=1/GPa)
#
#
# Indices 1 2 3 4 5 6 
#
# 1 0.009083 -0.000482 -0.004820 0.000000 0.000000 0.000000
# 2 -0.000482 0.027872 0.000491 0.000000 0.000000 0.000000
# 3 -0.004820 0.000491 0.007648 0.000000 0.000000 0.000000
# 4 0.000000 0.000000 0.000000 0.026881 0.000000 0.000000
# 5 0.000000 0.000000 0.000000 0.000000 0.057192 0.000000
# 6 0.000000 0.000000 0.000000 0.000000 0.000000 0.132425
#
#
# Mechanical properties :
#
#
# Convention : Reuss Voigt Hill
#
# Bulk Modulus (GPa) = 28.58806 67.22495 47.90651
# Shear Modulus (GPa) = 17.70646 32.06903 24.88775
#
# Velocity S-wave (km/s) = 2.93764 3.95344 3.48277
# Velocity P-wave (km/s) = 5.04375 7.32144 6.28661
#
# Compressibility (1/GPa) = 0.03497964
#
# Stress axis : x y z
#
# Youngs Moduli (GPa) = 110.09088 35.87884 130.75871
#
# Poissons Ratio (x) = 0.01731 0.63023
# Poissons Ratio (y) = 0.05312 -0.06417
# Poissons Ratio (z) = 0.53062 -0.01761
#
# Static dielectric constant tensor:
#      x y z
#    x 1.708950 0.000000 0.000000 
#    y 0.000000 1.796470 0.000000 
#    z 0.000000 0.000000 1.728740 
# 
# From -- ./inp_files/2711.got.cif
#   From: 2010.05.17/outbox.cif.g08.bks.cpg/sg47_2_cif.got.tgz:2711.got - 2010.06.03 20:15:42.
