data_PCOD9386986
_publ_section_title
;
Structure prediction by ZEFSAII (Michael W. Deem and Ramdas Pophale) SiO2 
 PCOD9386986
Probable space group: P M M M
;
_chemical_formula_sum "Si O2"
_cell_formula_units_Z 44
_cell_length_a 19.496599
_cell_length_b 14.137273
_cell_length_c 7.470137
_cell_angle_alpha 90.000000
_cell_angle_beta 90.000000
_cell_angle_gamma 90.000000
_cell_volume 2058.984469
_symmetry_space_group_name_H-M "P M M M"
_symmetry_group_IT_number 47
_symmetry_cell_setting 'orthorhombic'
loop_
_space_group_symop_operation_xyz
x,y,z
-x,-y,z
x,-y,-z
-x,y,-z
-x,-y,-z
x,y,-z
-x,y,z
x,-y,z
loop_
_atom_site_type_symbol
_atom_site_label
_atom_site_fract_x
_atom_site_fract_y
_atom_site_fract_z
Si Si1 0.078250 0.290919 0.219247
Si Si2 0.423165 0.701318 0.709901
Si Si3 0.916745 0.500000 0.205029
Si Si4 0.713452 0.603149 0.207083
Si Si5 0.214259 0.207418 0.218581
Si Si6 0.652835 0.895824 0.216519
O O1 0.100642 0.396827 0.280733
O O2 0.134975 0.214041 0.272415
O O3 0.000000 0.273196 0.276103
O O4 0.077301 0.295133 0.000000
O O5 0.425018 0.679872 0.500000
O O6 0.500000 0.693148 0.782787
O O7 0.366479 0.631634 0.789943
O O8 0.395188 0.808516 0.730004
O O9 0.000000 0.500000 0.200753
O O10 0.891570 0.500000 0.000000
O O11 0.725505 0.500000 0.287369
O O12 0.752537 0.693608 0.282415
O O13 0.734875 0.598582 0.000000
O O14 0.268986 0.128465 0.274283
O O15 0.215012 0.205615 0.000000
O O16 0.631925 0.000000 0.278695
O O17 0.652254 0.896204 0.000000
#
# Coordination Sequence:
#
# PCOD9386986 Si02
#       6
#     8   8   4   8   8   8
#     4   8  12  17  28  50  82 118 152 184 219 260
#     4  10  21  35  50  70  95 119 146 185 231 277
#     4   7  10  14  20  38  70 106 140 171 206 248
#     4   9  18  31  47  68  94 127 163 192 220 260
#     4   8  14  24  39  59  85 119 156 190 222 263
#     4   9  18  33  51  69  90 118 151 187 231 281
#
# _framework density 21.369757
#
# number of rings (size 3 to 8) (size 9 to 14) (size 15 to 20)
#    0.000    3.364    0.000    2.727    1.273    2.909 
#    0.000    3.636    0.000    0.545    0.000    3.818 
#    0.000   11.636    0.000   13.091    0.000   14.545 
#
# Total GULP energy -245203.301163 kJ/mol
# GULP energy per Si atom -5572.802299 kJ/mol
# Density = 2.132112 g / cm^3
# Si number density = 21.369757 Si / 1000 Ang^3
#
#
#
# Elastic Constant Matrix: (Units=GPa)
#
#
# Indices 1 2 3 4 5 6 
#
# 1 79.6371 -24.2222 -8.7011 0.0000 0.0000 0.0000
# 2 -24.2222 30.9707 -3.9394 0.0000 0.0000 0.0000
# 3 -8.7011 -3.9394 61.3305 0.0000 0.0000 0.0000
# 4 0.0000 0.0000 0.0000 -62.9391 0.0000 0.0000
# 5 0.0000 0.0000 0.0000 0.0000 22.8909 0.0000
# 6 0.0000 0.0000 0.0000 0.0000 0.0000 17.7726
#
#
#
# Elastic Compliance Matrix: (Units=1/GPa)
#
#
# Indices 1 2 3 4 5 6 
#
# 1 0.017120 0.013811 0.003316 0.000000 0.000000 0.000000
# 2 0.013811 0.043697 0.004766 0.000000 0.000000 0.000000
# 3 0.003316 0.004766 0.017082 0.000000 0.000000 0.000000
# 4 0.000000 0.000000 0.000000 -0.015888 0.000000 0.000000
# 5 0.000000 0.000000 0.000000 0.000000 0.043685 0.000000
# 6 0.000000 0.000000 0.000000 0.000000 0.000000 0.056266
#
#
# Mechanical properties :
#
#
# Convention : Reuss Voigt Hill
#
# Bulk Modulus (GPa) = 8.21787 10.91253 9.56520
# Shear Modulus (GPa) = 31.49871 9.46496 20.48183
#
# Velocity S-wave (km/s) = 3.84342 2.10683 3.09924
# Velocity P-wave (km/s) = 4.85280 3.32204 4.15847
#
# Compressibility (1/GPa) = 0.12168605
#
# Stress axis : x y z
#
# Youngs Moduli (GPa) = 58.41072 22.88496 58.54218
#
# Poissons Ratio (x) = -0.31608 -0.19413
# Poissons Ratio (y) = -0.80674 -0.27902
# Poissons Ratio (z) = -0.19369 -0.10907
#
# Static dielectric constant tensor:
#      x y z
#    x 1.802780 0.000000 0.000000 
#    y 0.000000 1.759650 0.000000 
#    z 0.000000 0.000000 1.876400 
# 
# From -- ./inp_files/10859.got.cif
#   From: 2010.05.17/outbox.cif.g08.bks.cpg/sg47_6_cif.got.tgz:10859.got - 2010.06.03 20:15:42.
