data_PCOD9386360
_publ_section_title
;
Structure prediction by ZEFSAII (Michael W. Deem and Ramdas Pophale) SiO2 
 PCOD9386360
Probable space group: P M M M
;
_chemical_formula_sum "Si O2"
_cell_formula_units_Z 48
_cell_length_a 10.226200
_cell_length_b 7.956592
_cell_length_c 29.981342
_cell_angle_alpha 90.000000
_cell_angle_beta 90.000000
_cell_angle_gamma 90.000000
_cell_volume 2439.452912
_symmetry_space_group_name_H-M "P M M M"
_symmetry_group_IT_number 47
_symmetry_cell_setting 'orthorhombic'
loop_
_space_group_symop_operation_xyz
x,y,z
-x,-y,z
x,-y,-z
-x,y,-z
-x,-y,-z
x,y,-z
-x,y,z
x,-y,z
loop_
_atom_site_type_symbol
_atom_site_label
_atom_site_fract_x
_atom_site_fract_y
_atom_site_fract_z
Si Si1 0.851811 0.301278 0.301246
Si Si2 0.348705 0.206065 0.126898
Si Si3 0.000000 0.793939 0.551293
Si Si4 0.248412 0.800547 0.393265
Si Si5 0.148449 0.800916 0.798111
Si Si6 0.500000 0.299302 0.550867
Si Si7 0.147188 0.795225 0.051418
O O1 0.856861 0.500000 0.294663
O O2 0.759481 0.264642 0.342908
O O3 0.816181 0.223533 0.253684
O O4 0.000000 0.240930 0.312652
O O5 0.500000 0.261813 0.127188
O O6 0.261204 0.263335 0.169085
O O7 0.263722 0.258578 0.083782
O O8 0.352214 0.000000 0.127178
O O9 0.874030 0.734769 0.578267
O O10 0.000000 0.739583 0.500000
O O11 0.000000 0.000000 0.550849
O O12 0.375391 0.757372 0.421209
O O13 0.236026 0.000000 0.390273
O O14 0.000000 0.731742 0.804731
O O15 0.139584 0.000000 0.806883
O O16 0.500000 0.500000 0.548500
O O17 0.500000 0.232953 0.500000
O O18 0.000000 0.743827 0.066035
O O19 0.147109 0.000000 0.051938
O O20 0.165075 0.743074 0.000000
#
# Coordination Sequence:
#
# PCOD9386360 Si02
#       7
#     8   8   4   8   8   4   8
#     4  10  20  35  56  81 109 137 171 218 272 326
#     4   9  16  25  38  60  90 123 162 211 259 302
#     4   9  18  32  55  87 115 137 171 221 266 307
#     4  11  21  37  61  86 113 145 184 226 268 318
#     4   9  17  30  49  69  92 127 170 210 252 307
#     4  11  25  43  59  81 117 155 187 221 266 319
#     4   8  13  21  34  54  84 124 166 204 248 306
#
# _framework density 19.676544
#
# number of rings (size 3 to 8) (size 9 to 14) (size 15 to 20)
#    0.000    2.500    0.833    2.750    0.000    4.333 
#    1.500    1.667    0.000    2.000    0.000    0.000 
#    0.000    0.667    0.000    7.667    0.000    9.833 
#
# Total GULP energy -267775.703172 kJ/mol
# GULP energy per Si atom -5578.660483 kJ/mol
# Density = 1.963176 g / cm^3
# Si number density = 19.676544 Si / 1000 Ang^3
#
#
#
# Elastic Constant Matrix: (Units=GPa)
#
#
# Indices 1 2 3 4 5 6 
#
# 1 172.2779 -0.4420 104.2712 0.0000 0.0000 0.0000
# 2 -0.4420 15.9122 -4.7667 0.0000 0.0000 0.0000
# 3 104.2712 -4.7667 144.8758 0.0000 0.0000 0.0000
# 4 0.0000 0.0000 0.0000 -27.2446 0.0000 0.0000
# 5 0.0000 0.0000 0.0000 0.0000 29.1851 0.0000
# 6 0.0000 0.0000 0.0000 0.0000 0.0000 25.8072
#
#
#
# Elastic Compliance Matrix: (Units=1/GPa)
#
#
# Indices 1 2 3 4 5 6 
#
# 1 0.010345 -0.001962 -0.007510 0.000000 0.000000 0.000000
# 2 -0.001962 0.063843 0.003513 0.000000 0.000000 0.000000
# 3 -0.007510 0.003513 0.012423 0.000000 0.000000 0.000000
# 4 0.000000 0.000000 0.000000 -0.036705 0.000000 0.000000
# 5 0.000000 0.000000 0.000000 0.000000 0.034264 0.000000
# 6 0.000000 0.000000 0.000000 0.000000 0.000000 0.038749
#
#
# Mechanical properties :
#
#
# Convention : Reuss Voigt Hill
#
# Bulk Modulus (GPa) = 13.38834 59.02119 36.20477
# Shear Modulus (GPa) = 31.30161 21.14978 26.22569
#
# Velocity S-wave (km/s) = 3.99282 3.28208 3.65477
# Velocity P-wave (km/s) = 5.29866 6.66510 6.02077
#
# Compressibility (1/GPa) = 0.07469183
#
# Stress axis : x y z
#
# Youngs Moduli (GPa) = 96.66403 15.66349 80.49340
#
# Poissons Ratio (x) = 0.03074 0.60452
# Poissons Ratio (y) = 0.18969 -0.28277
# Poissons Ratio (z) = 0.72597 -0.05502
#
# Static dielectric constant tensor:
#      x y z
#    x 1.648950 0.000000 0.000000 
#    y 0.000000 1.699870 0.000000 
#    z 0.000000 0.000000 1.682080 
# 
# From -- ./inp_files/34054.got.cif
#   From: 2010.05.17/outbox.cif.g08.bks.cpg/sg47_18_cif.got.tgz:34054.got - 2010.06.03 20:15:42.
