data_PCOD9386454
_publ_section_title
;
Structure prediction by ZEFSAII (Michael W. Deem and Ramdas Pophale) SiO2 
 PCOD9386454
Probable space group: P M M M
;
_chemical_formula_sum "Si O2"
_cell_formula_units_Z 48
_cell_length_a 31.704140
_cell_length_b 9.214666
_cell_length_c 8.959092
_cell_angle_alpha 90.000000
_cell_angle_beta 90.000000
_cell_angle_gamma 90.000000
_cell_volume 2617.336560
_symmetry_space_group_name_H-M "P M M M"
_symmetry_group_IT_number 47
_symmetry_cell_setting 'orthorhombic'
loop_
_space_group_symop_operation_xyz
x,y,z
-x,-y,z
x,-y,-z
-x,y,-z
-x,-y,-z
x,y,-z
-x,y,z
x,-y,z
loop_
_atom_site_type_symbol
_atom_site_label
_atom_site_fract_x
_atom_site_fract_y
_atom_site_fract_z
Si Si1 0.585632 0.329541 0.319710
Si Si2 0.168283 0.170724 0.678627
Si Si3 0.500000 0.167217 0.681681
Si Si4 0.745550 0.329631 0.320242
Si Si5 0.334219 0.829756 0.821243
Si Si6 0.000000 0.671412 0.677421
Si Si7 0.920330 0.827738 0.822590
O O1 0.588974 0.318014 0.500000
O O2 0.584587 0.500000 0.282362
O O3 0.542316 0.251037 0.272613
O O4 0.625484 0.251577 0.246814
O O5 0.162597 0.184396 0.500000
O O6 0.209211 0.262536 0.722289
O O7 0.125219 0.216530 0.758557
O O8 0.175697 0.000000 0.711631
O O9 0.500000 0.166471 0.500000
O O10 0.500000 0.000000 0.731687
O O11 0.741397 0.314583 0.500000
O O12 0.743423 0.500000 0.284117
O O13 0.707861 0.243458 0.242984
O O14 0.335431 0.000000 0.781004
O O15 0.334717 0.817660 0.000000
O O16 0.041527 0.743202 0.747064
O O17 0.000000 0.500000 0.707198
O O18 0.000000 0.694552 0.500000
O O19 0.925156 0.000000 0.791489
O O20 0.921468 0.807266 0.000000
#
# Coordination Sequence:
#
# PCOD9386454 Si02
#       7
#     8   8   4   8   8   4   8
#     4  10  20  35  57  84 112 142 179 224 273 325
#     4   9  18  34  56  81 110 145 183 222 265 316
#     4   9  17  31  54  83 112 143 180 222 268 319
#     4  10  21  37  58  84 112 143 181 225 272 323
#     4  11  24  39  55  78 109 145 185 228 273 323
#     4  11  24  39  56  80 110 145 186 231 276 322
#     4  10  21  37  58  84 113 145 182 224 271 325
#
# _framework density 18.339254
#
# number of rings (size 3 to 8) (size 9 to 14) (size 15 to 20)
#    0.000    2.000    0.000    3.250    0.000   10.333 
#    0.000    3.750    0.000    2.500    0.000    0.000 
#    0.000    0.000    0.000    0.000    0.000    0.000 
#
# Total GULP energy -268182.461676 kJ/mol
# GULP energy per Si atom -5587.134618 kJ/mol
# Density = 1.829751 g / cm^3
# Si number density = 18.339254 Si / 1000 Ang^3
#
#
#
# Elastic Constant Matrix: (Units=GPa)
#
#
# Indices 1 2 3 4 5 6 
#
# 1 221.9958 130.9209 71.2474 0.0000 0.0000 0.0000
# 2 130.9209 156.6152 67.4196 0.0000 0.0000 0.0000
# 3 71.2474 67.4196 35.4858 0.0000 0.0000 0.0000
# 4 0.0000 0.0000 0.0000 23.6715 0.0000 0.0000
# 5 0.0000 0.0000 0.0000 0.0000 -43.1593 0.0000
# 6 0.0000 0.0000 0.0000 0.0000 0.0000 798.6356
#
#
#
# Elastic Compliance Matrix: (Units=1/GPa)
#
#
# Indices 1 2 3 4 5 6 
#
# 1 0.012779 0.001990 -0.029438 0.000000 0.000000 0.000000
# 2 0.001990 0.035368 -0.071192 0.000000 0.000000 0.000000
# 3 -0.029438 -0.071192 0.222543 0.000000 0.000000 0.000000
# 4 0.000000 0.000000 0.000000 0.042245 0.000000 0.000000
# 5 0.000000 0.000000 0.000000 0.000000 -0.023170 0.000000
# 6 0.000000 0.000000 0.000000 0.000000 0.000000 0.001252
#
#
# Mechanical properties :
#
#
# Convention : Reuss Voigt Hill
#
# Bulk Modulus (GPa) = 13.62204 105.91920 59.77062
# Shear Modulus (GPa) = 9.75104 165.46347 87.60725
#
# Velocity S-wave (km/s) = 2.30837 9.50892 6.91911
# Velocity P-wave (km/s) = 3.81427 13.35815 9.82316
#
# Compressibility (1/GPa) = 0.07341047
#
# Stress axis : x y z
#
# Youngs Moduli (GPa) = 78.25506 28.27417 4.49351
#
# Poissons Ratio (x) = -0.05627 0.13228
# Poissons Ratio (y) = -0.15575 0.31990
# Poissons Ratio (z) = 2.30368 2.01289
#
# Static dielectric constant tensor:
#      x y z
#    x 1.592510 0.000000 0.000000 
#    y 0.000000 1.613910 0.000000 
#    z 0.000000 0.000000 1.611330 
# 
# From -- ./inp_files/13909.got.cif
#   From: 2010.05.17/outbox.cif.g08.bks.cpg/sg47_7_cif.got.tgz:13909.got - 2010.06.03 20:15:42.
