data_PCOD9386124
_publ_section_title
;
Structure prediction by ZEFSAII (Michael W. Deem and Ramdas Pophale) SiO2 
 PCOD9386124
Probable space group: P M M M
;
_chemical_formula_sum "Si O2"
_cell_formula_units_Z 56
_cell_length_a 15.962926
_cell_length_b 19.407838
_cell_length_c 7.712251
_cell_angle_alpha 90.000000
_cell_angle_beta 90.000000
_cell_angle_gamma 90.000000
_cell_volume 2389.300722
_symmetry_space_group_name_H-M "P M M M"
_symmetry_group_IT_number 47
_symmetry_cell_setting 'orthorhombic'
loop_
_space_group_symop_operation_xyz
x,y,z
-x,-y,z
x,-y,-z
-x,y,-z
-x,-y,-z
x,y,-z
-x,y,z
x,-y,z
loop_
_atom_site_type_symbol
_atom_site_label
_atom_site_fract_x
_atom_site_fract_y
_atom_site_fract_z
Si Si1 0.095256 0.842030 0.701463
Si Si2 0.597896 0.000000 0.712714
Si Si3 0.592139 0.230220 0.791367
Si Si4 0.233916 0.426249 0.301303
Si Si5 0.867817 0.311080 0.800834
Si Si6 0.276751 0.119674 0.703744
Si Si7 0.590996 0.391868 0.209005
Si Si8 0.000000 0.423097 0.788778
O O1 0.090605 0.862889 0.500000
O O2 0.115463 0.760033 0.706462
O O3 0.181286 0.875966 0.776651
O O4 0.000000 0.852815 0.774039
O O5 0.655097 0.935328 0.771147
O O6 0.500000 0.000000 0.769645
O O7 0.594806 0.000000 0.500000
O O8 0.500000 0.202166 0.733158
O O9 0.673463 0.191261 0.721692
O O10 0.593685 0.310508 0.747697
O O11 0.594413 0.224045 0.000000
O O12 0.206641 0.422083 0.500000
O O13 0.201161 0.500000 0.225019
O O14 0.218226 0.352480 0.209000
O O15 0.333108 0.429290 0.295714
O O16 0.923557 0.375012 0.736782
O O17 0.888962 0.295968 0.000000
O O18 0.266317 0.104362 0.500000
O O19 0.500000 0.417666 0.258674
O O20 0.598834 0.398021 0.000000
O O21 0.000000 0.500000 0.720075
O O22 0.000000 0.426976 0.000000
#
# Coordination Sequence:
#
# PCOD9386124 Si02
#       8
#     8   4   8   8   8   8   8   4
#     4  10  21  37  56  81 115 148 182 231 287 339
#     4   9  18  34  56  84 118 151 189 237 278 321
#     4   9  18  33  53  80 112 141 173 222 281 335
#     4  11  24  38  51  73 106 142 180 224 281 344
#     4  11  21  36  58  81 106 139 183 231 279 331
#     4  10  20  34  55  82 111 150 193 228 271 328
#     4   9  19  36  56  77 102 136 181 231 281 333
#     4   9  18  32  51  77 105 132 171 224 276 327
#
# _framework density 23.437819999999999
#
# number of rings (size 3 to 8) (size 9 to 14) (size 15 to 20)
#    0.000    2.143    0.714    3.429    0.000    6.571 
#    0.000    3.571    0.000    5.143    0.000    0.000 
#    0.000    2.286    0.000    0.000    0.000    0.000 
#
# Total GULP energy -312248.690161 kJ/mol
# GULP energy per Si atom -5575.869467 kJ/mol
# Density = 2.338447 g / cm^3
# Si number density = 23.437820 Si / 1000 Ang^3
#
#
#
# Elastic Constant Matrix: (Units=GPa)
#
#
# Indices 1 2 3 4 5 6 
#
# 1 195.2214 48.6986 11.0109 0.0000 0.0000 0.0000
# 2 48.6986 72.7790 3.5071 0.0000 0.0000 0.0000
# 3 11.0109 3.5071 39.8980 0.0000 0.0000 0.0000
# 4 0.0000 0.0000 0.0000 34.7754 0.0000 0.0000
# 5 0.0000 0.0000 0.0000 0.0000 -22.9585 0.0000
# 6 0.0000 0.0000 0.0000 0.0000 0.0000 60.9834
#
#
#
# Elastic Compliance Matrix: (Units=1/GPa)
#
#
# Indices 1 2 3 4 5 6 
#
# 1 0.006221 -0.004097 -0.001357 0.000000 0.000000 0.000000
# 2 -0.004097 0.016497 -0.000319 0.000000 0.000000 0.000000
# 3 -0.001357 -0.000319 0.025466 0.000000 0.000000 0.000000
# 4 0.000000 0.000000 0.000000 0.028756 0.000000 0.000000
# 5 0.000000 0.000000 0.000000 0.000000 -0.043557 0.000000
# 6 0.000000 0.000000 0.000000 0.000000 0.000000 0.016398
#
#
# Mechanical properties :
#
#
# Convention : Reuss Voigt Hill
#
# Bulk Modulus (GPa) = 27.29414 48.25908 37.77661
# Shear Modulus (GPa) = 67.98924 30.87216 49.43070
#
# Velocity S-wave (km/s) = 5.39178 3.63325 4.59738
# Velocity P-wave (km/s) = 7.10158 6.18350 6.65838
#
# Compressibility (1/GPa) = 0.03663790
#
# Stress axis : x y z
#
# Youngs Moduli (GPa) = 160.74620 60.61624 39.26743
#
# Poissons Ratio (x) = 0.24836 0.05327
# Poissons Ratio (y) = 0.65862 0.01254
# Poissons Ratio (z) = 0.21808 0.01936
#
# Static dielectric constant tensor:
#      x y z
#    x 3.059480 0.000000 0.000000 
#    y 0.000000 1.881130 0.000000 
#    z 0.000000 0.000000 1.897790 
# 
# From -- ./inp_files/7389.got.cif
#   From: 2010.05.17/outbox.cif.g08.bks.cpg/sg47_4_cif.got.tgz:7389.got - 2010.06.03 20:15:42.
