data_PCOD9386174
_publ_section_title
;
Structure prediction by ZEFSAII (Michael W. Deem and Ramdas Pophale) SiO2 
 PCOD9386174
Probable space group: P M M M
;
_chemical_formula_sum "Si O2"
_cell_formula_units_Z 48
_cell_length_a 8.651607
_cell_length_b 30.324866
_cell_length_c 9.890333
_cell_angle_alpha 90.000000
_cell_angle_beta 90.000000
_cell_angle_gamma 90.000000
_cell_volume 2594.816125
_symmetry_space_group_name_H-M "P M M M"
_symmetry_group_IT_number 47
_symmetry_cell_setting 'orthorhombic'
loop_
_space_group_symop_operation_xyz
x,y,z
-x,-y,z
x,-y,-z
-x,y,-z
-x,-y,-z
x,y,-z
-x,y,z
x,-y,z
loop_
_atom_site_type_symbol
_atom_site_label
_atom_site_fract_x
_atom_site_fract_y
_atom_site_fract_z
Si Si1 0.685674 0.201108 0.340904
Si Si2 0.316293 0.641859 0.658736
Si Si3 0.187279 0.049258 0.500000
Si Si4 0.685400 0.948413 0.000000
Si Si5 0.185888 0.107708 0.753009
Si Si6 0.179918 0.548499 0.336273
Si Si7 0.814670 0.280685 0.158662
O O1 0.735328 0.204319 0.500000
O O2 0.500000 0.201454 0.340252
O O3 0.746739 0.155954 0.274651
O O4 0.746330 0.240850 0.248054
O O5 0.267213 0.648325 0.500000
O O6 0.500000 0.648699 0.662693
O O7 0.275401 0.591742 0.700098
O O8 0.236207 0.675396 0.761441
O O9 0.231996 0.077477 0.627520
O O10 0.000000 0.046555 0.500000
O O11 0.249654 0.000000 0.500000
O O12 0.748401 0.919948 0.876295
O O13 0.500000 0.948838 0.000000
O O14 0.737563 0.000000 0.000000
O O15 0.000000 0.111038 0.762574
O O16 0.183051 0.547124 0.500000
O O17 0.233794 0.500000 0.288890
O O18 0.000000 0.553863 0.296670
O O19 0.000000 0.277438 0.159436
O O20 0.764629 0.280008 0.000000
#
# Coordination Sequence:
#
# PCOD9386174 Si02
#       7
#     8   8   4   4   8   8   8
#     4  11  24  42  64  90 121 153 189 235 294 356
#     4  10  20  34  55  85 119 154 193 238 293 351
#     4   9  18  34  59  91 121 149 189 239 286 331
#     4  11  25  43  61  87 125 165 201 239 288 343
#     4  11  22  39  64  91 121 156 197 242 287 340
#     4   8  14  26  47  77 113 153 196 240 286 337
#     4  11  25  42  61  85 113 149 196 244 292 348
#
# _framework density 18.498421
#
# number of rings (size 3 to 8) (size 9 to 14) (size 15 to 20)
#    0.000    1.833    0.833    3.750    1.167    7.000 
#    0.000    1.667    0.000    2.500    0.000    3.500 
#    0.000    0.000    0.000    0.000    0.000    0.000 
#
# Total GULP energy -267789.243043 kJ/mol
# GULP energy per Si atom -5578.942563 kJ/mol
# Density = 1.845632 g / cm^3
# Si number density = 18.498421 Si / 1000 Ang^3
#
#
#
# Elastic Constant Matrix: (Units=GPa)
#
#
# Indices 1 2 3 4 5 6 
#
# 1 57.8759 45.2489 44.2041 0.0000 0.0000 0.0000
# 2 45.2489 173.7909 86.0616 0.0000 0.0000 0.0000
# 3 44.2041 86.0616 148.1070 0.0000 0.0000 0.0000
# 4 0.0000 0.0000 0.0000 21.0431 0.0000 0.0000
# 5 0.0000 0.0000 0.0000 0.0000 21.3436 0.0000
# 6 0.0000 0.0000 0.0000 0.0000 0.0000 27.0911
#
#
#
# Elastic Compliance Matrix: (Units=1/GPa)
#
#
# Indices 1 2 3 4 5 6 
#
# 1 0.024044 -0.003800 -0.004968 0.000000 0.000000 0.000000
# 2 -0.003800 0.008679 -0.003909 0.000000 0.000000 0.000000
# 3 -0.004968 -0.003909 0.010506 0.000000 0.000000 0.000000
# 4 0.000000 0.000000 0.000000 0.047521 0.000000 0.000000
# 5 0.000000 0.000000 0.000000 0.000000 0.046853 0.000000
# 6 0.000000 0.000000 0.000000 0.000000 0.000000 0.036913
#
#
# Mechanical properties :
#
#
# Convention : Reuss Voigt Hill
#
# Bulk Modulus (GPa) = 55.94464 81.20034 68.57249
# Shear Modulus (GPa) = 24.29210 27.51283 25.90246
#
# Velocity S-wave (km/s) = 3.62774 3.86075 3.74605
# Velocity P-wave (km/s) = 6.91780 7.99155 7.47398
#
# Compressibility (1/GPa) = 0.01787481
#
# Stress axis : x y z
#
# Youngs Moduli (GPa) = 41.59091 115.21743 95.18206
#
# Poissons Ratio (x) = 0.43782 0.47287
# Poissons Ratio (y) = 0.15804 0.37208
# Poissons Ratio (z) = 0.20663 0.45041
#
# Static dielectric constant tensor:
#      x y z
#    x 1.626590 0.000000 0.000000 
#    y 0.000000 1.651090 0.000000 
#    z 0.000000 0.000000 1.502490 
# 
# From -- ./inp_files/2555.got.cif
#   From: 2010.05.17/outbox.cif.g08.bks.cpg/sg47_2_cif.got.tgz:2555.got - 2010.06.03 20:15:42.
