data_PCOD9386135
_publ_section_title
;
Structure prediction by ZEFSAII (Michael W. Deem and Ramdas Pophale) SiO2 
 PCOD9386135
Probable space group: P M M M
;
_chemical_formula_sum "Si O2"
_cell_formula_units_Z 41
_cell_length_a 26.236213
_cell_length_b 9.817294
_cell_length_c 8.511895
_cell_angle_alpha 90.000000
_cell_angle_beta 90.000000
_cell_angle_gamma 90.000000
_cell_volume 2192.397019
_symmetry_space_group_name_H-M "P M M M"
_symmetry_group_IT_number 47
_symmetry_cell_setting 'orthorhombic'
loop_
_space_group_symop_operation_xyz
x,y,z
-x,-y,z
x,-y,-z
-x,y,-z
-x,-y,-z
x,y,-z
-x,y,z
x,-y,z
loop_
_atom_site_type_symbol
_atom_site_label
_atom_site_fract_x
_atom_site_fract_y
_atom_site_fract_z
Si Si1 0.890945 0.347992 0.310860
Si Si2 0.500000 0.159472 0.688530
Si Si3 0.593707 0.659133 0.811770
Si Si4 0.000000 0.000000 0.000000
Si Si5 0.314783 0.159487 0.309922
Si Si6 0.801108 0.844587 0.691521
Si Si7 0.000000 0.720743 0.827777
O O1 0.889747 0.342913 0.500000
O O2 0.877885 0.500000 0.259721
O O3 0.847465 0.246708 0.250350
O O4 0.948099 0.315755 0.258963
O O5 0.500000 0.155941 0.500000
O O6 0.451281 0.245640 0.745286
O O7 0.500000 0.000000 0.742584
O O8 0.590892 0.500000 0.758673
O O9 0.645625 0.734347 0.761142
O O10 0.589782 0.658102 0.000000
O O11 0.000000 0.880314 0.865769
O O12 0.318129 0.165379 0.500000
O O13 0.256537 0.193484 0.262912
O O14 0.324917 0.000000 0.266582
O O15 0.801458 0.841206 0.500000
O O16 0.809605 0.000000 0.739842
O O17 0.000000 0.653367 0.000000
#
# Coordination Sequence:
#
# PCOD9386135 Si02
#       7
#     8   4   8   1   8   8   4
#     4  10  20  34  55  83 111 139 176 222 272 330
#     4  11  24  41  62  88 112 141 184 231 274 326
#     4  11  24  39  56  82 117 151 185 226 270 321
#     4   8  24  40  52  76 104 136 184 232 264 322
#     4   9  18  35  58  84 111 143 184 228 270 320
#     4   8  16  31  53  80 110 141 178 224 271 316
#     4  10  22  38  54  72 106 140 178 222 271 323
#
# _framework density 18.700993
#
# number of rings (size 3 to 8) (size 9 to 14) (size 15 to 20)
#    0.293    2.049    0.000    3.512    1.366    8.585 
#    0.000    3.415    0.000    1.171    0.000    0.000 
#    0.000    0.000    0.000    0.000    0.000    0.000 
#
# Total GULP energy -228340.347123 kJ/mol
# GULP energy per Si atom -5569.276759 kJ/mol
# Density = 1.865843 g / cm^3
# Si number density = 18.700993 Si / 1000 Ang^3
#
#
#
# Elastic Constant Matrix: (Units=GPa)
#
#
# Indices 1 2 3 4 5 6 
#
# 1 179.6524 120.6353 24.3299 0.0000 0.0000 0.0000
# 2 120.6353 165.8030 33.8890 0.0000 0.0000 0.0000
# 3 24.3299 33.8890 19.9347 0.0000 0.0000 0.0000
# 4 0.0000 0.0000 0.0000 25.3763 0.0000 0.0000
# 5 0.0000 0.0000 0.0000 0.0000 -84.9605 0.0000
# 6 0.0000 0.0000 0.0000 0.0000 0.0000 -18.4302
#
#
#
# Elastic Compliance Matrix: (Units=1/GPa)
#
#
# Indices 1 2 3 4 5 6 
#
# 1 0.010885 -0.007975 0.000274 0.000000 0.000000 0.000000
# 2 -0.007975 0.015087 -0.015913 0.000000 0.000000 0.000000
# 3 0.000274 -0.015913 0.076883 0.000000 0.000000 0.000000
# 4 0.000000 0.000000 0.000000 0.039407 0.000000 0.000000
# 5 0.000000 0.000000 0.000000 0.000000 -0.011770 0.000000
# 6 0.000000 0.000000 0.000000 0.000000 0.000000 -0.054259
#
#
# Mechanical properties :
#
#
# Convention : Reuss Voigt Hill
#
# Bulk Modulus (GPa) = 17.97796 80.34431 49.16114
# Shear Modulus (GPa) = 35.21038 -3.16716 16.02161
#
# Velocity S-wave (km/s) = 4.34384 -1.30279 2.93016
# Velocity P-wave (km/s) = 5.89855 6.38693 6.14759
#
# Compressibility (1/GPa) = 0.05562366
#
# Stress axis : x y z
#
# Youngs Moduli (GPa) = 91.87209 66.28373 13.00682
#
# Poissons Ratio (x) = 0.52864 -0.00356
# Poissons Ratio (y) = 0.73272 0.20698
# Poissons Ratio (z) = -0.02515 1.05480
#
# Static dielectric constant tensor:
#      x y z
#    x 1.656550 0.000000 0.000000 
#    y 0.000000 1.641290 0.000000 
#    z 0.000000 0.000000 1.647400 
# 
# From -- ./inp_files/13093.got.cif
#   From: 2010.05.17/outbox.cif.g08.bks.cpg/sg47_7_cif.got.tgz:13093.got - 2010.06.03 20:15:42.
