data_PCOD9386498
_publ_section_title
;
Structure prediction by ZEFSAII (Michael W. Deem and Ramdas Pophale) SiO2 
 PCOD9386498
Probable space group: P M M M
;
_chemical_formula_sum "Si O2"
_cell_formula_units_Z 56
_cell_length_a 8.367654
_cell_length_b 21.188822
_cell_length_c 15.540603
_cell_angle_alpha 90.000000
_cell_angle_beta 90.000000
_cell_angle_gamma 90.000000
_cell_volume 2755.360275
_symmetry_space_group_name_H-M "P M M M"
_symmetry_group_IT_number 47
_symmetry_cell_setting 'orthorhombic'
loop_
_space_group_symop_operation_xyz
x,y,z
-x,-y,z
x,-y,-z
-x,y,-z
-x,-y,-z
x,y,-z
-x,y,z
x,-y,z
loop_
_atom_site_type_symbol
_atom_site_label
_atom_site_fract_x
_atom_site_fract_y
_atom_site_fract_z
Si Si1 0.195716 0.500000 0.897856
Si Si2 0.819790 0.175775 0.808567
Si Si3 0.189193 0.614690 0.774266
Si Si4 0.309425 0.285369 0.095426
Si Si5 0.319977 0.925339 0.900852
Si Si6 0.313410 0.811503 0.623580
Si Si7 0.305565 0.925061 0.500000
Si Si8 0.807641 0.329896 0.594178
O O1 0.249253 0.559328 0.838504
O O2 0.000000 0.500000 0.901255
O O3 0.246716 0.500000 0.000000
O O4 0.745225 0.214487 0.887441
O O5 0.807227 0.104295 0.837945
O O6 0.714846 0.184586 0.724682
O O7 0.000000 0.195963 0.790851
O O8 0.222332 0.676476 0.830177
O O9 0.252672 0.630950 0.678049
O O10 0.000000 0.602981 0.764843
O O11 0.500000 0.291330 0.103555
O O12 0.262350 0.306967 0.000000
O O13 0.500000 0.902573 0.879148
O O14 0.321760 0.000000 0.893978
O O15 0.287639 0.909903 0.000000
O O16 0.500000 0.805548 0.603071
O O17 0.258118 0.877548 0.579050
O O18 0.233778 0.744746 0.598395
O O19 0.500000 0.929038 0.500000
O O20 0.251806 0.000000 0.500000
O O21 0.752404 0.353328 0.500000
O O22 0.000000 0.334384 0.596735
#
# Coordination Sequence:
#
# PCOD9386498 Si02
#       8
#     4   8   8   8   8   8   4   8
#     4   9  18  34  58  88 124 165 211 253 289 344
#     4  12  24  36  53  81 114 147 185 234 293 356
#     4  10  20  36  59  87 118 160 204 246 294 350
#     4  11  23  37  55  82 116 152 195 249 301 352
#     4   9  19  37  58  77 101 139 186 233 283 341
#     4  11  21  36  59  83 109 147 195 243 296 355
#     4   9  20  38  59  85 113 144 191 246 298 360
#     4  10  20  35  57  86 120 155 194 247 306 357
#
# _framework density 20.324021999999999
#
# number of rings (size 3 to 8) (size 9 to 14) (size 15 to 20)
#    0.000    1.714    2.143    3.429    0.000    4.571 
#    0.000    2.857    0.000    6.429    0.000    0.000 
#    0.000    2.286    0.000    0.000    0.000    0.000 
#
# Total GULP energy -311983.451198 kJ/mol
# GULP energy per Si atom -5571.133057 kJ/mol
# Density = 2.027776 g / cm^3
# Si number density = 20.324022 Si / 1000 Ang^3
#
#
#
# Elastic Constant Matrix: (Units=GPa)
#
#
# Indices 1 2 3 4 5 6 
#
# 1 6.8457 0.7045 18.1551 0.0000 0.0000 0.0000
# 2 0.7045 83.2235 53.7534 0.0000 0.0000 0.0000
# 3 18.1551 53.7534 145.7477 0.0000 0.0000 0.0000
# 4 0.0000 0.0000 0.0000 31.4812 0.0000 0.0000
# 5 0.0000 0.0000 0.0000 0.0000 13.6630 0.0000
# 6 0.0000 0.0000 0.0000 0.0000 0.0000 4.3110
#
#
#
# Elastic Compliance Matrix: (Units=1/GPa)
#
#
# Indices 1 2 3 4 5 6 
#
# 1 0.248878 0.023520 -0.039676 0.000000 0.000000 0.000000
# 2 0.023520 0.017996 -0.009567 0.000000 0.000000 0.000000
# 3 -0.039676 -0.009567 0.015332 0.000000 0.000000 0.000000
# 4 0.000000 0.000000 0.000000 0.031765 0.000000 0.000000
# 5 0.000000 0.000000 0.000000 0.000000 0.073190 0.000000
# 6 0.000000 0.000000 0.000000 0.000000 0.000000 0.231967
#
#
# Mechanical properties :
#
#
# Convention : Reuss Voigt Hill
#
# Bulk Modulus (GPa) = 4.33351 42.33810 23.33580
# Shear Modulus (GPa) = 6.68901 20.77129 13.73015
#
# Velocity S-wave (km/s) = 1.81613 3.20035 2.60198
# Velocity P-wave (km/s) = 2.55629 5.87649 4.53143
#
# Compressibility (1/GPa) = 0.23075970
#
# Stress axis : x y z
#
# Youngs Moduli (GPa) = 4.01803 55.56831 65.22402
#
# Poissons Ratio (x) = -1.30695 2.58783
# Poissons Ratio (y) = -0.09450 0.62399
# Poissons Ratio (z) = 0.15942 0.53161
#
# Static dielectric constant tensor:
#      x y z
#    x 1.747540 0.000000 0.000000 
#    y 0.000000 1.798050 0.000000 
#    z 0.000000 0.000000 1.730010 
# 
# From -- ./inp_files/21589.got.cif
#   From: 2010.05.17/outbox.cif.g08.bks.cpg/sg47_11_cif.got.tgz:21589.got - 2010.06.03 20:15:42.
