data_PCOD9386115
_publ_section_title
;
Structure prediction by ZEFSAII (Michael W. Deem and Ramdas Pophale) SiO2 
 PCOD9386115
Probable space group: P M M M
;
_chemical_formula_sum "Si O2"
_cell_formula_units_Z 52
_cell_length_a 8.033998
_cell_length_b 15.284072
_cell_length_c 21.320844
_cell_angle_alpha 90.000000
_cell_angle_beta 90.000000
_cell_angle_gamma 90.000000
_cell_volume 2618.033423
_symmetry_space_group_name_H-M "P M M M"
_symmetry_group_IT_number 47
_symmetry_cell_setting 'orthorhombic'
loop_
_space_group_symop_operation_xyz
x,y,z
-x,-y,z
x,-y,-z
-x,y,-z
-x,-y,-z
x,y,-z
-x,y,z
x,-y,z
loop_
_atom_site_type_symbol
_atom_site_label
_atom_site_fract_x
_atom_site_fract_y
_atom_site_fract_z
Si Si1 0.701498 0.208615 0.931106
Si Si2 0.200889 0.101102 0.193208
Si Si3 0.304762 0.404226 0.240838
Si Si4 0.699185 0.811990 0.429919
Si Si5 0.312517 0.000000 0.424280
Si Si6 0.696320 0.404792 0.909537
Si Si7 0.190808 0.230752 0.699515
O O1 0.500000 0.212117 0.927876
O O2 0.757094 0.152317 0.871219
O O3 0.763443 0.309798 0.928866
O O4 0.747740 0.172218 0.000000
O O5 0.264658 0.157064 0.253351
O O6 0.000000 0.099773 0.197471
O O7 0.259333 0.000000 0.192878
O O8 0.500000 0.393242 0.257337
O O9 0.249187 0.500000 0.263271
O O10 0.295792 0.404279 0.165711
O O11 0.205003 0.322553 0.265482
O O12 0.759350 0.787289 0.500000
O O13 0.500000 0.822362 0.435418
O O14 0.769879 0.907701 0.410563
O O15 0.731325 0.755596 0.368982
O O16 0.500000 0.000000 0.396972
O O17 0.327423 0.000000 0.500000
O O18 0.500000 0.405422 0.926962
O O19 0.766067 0.500000 0.929704
O O20 0.000000 0.207368 0.689056
#
# Coordination Sequence:
#
# PCOD9386115 Si02
#       7
#     8   8   8   8   4   8   8
#     4  10  20  34  55  82 108 134 172 225 275 316
#     4  10  23  41  55  71 102 145 188 222 259 313
#     4   9  17  32  56  81 105 137 176 216 261 320
#     4   9  18  33  53  77 107 143 180 217 262 321
#     4   7  12  26  47  71  99 131 170 211 250 301
#     4   8  14  27  49  77 107 135 163 202 258 321
#     4  11  22  34  54  81 109 141 177 223 269 311
#
# _framework density 19.862237
#
# number of rings (size 3 to 8) (size 9 to 14) (size 15 to 20)
#    0.000    2.692    1.538    2.308    1.077    2.462 
#    0.000    3.077    0.000    2.308    0.000    4.308 
#    0.000    0.000    0.000    0.000    0.000    0.000 
#
# Total GULP energy -289543.827503 kJ/mol
# GULP energy per Si atom -5568.150529 kJ/mol
# Density = 1.981703 g / cm^3
# Si number density = 19.862237 Si / 1000 Ang^3
#
#
#
# Elastic Constant Matrix: (Units=GPa)
#
#
# Indices 1 2 3 4 5 6 
#
# 1 17.1592 11.5022 17.3224 0.0000 0.0000 0.0000
# 2 11.5022 105.3388 51.2048 0.0000 0.0000 0.0000
# 3 17.3224 51.2048 130.7682 0.0000 0.0000 0.0000
# 4 0.0000 0.0000 0.0000 -0.5615 0.0000 0.0000
# 5 0.0000 0.0000 0.0000 0.0000 5.4130 0.0000
# 6 0.0000 0.0000 0.0000 0.0000 0.0000 15.2208
#
#
#
# Elastic Compliance Matrix: (Units=1/GPa)
#
#
# Indices 1 2 3 4 5 6 
#
# 1 0.068477 -0.003789 -0.007587 0.000000 0.000000 0.000000
# 2 -0.003789 0.011935 -0.004171 0.000000 0.000000 0.000000
# 3 -0.007587 -0.004171 0.010286 0.000000 0.000000 0.000000
# 4 0.000000 0.000000 0.000000 -1.780888 0.000000 0.000000
# 5 0.000000 0.000000 0.000000 0.000000 0.184742 0.000000
# 6 0.000000 0.000000 0.000000 0.000000 0.000000 0.065699
#
#
# Mechanical properties :
#
#
# Convention : Reuss Voigt Hill
#
# Bulk Modulus (GPa) = 16.77794 45.92501 31.35148
# Shear Modulus (GPa) = -3.60027 15.56357 5.98165
#
# Velocity S-wave (km/s) = -1.34780 2.80228 1.73727
# Velocity P-wave (km/s) = 2.45834 5.80020 4.45453
#
# Compressibility (1/GPa) = 0.05960207
#
# Stress axis : x y z
#
# Youngs Moduli (GPa) = 14.60341 83.79031 97.22403
#
# Poissons Ratio (x) = 0.31749 0.73766
# Poissons Ratio (y) = 0.05533 0.40555
# Poissons Ratio (z) = 0.11080 0.34951
#
# Static dielectric constant tensor:
#      x y z
#    x 1.734830 0.000000 0.000000 
#    y 0.000000 1.740630 0.000000 
#    z 0.000000 0.000000 1.702400 
# 
# From -- ./inp_files/29594.got.cif
#   From: 2010.05.17/outbox.cif.g08.bks.cpg/sg47_15_cif.got.tgz:29594.got - 2010.06.03 20:15:42.
