data_PCOD9386530
_publ_section_title
;
Structure prediction by ZEFSAII (Michael W. Deem and Ramdas Pophale) SiO2 
 PCOD9386530
Probable space group: P M M M
;
_chemical_formula_sum "Si O2"
_cell_formula_units_Z 44
_cell_length_a 7.932178
_cell_length_b 30.718847
_cell_length_c 9.346302
_cell_angle_alpha 90.000000
_cell_angle_beta 90.000000
_cell_angle_gamma 90.000000
_cell_volume 2277.388756
_symmetry_space_group_name_H-M "P M M M"
_symmetry_group_IT_number 47
_symmetry_cell_setting 'orthorhombic'
loop_
_space_group_symop_operation_xyz
x,y,z
-x,-y,z
x,-y,-z
-x,y,-z
-x,-y,-z
x,y,-z
-x,y,z
x,-y,z
loop_
_atom_site_type_symbol
_atom_site_label
_atom_site_fract_x
_atom_site_fract_y
_atom_site_fract_z
Si Si1 0.296537 0.951148 0.664112
Si Si2 0.500000 0.450323 0.673979
Si Si3 0.204377 0.217332 0.335899
Si Si4 0.797849 0.866606 0.838340
Si Si5 0.190125 0.610588 0.670557
Si Si6 0.700994 0.303970 0.834494
O O1 0.240780 0.943144 0.500000
O O2 0.500000 0.951375 0.663626
O O3 0.239214 0.912772 0.766299
O O4 0.240543 0.000000 0.705431
O O5 0.500000 0.500000 0.725499
O O6 0.500000 0.451736 0.500000
O O7 0.666451 0.423490 0.716112
O O8 0.262764 0.219556 0.500000
O O9 0.265057 0.173280 0.258742
O O10 0.258950 0.259370 0.247054
O O11 0.000000 0.216644 0.337899
O O12 0.000000 0.862076 0.845177
O O13 0.731095 0.864195 0.000000
O O14 0.211535 0.618789 0.500000
O O15 0.214582 0.655568 0.754162
O O16 0.000000 0.594048 0.692415
O O17 0.500000 0.311025 0.830910
O O18 0.755125 0.301271 0.000000
#
# Coordination Sequence:
#
# PCOD9386530 Si02
#       6
#     8   4   8   8   8   8
#     4   9  19  36  56  77 102 135 177 223 271 326
#     4   9  18  34  57  87 123 157 193 245 296 339
#     4  10  21  37  57  80 106 140 182 225 274 332
#     4  10  21  36  54  78 109 142 177 221 273 330
#     4  10  20  35  58  86 116 154 197 240 291 347
#     4  11  23  37  55  81 113 149 189 232 281 338
#
# _framework density 19.320373
#
# number of rings (size 3 to 8) (size 9 to 14) (size 15 to 20)
#    0.000    2.091    0.909    2.727    0.000    8.000 
#    0.000    4.545    0.000    1.091    0.000    1.273 
#    0.000    0.000    0.000    0.000    0.000    0.000 
#
# Total GULP energy -245739.919814 kJ/mol
# GULP energy per Si atom -5584.998178 kJ/mol
# Density = 1.927640 g / cm^3
# Si number density = 19.320373 Si / 1000 Ang^3
#
#
#
# Elastic Constant Matrix: (Units=GPa)
#
#
# Indices 1 2 3 4 5 6 
#
# 1 62.4049 43.1612 41.6872 0.0000 0.0000 0.0000
# 2 43.1612 161.3433 83.4749 0.0000 0.0000 0.0000
# 3 41.6872 83.4749 117.1775 0.0000 0.0000 0.0000
# 4 0.0000 0.0000 0.0000 -22.3944 0.0000 0.0000
# 5 0.0000 0.0000 0.0000 0.0000 21.5258 0.0000
# 6 0.0000 0.0000 0.0000 0.0000 0.0000 36.0896
#
#
#
# Elastic Compliance Matrix: (Units=1/GPa)
#
#
# Indices 1 2 3 4 5 6 
#
# 1 0.021837 -0.002886 -0.005713 0.000000 0.000000 0.000000
# 2 -0.002886 0.010197 -0.006238 0.000000 0.000000 0.000000
# 3 -0.005713 -0.006238 0.015010 0.000000 0.000000 0.000000
# 4 0.000000 0.000000 0.000000 -0.044654 0.000000 0.000000
# 5 0.000000 0.000000 0.000000 0.000000 0.046456 0.000000
# 6 0.000000 0.000000 0.000000 0.000000 0.000000 0.027709
#
#
# Mechanical properties :
#
#
# Convention : Reuss Voigt Hill
#
# Bulk Modulus (GPa) = 57.56641 75.28583 66.42612
# Shear Modulus (GPa) = 44.63612 18.55104 31.59358
#
# Velocity S-wave (km/s) = 4.81179 3.10204 4.04821
# Velocity P-wave (km/s) = 7.79304 7.20291 7.50378
#
# Compressibility (1/GPa) = 0.01737124
#
# Stress axis : x y z
#
# Youngs Moduli (GPa) = 45.79481 98.06694 66.62262
#
# Poissons Ratio (x) = 0.28301 0.38060
# Poissons Ratio (y) = 0.13216 0.41556
# Poissons Ratio (z) = 0.26161 0.61170
#
# Static dielectric constant tensor:
#      x y z
#    x 1.698920 0.000000 0.000000 
#    y 0.000000 1.631360 0.000000 
#    z 0.000000 0.000000 1.657850 
# 
# From -- ./inp_files/2230.got.cif
#   From: 2010.05.17/outbox.cif.g08.bks.cpg/sg47_2_cif.got.tgz:2230.got - 2010.06.03 20:15:42.
