data_PCOD9386789
_publ_section_title
;
Structure prediction by ZEFSAII (Michael W. Deem and Ramdas Pophale) SiO2 
 PCOD9386789
Probable space group: P M M M
;
_chemical_formula_sum "Si O2"
_cell_formula_units_Z 36
_cell_length_a 9.044740
_cell_length_b 13.037423
_cell_length_c 17.109945
_cell_angle_alpha 90.000000
_cell_angle_beta 90.000000
_cell_angle_gamma 90.000000
_cell_volume 2017.606448
_symmetry_space_group_name_H-M "P M M M"
_symmetry_group_IT_number 47
_symmetry_cell_setting 'orthorhombic'
loop_
_space_group_symop_operation_xyz
x,y,z
-x,-y,z
x,-y,-z
-x,y,-z
-x,-y,-z
x,y,-z
-x,y,z
x,-y,z
loop_
_atom_site_type_symbol
_atom_site_label
_atom_site_fract_x
_atom_site_fract_y
_atom_site_fract_z
Si Si1 0.176149 0.176086 0.085853
Si Si2 0.673248 0.615748 0.123747
Si Si3 0.677950 0.887169 0.753793
Si Si4 0.326457 0.329158 0.305951
Si Si5 0.176634 0.500000 0.590570
O O1 0.226701 0.294888 0.089349
O O2 0.254665 0.124738 0.159749
O O3 0.000000 0.167843 0.094518
O O4 0.217256 0.134999 0.000000
O O5 0.500000 0.633915 0.104124
O O6 0.711778 0.500000 0.100481
O O7 0.684948 0.625867 0.217917
O O8 0.500000 0.879333 0.760978
O O9 0.724874 0.788989 0.702686
O O10 0.715123 0.000000 0.722516
O O11 0.500000 0.330926 0.327135
O O12 0.238308 0.400358 0.364796
O O13 0.222457 0.500000 0.500000
O O14 0.000000 0.500000 0.594525
#
# Coordination Sequence:
#
# PCOD9386789 Si02
#       5
#     8   8   8   8   4
#     4  10  21  33  44  66 101 136 172 216 263 309
#     4   9  17  31  50  70  94 128 172 217 260 307
#     4   9  19  36  57  78  99 129 173 221 263 305
#     4   9  17  33  55  78 104 132 167 209 253 300
#     4  11  23  35  51  81 116 143 166 195 237 294
#
# _framework density 17.842924
#
# number of rings (size 3 to 8) (size 9 to 14) (size 15 to 20)
#    0.000    2.556    1.111    2.333    0.000    8.000 
#    0.000    4.444    0.000    0.667    0.000    4.667 
#    0.000    0.000    0.000    0.000    0.000    0.000 
#
# Total GULP energy -200800.080467 kJ/mol
# GULP energy per Si atom -5577.780013 kJ/mol
# Density = 1.780231 g / cm^3
# Si number density = 17.842924 Si / 1000 Ang^3
#
#
#
# Elastic Constant Matrix: (Units=GPa)
#
#
# Indices 1 2 3 4 5 6 
#
# 1 22.4718 26.1567 31.9852 0.0000 0.0000 0.0000
# 2 26.1567 140.4073 44.1220 0.0000 0.0000 0.0000
# 3 31.9852 44.1220 88.7931 0.0000 0.0000 0.0000
# 4 0.0000 0.0000 0.0000 49.6464 0.0000 0.0000
# 5 0.0000 0.0000 0.0000 0.0000 28.0488 0.0000
# 6 0.0000 0.0000 0.0000 0.0000 0.0000 4.1892
#
#
#
# Elastic Compliance Matrix: (Units=1/GPa)
#
#
# Indices 1 2 3 4 5 6 
#
# 1 0.099393 -0.008609 -0.031525 0.000000 0.000000 0.000000
# 2 -0.008609 0.009186 -0.001463 0.000000 0.000000 0.000000
# 3 -0.031525 -0.001463 0.023345 0.000000 0.000000 0.000000
# 4 0.000000 0.000000 0.000000 0.020142 0.000000 0.000000
# 5 0.000000 0.000000 0.000000 0.000000 0.035652 0.000000
# 6 0.000000 0.000000 0.000000 0.000000 0.000000 0.238707
#
#
# Mechanical properties :
#
#
# Convention : Reuss Voigt Hill
#
# Bulk Modulus (GPa) = 20.52207 50.68889 35.60548
# Shear Modulus (GPa) = 9.50816 26.33744 17.92280
#
# Velocity S-wave (km/s) = 2.31093 3.84614 3.17279
# Velocity P-wave (km/s) = 4.31822 6.94217 5.78104
#
# Compressibility (1/GPa) = 0.04872804
#
# Stress axis : x y z
#
# Youngs Moduli (GPa) = 10.06108 108.86363 42.83521
#
# Poissons Ratio (x) = 0.93726 1.35039
# Poissons Ratio (y) = 0.08662 0.06268
# Poissons Ratio (z) = 0.31718 0.15929
#
# Static dielectric constant tensor:
#      x y z
#    x 1.588780 0.000000 0.000000 
#    y 0.000000 1.646740 0.000000 
#    z 0.000000 0.000000 1.592720 
# 
# From -- ./inp_files/20577.got.cif
#   From: 2010.05.17/outbox.cif.g08.bks.cpg/sg47_11_cif.got.tgz:20577.got - 2010.06.03 20:15:42.
