data_PCOD9386659
_publ_section_title
;
Structure prediction by ZEFSAII (Michael W. Deem and Ramdas Pophale) SiO2 
 PCOD9386659
Probable space group: P M M M
;
_chemical_formula_sum "Si O2"
_cell_formula_units_Z 56
_cell_length_a 14.922110
_cell_length_b 9.449771
_cell_length_c 20.407454
_cell_angle_alpha 90.000000
_cell_angle_beta 90.000000
_cell_angle_gamma 90.000000
_cell_volume 2877.665748
_symmetry_space_group_name_H-M "P M M M"
_symmetry_group_IT_number 47
_symmetry_cell_setting 'orthorhombic'
loop_
_space_group_symop_operation_xyz
x,y,z
-x,-y,z
x,-y,-z
-x,y,-z
-x,-y,-z
x,y,-z
-x,y,z
x,-y,z
loop_
_atom_site_type_symbol
_atom_site_label
_atom_site_fract_x
_atom_site_fract_y
_atom_site_fract_z
Si Si1 0.103361 0.655520 0.195607
Si Si2 0.653373 0.841254 0.876891
Si Si3 0.107528 0.168998 0.322039
Si Si4 0.604799 0.664962 0.749503
Si Si5 0.604471 0.328089 0.500000
Si Si6 0.395791 0.346655 0.000000
Si Si7 0.270691 0.668510 0.622670
Si Si8 0.857560 0.157584 0.077846
O O1 0.147995 0.500000 0.198816
O O2 0.134557 0.765784 0.250809
O O3 0.103047 0.720844 0.123210
O O4 0.000000 0.637369 0.213094
O O5 0.631670 0.766425 0.808833
O O6 0.758277 0.851880 0.892595
O O7 0.615491 0.000000 0.879361
O O8 0.622088 0.742786 0.935620
O O9 0.177641 0.245620 0.370728
O O10 0.000000 0.194504 0.334245
O O11 0.119853 0.000000 0.321929
O O12 0.500000 0.687273 0.731927
O O13 0.613078 0.500000 0.770107
O O14 0.669834 0.687401 0.688111
O O15 0.599717 0.500000 0.500000
O O16 0.500000 0.278996 0.500000
O O17 0.663869 0.287953 0.563163
O O18 0.348373 0.500000 0.000000
O O19 0.500000 0.368971 0.000000
O O20 0.250913 0.500000 0.616325
O O21 0.898049 0.000000 0.086213
O O22 0.856488 0.187536 0.000000
#
# Coordination Sequence:
#
# PCOD9386659 Si02
#       8
#     8   8   8   8   4   4   8   8
#     4  10  21  36  55  81 110 140 181 236 293 348
#     4  11  22  37  54  75 103 138 183 233 283 337
#     4  10  21  38  60  86 118 157 197 240 294 353
#     4  10  21  36  54  81 116 150 189 238 292 351
#     4   9  18  36  64  97 132 168 205 245 292 347
#     4  11  23  37  53  73  98 131 172 219 275 336
#     4  10  20  36  62  93 122 158 201 244 291 343
#     4  10  21  37  53  72 102 141 185 232 288 354
#
# _framework density 19.460218000000001
#
# number of rings (size 3 to 8) (size 9 to 14) (size 15 to 20)
#    0.000    1.857    0.714    3.214    0.000   10.571 
#    0.000    2.143    0.000    3.857    0.000    0.000 
#    0.000    0.000    0.000    0.000    0.000    0.000 
#
# Total GULP energy -312204.875874 kJ/mol
# GULP energy per Si atom -5575.087069 kJ/mol
# Density = 1.941593 g / cm^3
# Si number density = 19.460218 Si / 1000 Ang^3
#
#
#
# Elastic Constant Matrix: (Units=GPa)
#
#
# Indices 1 2 3 4 5 6 
#
# 1 115.9593 59.7729 47.2579 0.0000 0.0000 0.0000
# 2 59.7729 124.6937 68.5401 0.0000 0.0000 0.0000
# 3 47.2579 68.5401 100.3316 0.0000 0.0000 0.0000
# 4 0.0000 0.0000 0.0000 121.4462 0.0000 0.0000
# 5 0.0000 0.0000 0.0000 0.0000 29.5549 0.0000
# 6 0.0000 0.0000 0.0000 0.0000 0.0000 -1.2244
#
#
#
# Elastic Compliance Matrix: (Units=1/GPa)
#
#
# Indices 1 2 3 4 5 6 
#
# 1 0.011905 -0.004203 -0.002737 0.000000 0.000000 0.000000
# 2 -0.004203 0.014325 -0.007807 0.000000 0.000000 0.000000
# 3 -0.002737 -0.007807 0.016589 0.000000 0.000000 0.000000
# 4 0.000000 0.000000 0.000000 0.008234 0.000000 0.000000
# 5 0.000000 0.000000 0.000000 0.000000 0.033835 0.000000
# 6 0.000000 0.000000 0.000000 0.000000 0.000000 -0.816751
#
#
# Mechanical properties :
#
#
# Convention : Reuss Voigt Hill
#
# Bulk Modulus (GPa) = 75.03138 76.90293 75.96716
# Shear Modulus (GPa) = -7.16407 40.98293 16.90943
#
# Velocity S-wave (km/s) = -1.92078 4.59408 2.95095
# Velocity P-wave (km/s) = 5.80696 8.23071 7.12269
#
# Compressibility (1/GPa) = 0.01332776
#
# Stress axis : x y z
#
# Youngs Moduli (GPa) = 83.99600 69.80683 60.28134
#
# Poissons Ratio (x) = 0.29338 0.16497
# Poissons Ratio (y) = 0.35301 0.47059
# Poissons Ratio (z) = 0.22986 0.54495
#
# Static dielectric constant tensor:
#      x y z
#    x 1.618290 0.000000 0.000000 
#    y 0.000000 1.771010 0.000000 
#    z 0.000000 0.000000 1.649000 
# 
# From -- ./inp_files/31030.got.cif
#   From: 2010.05.17/outbox.cif.g08.bks.cpg/sg47_16_cif.got.tgz:31030.got - 2010.06.03 20:15:42.
