data_PCOD9386702
_publ_section_title
;
Structure prediction by ZEFSAII (Michael W. Deem and Ramdas Pophale) SiO2 
 PCOD9386702
Probable space group: P M M M
;
_chemical_formula_sum "Si O2"
_cell_formula_units_Z 37
_cell_length_a 18.713963
_cell_length_b 12.309097
_cell_length_c 8.177158
_cell_angle_alpha 90.000000
_cell_angle_beta 90.000000
_cell_angle_gamma 90.000000
_cell_volume 1883.624584
_symmetry_space_group_name_H-M "P M M M"
_symmetry_group_IT_number 47
_symmetry_cell_setting 'orthorhombic'
loop_
_space_group_symop_operation_xyz
x,y,z
-x,-y,z
x,-y,-z
-x,y,-z
-x,-y,-z
x,y,-z
-x,y,z
x,-y,z
loop_
_atom_site_type_symbol
_atom_site_label
_atom_site_fract_x
_atom_site_fract_y
_atom_site_fract_z
Si Si1 0.285067 0.623508 0.803588
Si Si2 0.613863 0.000000 0.809783
Si Si3 0.155964 0.776105 0.199481
Si Si4 0.225628 0.000000 0.306279
Si Si5 0.000000 0.276011 0.181940
Si Si6 0.578305 0.760437 0.694303
Si Si7 0.000000 0.500000 0.000000
O O1 0.289684 0.500000 0.740633
O O2 0.214319 0.687009 0.745007
O O3 0.355337 0.693565 0.764651
O O4 0.279525 0.617874 0.000000
O O5 0.699199 0.000000 0.787337
O O6 0.586653 0.888277 0.731952
O O7 0.594872 0.000000 0.000000
O O8 0.183077 0.892674 0.256562
O O9 0.075619 0.753975 0.259648
O O10 0.155084 0.771555 0.000000
O O11 0.240261 0.000000 0.500000
O O12 0.000000 0.403432 0.139042
O O13 0.000000 0.220577 0.000000
O O14 0.579970 0.746118 0.500000
O O15 0.500000 0.724734 0.756218
#
# Coordination Sequence:
#
# PCOD9386702 Si02
#       7
#     8   4   8   4   4   8   1
#     4  10  22  37  59  88 119 157 205 254 299 353
#     4  12  23  39  63  92 117 152 196 251 306 362
#     4  10  20  37  60  90 122 158 200 252 299 352
#     4  12  24  38  60  86 122 163 201 246 301 367
#     4   8  18  31  58  92 124 155 197 245 294 345
#     4  11  24  41  61  87 120 157 199 246 301 365
#     4   8  16  32  60  98 130 160 194 260 300 340
#
# _framework density 19.642980999999999
#
# number of rings (size 3 to 8) (size 9 to 14) (size 15 to 20)
#    0.324    1.297    2.162    2.919    1.514    4.324 
#    0.000    4.865    0.000    0.000    0.000    0.757 
#    0.000    0.000    0.000    0.000    0.000    0.000 
#
# Total GULP energy -206260.385860 kJ/mol
# GULP energy per Si atom -5574.605023 kJ/mol
# Density = 1.959827 g / cm^3
# Si number density = 19.642981 Si / 1000 Ang^3
#
#
#
# Elastic Constant Matrix: (Units=GPa)
#
#
# Indices 1 2 3 4 5 6 
#
# 1 177.9584 69.9546 5.5886 0.0000 0.0000 0.0000
# 2 69.9546 130.3196 2.1320 0.0000 0.0000 0.0000
# 3 5.5886 2.1320 18.8070 0.0000 0.0000 0.0000
# 4 0.0000 0.0000 0.0000 -42.6035 0.0000 0.0000
# 5 0.0000 0.0000 0.0000 0.0000 50.9888 0.0000
# 6 0.0000 0.0000 0.0000 0.0000 0.0000 0.4489
#
#
#
# Elastic Compliance Matrix: (Units=1/GPa)
#
#
# Indices 1 2 3 4 5 6 
#
# 1 0.007176 -0.003824 -0.001699 0.000000 0.000000 0.000000
# 2 -0.003824 0.009726 0.000034 0.000000 0.000000 0.000000
# 3 -0.001699 0.000034 0.053673 0.000000 0.000000 0.000000
# 4 0.000000 0.000000 0.000000 -0.023472 0.000000 0.000000
# 5 0.000000 0.000000 0.000000 0.000000 0.019612 0.000000
# 6 0.000000 0.000000 0.000000 0.000000 0.000000 2.227657
#
#
# Mechanical properties :
#
#
# Convention : Reuss Voigt Hill
#
# Bulk Modulus (GPa) = 16.77969 53.60393 35.19181
# Shear Modulus (GPa) = 2.15034 18.39416 10.27225
#
# Velocity S-wave (km/s) = 1.04742 3.06342 2.28929
# Velocity P-wave (km/s) = 3.16602 6.31357 4.99424
#
# Compressibility (1/GPa) = 0.05959587
#
# Stress axis : x y z
#
# Youngs Moduli (GPa) = 139.35515 102.82052 18.63147
#
# Poissons Ratio (x) = 0.39320 0.03165
# Poissons Ratio (y) = 0.53292 -0.00063
# Poissons Ratio (z) = 0.23674 -0.00348
#
# Static dielectric constant tensor:
#      x y z
#    x 1.711990 0.000000 0.000000 
#    y 0.000000 1.662740 0.000000 
#    z 0.000000 0.000000 1.687110 
# 
# From -- ./inp_files/8738.got.cif
#   From: 2010.05.17/outbox.cif.g08.bks.cpg/sg47_5_cif.got.tgz:8738.got - 2010.06.03 20:15:42.
