data_PCOD9386790
_publ_section_title
;
Structure prediction by ZEFSAII (Michael W. Deem and Ramdas Pophale) SiO2 
 PCOD9386790
Probable space group: P M M M
;
_chemical_formula_sum "Si O2"
_cell_formula_units_Z 60
_cell_length_a 15.372540
_cell_length_b 14.143106
_cell_length_c 15.495969
_cell_angle_alpha 90.000000
_cell_angle_beta 90.000000
_cell_angle_gamma 90.000000
_cell_volume 3369.063270
_symmetry_space_group_name_H-M "P M M M"
_symmetry_group_IT_number 47
_symmetry_cell_setting 'orthorhombic'
loop_
_space_group_symop_operation_xyz
x,y,z
-x,-y,z
x,-y,-z
-x,y,-z
-x,-y,-z
x,y,-z
-x,y,z
x,-y,z
loop_
_atom_site_type_symbol
_atom_site_label
_atom_site_fract_x
_atom_site_fract_y
_atom_site_fract_z
Si Si1 0.901191 0.886121 0.899933
Si Si2 0.604856 0.605069 0.097542
Si Si3 0.100849 0.114323 0.599736
Si Si4 0.783342 0.196885 0.247378
Si Si5 0.401723 0.751657 0.249549
Si Si6 0.180151 0.391558 0.314113
Si Si7 0.000000 0.385723 0.596236
Si Si8 0.361673 0.608239 0.599515
O O1 0.829945 0.845783 0.835650
O O2 0.000000 0.856894 0.875063
O O3 0.899016 0.000000 0.895330
O O4 0.887320 0.859505 0.000000
O O5 0.500000 0.599112 0.092847
O O6 0.636251 0.500000 0.124346
O O7 0.619698 0.685664 0.167069
O O8 0.636345 0.624681 0.000000
O O9 0.120423 0.139469 0.500000
O O10 0.166287 0.158688 0.668339
O O11 0.000000 0.140939 0.617853
O O12 0.105186 0.000000 0.606309
O O13 0.680195 0.178290 0.255344
O O14 0.795401 0.310574 0.246980
O O15 0.500000 0.789765 0.240825
O O16 0.399283 0.682784 0.332975
O O17 0.175370 0.500000 0.282292
O O18 0.257358 0.389354 0.384846
O O19 0.088272 0.363027 0.354783
O O20 0.000000 0.500000 0.589857
O O21 0.000000 0.346092 0.500000
O O22 0.382103 0.628571 0.500000
O O23 0.389522 0.500000 0.618840
#
# Coordination Sequence:
#
# PCOD9386790 Si02
#       8
#     8   8   8   8   8   8   4   8
#     4   9  19  37  62  90 113 129 156 208 268 322
#     4   8  14  27  48  69  88 118 165 221 275 313
#     4   9  19  36  58  85 110 126 152 208 277 334
#     4  11  21  32  55  79 103 143 181 211 257 307
#     4  10  21  33  44  67 103 138 175 217 258 301
#     4   9  19  31  42  66 103 142 182 218 249 291
#     4   9  16  26  40  58  88 133 176 212 250 291
#     4   9  17  30  46  62  87 129 182 235 277 306
#
# _framework density 17.809104999999999
#
# number of rings (size 3 to 8) (size 9 to 14) (size 15 to 20)
#    0.000    2.733    0.000    2.800    1.867    7.467 
#    0.000    0.667    0.000    2.000    0.000    2.800 
#    0.000    0.000    0.000    0.000    0.000    0.000 
#
# Total GULP energy -334459.575385 kJ/mol
# GULP energy per Si atom -5574.326256 kJ/mol
# Density = 1.776857 g / cm^3
# Si number density = 17.809105 Si / 1000 Ang^3
#
#
#
# Elastic Constant Matrix: (Units=GPa)
#
#
# Indices 1 2 3 4 5 6 
#
# 1 140.6190 26.5720 50.6998 0.0000 0.0000 0.0000
# 2 26.5720 35.4010 25.5543 0.0000 0.0000 0.0000
# 3 50.6998 25.5543 78.2448 0.0000 0.0000 0.0000
# 4 0.0000 0.0000 0.0000 16.1492 0.0000 0.0000
# 5 0.0000 0.0000 0.0000 0.0000 18.6374 0.0000
# 6 0.0000 0.0000 0.0000 0.0000 0.0000 16.4770
#
#
#
# Elastic Compliance Matrix: (Units=1/GPa)
#
#
# Indices 1 2 3 4 5 6 
#
# 1 0.009610 -0.003557 -0.005065 0.000000 0.000000 0.000000
# 2 -0.003557 0.038278 -0.010197 0.000000 0.000000 0.000000
# 3 -0.005065 -0.010197 0.019393 0.000000 0.000000 0.000000
# 4 0.000000 0.000000 0.000000 0.061922 0.000000 0.000000
# 5 0.000000 0.000000 0.000000 0.000000 0.053656 0.000000
# 6 0.000000 0.000000 0.000000 0.000000 0.000000 0.060691
#
#
# Mechanical properties :
#
#
# Convention : Reuss Voigt Hill
#
# Bulk Modulus (GPa) = 33.73464 51.10188 42.41826
# Shear Modulus (GPa) = 17.17815 20.34864 18.76340
#
# Velocity S-wave (km/s) = 3.10912 3.38390 3.24942
# Velocity P-wave (km/s) = 5.64556 6.63508 6.16022
#
# Compressibility (1/GPa) = 0.02964312
#
# Stress axis : x y z
#
# Youngs Moduli (GPa) = 104.06100 26.12463 51.56602
#
# Poissons Ratio (x) = 0.09292 0.26119
# Poissons Ratio (y) = 0.37013 0.52580
# Poissons Ratio (z) = 0.52708 0.26639
#
# Static dielectric constant tensor:
#      x y z
#    x 1.640210 0.000000 0.000000 
#    y 0.000000 1.626190 0.000000 
#    z 0.000000 0.000000 1.605130 
# 
# From -- ./inp_files/23961.got.cif
#   From: 2010.05.17/outbox.cif.g08.bks.cpg/sg47_12_cif.got.tgz:23961.got - 2010.06.03 20:15:42.
