data_PCOD9386471
_publ_section_title
;
Structure prediction by ZEFSAII (Michael W. Deem and Ramdas Pophale) SiO2 
 PCOD9386471
Probable space group: P M M M
;
_chemical_formula_sum "Si O2"
_cell_formula_units_Z 48
_cell_length_a 19.176317
_cell_length_b 15.699600
_cell_length_c 8.923174
_cell_angle_alpha 90.000000
_cell_angle_beta 90.000000
_cell_angle_gamma 90.000000
_cell_volume 2686.415283
_symmetry_space_group_name_H-M "P M M M"
_symmetry_group_IT_number 47
_symmetry_cell_setting 'orthorhombic'
loop_
_space_group_symop_operation_xyz
x,y,z
-x,-y,z
x,-y,-z
-x,y,-z
-x,-y,-z
x,y,-z
-x,y,z
x,-y,z
loop_
_atom_site_type_symbol
_atom_site_label
_atom_site_fract_x
_atom_site_fract_y
_atom_site_fract_z
Si Si1 0.415557 0.906725 0.176636
Si Si2 0.301317 0.399988 0.319197
Si Si3 0.580191 0.730956 0.319896
Si Si4 0.157854 0.660330 0.820922
Si Si5 0.083276 0.500000 0.673488
Si Si6 0.084635 0.000000 0.172193
Si Si7 0.083151 0.178131 0.321237
O O1 0.500000 0.907614 0.191295
O O2 0.391988 0.821346 0.258809
O O3 0.390745 0.000000 0.231199
O O4 0.399834 0.900705 0.000000
O O5 0.292813 0.394412 0.500000
O O6 0.305572 0.500000 0.280556
O O7 0.370227 0.347062 0.277149
O O8 0.235207 0.357642 0.239974
O O9 0.579123 0.735559 0.500000
O O10 0.500000 0.719334 0.268391
O O11 0.111808 0.583062 0.755926
O O12 0.126129 0.747439 0.757273
O O13 0.156625 0.660270 0.000000
O O14 0.107708 0.500000 0.500000
O O15 0.000000 0.500000 0.673831
O O16 0.104883 0.913819 0.257185
O O17 0.000000 0.000000 0.170447
O O18 0.108696 0.000000 0.000000
O O19 0.092547 0.181178 0.500000
O O20 0.000000 0.189506 0.291157
#
# Coordination Sequence:
#
# PCOD9386471 Si02
#       7
#     8   8   8   8   4   4   8
#     4   8  14  26  46  73 105 140 173 207 258 321
#     4  10  21  38  58  76 104 147 185 222 276 340
#     4   9  18  32  53  83 111 137 178 228 272 319
#     4  12  24  37  56  82 111 145 186 233 280 328
#     4  11  23  39  59  83 112 145 182 225 275 334
#     4   9  17  31  53  83 117 149 184 229 276 321
#     4  10  20  35  57  84 114 150 189 227 273 331
#
# _framework density 17.867675999999999
#
# number of rings (size 3 to 8) (size 9 to 14) (size 15 to 20)
#    0.000    2.167    0.833    3.500    0.000    6.000 
#    0.000    3.333    1.833    0.000    0.000    3.500 
#    0.000    0.000    0.000    0.000    0.000    0.000 
#
# Total GULP energy -267819.684247 kJ/mol
# GULP energy per Si atom -5579.576755 kJ/mol
# Density = 1.782701 g / cm^3
# Si number density = 17.867676 Si / 1000 Ang^3
#
#
#
# Elastic Constant Matrix: (Units=GPa)
#
#
# Indices 1 2 3 4 5 6 
#
# 1 74.8722 76.4103 46.3478 0.0000 0.0000 0.0000
# 2 76.4103 196.8043 76.1691 0.0000 0.0000 0.0000
# 3 46.3478 76.1691 76.3106 0.0000 0.0000 0.0000
# 4 0.0000 0.0000 0.0000 46.9240 0.0000 0.0000
# 5 0.0000 0.0000 0.0000 0.0000 10.8813 0.0000
# 6 0.0000 0.0000 0.0000 0.0000 0.0000 96.9401
#
#
#
# Elastic Compliance Matrix: (Units=1/GPa)
#
#
# Indices 1 2 3 4 5 6 
#
# 1 0.025512 -0.006368 -0.009138 0.000000 0.000000 0.000000
# 2 -0.006368 0.009869 -0.005983 0.000000 0.000000 0.000000
# 3 -0.009138 -0.005983 0.024627 0.000000 0.000000 0.000000
# 4 0.000000 0.000000 0.000000 0.021311 0.000000 0.000000
# 5 0.000000 0.000000 0.000000 0.000000 0.091901 0.000000
# 6 0.000000 0.000000 0.000000 0.000000 0.000000 0.010316
#
#
# Mechanical properties :
#
#
# Convention : Reuss Voigt Hill
#
# Bulk Modulus (GPa) = 58.72582 82.87128 70.79855
# Shear Modulus (GPa) = 21.53386 40.88642 31.21014
#
# Velocity S-wave (km/s) = 3.47534 4.78880 4.18393
# Velocity P-wave (km/s) = 7.00303 8.77827 7.94042
#
# Compressibility (1/GPa) = 0.01702829
#
# Stress axis : x y z
#
# Youngs Moduli (GPa) = 39.19687 101.32265 40.60613
#
# Poissons Ratio (x) = 0.64526 0.37108
# Poissons Ratio (y) = 0.24962 0.24296
# Poissons Ratio (z) = 0.35820 0.60624
#
# Static dielectric constant tensor:
#      x y z
#    x 1.609420 0.000000 0.000000 
#    y 0.000000 1.606030 0.000000 
#    z 0.000000 0.000000 1.596760 
# 
# From -- ./inp_files/9240.got.cif
#   From: 2010.05.17/outbox.cif.g08.bks.cpg/sg47_5_cif.got.tgz:9240.got - 2010.06.03 20:15:42.
