data_PCOD9386788
_publ_section_title
;
Structure prediction by ZEFSAII (Michael W. Deem and Ramdas Pophale) SiO2 
 PCOD9386788
Probable space group: P M M M
;
_chemical_formula_sum "Si O2"
_cell_formula_units_Z 32
_cell_length_a 7.362821
_cell_length_b 17.677992
_cell_length_c 11.026062
_cell_angle_alpha 90.000000
_cell_angle_beta 90.000000
_cell_angle_gamma 90.000000
_cell_volume 1435.151025
_symmetry_space_group_name_H-M "P M M M"
_symmetry_group_IT_number 47
_symmetry_cell_setting 'orthorhombic'
loop_
_space_group_symop_operation_xyz
x,y,z
-x,-y,z
x,-y,-z
-x,y,-z
-x,-y,-z
x,y,-z
-x,y,z
x,-y,z
loop_
_atom_site_type_symbol
_atom_site_label
_atom_site_fract_x
_atom_site_fract_y
_atom_site_fract_z
Si Si1 0.793345 0.408069 0.000000
Si Si2 0.287233 0.259250 0.369418
Si Si3 0.704991 0.000000 0.146365
Si Si4 0.780285 0.585828 0.736231
Si Si5 0.277182 0.167503 0.138856
O O1 0.710630 0.389325 0.870136
O O2 0.801326 0.500000 0.000000
O O3 0.000000 0.379111 0.000000
O O4 0.210141 0.235574 0.500000
O O5 0.500000 0.239735 0.371031
O O6 0.271157 0.349498 0.356224
O O7 0.214196 0.222643 0.245631
O O8 0.784021 0.917761 0.173441
O O9 0.500000 0.000000 0.196874
O O10 0.693342 0.000000 0.000000
O O11 0.720453 0.500000 0.710096
O O12 0.000000 0.583407 0.743600
O O13 0.500000 0.166859 0.135581
O O14 0.221091 0.185745 0.000000
#
# Coordination Sequence:
#
# PCOD9386788 Si02
#       5
#     4   8   4   8   8
#     4   7  12  26  47  69  89 106 135 190 244 273
#     4  10  21  33  44  66 101 130 153 191 239 278
#     4   7  10  20  41  67  90 115 152 192 225 264
#     4   9  18  33  52  70  89 119 160 200 236 278
#     4   8  14  26  45  67  92 123 156 189 228 276
#
# _framework density 22.297305999999999
#
# number of rings (size 3 to 8) (size 9 to 14) (size 15 to 20)
#    0.000    3.500    0.000    3.000    1.750    1.500 
#    0.000    3.125    0.000    6.000    0.000    0.875 
#    0.000    5.000    0.000    0.000    0.000    0.000 
#
# Total GULP energy -178318.624558 kJ/mol
# GULP energy per Si atom -5572.457017 kJ/mol
# Density = 2.224656 g / cm^3
# Si number density = 22.297306 Si / 1000 Ang^3
#
#
#
# Elastic Constant Matrix: (Units=GPa)
#
#
# Indices 1 2 3 4 5 6 
#
# 1 82.4977 -4.5052 8.3575 0.0000 0.0000 0.0000
# 2 -4.5052 110.9394 81.7130 0.0000 0.0000 0.0000
# 3 8.3575 81.7130 164.8280 0.0000 0.0000 0.0000
# 4 0.0000 0.0000 0.0000 -0.8457 0.0000 0.0000
# 5 0.0000 0.0000 0.0000 0.0000 -3.2032 0.0000
# 6 0.0000 0.0000 0.0000 0.0000 0.0000 9.6080
#
#
#
# Elastic Compliance Matrix: (Units=1/GPa)
#
#
# Indices 1 2 3 4 5 6 
#
# 1 0.012344 0.001516 -0.001377 0.000000 0.000000 0.000000
# 2 0.001516 0.014385 -0.007208 0.000000 0.000000 0.000000
# 3 -0.001377 -0.007208 0.009710 0.000000 0.000000 0.000000
# 4 0.000000 0.000000 0.000000 -1.182449 0.000000 0.000000
# 5 0.000000 0.000000 0.000000 0.000000 -0.312190 0.000000
# 6 0.000000 0.000000 0.000000 0.000000 0.000000 0.104080
#
#
# Mechanical properties :
#
#
# Convention : Reuss Voigt Hill
#
# Bulk Modulus (GPa) = 44.84416 58.82174 51.83295
# Shear Modulus (GPa) = -3.75221 19.29181 7.76980
#
# Velocity S-wave (km/s) = -1.29864 2.94463 1.86874
# Velocity P-wave (km/s) = 4.23166 6.16434 5.28706
#
# Compressibility (1/GPa) = 0.02229945
#
# Stress axis : x y z
#
# Youngs Moduli (GPa) = 81.01197 69.51914 102.98576
#
# Poissons Ratio (x) = -0.10537 0.14184
# Poissons Ratio (y) = -0.12279 0.74232
# Poissons Ratio (z) = 0.11158 0.50109
#
# Static dielectric constant tensor:
#      x y z
#    x 1.895070 0.000000 0.000000 
#    y 0.000000 1.833350 0.000000 
#    z 0.000000 0.000000 1.830700 
# 
# From -- ./inp_files/14824.got.cif
#   From: 2010.05.17/outbox.cif.g08.bks.cpg/sg47_8_cif.got.tgz:14824.got - 2010.06.03 20:15:42.
