data_PCOD9386706
_publ_section_title
;
Structure prediction by ZEFSAII (Michael W. Deem and Ramdas Pophale) SiO2 
 PCOD9386706
Probable space group: P M M M
;
_chemical_formula_sum "Si O2"
_cell_formula_units_Z 29
_cell_length_a 7.632115
_cell_length_b 7.250064
_cell_length_c 26.526111
_cell_angle_alpha 90.000000
_cell_angle_beta 90.000000
_cell_angle_gamma 90.000000
_cell_volume 1467.777847
_symmetry_space_group_name_H-M "P M M M"
_symmetry_group_IT_number 47
_symmetry_cell_setting 'orthorhombic'
loop_
_space_group_symop_operation_xyz
x,y,z
-x,-y,z
x,-y,-z
-x,y,-z
-x,-y,-z
x,y,-z
-x,y,z
x,-y,z
loop_
_atom_site_type_symbol
_atom_site_label
_atom_site_fract_x
_atom_site_fract_y
_atom_site_fract_z
Si Si1 0.500000 0.776556 0.247493
Si Si2 0.200904 0.775789 0.943413
Si Si3 0.203853 0.779360 0.674204
Si Si4 0.000000 0.500000 0.500000
Si Si5 0.298046 0.500000 0.412506
Si Si6 0.500000 0.225304 0.867660
O O1 0.670533 0.723250 0.279765
O O2 0.500000 0.712752 0.190012
O O3 0.500000 0.000000 0.245781
O O4 0.331165 0.716265 0.899772
O O5 0.000000 0.719083 0.935636
O O6 0.202665 0.000000 0.943353
O O7 0.255903 0.719970 0.000000
O O8 0.265568 0.674680 0.624205
O O9 0.000000 0.736691 0.683707
O O10 0.219865 0.000000 0.667591
O O11 0.154556 0.500000 0.456070
O O12 0.500000 0.500000 0.429860
O O13 0.500000 0.000000 0.866946
#
# Coordination Sequence:
#
# PCOD9386706 Si02
#       6
#     4   8   8   1   4   4
#     4   9  18  30  47  74 101 138 192 234 281 343
#     4   8  13  20  30  46  73 116 167 216 275 339
#     4  10  20  37  61  85 115 155 194 231 279 340
#     4  12  26  44  62 102 124 146 206 228 276 342
#     4  12  23  41  67  90 121 155 186 235 280 324
#     4   9  15  22  34  55  85 118 166 232 278 320
#
# _framework density 19.757760000000001
#
# number of rings (size 3 to 8) (size 9 to 14) (size 15 to 20)
#    0.000    2.483    2.759    1.448    0.000    2.759 
#    0.000    6.897    0.000    1.655    0.000    0.000 
#    0.000    0.000    0.000    9.931    0.000   61.793 
#
# Total GULP energy -161664.159510 kJ/mol
# GULP energy per Si atom -5574.626190 kJ/mol
# Density = 1.971279 g / cm^3
# Si number density = 19.757760 Si / 1000 Ang^3
#
#
#
# Elastic Constant Matrix: (Units=GPa)
#
#
# Indices 1 2 3 4 5 6 
#
# 1 195.0440 22.8726 124.3025 0.0000 0.0000 0.0000
# 2 22.8726 85.2095 24.9630 0.0000 0.0000 0.0000
# 3 124.3025 24.9630 214.4416 0.0000 0.0000 0.0000
# 4 0.0000 0.0000 0.0000 -3.5249 0.0000 0.0000
# 5 0.0000 0.0000 0.0000 0.0000 -34.2097 0.0000
# 6 0.0000 0.0000 0.0000 0.0000 0.0000 0.3933
#
#
#
# Elastic Compliance Matrix: (Units=1/GPa)
#
#
# Indices 1 2 3 4 5 6 
#
# 1 0.008188 -0.000836 -0.004649 0.000000 0.000000 0.000000
# 2 -0.000836 0.012235 -0.000940 0.000000 0.000000 0.000000
# 3 -0.004649 -0.000940 0.007467 0.000000 0.000000 0.000000
# 4 0.000000 0.000000 0.000000 -0.283695 0.000000 0.000000
# 5 0.000000 0.000000 0.000000 0.000000 -0.029232 0.000000
# 6 0.000000 0.000000 0.000000 0.000000 0.000000 2.542813
#
#
# Mechanical properties :
#
#
# Convention : Reuss Voigt Hill
#
# Bulk Modulus (GPa) = 66.48199 93.21900 79.85050
# Shear Modulus (GPa) = 2.19718 14.03554 8.11636
#
# Velocity S-wave (km/s) = 1.05569 2.66819 2.02900
# Velocity P-wave (km/s) = 5.93360 7.53496 6.78171
#
# Compressibility (1/GPa) = 0.01504167
#
# Stress axis : x y z
#
# Youngs Moduli (GPa) = 122.13337 81.72950 133.91587
#
# Poissons Ratio (x) = 0.06832 0.62255
# Poissons Ratio (y) = 0.10209 0.12585
# Poissons Ratio (z) = 0.56777 0.07681
#
# Static dielectric constant tensor:
#      x y z
#    x 1.679480 0.000000 0.000000 
#    y 0.000000 1.835320 0.000000 
#    z 0.000000 0.000000 1.638450 
# 
# From -- ./inp_files/29014.got.cif
#   From: 2010.05.17/outbox.cif.g08.bks.cpg/sg47_15_cif.got.tgz:29014.got - 2010.06.03 20:15:42.
