data_PCOD9386824
_publ_section_title
;
Structure prediction by ZEFSAII (Michael W. Deem and Ramdas Pophale) SiO2 
 PCOD9386824
Probable space group: P M M M
;
_chemical_formula_sum "Si O2"
_cell_formula_units_Z 44
_cell_length_a 13.399373
_cell_length_b 7.505071
_cell_length_c 18.920388
_cell_angle_alpha 90.000000
_cell_angle_beta 90.000000
_cell_angle_gamma 90.000000
_cell_volume 1902.695628
_symmetry_space_group_name_H-M "P M M M"
_symmetry_group_IT_number 47
_symmetry_cell_setting 'orthorhombic'
loop_
_space_group_symop_operation_xyz
x,y,z
-x,-y,z
x,-y,-z
-x,y,-z
-x,-y,-z
x,y,-z
-x,y,z
x,-y,z
loop_
_atom_site_type_symbol
_atom_site_label
_atom_site_fract_x
_atom_site_fract_y
_atom_site_fract_z
Si Si1 0.678822 0.716157 0.421849
Si Si2 0.500000 0.787784 0.080540
Si Si3 0.891538 0.717736 0.362868
Si Si4 0.180041 0.700948 0.215081
Si Si5 0.276348 0.287676 0.919657
Si Si6 0.608662 0.793300 0.271184
O O1 0.647989 0.772760 0.500000
O O2 0.674403 0.500000 0.419421
O O3 0.794024 0.770314 0.406604
O O4 0.615957 0.785502 0.356166
O O5 0.390339 0.737137 0.107355
O O6 0.500000 0.000000 0.079251
O O7 0.500000 0.715775 0.000000
O O8 0.889206 0.500000 0.360828
O O9 0.878445 0.781086 0.281439
O O10 0.000000 0.771139 0.390387
O O11 0.141118 0.500000 0.205329
O O12 0.197752 0.784233 0.137924
O O13 0.293473 0.693916 0.244825
O O14 0.260661 0.500000 0.922795
O O15 0.269570 0.217051 0.000000
O O16 0.500000 0.725019 0.249042
O O17 0.616464 0.000000 0.249088
#
# Coordination Sequence:
#
# PCOD9386824 Si02
#       6
#     8   4   8   8   8   8
#     4   9  18  32  50  73  97 121 153 189 226 273
#     4   9  17  27  39  59  87 117 150 187 226 269
#     4   8  14  27  48  72  95 118 149 190 232 273
#     4   9  18  31  48  69  91 121 159 195 231 275
#     4   9  17  29  44  63  90 123 157 192 232 276
#     4  10  21  34  47  66  93 126 160 192 229 271
#
# _framework density 23.125086
#
# number of rings (size 3 to 8) (size 9 to 14) (size 15 to 20)
#    0.000    3.000    0.000    1.909    1.273    4.364 
#    0.000    3.636    0.000    9.273    0.000    8.909 
#    0.000    0.000    0.000   11.091    0.000   12.000 
#
# Total GULP energy -245412.845598 kJ/mol
# GULP energy per Si atom -5577.564673 kJ/mol
# Density = 2.307245 g / cm^3
# Si number density = 23.125086 Si / 1000 Ang^3
#
#
#
# Elastic Constant Matrix: (Units=GPa)
#
#
# Indices 1 2 3 4 5 6 
#
# 1 49.3443 -2.7075 -20.0489 0.0000 0.0000 0.0000
# 2 -2.7075 69.7705 -4.3634 0.0000 0.0000 0.0000
# 3 -20.0489 -4.3634 89.3399 0.0000 0.0000 0.0000
# 4 0.0000 0.0000 0.0000 -2.5791 0.0000 0.0000
# 5 0.0000 0.0000 0.0000 0.0000 15.8683 0.0000
# 6 0.0000 0.0000 0.0000 0.0000 0.0000 9.6294
#
#
#
# Elastic Compliance Matrix: (Units=1/GPa)
#
#
# Indices 1 2 3 4 5 6 
#
# 1 0.022397 0.001187 0.005084 0.000000 0.000000 0.000000
# 2 0.001187 0.014440 0.000972 0.000000 0.000000 0.000000
# 3 0.005084 0.000972 0.012382 0.000000 0.000000 0.000000
# 4 0.000000 0.000000 0.000000 -0.387732 0.000000 0.000000
# 5 0.000000 0.000000 0.000000 0.000000 0.063019 0.000000
# 6 0.000000 0.000000 0.000000 0.000000 0.000000 0.103849
#
#
# Mechanical properties :
#
#
# Convention : Reuss Voigt Hill
#
# Bulk Modulus (GPa) = 15.69783 17.13503 16.41643
# Shear Modulus (GPa) = -30.32177 20.28868 -5.01654
#
# Velocity S-wave (km/s) = -3.62499 2.96521 -1.47445
# Velocity P-wave (km/s) = 3.27380 4.37597 2.05321
#
# Compressibility (1/GPa) = 0.06370307
#
# Stress axis : x y z
#
# Youngs Moduli (GPa) = 44.64968 69.25436 80.76518
#
# Poissons Ratio (x) = -0.08221 -0.41061
# Poissons Ratio (y) = -0.05300 -0.07847
# Poissons Ratio (z) = -0.22700 -0.06729
#
# Static dielectric constant tensor:
#      x y z
#    x 1.824340 0.000000 0.000000 
#    y 0.000000 1.919460 0.000000 
#    z 0.000000 0.000000 1.943960 
# 
# From -- ./inp_files/30766.got.cif
#   From: 2010.05.17/outbox.cif.g08.bks.cpg/sg47_16_cif.got.tgz:30766.got - 2010.06.03 20:15:42.
