data_PCOD9386398
_publ_section_title
;
Structure prediction by ZEFSAII (Michael W. Deem and Ramdas Pophale) SiO2 
 PCOD9386398
Probable space group: P M M M
;
_chemical_formula_sum "Si O2"
_cell_formula_units_Z 44
_cell_length_a 7.852721
_cell_length_b 9.266627
_cell_length_c 32.803099
_cell_angle_alpha 90.000000
_cell_angle_beta 90.000000
_cell_angle_gamma 90.000000
_cell_volume 2387.023664
_symmetry_space_group_name_H-M "P M M M"
_symmetry_group_IT_number 47
_symmetry_cell_setting 'orthorhombic'
loop_
_space_group_symop_operation_xyz
x,y,z
-x,-y,z
x,-y,-z
-x,y,-z
-x,-y,-z
x,y,-z
-x,y,z
x,-y,z
loop_
_atom_site_type_symbol
_atom_site_label
_atom_site_fract_x
_atom_site_fract_y
_atom_site_fract_z
Si Si1 0.294320 0.830402 0.954462
Si Si2 0.797701 0.825332 0.328457
Si Si3 0.204149 0.837985 0.579535
Si Si4 0.297716 0.339984 0.500000
Si Si5 0.189697 0.673281 0.126908
Si Si6 0.500000 0.324748 0.816747
Si Si7 0.500000 0.674851 0.278220
O O1 0.500000 0.818103 0.952542
O O2 0.218313 0.741891 0.917349
O O3 0.252360 0.000000 0.950327
O O4 0.241069 0.783523 0.000000
O O5 0.746517 0.787444 0.375209
O O6 0.668312 0.742461 0.299106
O O7 0.000000 0.792221 0.322379
O O8 0.780445 0.000000 0.324631
O O9 0.248673 0.741683 0.541179
O O10 0.000000 0.847416 0.581142
O O11 0.272473 0.000000 0.573290
O O12 0.222327 0.500000 0.500000
O O13 0.500000 0.349452 0.500000
O O14 0.203957 0.500000 0.123188
O O15 0.334163 0.723956 0.158211
O O16 0.000000 0.707893 0.141628
O O17 0.500000 0.500000 0.817483
O O18 0.500000 0.284369 0.769578
O O19 0.500000 0.500000 0.281907
#
# Coordination Sequence:
#
# PCOD9386398 Si02
#       7
#     8   8   8   4   8   4   4
#     4   9  18  33  53  78 110 147 183 221 271 328
#     4   9  20  40  63  87 116 150 190 236 285 339
#     4   9  19  37  59  79 102 140 188 228 265 320
#     4  11  24  35  46  76 118 149 178 221 270 322
#     4  10  20  35  57  81 106 142 188 231 269 318
#     4   9  20  39  56  78 112 147 180 222 280 334
#     4  11  23  37  61  91 117 147 186 234 291 352
#
# _framework density 18.432998000000001
#
# number of rings (size 3 to 8) (size 9 to 14) (size 15 to 20)
#    0.000    2.455    0.909    2.455    1.273    5.091 
#    0.000    8.182    0.000    0.000    0.000    0.000 
#    0.000    0.000    0.000    0.000    0.000    0.000 
#
# Total GULP energy -245419.994729 kJ/mol
# GULP energy per Si atom -5577.727153 kJ/mol
# Density = 1.839104 g / cm^3
# Si number density = 18.432998 Si / 1000 Ang^3
#
#
#
# Elastic Constant Matrix: (Units=GPa)
#
#
# Indices 1 2 3 4 5 6 
#
# 1 106.2992 42.5124 87.0284 0.0000 0.0000 0.0000
# 2 42.5124 41.3914 61.4696 0.0000 0.0000 0.0000
# 3 87.0284 61.4696 181.1564 0.0000 0.0000 0.0000
# 4 0.0000 0.0000 0.0000 34.8416 0.0000 0.0000
# 5 0.0000 0.0000 0.0000 0.0000 -4.0196 0.0000
# 6 0.0000 0.0000 0.0000 0.0000 0.0000 24.6937
#
#
#
# Elastic Compliance Matrix: (Units=1/GPa)
#
#
# Indices 1 2 3 4 5 6 
#
# 1 0.017767 -0.011233 -0.004724 0.000000 0.000000 0.000000
# 2 -0.011233 0.055802 -0.013538 0.000000 0.000000 0.000000
# 3 -0.004724 -0.013538 0.012383 0.000000 0.000000 0.000000
# 4 0.000000 0.000000 0.000000 0.028701 0.000000 0.000000
# 5 0.000000 0.000000 0.000000 0.000000 -0.248779 0.000000
# 6 0.000000 0.000000 0.000000 0.000000 0.000000 0.040496
#
#
# Mechanical properties :
#
#
# Convention : Reuss Voigt Hill
#
# Bulk Modulus (GPa) = 37.08882 78.98531 58.03706
# Shear Modulus (GPa) = -194.93113 20.29224 -87.31945
#
# Velocity S-wave (km/s) = -10.29470 3.32153 -6.89015
# Velocity P-wave (km/s) = 11.00650 7.59296 5.63427
#
# Compressibility (1/GPa) = 0.02696231
#
# Stress axis : x y z
#
# Youngs Moduli (GPa) = 56.28254 17.92037 80.75411
#
# Poissons Ratio (x) = 0.20130 0.38148
# Poissons Ratio (y) = 0.63224 1.09327
# Poissons Ratio (z) = 0.26588 0.24261
#
# Static dielectric constant tensor:
#      x y z
#    x 1.654360 0.000000 0.000000 
#    y 0.000000 1.635400 0.000000 
#    z 0.000000 0.000000 1.633550 
# 
# From -- ./inp_files/33982.got.cif
#   From: 2010.05.17/outbox.cif.g08.bks.cpg/sg47_17_cif.got.tgz:33982.got - 2010.06.03 20:15:42.
