data_PCOD9386700
_publ_section_title
;
Structure prediction by ZEFSAII (Michael W. Deem and Ramdas Pophale) SiO2 
 PCOD9386700
Probable space group: P M M M
;
_chemical_formula_sum "Si O2"
_cell_formula_units_Z 48
_cell_length_a 8.695430
_cell_length_b 14.112753
_cell_length_c 19.617045
_cell_angle_alpha 90.000000
_cell_angle_beta 90.000000
_cell_angle_gamma 90.000000
_cell_volume 2407.334236
_symmetry_space_group_name_H-M "P M M M"
_symmetry_group_IT_number 47
_symmetry_cell_setting 'orthorhombic'
loop_
_space_group_symop_operation_xyz
x,y,z
-x,-y,z
x,-y,-z
-x,y,-z
-x,-y,-z
x,y,-z
-x,y,z
x,-y,z
loop_
_atom_site_type_symbol
_atom_site_label
_atom_site_fract_x
_atom_site_fract_y
_atom_site_fract_z
Si Si1 0.313371 0.394033 0.152528
Si Si2 0.681422 0.361368 0.306070
Si Si3 0.321900 0.000000 0.123292
Si Si4 0.824067 0.819643 0.641492
Si Si5 0.317340 0.113568 0.500000
Si Si6 0.831212 0.000000 0.738123
Si Si7 0.311894 0.500000 0.577724
Si Si8 0.180255 0.795512 0.918836
O O1 0.500000 0.389480 0.150958
O O2 0.270398 0.500000 0.125229
O O3 0.260104 0.391123 0.231830
O O4 0.252764 0.298186 0.116637
O O5 0.500000 0.380342 0.303783
O O6 0.718014 0.253491 0.319102
O O7 0.738583 0.413198 0.374435
O O8 0.249584 0.100516 0.098890
O O9 0.500000 0.000000 0.103928
O O10 0.296820 0.000000 0.204571
O O11 0.758455 0.843456 0.567391
O O12 0.823624 0.911707 0.688266
O O13 0.000000 0.785002 0.636331
O O14 0.500000 0.132171 0.500000
O O15 0.293925 0.000000 0.500000
O O16 0.000000 0.000000 0.773074
O O17 0.500000 0.500000 0.573585
O O18 0.256047 0.500000 0.500000
O O19 0.000000 0.797954 0.900504
O O20 0.195850 0.783110 0.000000
#
# Coordination Sequence:
#
# PCOD9386700 Si02
#       8
#     8   8   4   8   4   4   4   8
#     4  10  21  40  66  96 131 170 215 269 321 375
#     4  10  20  37  60  88 119 156 204 252 302 362
#     4  12  25  41  67  98 128 163 209 263 315 373
#     4  11  23  38  57  83 118 157 197 247 306 365
#     4  11  23  39  59  82 111 154 207 259 310 370
#     4  10  22  40  60  84 121 164 198 235 296 367
#     4   9  18  34  57  83 114 151 197 247 298 354
#     4  11  25  44  66  94 130 170 212 259 316 388
#
# _framework density 19.939067999999999
#
# number of rings (size 3 to 8) (size 9 to 14) (size 15 to 20)
#    0.000    1.500    1.667    3.250    1.167    8.000 
#    0.000    2.083    0.000    0.500    0.000    0.000 
#    0.000    0.000    0.000    0.000    0.000    0.000 
#
# Total GULP energy -267767.041950 kJ/mol
# GULP energy per Si atom -5578.480041 kJ/mol
# Density = 1.989369 g / cm^3
# Si number density = 19.939068 Si / 1000 Ang^3
#
#
#
# Elastic Constant Matrix: (Units=GPa)
#
#
# Indices 1 2 3 4 5 6 
#
# 1 49.0527 40.2435 37.9991 0.0000 0.0000 0.0000
# 2 40.2435 157.1339 56.2905 0.0000 0.0000 0.0000
# 3 37.9991 56.2905 82.6219 0.0000 0.0000 0.0000
# 4 0.0000 0.0000 0.0000 36.9977 0.0000 0.0000
# 5 0.0000 0.0000 0.0000 0.0000 27.7944 0.0000
# 6 0.0000 0.0000 0.0000 0.0000 0.0000 20.4243
#
#
#
# Elastic Compliance Matrix: (Units=1/GPa)
#
#
# Indices 1 2 3 4 5 6 
#
# 1 0.033510 -0.004050 -0.012653 0.000000 0.000000 0.000000
# 2 -0.004050 0.008908 -0.004207 0.000000 0.000000 0.000000
# 3 -0.012653 -0.004207 0.020789 0.000000 0.000000 0.000000
# 4 0.000000 0.000000 0.000000 0.027029 0.000000 0.000000
# 5 0.000000 0.000000 0.000000 0.000000 0.035978 0.000000
# 6 0.000000 0.000000 0.000000 0.000000 0.000000 0.048961
#
#
# Mechanical properties :
#
#
# Convention : Reuss Voigt Hill
#
# Bulk Modulus (GPa) = 46.75373 61.98609 54.36991
# Shear Modulus (GPa) = 22.30915 27.32830 24.81872
#
# Velocity S-wave (km/s) = 3.34857 3.70616 3.53190
# Velocity P-wave (km/s) = 6.20079 7.03345 6.63021
#
# Compressibility (1/GPa) = 0.02138867
#
# Stress axis : x y z
#
# Youngs Moduli (GPa) = 29.84162 112.25738 48.10334
#
# Poissons Ratio (x) = 0.45460 0.60865
# Poissons Ratio (y) = 0.12085 0.20235
# Poissons Ratio (z) = 0.37758 0.47223
#
# Static dielectric constant tensor:
#      x y z
#    x 1.706960 0.000000 0.000000 
#    y 0.000000 1.716670 0.000000 
#    z 0.000000 0.000000 1.685420 
# 
# From -- ./inp_files/26574.got.cif
#   From: 2010.05.17/outbox.cif.g08.bks.cpg/sg47_14_cif.got.tgz:26574.got - 2010.06.03 20:15:42.
