data_PCOD9386219
_publ_section_title
;
Structure prediction by ZEFSAII (Michael W. Deem and Ramdas Pophale) SiO2 
 PCOD9386219
Probable space group: P M M M
;
_chemical_formula_sum "Si O2"
_cell_formula_units_Z 56
_cell_length_a 20.325528
_cell_length_b 8.259618
_cell_length_c 16.111917
_cell_angle_alpha 90.000000
_cell_angle_beta 90.000000
_cell_angle_gamma 90.000000
_cell_volume 2704.886300
_symmetry_space_group_name_H-M "P M M M"
_symmetry_group_IT_number 47
_symmetry_cell_setting 'orthorhombic'
loop_
_space_group_symop_operation_xyz
x,y,z
-x,-y,z
x,-y,-z
-x,y,-z
-x,-y,-z
x,y,-z
-x,y,z
x,-y,z
loop_
_atom_site_type_symbol
_atom_site_label
_atom_site_fract_x
_atom_site_fract_y
_atom_site_fract_z
Si Si1 0.073198 0.813738 0.235138
Si Si2 0.713697 0.304861 0.593007
Si Si3 0.707468 0.311014 0.089883
Si Si4 0.426482 0.696103 0.665360
Si Si5 0.787808 0.808402 0.242587
Si Si6 0.426025 0.808158 0.855932
Si Si7 0.078878 0.316827 0.590208
O O1 0.142368 0.738284 0.207757
O O2 0.086413 0.803823 0.334233
O O3 0.000000 0.741096 0.219957
O O4 0.069517 0.000000 0.207696
O O5 0.731542 0.247608 0.500000
O O6 0.714260 0.500000 0.591280
O O7 0.638386 0.253618 0.614545
O O8 0.760960 0.255727 0.669274
O O9 0.723901 0.500000 0.095752
O O10 0.736143 0.224310 0.170207
O O11 0.629481 0.288196 0.096386
O O12 0.730404 0.248427 0.000000
O O13 0.500000 0.739580 0.633021
O O14 0.424509 0.500000 0.670997
O O15 0.420878 0.766889 0.757973
O O16 0.796316 0.000000 0.252142
O O17 0.500000 0.767441 0.882009
O O18 0.415818 0.000000 0.867368
O O19 0.104832 0.268047 0.500000
O O20 0.103217 0.500000 0.609107
O O21 0.000000 0.330197 0.583025
#
# Coordination Sequence:
#
# PCOD9386219 Si02
#       7
#     8   8   8   8   8   8   8
#     4   9  19  35  54  77 104 136 177 224 277 339
#     4  10  21  36  55  81 115 157 201 242 286 337
#     4  11  24  41  62  87 115 150 191 233 281 340
#     4   9  17  31  53  79 110 151 197 243 287 329
#     4  11  23  39  60  84 113 149 187 234 290 344
#     4  10  20  34  56  87 121 154 188 231 284 336
#     4   8  14  25  42  67  99 133 171 215 261 312
#
# _framework density 20.703271999999998
#
# number of rings (size 3 to 8) (size 9 to 14) (size 15 to 20)
#    0.000    2.286    1.429    1.714    0.000    4.857 
#    0.000    7.143    0.000    0.429    0.000    6.000 
#    0.000    0.000    0.000    0.000    0.000    0.000 
#
# Total GULP energy -312046.060850 kJ/mol
# GULP energy per Si atom -5572.251087 kJ/mol
# Density = 2.065615 g / cm^3
# Si number density = 20.703272 Si / 1000 Ang^3
#
#
#
# Elastic Constant Matrix: (Units=GPa)
#
#
# Indices 1 2 3 4 5 6 
#
# 1 128.8755 11.4286 30.0058 0.0000 0.0000 0.0000
# 2 11.4286 15.8479 8.1177 0.0000 0.0000 0.0000
# 3 30.0058 8.1177 75.3464 0.0000 0.0000 0.0000
# 4 0.0000 0.0000 0.0000 20.7688 0.0000 0.0000
# 5 0.0000 0.0000 0.0000 0.0000 -1.4088 0.0000
# 6 0.0000 0.0000 0.0000 0.0000 0.0000 12.4059
#
#
#
# Elastic Compliance Matrix: (Units=1/GPa)
#
#
# Indices 1 2 3 4 5 6 
#
# 1 0.008894 -0.004868 -0.003017 0.000000 0.000000 0.000000
# 2 -0.004868 0.069450 -0.005544 0.000000 0.000000 0.000000
# 3 -0.003017 -0.005544 0.015071 0.000000 0.000000 0.000000
# 4 0.000000 0.000000 0.000000 0.048149 0.000000 0.000000
# 5 0.000000 0.000000 0.000000 0.000000 -0.709836 0.000000
# 6 0.000000 0.000000 0.000000 0.000000 0.000000 0.080607
#
#
# Mechanical properties :
#
#
# Convention : Reuss Voigt Hill
#
# Bulk Modulus (GPa) = 15.02486 35.46379 25.24432
# Shear Modulus (GPa) = -11.39936 17.72102 3.16083
#
# Velocity S-wave (km/s) = -2.34905 2.92884 1.23695
# Velocity P-wave (km/s) = 0.29047 5.34829 3.77623
#
# Compressibility (1/GPa) = 0.06655638
#
# Stress axis : x y z
#
# Youngs Moduli (GPa) = 112.43990 14.39881 66.35293
#
# Poissons Ratio (x) = 0.07009 0.20021
# Poissons Ratio (y) = 0.54736 0.36785
# Poissons Ratio (z) = 0.33927 0.07982
#
# Static dielectric constant tensor:
#      x y z
#    x 1.834420 0.000000 0.000000 
#    y 0.000000 1.727000 0.000000 
#    z 0.000000 0.000000 1.737280 
# 
# From -- ./inp_files/7353.got.cif
#   From: 2010.05.17/outbox.cif.g08.bks.cpg/sg47_4_cif.got.tgz:7353.got - 2010.06.03 20:15:42.
