data_PCOD9386216
_publ_section_title
;
Structure prediction by ZEFSAII (Michael W. Deem and Ramdas Pophale) SiO2 
 PCOD9386216
Probable space group: P M M M
;
_chemical_formula_sum "Si O2"
_cell_formula_units_Z 64
_cell_length_a 15.006802
_cell_length_b 25.688283
_cell_length_c 7.931237
_cell_angle_alpha 90.000000
_cell_angle_beta 90.000000
_cell_angle_gamma 90.000000
_cell_volume 3057.483747
_symmetry_space_group_name_H-M "P M M M"
_symmetry_group_IT_number 47
_symmetry_cell_setting 'orthorhombic'
loop_
_space_group_symop_operation_xyz
x,y,z
-x,-y,z
x,-y,-z
-x,y,-z
-x,-y,-z
x,y,-z
-x,y,z
x,-y,z
loop_
_atom_site_type_symbol
_atom_site_label
_atom_site_fract_x
_atom_site_fract_y
_atom_site_fract_z
Si Si1 0.774020 0.745449 0.803710
Si Si2 0.210401 0.559860 0.704334
Si Si3 0.897466 0.160220 0.300230
Si Si4 0.402025 0.203360 0.695630
Si Si5 0.595568 0.563142 0.700223
Si Si6 0.401754 0.086940 0.195721
Si Si7 0.099413 0.343927 0.202035
Si Si8 0.207843 0.057670 0.795409
O O1 0.836579 0.796118 0.785451
O O2 0.679194 0.758164 0.723663
O O3 0.829063 0.697256 0.729322
O O4 0.757245 0.735664 0.000000
O O5 0.213179 0.559723 0.500000
O O6 0.197717 0.500000 0.758419
O O7 0.307871 0.579634 0.766932
O O8 0.134092 0.598435 0.762255
O O9 0.896115 0.170650 0.500000
O O10 0.853444 0.104114 0.269149
O O11 0.000000 0.161913 0.241423
O O12 0.401354 0.187600 0.500000
O O13 0.500000 0.225363 0.735474
O O14 0.391083 0.149586 0.796514
O O15 0.594406 0.575133 0.500000
O O16 0.500000 0.581090 0.771838
O O17 0.596694 0.500000 0.712794
O O18 0.500000 0.074671 0.269784
O O19 0.310056 0.064388 0.267143
O O20 0.404897 0.070693 0.000000
O O21 0.000000 0.335083 0.268968
O O22 0.096005 0.336411 0.000000
O O23 0.175676 0.000000 0.749912
O O24 0.209769 0.061516 0.000000
#
# Coordination Sequence:
#
# PCOD9386216 Si02
#       8
#     8   8   8   8   8   8   8   8
#     4  11  22  39  63  86 110 143 186 235 284 337
#     4   9  18  33  55  84 115 147 185 228 273 324
#     4  11  24  40  59  83 109 142 186 236 295 353
#     4  10  20  34  56  87 120 150 181 221 272 333
#     4   7  10  20  42  72 104 137 173 212 254 303
#     4   9  17  31  53  81 113 150 189 226 269 325
#     4  10  23  41  58  79 108 144 186 232 283 335
#     4  10  21  36  55  82 115 152 193 235 279 331
#
# _framework density 20.932245999999999
#
# number of rings (size 3 to 8) (size 9 to 14) (size 15 to 20)
#    0.000    2.375    1.250    2.625    0.000    4.750 
#    0.000    4.375    0.000    2.625    0.000    4.375 
#    0.000    0.000    0.000    0.000    0.000    0.000 
#
# Total GULP energy -357069.230637 kJ/mol
# GULP energy per Si atom -5579.206729 kJ/mol
# Density = 2.088460 g / cm^3
# Si number density = 20.932246 Si / 1000 Ang^3
#
#
#
# Elastic Constant Matrix: (Units=GPa)
#
#
# Indices 1 2 3 4 5 6 
#
# 1 114.7362 34.3244 0.5314 0.0000 0.0000 0.0000
# 2 34.3244 66.8844 -6.8892 0.0000 0.0000 0.0000
# 3 0.5314 -6.8892 23.9080 0.0000 0.0000 0.0000
# 4 0.0000 0.0000 0.0000 24.6414 0.0000 0.0000
# 5 0.0000 0.0000 0.0000 0.0000 17.6325 0.0000
# 6 0.0000 0.0000 0.0000 0.0000 0.0000 -11.5262
#
#
#
# Elastic Compliance Matrix: (Units=1/GPa)
#
#
# Indices 1 2 3 4 5 6 
#
# 1 0.010373 -0.005510 -0.001818 0.000000 0.000000 0.000000
# 2 -0.005510 0.018336 0.005406 0.000000 0.000000 0.000000
# 3 -0.001818 0.005406 0.043425 0.000000 0.000000 0.000000
# 4 0.000000 0.000000 0.000000 0.040582 0.000000 0.000000
# 5 0.000000 0.000000 0.000000 0.000000 0.056713 0.000000
# 6 0.000000 0.000000 0.000000 0.000000 0.000000 -0.086759
#
#
# Mechanical properties :
#
#
# Convention : Reuss Voigt Hill
#
# Bulk Modulus (GPa) = 14.64382 29.05129 21.84756
# Shear Modulus (GPa) = 45.75463 17.98702 31.87082
#
# Velocity S-wave (km/s) = 4.68037 2.93456 3.90625
# Velocity P-wave (km/s) = 6.01821 5.03895 5.55022
#
# Compressibility (1/GPa) = 0.06828820
#
# Stress axis : x y z
#
# Youngs Moduli (GPa) = 96.40837 54.53795 23.02810
#
# Poissons Ratio (x) = 0.30052 0.04187
# Poissons Ratio (y) = 0.53125 -0.12449
# Poissons Ratio (z) = 0.17531 -0.29483
#
# Static dielectric constant tensor:
#      x y z
#    x 1.782890 0.000000 0.000000 
#    y 0.000000 1.724060 0.000000 
#    z 0.000000 0.000000 1.779890 
# 
# From -- ./inp_files/7786.got.cif
#   From: 2010.05.17/outbox.cif.g08.bks.cpg/sg47_4_cif.got.tgz:7786.got - 2010.06.03 20:15:42.
