data_PCOD9386966
_publ_section_title
;
Structure prediction by ZEFSAII (Michael W. Deem and Ramdas Pophale) SiO2 
 PCOD9386966
Probable space group: P M M M
;
_chemical_formula_sum "Si O2"
_cell_formula_units_Z 44
_cell_length_a 7.683198
_cell_length_b 30.772520
_cell_length_c 9.787088
_cell_angle_alpha 90.000000
_cell_angle_beta 90.000000
_cell_angle_gamma 90.000000
_cell_volume 2313.974567
_symmetry_space_group_name_H-M "P M M M"
_symmetry_group_IT_number 47
_symmetry_cell_setting 'orthorhombic'
loop_
_space_group_symop_operation_xyz
x,y,z
-x,-y,z
x,-y,-z
-x,y,-z
-x,-y,-z
x,y,-z
-x,y,z
x,-y,z
loop_
_atom_site_type_symbol
_atom_site_label
_atom_site_fract_x
_atom_site_fract_y
_atom_site_fract_z
Si Si1 0.293917 0.371029 0.845775
Si Si2 0.791990 0.098949 0.663159
Si Si3 0.792829 0.723999 0.845504
Si Si4 0.500000 0.052115 0.160924
Si Si5 0.790777 0.548223 0.344479
Si Si6 0.212050 0.800697 0.345465
O O1 0.500000 0.368031 0.856106
O O2 0.233249 0.324520 0.788479
O O3 0.254313 0.412498 0.754155
O O4 0.220412 0.375811 0.000000
O O5 0.762496 0.091381 0.500000
O O6 0.668856 0.070177 0.758304
O O7 0.746253 0.149596 0.691024
O O8 0.000000 0.092877 0.687194
O O9 0.722993 0.763338 0.754990
O O10 0.000000 0.730491 0.854499
O O11 0.721327 0.724405 0.000000
O O12 0.500000 0.000000 0.166598
O O13 0.500000 0.064976 0.000000
O O14 0.728496 0.555582 0.500000
O O15 0.729780 0.500000 0.300244
O O16 0.000000 0.546566 0.349487
O O17 0.271403 0.792543 0.500000
O O18 0.000000 0.799069 0.347102
#
# Coordination Sequence:
#
# PCOD9386966 Si02
#       6
#     8   8   8   4   8   8
#     4  10  21  35  49  70 104 140 171 206 250 305
#     4   9  19  38  63  88 116 153 197 245 295 348
#     4   9  17  30  49  72 100 137 177 214 255 307
#     4  11  25  41  57  85 123 159 197 243 296 351
#     4   9  19  36  56  76  96 121 160 211 263 313
#     4   8  15  30  53  80 107 135 173 222 272 321
#
# _framework density 19.014904000000001
#
# number of rings (size 3 to 8) (size 9 to 14) (size 15 to 20)
#    0.000    2.818    0.000    2.455    0.000    5.091 
#    1.636    8.182    0.000    0.000    0.000    0.000 
#    0.000    0.000    0.000    0.000    0.000    0.000 
#
# Total GULP energy -245294.405556 kJ/mol
# GULP energy per Si atom -5574.872854 kJ/mol
# Density = 1.897162 g / cm^3
# Si number density = 19.014904 Si / 1000 Ang^3
#
#
#
# Elastic Constant Matrix: (Units=GPa)
#
#
# Indices 1 2 3 4 5 6 
#
# 1 61.2987 35.2179 36.3272 0.0000 0.0000 0.0000
# 2 35.2179 148.8741 97.3747 0.0000 0.0000 0.0000
# 3 36.3272 97.3747 94.9043 0.0000 0.0000 0.0000
# 4 0.0000 0.0000 0.0000 -40.8758 0.0000 0.0000
# 5 0.0000 0.0000 0.0000 0.0000 18.8147 0.0000
# 6 0.0000 0.0000 0.0000 0.0000 0.0000 63.4963
#
#
#
# Elastic Compliance Matrix: (Units=1/GPa)
#
#
# Indices 1 2 3 4 5 6 
#
# 1 0.021138 0.000887 -0.009002 0.000000 0.000000 0.000000
# 2 0.000887 0.020460 -0.021332 0.000000 0.000000 0.000000
# 3 -0.009002 -0.021332 0.035870 0.000000 0.000000 0.000000
# 4 0.000000 0.000000 0.000000 -0.024464 0.000000 0.000000
# 5 0.000000 0.000000 0.000000 0.000000 0.053150 0.000000
# 6 0.000000 0.000000 0.000000 0.000000 0.000000 0.015749
#
#
# Mechanical properties :
#
#
# Convention : Reuss Voigt Hill
#
# Bulk Modulus (GPa) = 53.83504 71.43518 62.63511
# Shear Modulus (GPa) = 26.73966 17.36419 22.05192
#
# Velocity S-wave (km/s) = 3.75406 3.02518 3.40916
# Velocity P-wave (km/s) = 6.86762 7.06058 6.96477
#
# Compressibility (1/GPa) = 0.01857526
#
# Stress axis : x y z
#
# Youngs Moduli (GPa) = 47.30722 48.87564 27.87844
#
# Poissons Ratio (x) = -0.04336 0.25095
# Poissons Ratio (y) = -0.04197 0.59471
# Poissons Ratio (z) = 0.42584 1.04263
#
# Static dielectric constant tensor:
#      x y z
#    x 1.684260 0.000000 0.000000 
#    y 0.000000 1.655000 0.000000 
#    z 0.000000 0.000000 1.666530 
# 
# From -- ./inp_files/2094.got.cif
#   From: 2010.05.17/outbox.cif.g08.bks.cpg/sg47_2_cif.got.tgz:2094.got - 2010.06.03 20:15:42.
