data_PCOD9386906
_publ_section_title
;
Structure prediction by ZEFSAII (Michael W. Deem and Ramdas Pophale) SiO2 
 PCOD9386906
Probable space group: P M M M
;
_chemical_formula_sum "Si O2"
_cell_formula_units_Z 48
_cell_length_a 7.801275
_cell_length_b 35.467398
_cell_length_c 9.004386
_cell_angle_alpha 90.000000
_cell_angle_beta 90.000000
_cell_angle_gamma 90.000000
_cell_volume 2491.431894
_symmetry_space_group_name_H-M "P M M M"
_symmetry_group_IT_number 47
_symmetry_cell_setting 'orthorhombic'
loop_
_space_group_symop_operation_xyz
x,y,z
-x,-y,z
x,-y,-z
-x,y,-z
-x,-y,-z
x,y,-z
-x,y,z
x,-y,z
loop_
_atom_site_type_symbol
_atom_site_label
_atom_site_fract_x
_atom_site_fract_y
_atom_site_fract_z
Si Si1 0.202952 0.117448 0.166263
Si Si2 0.704207 0.198706 0.169605
Si Si3 0.000000 0.408301 0.676667
Si Si4 0.293801 0.040828 0.670527
Si Si5 0.699564 0.544823 0.823894
Si Si6 0.000000 0.673902 0.821763
Si Si7 0.704528 0.276239 0.677332
O O1 0.257772 0.157390 0.234925
O O2 0.245200 0.078749 0.246862
O O3 0.000000 0.119256 0.155468
O O4 0.279372 0.116370 0.000000
O O5 0.500000 0.201330 0.158594
O O6 0.757465 0.234514 0.265930
O O7 0.775109 0.200565 0.000000
O O8 0.166872 0.431605 0.728752
O O9 0.000000 0.403006 0.500000
O O10 0.000000 0.368414 0.759920
O O11 0.234398 0.042986 0.500000
O O12 0.500000 0.039776 0.668997
O O13 0.234820 0.000000 0.732513
O O14 0.500000 0.553669 0.791780
O O15 0.723681 0.500000 0.799762
O O16 0.728501 0.551806 0.000000
O O17 0.169439 0.694869 0.759152
O O18 0.000000 0.674745 0.000000
O O19 0.725355 0.279045 0.500000
O O20 0.500000 0.281852 0.710145
#
# Coordination Sequence:
#
# PCOD9386906 Si02
#       7
#     8   8   4   8   8   4   8
#     4  10  21  34  50  78 112 141 173 214 262 317
#     4   9  18  34  56  81 109 143 183 224 270 330
#     4  12  25  39  58  89 128 166 206 257 317 372
#     4   9  19  36  55  73  96 131 176 222 267 319
#     4   9  19  38  64  92 124 166 215 263 310 365
#     4  12  26  43  65  88 118 163 211 255 300 362
#     4  10  22  41  64  91 122 153 191 245 306 363
#
# _framework density 19.266030000000001
#
# number of rings (size 3 to 8) (size 9 to 14) (size 15 to 20)
#    0.000    2.167    0.000    3.750    1.167    6.000 
#    0.000    5.000    0.000    0.000    0.000    0.000 
#    0.000    0.000    0.000    0.000    0.000    0.000 
#
# Total GULP energy -267822.798963 kJ/mol
# GULP energy per Si atom -5579.641645 kJ/mol
# Density = 1.922218 g / cm^3
# Si number density = 19.266030 Si / 1000 Ang^3
#
#
#
# Elastic Constant Matrix: (Units=GPa)
#
#
# Indices 1 2 3 4 5 6 
#
# 1 76.5878 64.2701 54.2854 0.0000 0.0000 0.0000
# 2 64.2701 141.2067 75.7940 0.0000 0.0000 0.0000
# 3 54.2854 75.7940 97.5475 0.0000 0.0000 0.0000
# 4 0.0000 0.0000 0.0000 11.2462 0.0000 0.0000
# 5 0.0000 0.0000 0.0000 0.0000 31.7686 0.0000
# 6 0.0000 0.0000 0.0000 0.0000 0.0000 -44.3148
#
#
#
# Elastic Compliance Matrix: (Units=1/GPa)
#
#
# Indices 1 2 3 4 5 6 
#
# 1 0.024722 -0.006635 -0.008603 0.000000 0.000000 0.000000
# 2 -0.006635 0.013929 -0.007131 0.000000 0.000000 0.000000
# 3 -0.008603 -0.007131 0.020579 0.000000 0.000000 0.000000
# 4 0.000000 0.000000 0.000000 0.088919 0.000000 0.000000
# 5 0.000000 0.000000 0.000000 0.000000 0.031478 0.000000
# 6 0.000000 0.000000 0.000000 0.000000 0.000000 -0.022566
#
#
# Mechanical properties :
#
#
# Convention : Reuss Voigt Hill
#
# Bulk Modulus (GPa) = 68.99226 78.22676 73.60951
# Shear Modulus (GPa) = 24.19799 7.80618 16.00209
#
# Velocity S-wave (km/s) = 3.54784 2.01509 2.88511
# Velocity P-wave (km/s) = 7.25748 6.79012 7.02768
#
# Compressibility (1/GPa) = 0.01449438
#
# Stress axis : x y z
#
# Youngs Moduli (GPa) = 40.44956 71.79302 48.59238
#
# Poissons Ratio (x) = 0.47632 0.41803
# Poissons Ratio (y) = 0.26837 0.34649
# Poissons Ratio (z) = 0.34798 0.51192
#
# Static dielectric constant tensor:
#      x y z
#    x 1.674530 0.000000 0.000000 
#    y 0.000000 1.682610 0.000000 
#    z 0.000000 0.000000 1.672970 
# 
# From -- ./inp_files/2621.got.cif
#   From: 2010.05.17/outbox.cif.g08.bks.cpg/sg47_2_cif.got.tgz:2621.got - 2010.06.03 20:15:42.
