data_PCOD9386875
_publ_section_title
;
Structure prediction by ZEFSAII (Michael W. Deem and Ramdas Pophale) SiO2 
 PCOD9386875
Probable space group: P M M M
;
_chemical_formula_sum "Si O2"
_cell_formula_units_Z 44
_cell_length_a 32.711008
_cell_length_b 7.645574
_cell_length_c 9.835511
_cell_angle_alpha 90.000000
_cell_angle_beta 90.000000
_cell_angle_gamma 90.000000
_cell_volume 2459.806540
_symmetry_space_group_name_H-M "P M M M"
_symmetry_group_IT_number 47
_symmetry_cell_setting 'orthorhombic'
loop_
_space_group_symop_operation_xyz
x,y,z
-x,-y,z
x,-y,-z
-x,y,-z
-x,-y,-z
x,y,-z
-x,y,z
x,-y,z
loop_
_atom_site_type_symbol
_atom_site_label
_atom_site_fract_x
_atom_site_fract_y
_atom_site_fract_z
Si Si1 0.379334 0.292993 0.152960
Si Si2 0.710979 0.207974 0.154276
Si Si3 0.000000 0.797022 0.164376
Si Si4 0.454684 0.790062 0.654360
Si Si5 0.785993 0.792812 0.339827
Si Si6 0.852917 0.500000 0.661310
Si Si7 0.065219 0.500000 0.164489
O O1 0.377575 0.500000 0.141661
O O2 0.334945 0.237166 0.207362
O O3 0.417710 0.251858 0.246631
O O4 0.383964 0.217822 0.000000
O O5 0.747431 0.269093 0.250576
O O6 0.716240 0.000000 0.145186
O O7 0.713062 0.280278 0.000000
O O8 0.961146 0.674303 0.200560
O O9 0.000000 0.000000 0.213479
O O10 0.000000 0.805824 0.000000
O O11 0.447540 0.726294 0.500000
O O12 0.500000 0.727974 0.698463
O O13 0.456585 0.000000 0.648215
O O14 0.776251 0.775062 0.500000
O O15 0.824806 0.670413 0.311787
O O16 0.793881 0.000000 0.314157
O O17 0.863303 0.500000 0.500000
O O18 0.892601 0.500000 0.754990
O O19 0.070596 0.500000 0.000000
#
# Coordination Sequence:
#
# PCOD9386875 Si02
#       7
#     8   8   4   8   8   4   4
#     4  10  21  34  49  74 104 130 157 194 245 303
#     4   9  18  33  52  73  97 125 161 207 251 292
#     4   8  15  31  54  78 108 142 176 222 270 308
#     4   9  19  36  55  73  94 123 161 202 242 289
#     4   9  19  35  52  71  98 135 176 213 255 310
#     4  10  21  35  51  74 108 144 173 215 268 311
#     4   9  18  32  52  80 106 136 182 221 259 313
#
# _framework density 17.887585000000001
#
# number of rings (size 3 to 8) (size 9 to 14) (size 15 to 20)
#    0.000    2.818    0.000    1.636    1.273    4.364 
#    0.000    5.455    0.000    0.545    0.000    0.000 
#    0.000    0.000    0.000    0.000    0.000    0.000 
#
# Total GULP energy -245116.925250 kJ/mol
# GULP energy per Si atom -5570.839210 kJ/mol
# Density = 1.784687 g / cm^3
# Si number density = 17.887585 Si / 1000 Ang^3
#
#
#
# Elastic Constant Matrix: (Units=GPa)
#
#
# Indices 1 2 3 4 5 6 
#
# 1 185.9685 53.0339 91.8196 0.0000 0.0000 0.0000
# 2 53.0339 85.4315 32.4070 0.0000 0.0000 0.0000
# 3 91.8196 32.4070 61.2118 0.0000 0.0000 0.0000
# 4 0.0000 0.0000 0.0000 17.2658 0.0000 0.0000
# 5 0.0000 0.0000 0.0000 0.0000 1011.5284 0.0000
# 6 0.0000 0.0000 0.0000 0.0000 0.0000 22.6352
#
#
#
# Elastic Compliance Matrix: (Units=1/GPa)
#
#
# Indices 1 2 3 4 5 6 
#
# 1 0.020855 -0.001351 -0.030568 0.000000 0.000000 0.000000
# 2 -0.001351 0.014734 -0.005774 0.000000 0.000000 0.000000
# 3 -0.030568 -0.005774 0.065247 0.000000 0.000000 0.000000
# 4 0.000000 0.000000 0.000000 0.057918 0.000000 0.000000
# 5 0.000000 0.000000 0.000000 0.000000 0.000989 0.000000
# 6 0.000000 0.000000 0.000000 0.000000 0.000000 0.044179
#
#
# Mechanical properties :
#
#
# Convention : Reuss Voigt Hill
#
# Bulk Modulus (GPa) = 39.29329 76.34809 57.82069
# Shear Modulus (GPa) = 17.37365 220.64261 119.00813
#
# Velocity S-wave (km/s) = 3.11990 11.11833 8.16551
# Velocity P-wave (km/s) = 5.91547 14.40826 11.01342
#
# Compressibility (1/GPa) = 0.02544964
#
# Stress axis : x y z
#
# Youngs Moduli (GPa) = 47.94980 67.86897 15.32637
#
# Poissons Ratio (x) = 0.09168 0.46850
# Poissons Ratio (y) = 0.06477 0.08850
# Poissons Ratio (z) = 1.46574 0.39190
#
# Static dielectric constant tensor:
#      x y z
#    x 1.602570 0.000000 0.000000 
#    y 0.000000 1.640080 0.000000 
#    z 0.000000 0.000000 1.629270 
# 
# From -- ./inp_files/13751.got.cif
#   From: 2010.05.17/outbox.cif.g08.bks.cpg/sg47_7_cif.got.tgz:13751.got - 2010.06.03 20:15:42.
