data_PCOD9386294
_publ_section_title
;
Structure prediction by ZEFSAII (Michael W. Deem and Ramdas Pophale) SiO2 
 PCOD9386294
Probable space group: P M M M
;
_chemical_formula_sum "Si O2"
_cell_formula_units_Z 48
_cell_length_a 34.113187
_cell_length_b 8.374098
_cell_length_c 7.775219
_cell_angle_alpha 90.000000
_cell_angle_beta 90.000000
_cell_angle_gamma 90.000000
_cell_volume 2221.124816
_symmetry_space_group_name_H-M "P M M M"
_symmetry_group_IT_number 47
_symmetry_cell_setting 'orthorhombic'
loop_
_space_group_symop_operation_xyz
x,y,z
-x,-y,z
x,-y,-z
-x,y,-z
-x,-y,-z
x,y,-z
-x,y,z
x,-y,z
loop_
_atom_site_type_symbol
_atom_site_label
_atom_site_fract_x
_atom_site_fract_y
_atom_site_fract_z
Si Si1 0.089824 0.000000 0.790058
Si Si2 0.704836 0.175209 0.700705
Si Si3 0.373686 0.322558 0.202379
Si Si4 0.818924 0.000000 0.789589
Si Si5 0.542827 0.813151 0.707523
Si Si6 0.954134 0.678347 0.790430
Si Si7 0.780084 0.673024 0.799251
O O1 0.135428 0.000000 0.744284
O O2 0.069215 0.164718 0.731500
O O3 0.087437 0.000000 0.000000
O O4 0.714671 0.176522 0.500000
O O5 0.658864 0.209467 0.717124
O O6 0.733248 0.302134 0.787655
O O7 0.713218 0.000000 0.774675
O O8 0.368127 0.500000 0.273584
O O9 0.418522 0.272459 0.227849
O O10 0.365732 0.323239 0.000000
O O11 0.798974 0.835513 0.726904
O O12 0.815634 0.000000 0.000000
O O13 0.543393 0.805030 0.500000
O O14 0.500000 0.751530 0.764929
O O15 0.545067 0.000000 0.755640
O O16 0.940583 0.500000 0.735087
O O17 0.000000 0.693683 0.743901
O O18 0.952309 0.678306 0.000000
O O19 0.790644 0.500000 0.723115
O O20 0.791290 0.668345 0.000000
#
# Coordination Sequence:
#
# PCOD9386294 Si02
#       7
#     4   8   8   4   8   8   8
#     4   9  15  22  35  53  77 113 158 207 259 308
#     4  11  23  38  58  82 105 131 168 214 262 312
#     4  11  24  38  53  79 112 142 173 210 256 309
#     4   9  18  31  45  66  95 127 167 217 264 312
#     4   9  19  37  59  81 106 138 177 218 258 303
#     4   8  13  20  30  47  74 110 155 208 260 306
#     4  10  20  35  55  76 101 135 171 209 261 320
#
# _framework density 21.610673999999999
#
# number of rings (size 3 to 8) (size 9 to 14) (size 15 to 20)
#    0.000    2.333    0.833    3.250    0.000    9.333 
#    0.000    5.833    0.000    0.000    0.000    0.000 
#    0.000    0.000    0.000    0.000    0.000    6.667 
#
# Total GULP energy -267888.603455 kJ/mol
# GULP energy per Si atom -5581.012572 kJ/mol
# Density = 2.156149 g / cm^3
# Si number density = 21.610674 Si / 1000 Ang^3
#
#
#
# Elastic Constant Matrix: (Units=GPa)
#
#
# Indices 1 2 3 4 5 6 
#
# 1 105.1707 73.7415 -1.7772 0.0000 0.0000 0.0000
# 2 73.7415 177.8658 8.9075 0.0000 0.0000 0.0000
# 3 -1.7772 8.9075 31.8288 0.0000 0.0000 0.0000
# 4 0.0000 0.0000 0.0000 10.8346 0.0000 0.0000
# 5 0.0000 0.0000 0.0000 0.0000 44.9014 0.0000
# 6 0.0000 0.0000 0.0000 0.0000 0.0000 3.1508
#
#
#
# Elastic Compliance Matrix: (Units=1/GPa)
#
#
# Indices 1 2 3 4 5 6 
#
# 1 0.013579 -0.005748 0.002367 0.000000 0.000000 0.000000
# 2 -0.005748 0.008135 -0.002598 0.000000 0.000000 0.000000
# 3 0.002367 -0.002598 0.032277 0.000000 0.000000 0.000000
# 4 0.000000 0.000000 0.000000 0.092297 0.000000 0.000000
# 5 0.000000 0.000000 0.000000 0.000000 0.022271 0.000000
# 6 0.000000 0.000000 0.000000 0.000000 0.000000 0.317382
#
#
# Mechanical properties :
#
#
# Convention : Reuss Voigt Hill
#
# Bulk Modulus (GPa) = 23.79065 52.95657 38.37361
# Shear Modulus (GPa) = 9.76735 27.37692 18.57214
#
# Velocity S-wave (km/s) = 2.12826 3.56311 2.93473
# Velocity P-wave (km/s) = 4.13183 6.44094 5.41099
#
# Compressibility (1/GPa) = 0.04203332
#
# Stress axis : x y z
#
# Youngs Moduli (GPa) = 73.64468 122.91904 30.98161
#
# Poissons Ratio (x) = 0.70656 -0.07333
# Poissons Ratio (y) = 0.42332 0.08048
# Poissons Ratio (z) = -0.17430 0.31931
#
# Static dielectric constant tensor:
#      x y z
#    x 1.751650 0.000000 0.000000 
#    y 0.000000 1.808830 0.000000 
#    z 0.000000 0.000000 1.798540 
# 
# From -- ./inp_files/2576.got.cif
#   From: 2010.05.17/outbox.cif.g08.bks.cpg/sg47_2_cif.got.tgz:2576.got - 2010.06.03 20:15:42.
