data_PCOD9386275
_publ_section_title
;
Structure prediction by ZEFSAII (Michael W. Deem and Ramdas Pophale) SiO2 
 PCOD9386275
Probable space group: P M M M
;
_chemical_formula_sum "Si O2"
_cell_formula_units_Z 48
_cell_length_a 9.053791
_cell_length_b 13.814704
_cell_length_c 21.341461
_cell_angle_alpha 90.000000
_cell_angle_beta 90.000000
_cell_angle_gamma 90.000000
_cell_volume 2669.292683
_symmetry_space_group_name_H-M "P M M M"
_symmetry_group_IT_number 47
_symmetry_cell_setting 'orthorhombic'
loop_
_space_group_symop_operation_xyz
x,y,z
-x,-y,z
x,-y,-z
-x,y,-z
-x,-y,-z
x,y,-z
-x,y,z
x,-y,z
loop_
_atom_site_type_symbol
_atom_site_label
_atom_site_fract_x
_atom_site_fract_y
_atom_site_fract_z
Si Si1 0.328155 0.382913 0.628943
Si Si2 0.824338 0.290221 0.249796
Si Si3 0.326627 0.383251 0.870849
Si Si4 0.326778 0.114630 0.697252
Si Si5 0.830939 0.117630 0.570394
Si Si6 0.829370 0.381936 0.500000
Si Si7 0.829549 0.382345 0.000000
O O1 0.500000 0.353854 0.630335
O O2 0.323583 0.500000 0.630665
O O3 0.243608 0.343860 0.689535
O O4 0.251342 0.352000 0.563968
O O5 0.757444 0.336922 0.187474
O O6 0.769847 0.179910 0.256999
O O7 0.000000 0.297422 0.250373
O O8 0.500000 0.358857 0.869111
O O9 0.314421 0.500000 0.866375
O O10 0.254319 0.352717 0.936769
O O11 0.500000 0.133301 0.706065
O O12 0.277580 0.142870 0.626623
O O13 0.300416 0.000000 0.704584
O O14 0.791780 0.149688 0.500000
O O15 0.000000 0.148242 0.584475
O O16 0.832659 0.000000 0.568565
O O17 0.827262 0.500000 0.500000
O O18 0.000000 0.351661 0.500000
O O19 0.829378 0.500000 0.000000
O O20 0.000000 0.350732 0.000000
#
# Coordination Sequence:
#
# PCOD9386275 Si02
#       7
#     8   8   8   8   8   4   4
#     4  10  20  35  54  75 102 136 174 218 267 318
#     4  12  24  36  53  78 107 140 179 224 270 320
#     4  10  20  35  56  83 117 153 185 218 259 310
#     4  10  21  37  55  74  99 132 173 222 274 329
#     4   8  14  27  48  71  94 121 155 201 261 324
#     4   9  17  31  51  73  98 131 172 217 265 317
#     4   9  17  31  53  83 118 153 186 217 253 303
#
# _framework density 17.982292000000001
#
# number of rings (size 3 to 8) (size 9 to 14) (size 15 to 20)
#    0.000    2.167    0.000    4.500    0.000    7.333 
#    1.500    1.667    0.000    0.000    0.000    0.583 
#    0.000    4.667    0.000    0.000    0.000    0.000 
#
# Total GULP energy -268243.848646 kJ/mol
# GULP energy per Si atom -5588.413513 kJ/mol
# Density = 1.794136 g / cm^3
# Si number density = 17.982292 Si / 1000 Ang^3
#
#
#
# Elastic Constant Matrix: (Units=GPa)
#
#
# Indices 1 2 3 4 5 6 
#
# 1 185.4168 47.4993 109.0823 0.0000 0.0000 0.0000
# 2 47.4993 53.4369 41.8609 0.0000 0.0000 0.0000
# 3 109.0823 41.8609 165.7462 0.0000 0.0000 0.0000
# 4 0.0000 0.0000 0.0000 20.8143 0.0000 0.0000
# 5 0.0000 0.0000 0.0000 0.0000 36.1227 0.0000
# 6 0.0000 0.0000 0.0000 0.0000 0.0000 22.8240
#
#
#
# Elastic Compliance Matrix: (Units=1/GPa)
#
#
# Indices 1 2 3 4 5 6 
#
# 1 0.009584 -0.004460 -0.005181 0.000000 0.000000 0.000000
# 2 -0.004460 0.025405 -0.003481 0.000000 0.000000 0.000000
# 3 -0.005181 -0.003481 0.010322 0.000000 0.000000 0.000000
# 4 0.000000 0.000000 0.000000 0.048044 0.000000 0.000000
# 5 0.000000 0.000000 0.000000 0.000000 0.027683 0.000000
# 6 0.000000 0.000000 0.000000 0.000000 0.000000 0.043813
#
#
# Mechanical properties :
#
#
# Convention : Reuss Voigt Hill
#
# Bulk Modulus (GPa) = 52.44669 89.05388 70.75028
# Shear Modulus (GPa) = 25.32260 29.69603 27.50931
#
# Velocity S-wave (km/s) = 3.75667 4.06816 3.91551
# Velocity P-wave (km/s) = 6.93151 8.46742 7.73766
#
# Compressibility (1/GPa) = 0.01906698
#
# Stress axis : x y z
#
# Youngs Moduli (GPa) = 104.34204 39.36193 96.87914
#
# Poissons Ratio (x) = 0.17557 0.50192
# Poissons Ratio (y) = 0.46541 0.33722
# Poissons Ratio (z) = 0.54059 0.13701
#
# Static dielectric constant tensor:
#      x y z
#    x 1.598750 0.000000 0.000000 
#    y 0.000000 1.665810 0.000000 
#    z 0.000000 0.000000 1.580510 
# 
# From -- ./inp_files/21093.got.cif
#   From: 2010.05.17/outbox.cif.g08.bks.cpg/sg47_11_cif.got.tgz:21093.got - 2010.06.03 20:15:42.
