data_PCOD9386488
_publ_section_title
;
Structure prediction by ZEFSAII (Michael W. Deem and Ramdas Pophale) SiO2 
 PCOD9386488
Probable space group: P M M M
;
_chemical_formula_sum "Si O2"
_cell_formula_units_Z 64
_cell_length_a 14.940817
_cell_length_b 8.176907
_cell_length_c 26.123780
_cell_angle_alpha 90.000000
_cell_angle_beta 90.000000
_cell_angle_gamma 90.000000
_cell_volume 3191.533611
_symmetry_space_group_name_H-M "P M M M"
_symmetry_group_IT_number 47
_symmetry_cell_setting 'orthorhombic'
loop_
_space_group_symop_operation_xyz
x,y,z
-x,-y,z
x,-y,-z
-x,y,-z
-x,-y,-z
x,y,-z
-x,y,z
x,-y,z
loop_
_atom_site_type_symbol
_atom_site_label
_atom_site_fract_x
_atom_site_fract_y
_atom_site_fract_z
Si Si1 0.719823 0.695153 0.749484
Si Si2 0.099665 0.193219 0.208190
Si Si3 0.398125 0.695771 0.154751
Si Si4 0.899534 0.307559 0.907249
Si Si5 0.708634 0.799642 0.441352
Si Si6 0.095781 0.807199 0.562147
Si Si7 0.710408 0.193208 0.056412
Si Si8 0.399455 0.802203 0.655446
O O1 0.725301 0.500000 0.753234
O O2 0.819616 0.763660 0.754633
O O3 0.661116 0.758504 0.797753
O O4 0.669108 0.743066 0.698147
O O5 0.111962 0.283620 0.153887
O O6 0.000000 0.233448 0.227743
O O7 0.102429 0.000000 0.197151
O O8 0.500000 0.759861 0.155023
O O9 0.403116 0.500000 0.160576
O O10 0.346793 0.731136 0.102165
O O11 0.895933 0.500000 0.918980
O O12 0.815721 0.223367 0.933847
O O13 0.000000 0.246951 0.920200
O O14 0.693223 0.747683 0.500000
O O15 0.807130 0.741197 0.422809
O O16 0.634536 0.750567 0.400586
O O17 0.711810 0.000000 0.442193
O O18 0.096590 0.800518 0.500000
O O19 0.000000 0.735575 0.579277
O O20 0.094673 0.000000 0.575850
O O21 0.694223 0.000000 0.057328
O O22 0.686720 0.257797 0.000000
O O23 0.500000 0.743923 0.666159
O O24 0.399976 0.000000 0.656271
#
# Coordination Sequence:
#
# PCOD9386488 Si02
#       8
#     8   8   8   8   8   8   8   8
#     4  11  22  38  61  85 111 146 188 231 276 334
#     4  10  20  35  59  90 120 148 180 222 274 331
#     4  10  22  40  61  83 105 138 188 240 290 343
#     4  10  20  35  57  85 116 152 192 229 271 329
#     4   8  14  26  45  70 102 141 185 232 282 338
#     4   7   9  15  31  57  89 125 164 207 258 315
#     4  11  24  39  56  82 116 152 190 235 288 342
#     4  10  21  35  52  78 111 146 187 239 296 344
#
# _framework density 20.053055000000001
#
# number of rings (size 3 to 8) (size 9 to 14) (size 15 to 20)
#    0.000    2.375    1.250    3.000    0.000    4.750 
#    0.000    4.375    0.000    2.625    0.000    0.875 
#    0.000    0.000    0.000    4.250    0.000    4.125 
#
# Total GULP energy -357048.457563 kJ/mol
# GULP energy per Si atom -5578.882149 kJ/mol
# Density = 2.000741 g / cm^3
# Si number density = 20.053055 Si / 1000 Ang^3
#
#
#
# Elastic Constant Matrix: (Units=GPa)
#
#
# Indices 1 2 3 4 5 6 
#
# 1 111.4585 7.0260 48.6430 0.0000 0.0000 0.0000
# 2 7.0260 14.4958 1.1480 0.0000 0.0000 0.0000
# 3 48.6430 1.1480 87.6732 0.0000 0.0000 0.0000
# 4 0.0000 0.0000 0.0000 24.5642 0.0000 0.0000
# 5 0.0000 0.0000 0.0000 0.0000 4.2390 0.0000
# 6 0.0000 0.0000 0.0000 0.0000 0.0000 16.9840
#
#
#
# Elastic Compliance Matrix: (Units=1/GPa)
#
#
# Indices 1 2 3 4 5 6 
#
# 1 0.012247 -0.005404 -0.006724 0.000000 0.000000 0.000000
# 2 -0.005404 0.071441 0.002063 0.000000 0.000000 0.000000
# 3 -0.006724 0.002063 0.015110 0.000000 0.000000 0.000000
# 4 0.000000 0.000000 0.000000 0.040710 0.000000 0.000000
# 5 0.000000 0.000000 0.000000 0.000000 0.235904 0.000000
# 6 0.000000 0.000000 0.000000 0.000000 0.000000 0.058879
#
#
# Mechanical properties :
#
#
# Convention : Reuss Voigt Hill
#
# Bulk Modulus (GPa) = 12.71168 36.36238 24.53703
# Shear Modulus (GPa) = 10.40270 19.61147 15.00708
#
# Velocity S-wave (km/s) = 2.28010 3.13066 2.73860
# Velocity P-wave (km/s) = 3.64480 5.58932 4.71832
#
# Compressibility (1/GPa) = 0.07866778
#
# Stress axis : x y z
#
# Youngs Moduli (GPa) = 81.65142 13.99749 66.18246
#
# Poissons Ratio (x) = 0.07564 0.44503
# Poissons Ratio (y) = 0.44121 -0.13651
# Poissons Ratio (z) = 0.54904 -0.02887
#
# Static dielectric constant tensor:
#      x y z
#    x 1.734060 0.000000 0.000000 
#    y 0.000000 1.714260 0.000000 
#    z 0.000000 0.000000 1.690770 
# 
# From -- ./inp_files/32769.got.cif
#   From: 2010.05.17/outbox.cif.g08.bks.cpg/sg47_17_cif.got.tgz:32769.got - 2010.06.03 20:15:42.
