data_PCOD9386459
_publ_section_title
;
Structure prediction by ZEFSAII (Michael W. Deem and Ramdas Pophale) SiO2 
 PCOD9386459
Probable space group: P M M M
;
_chemical_formula_sum "Si O2"
_cell_formula_units_Z 40
_cell_length_a 8.307535
_cell_length_b 26.545475
_cell_length_c 9.391528
_cell_angle_alpha 90.000000
_cell_angle_beta 90.000000
_cell_angle_gamma 90.000000
_cell_volume 2071.089840
_symmetry_space_group_name_H-M "P M M M"
_symmetry_group_IT_number 47
_symmetry_cell_setting 'orthorhombic'
loop_
_space_group_symop_operation_xyz
x,y,z
-x,-y,z
x,-y,-z
-x,y,-z
-x,-y,-z
x,y,-z
-x,y,z
x,-y,z
loop_
_atom_site_type_symbol
_atom_site_label
_atom_site_fract_x
_atom_site_fract_y
_atom_site_fract_z
Si Si1 0.692257 0.708602 0.164796
Si Si2 0.305858 0.098718 0.163206
Si Si3 0.192096 0.804585 0.662880
Si Si4 0.805551 0.598299 0.834997
Si Si5 0.303087 0.000000 0.664493
Si Si6 0.803076 0.500000 0.663397
O O1 0.500000 0.712660 0.164987
O O2 0.761954 0.752123 0.263268
O O3 0.741499 0.652577 0.212501
O O4 0.748565 0.714618 0.000000
O O5 0.500000 0.096365 0.158335
O O6 0.258805 0.149472 0.244114
O O7 0.250130 0.049961 0.251741
O O8 0.247174 0.098241 0.000000
O O9 0.252631 0.806986 0.500000
O O10 0.000000 0.808715 0.659984
O O11 0.750620 0.550707 0.743318
O O12 0.000000 0.599946 0.829980
O O13 0.757605 0.591225 0.000000
O O14 0.500000 0.000000 0.664049
O O15 0.251038 0.000000 0.500000
O O16 0.752420 0.500000 0.500000
O O17 0.000000 0.500000 0.666808
#
# Coordination Sequence:
#
# PCOD9386459 Si02
#       6
#     8   8   8   8   4   4
#     4  10  21  37  57  81 107 137 176 221 269 321
#     4  10  20  35  57  84 112 143 181 223 265 313
#     4  11  24  39  55  78 108 142 180 222 269 320
#     4   9  17  31  52  76 103 137 175 214 259 312
#     4   9  17  31  54  83 114 147 180 216 262 315
#     4   9  17  29  48  75 104 134 172 217 260 305
#
# _framework density 19.313503999999998
#
# number of rings (size 3 to 8) (size 9 to 14) (size 15 to 20)
#    0.000    2.200    0.000    3.000    0.000    9.600 
#    0.000    3.000    0.000    6.000    0.000    0.000 
#    0.000    0.000    0.000    0.000    0.000    0.000 
#
# Total GULP energy -223400.607905 kJ/mol
# GULP energy per Si atom -5585.015198 kJ/mol
# Density = 1.926955 g / cm^3
# Si number density = 19.313504 Si / 1000 Ang^3
#
#
#
# Elastic Constant Matrix: (Units=GPa)
#
#
# Indices 1 2 3 4 5 6 
#
# 1 8.6698 11.2485 16.8197 0.0000 0.0000 0.0000
# 2 11.2485 184.2336 122.8063 0.0000 0.0000 0.0000
# 3 16.8197 122.8063 167.3688 0.0000 0.0000 0.0000
# 4 0.0000 0.0000 0.0000 -93.2535 0.0000 0.0000
# 5 0.0000 0.0000 0.0000 0.0000 17.6344 0.0000
# 6 0.0000 0.0000 0.0000 0.0000 0.0000 30.4617
#
#
#
# Elastic Compliance Matrix: (Units=1/GPa)
#
#
# Indices 1 2 3 4 5 6 
#
# 1 0.143537 0.001667 -0.015648 0.000000 0.000000 0.000000
# 2 0.001667 0.010644 -0.007977 0.000000 0.000000 0.000000
# 3 -0.015648 -0.007977 0.013401 0.000000 0.000000 0.000000
# 4 0.000000 0.000000 0.000000 -0.010723 0.000000 0.000000
# 5 0.000000 0.000000 0.000000 0.000000 0.056707 0.000000
# 6 0.000000 0.000000 0.000000 0.000000 0.000000 0.032828
#
#
# Mechanical properties :
#
#
# Convention : Reuss Voigt Hill
#
# Bulk Modulus (GPa) = 8.08638 73.55794 40.82216
# Shear Modulus (GPa) = 15.08154 4.92837 10.00496
#
# Velocity S-wave (km/s) = 2.79746 1.59916 2.27849
# Velocity P-wave (km/s) = 3.82496 6.44816 5.30137
#
# Compressibility (1/GPa) = 0.12366480
#
# Stress axis : x y z
#
# Youngs Moduli (GPa) = 6.96684 93.95373 74.62386
#
# Poissons Ratio (x) = -0.15658 1.16768
# Poissons Ratio (y) = -0.01161 0.59529
# Poissons Ratio (z) = 0.10901 0.74948
#
# Static dielectric constant tensor:
#      x y z
#    x 1.676340 0.000000 0.000000 
#    y 0.000000 1.634960 0.000000 
#    z 0.000000 0.000000 1.666220 
# 
# From -- ./inp_files/1832.got.cif
#   From: 2010.05.17/outbox.cif.g08.bks.cpg/sg47_1_cif.got.tgz:1832.got - 2010.06.03 20:15:42.
