data_PCOD9386672
_publ_section_title
;
Structure prediction by ZEFSAII (Michael W. Deem and Ramdas Pophale) SiO2 
 PCOD9386672
Probable space group: P M M M
;
_chemical_formula_sum "Si O2"
_cell_formula_units_Z 48
_cell_length_a 29.879490
_cell_length_b 10.114922
_cell_length_c 9.757221
_cell_angle_alpha 90.000000
_cell_angle_beta 90.000000
_cell_angle_gamma 90.000000
_cell_volume 2948.912323
_symmetry_space_group_name_H-M "P M M M"
_symmetry_group_IT_number 47
_symmetry_cell_setting 'orthorhombic'
loop_
_space_group_symop_operation_xyz
x,y,z
-x,-y,z
x,-y,-z
-x,y,-z
-x,-y,-z
x,y,-z
-x,y,z
x,-y,z
loop_
_atom_site_type_symbol
_atom_site_label
_atom_site_fract_x
_atom_site_fract_y
_atom_site_fract_z
Si Si1 0.448684 0.500000 0.834643
Si Si2 0.868273 0.339354 0.656492
Si Si3 0.402854 0.774222 0.162239
Si Si4 0.233904 0.343657 0.665131
Si Si5 0.049766 0.660929 0.159075
Si Si6 0.446533 0.000000 0.341962
Si Si7 0.701385 0.156701 0.161733
O O1 0.500000 0.500000 0.782168
O O2 0.420726 0.370139 0.798960
O O3 0.451784 0.500000 0.000000
O O4 0.874776 0.295198 0.500000
O O5 0.869804 0.500000 0.655447
O O6 0.817642 0.307396 0.700118
O O7 0.908490 0.291695 0.751876
O O8 0.428257 0.875742 0.258631
O O9 0.349913 0.796064 0.178940
O O10 0.412816 0.797493 0.000000
O O11 0.238630 0.330810 0.500000
O O12 0.240894 0.500000 0.697697
O O13 0.267046 0.248004 0.745945
O O14 0.050287 0.500000 0.163240
O O15 0.000000 0.701692 0.206916
O O16 0.054614 0.698437 0.000000
O O17 0.500000 0.000000 0.340792
O O18 0.431283 0.000000 0.500000
O O19 0.704290 0.000000 0.195176
O O20 0.712478 0.171432 0.000000
#
# Coordination Sequence:
#
# PCOD9386672 Si02
#       7
#     4   8   8   8   8   4   8
#     4   9  18  32  55  85 107 129 167 207 244 291
#     4   8  14  25  39  57  85 119 158 202 240 285
#     4  10  20  37  58  79 105 136 169 208 250 294
#     4   9  19  34  51  73 100 132 170 208 252 307
#     4   8  13  20  31  51  82 119 157 196 239 289
#     4  11  23  37  55  81 109 137 171 205 242 295
#     4  10  21  36  53  76 102 129 168 213 253 297
#
# _framework density 16.277187999999999
#
# number of rings (size 3 to 8) (size 9 to 14) (size 15 to 20)
#    0.000    2.833    0.833    2.250    1.167    3.667 
#    0.000    3.750    0.000    1.500    0.000    0.000 
#    0.000    0.667    0.000    7.333    0.000   12.000 
#
# Total GULP energy -267326.991271 kJ/mol
# GULP energy per Si atom -5569.312318 kJ/mol
# Density = 1.624014 g / cm^3
# Si number density = 16.277188 Si / 1000 Ang^3
#
#
#
# Elastic Constant Matrix: (Units=GPa)
#
#
# Indices 1 2 3 4 5 6 
#
# 1 133.0375 70.8346 79.0647 0.0000 0.0000 0.0000
# 2 70.8346 103.3573 55.4948 0.0000 0.0000 0.0000
# 3 79.0647 55.4948 71.8799 0.0000 0.0000 0.0000
# 4 0.0000 0.0000 0.0000 27.9555 0.0000 0.0000
# 5 0.0000 0.0000 0.0000 0.0000 31.6585 0.0000
# 6 0.0000 0.0000 0.0000 0.0000 0.0000 11.1141
#
#
#
# Elastic Compliance Matrix: (Units=1/GPa)
#
#
# Indices 1 2 3 4 5 6 
#
# 1 0.022480 -0.003638 -0.021918 0.000000 0.000000 0.000000
# 2 -0.003638 0.017114 -0.009212 0.000000 0.000000 0.000000
# 3 -0.021918 -0.009212 0.045133 0.000000 0.000000 0.000000
# 4 0.000000 0.000000 0.000000 0.035771 0.000000 0.000000
# 5 0.000000 0.000000 0.000000 0.000000 0.031587 0.000000
# 6 0.000000 0.000000 0.000000 0.000000 0.000000 0.089976
#
#
# Mechanical properties :
#
#
# Convention : Reuss Voigt Hill
#
# Bulk Modulus (GPa) = 65.82516 79.89589 72.86052
# Shear Modulus (GPa) = 15.78985 21.00431 18.39708
#
# Velocity S-wave (km/s) = 3.11796 3.59613 3.36555
# Velocity P-wave (km/s) = 7.31370 8.15071 7.74352
#
# Compressibility (1/GPa) = 0.01519176
#
# Stress axis : x y z
#
# Youngs Moduli (GPa) = 44.48493 58.43094 22.15693
#
# Poissons Ratio (x) = 0.21256 0.48563
# Poissons Ratio (y) = 0.16183 0.20410
# Poissons Ratio (z) = 0.97502 0.53824
#
# Static dielectric constant tensor:
#      x y z
#    x 1.548880 0.000000 0.000000 
#    y 0.000000 1.510720 0.000000 
#    z 0.000000 0.000000 1.540010 
# 
# From -- ./inp_files/13875.got.cif
#   From: 2010.05.17/outbox.cif.g08.bks.cpg/sg47_7_cif.got.tgz:13875.got - 2010.06.03 20:15:42.
