data_PCOD9386058
_publ_section_title
;
Structure prediction by ZEFSAII (Michael W. Deem and Ramdas Pophale) SiO2 
 PCOD9386058
Probable space group: P M M M
;
_chemical_formula_sum "Si O2"
_cell_formula_units_Z 52
_cell_length_a 13.428107
_cell_length_b 12.938835
_cell_length_c 18.124285
_cell_angle_alpha 90.000000
_cell_angle_beta 90.000000
_cell_angle_gamma 90.000000
_cell_volume 3148.986876
_symmetry_space_group_name_H-M "P M M M"
_symmetry_group_IT_number 47
_symmetry_cell_setting 'orthorhombic'
loop_
_space_group_symop_operation_xyz
x,y,z
-x,-y,z
x,-y,-z
-x,y,-z
-x,-y,-z
x,y,-z
-x,y,z
x,-y,z
loop_
_atom_site_type_symbol
_atom_site_label
_atom_site_fract_x
_atom_site_fract_y
_atom_site_fract_z
Si Si1 0.000000 0.624892 0.916979
Si Si2 0.804762 0.623633 0.177646
Si Si3 0.379809 0.882772 0.000000
Si Si4 0.120909 0.500000 0.417494
Si Si5 0.216500 0.122319 0.412939
Si Si6 0.883087 0.298410 0.672445
Si Si7 0.614558 0.120518 0.706362
Si Si8 0.617671 0.252102 0.856225
O O1 0.102250 0.651622 0.875194
O O2 0.000000 0.500000 0.920064
O O3 0.000000 0.665895 0.000000
O O4 0.810068 0.500000 0.192354
O O5 0.824049 0.688881 0.251778
O O6 0.697233 0.655314 0.146282
O O7 0.354868 0.820348 0.074227
O O8 0.500000 0.889748 0.000000
O O9 0.340349 0.000000 0.000000
O O10 0.159473 0.500000 0.500000
O O11 0.150016 0.396172 0.376219
O O12 0.000000 0.500000 0.419755
O O13 0.228646 0.145808 0.500000
O O14 0.135560 0.195469 0.374373
O O15 0.313818 0.143064 0.362550
O O16 0.193500 0.000000 0.407186
O O17 0.000000 0.309750 0.689199
O O18 0.500000 0.132814 0.682998
O O19 0.628435 0.188465 0.779725
O O20 0.630109 0.000000 0.726653
O O21 0.500000 0.281042 0.862947
#
# Coordination Sequence:
#
# PCOD9386058 Si02
#       8
#     4   8   4   4   8   8   8   8
#     4   9  20  36  56  80 104 135 178 222 262 308
#     4  11  21  35  56  80 109 143 180 224 269 315
#     4   9  18  34  57  84 111 138 175 224 269 312
#     4   9  18  30  50  76  99 127 166 221 278 317
#     4  10  21  35  51  75 107 141 178 220 274 337
#     4  11  20  34  54  76 104 136 178 227 270 320
#     4   9  17  31  52  75 100 132 173 221 265 309
#     4  10  20  34  54  82 112 141 174 213 269 331
#
# _framework density 16.513247
#
# number of rings (size 3 to 8) (size 9 to 14) (size 15 to 20)
#    0.000    2.077    3.077    0.923    1.077    3.692 
#    0.000    2.308    0.000    1.385    0.000    0.538 
#    0.000    4.923    0.000    0.000    0.000    0.000 
#
# Total GULP energy -289642.452114 kJ/mol
# GULP energy per Si atom -5570.047156 kJ/mol
# Density = 1.647566 g / cm^3
# Si number density = 16.513247 Si / 1000 Ang^3
#
#
#
# Elastic Constant Matrix: (Units=GPa)
#
#
# Indices 1 2 3 4 5 6 
#
# 1 75.7362 27.8501 34.7081 0.0000 0.0000 0.0000
# 2 27.8501 46.4666 35.3265 0.0000 0.0000 0.0000
# 3 34.7081 35.3265 108.4851 0.0000 0.0000 0.0000
# 4 0.0000 0.0000 0.0000 21.9039 0.0000 0.0000
# 5 0.0000 0.0000 0.0000 0.0000 17.5619 0.0000
# 6 0.0000 0.0000 0.0000 0.0000 0.0000 28.2567
#
#
#
# Elastic Compliance Matrix: (Units=1/GPa)
#
#
# Indices 1 2 3 4 5 6 
#
# 1 0.017606 -0.008333 -0.002919 0.000000 0.000000 0.000000
# 2 -0.008333 0.032545 -0.007932 0.000000 0.000000 0.000000
# 3 -0.002919 -0.007932 0.012735 0.000000 0.000000 0.000000
# 4 0.000000 0.000000 0.000000 0.045654 0.000000 0.000000
# 5 0.000000 0.000000 0.000000 0.000000 0.056942 0.000000
# 6 0.000000 0.000000 0.000000 0.000000 0.000000 0.035390
#
#
# Mechanical properties :
#
#
# Convention : Reuss Voigt Hill
#
# Bulk Modulus (GPa) = 40.78643 47.38416 44.08529
# Shear Modulus (GPa) = 20.20922 22.39805 21.30363
#
# Velocity S-wave (km/s) = 3.50211 3.68689 3.59568
# Velocity P-wave (km/s) = 6.41138 6.84698 6.63276
#
# Compressibility (1/GPa) = 0.02451796
#
# Stress axis : x y z
#
# Youngs Moduli (GPa) = 56.79982 30.72624 78.52521
#
# Poissons Ratio (x) = 0.25603 0.22923
# Poissons Ratio (y) = 0.47330 0.62286
# Poissons Ratio (z) = 0.16581 0.24372
#
# Static dielectric constant tensor:
#      x y z
#    x 1.554670 0.000000 0.000000 
#    y 0.000000 1.560960 0.000000 
#    z 0.000000 0.000000 1.557020 
# 
# From -- ./inp_files/28217.got.cif
#   From: 2010.05.17/outbox.cif.g08.bks.cpg/sg47_15_cif.got.tgz:28217.got - 2010.06.03 20:15:42.
