data_PCOD9386386
_publ_section_title
;
Structure prediction by ZEFSAII (Michael W. Deem and Ramdas Pophale) SiO2 
 PCOD9386386
Probable space group: P M M M
;
_chemical_formula_sum "Si O2"
_cell_formula_units_Z 44
_cell_length_a 27.419821
_cell_length_b 10.318833
_cell_length_c 8.759224
_cell_angle_alpha 90.000000
_cell_angle_beta 90.000000
_cell_angle_gamma 90.000000
_cell_volume 2478.339689
_symmetry_space_group_name_H-M "P M M M"
_symmetry_group_IT_number 47
_symmetry_cell_setting 'orthorhombic'
loop_
_space_group_symop_operation_xyz
x,y,z
-x,-y,z
x,-y,-z
-x,y,-z
-x,-y,-z
x,y,-z
-x,y,z
x,-y,z
loop_
_atom_site_type_symbol
_atom_site_label
_atom_site_fract_x
_atom_site_fract_y
_atom_site_fract_z
Si Si1 0.000000 0.843138 0.325361
Si Si2 0.710898 0.348393 0.817388
Si Si3 0.442930 0.000000 0.816695
Si Si4 0.444436 0.500000 0.314501
Si Si5 0.817675 0.650538 0.316866
Si Si6 0.896472 0.848026 0.182907
Si Si7 0.385890 0.244063 0.683594
O O1 0.049901 0.806982 0.241175
O O2 0.000000 0.796550 0.500000
O O3 0.000000 0.000000 0.327966
O O4 0.700282 0.500000 0.779760
O O5 0.764193 0.319998 0.750307
O O6 0.668716 0.260689 0.745988
O O7 0.711535 0.335357 0.000000
O O8 0.414851 0.876329 0.751193
O O9 0.500000 0.000000 0.770762
O O10 0.440864 0.000000 0.000000
O O11 0.500000 0.500000 0.259325
O O12 0.445755 0.500000 0.500000
O O13 0.415432 0.627499 0.268055
O O14 0.816217 0.658359 0.500000
O O15 0.829219 0.500000 0.275341
O O16 0.856535 0.752150 0.252587
O O17 0.888652 0.000000 0.227324
O O18 0.894967 0.842032 0.000000
O O19 0.384957 0.236853 0.500000
#
# Coordination Sequence:
#
# PCOD9386386 Si02
#       7
#     4   8   4   4   8   8   8
#     4   9  17  31  54  81 112 151 192 234 282 333
#     4  10  20  36  59  85 115 149 186 230 284 340
#     4  11  25  43  59  81 117 155 187 226 281 340
#     4   9  18  32  55  87 115 139 177 230 277 322
#     4  10  21  37  58  83 113 149 191 236 284 337
#     4  10  20  35  56  84 116 150 190 235 285 338
#     4  11  21  37  61  86 114 147 188 232 278 333
#
# _framework density 17.753823000000001
#
# number of rings (size 3 to 8) (size 9 to 14) (size 15 to 20)
#    0.000    1.909    0.909    3.273    0.000    5.455 
#    1.636    0.455    0.000    4.909    0.000    0.000 
#    0.000    0.000    0.000    0.000    0.000    0.000 
#
# Total GULP energy -245678.633746 kJ/mol
# GULP energy per Si atom -5583.605312 kJ/mol
# Density = 1.771341 g / cm^3
# Si number density = 17.753823 Si / 1000 Ang^3
#
#
#
# Elastic Constant Matrix: (Units=GPa)
#
#
# Indices 1 2 3 4 5 6 
#
# 1 187.0906 101.2962 65.4790 0.0000 0.0000 0.0000
# 2 101.2962 125.9732 51.2452 0.0000 0.0000 0.0000
# 3 65.4790 51.2452 73.4152 0.0000 0.0000 0.0000
# 4 0.0000 0.0000 0.0000 24.2018 0.0000 0.0000
# 5 0.0000 0.0000 0.0000 0.0000 33.5405 0.0000
# 6 0.0000 0.0000 0.0000 0.0000 0.0000 38.5031
#
#
#
# Elastic Compliance Matrix: (Units=1/GPa)
#
#
# Indices 1 2 3 4 5 6 
#
# 1 0.010590 -0.006526 -0.004890 0.000000 0.000000 0.000000
# 2 -0.006526 0.015108 -0.004725 0.000000 0.000000 0.000000
# 3 -0.004890 -0.004725 0.021280 0.000000 0.000000 0.000000
# 4 0.000000 0.000000 0.000000 0.041319 0.000000 0.000000
# 5 0.000000 0.000000 0.000000 0.000000 0.029815 0.000000
# 6 0.000000 0.000000 0.000000 0.000000 0.000000 0.025972
#
#
# Mechanical properties :
#
#
# Convention : Reuss Voigt Hill
#
# Bulk Modulus (GPa) = 68.04307 91.39108 79.71708
# Shear Modulus (GPa) = 27.58398 30.47966 29.03182
#
# Velocity S-wave (km/s) = 3.94597 4.14792 4.04820
# Velocity P-wave (km/s) = 7.69220 8.63301 8.17615
#
# Compressibility (1/GPa) = 0.01469657
#
# Stress axis : x y z
#
# Youngs Moduli (GPa) = 94.43035 66.18944 46.99187
#
# Poissons Ratio (x) = 0.43197 0.22977
# Poissons Ratio (y) = 0.61628 0.22203
# Poissons Ratio (z) = 0.46172 0.31274
#
# Static dielectric constant tensor:
#      x y z
#    x 1.581590 0.000000 0.000000 
#    y 0.000000 1.599480 0.000000 
#    z 0.000000 0.000000 1.592030 
# 
# From -- ./inp_files/13707.got.cif
#   From: 2010.05.17/outbox.cif.g08.bks.cpg/sg47_7_cif.got.tgz:13707.got - 2010.06.03 20:15:42.
