data_PCOD9386096
_publ_section_title
;
Structure prediction by ZEFSAII (Michael W. Deem and Ramdas Pophale) SiO2 
 PCOD9386096
Probable space group: P M M M
;
_chemical_formula_sum "Si O2"
_cell_formula_units_Z 52
_cell_length_a 21.146158
_cell_length_b 15.128461
_cell_length_c 8.098559
_cell_angle_alpha 90.000000
_cell_angle_beta 90.000000
_cell_angle_gamma 90.000000
_cell_volume 2590.800507
_symmetry_space_group_name_H-M "P M M M"
_symmetry_group_IT_number 47
_symmetry_cell_setting 'orthorhombic'
loop_
_space_group_symop_operation_xyz
x,y,z
-x,-y,z
x,-y,-z
-x,y,-z
-x,-y,-z
x,y,-z
-x,y,z
x,-y,z
loop_
_atom_site_type_symbol
_atom_site_label
_atom_site_fract_x
_atom_site_fract_y
_atom_site_fract_z
Si Si1 0.571339 0.304189 0.804279
Si Si2 0.931246 0.791574 0.800146
Si Si3 0.305178 0.774994 0.301492
Si Si4 0.576902 0.500000 0.312978
Si Si5 0.904937 0.404345 0.196194
Si Si6 0.806913 0.100443 0.300766
Si Si7 0.759750 0.595551 0.700012
O O1 0.500000 0.292653 0.735821
O O2 0.621564 0.231675 0.745115
O O3 0.593134 0.404469 0.761340
O O4 0.568046 0.298976 0.000000
O O5 0.928877 0.689645 0.739553
O O6 0.869622 0.844241 0.742886
O O7 0.000000 0.829570 0.751446
O O8 0.928937 0.789742 0.000000
O O9 0.302324 0.776090 0.500000
O O10 0.257194 0.850690 0.241604
O O11 0.276419 0.681725 0.242000
O O12 0.500000 0.500000 0.311258
O O13 0.600782 0.500000 0.500000
O O14 0.926879 0.500000 0.263343
O O15 0.829868 0.402057 0.226452
O O16 0.918145 0.405225 0.000000
O O17 0.803750 0.097925 0.500000
O O18 0.811252 0.000000 0.239132
O O19 0.764661 0.599452 0.500000
O O20 0.730963 0.500000 0.743312
#
# Coordination Sequence:
#
# PCOD9386096 Si02
#       7
#     8   8   8   4   8   8   8
#     4  10  21  35  51  77 114 151 187 227 269 318
#     4  10  21  36  55  81 112 145 182 224 271 327
#     4  10  20  34  55  80 105 139 181 224 275 333
#     4   9  17  31  51  75 109 155 198 229 262 309
#     4   9  17  30  49  74 106 144 182 218 258 310
#     4  10  22  41  62  83 107 136 177 231 287 340
#     4   9  17  29  47  73 104 136 173 220 268 313
#
# _framework density 20.071017000000001
#
# number of rings (size 3 to 8) (size 9 to 14) (size 15 to 20)
#    0.000    2.385    1.538    0.692    1.077    4.308 
#    0.000    3.077    0.000    0.462    0.000    6.462 
#    0.000    0.000    0.000    0.000    0.000    0.000 
#
# Total GULP energy -289978.588698 kJ/mol
# GULP energy per Si atom -5576.511321 kJ/mol
# Density = 2.002533 g / cm^3
# Si number density = 20.071017 Si / 1000 Ang^3
#
#
#
# Elastic Constant Matrix: (Units=GPa)
#
#
# Indices 1 2 3 4 5 6 
#
# 1 145.2086 78.0650 7.3765 0.0000 0.0000 0.0000
# 2 78.0650 136.0765 16.7762 0.0000 0.0000 0.0000
# 3 7.3765 16.7762 10.4241 0.0000 0.0000 0.0000
# 4 0.0000 0.0000 0.0000 15.4317 0.0000 0.0000
# 5 0.0000 0.0000 0.0000 0.0000 15.6077 0.0000
# 6 0.0000 0.0000 0.0000 0.0000 0.0000 0.3686
#
#
#
# Elastic Compliance Matrix: (Units=1/GPa)
#
#
# Indices 1 2 3 4 5 6 
#
# 1 0.010018 -0.006079 0.002695 0.000000 0.000000 0.000000
# 2 -0.006079 0.012857 -0.016390 0.000000 0.000000 0.000000
# 3 0.002695 -0.016390 0.120402 0.000000 0.000000 0.000000
# 4 0.000000 0.000000 0.000000 0.064801 0.000000 0.000000
# 5 0.000000 0.000000 0.000000 0.000000 0.064071 0.000000
# 6 0.000000 0.000000 0.000000 0.000000 0.000000 2.712929
#
#
# Mechanical properties :
#
#
# Convention : Reuss Voigt Hill
#
# Bulk Modulus (GPa) = 9.64055 55.12716 32.38385
# Shear Modulus (GPa) = 1.63441 18.91438 10.27439
#
# Velocity S-wave (km/s) = 0.90337 3.07314 2.26498
# Velocity P-wave (km/s) = 2.42935 6.33387 4.79686
#
# Compressibility (1/GPa) = 0.10372854
#
# Stress axis : x y z
#
# Youngs Moduli (GPa) = 99.81928 77.77781 8.30551
#
# Poissons Ratio (x) = 0.47285 -0.02238
# Poissons Ratio (y) = 0.60685 0.13613
# Poissons Ratio (z) = -0.26901 1.27477
#
# Static dielectric constant tensor:
#      x y z
#    x 1.760160 0.000000 0.000000 
#    y 0.000000 1.730500 0.000000 
#    z 0.000000 0.000000 1.721310 
# 
# From -- ./inp_files/11025.got.cif
#   From: 2010.05.17/outbox.cif.g08.bks.cpg/sg47_6_cif.got.tgz:11025.got - 2010.06.03 20:15:42.
