data_PCOD9386525
_publ_section_title
;
Structure prediction by ZEFSAII (Michael W. Deem and Ramdas Pophale) SiO2 
 PCOD9386525
Probable space group: P M M M
;
_chemical_formula_sum "Si O2"
_cell_formula_units_Z 64
_cell_length_a 15.000070
_cell_length_b 25.606333
_cell_length_c 8.504949
_cell_angle_alpha 90.000000
_cell_angle_beta 90.000000
_cell_angle_gamma 90.000000
_cell_volume 3266.723588
_symmetry_space_group_name_H-M "P M M M"
_symmetry_group_IT_number 47
_symmetry_cell_setting 'orthorhombic'
loop_
_space_group_symop_operation_xyz
x,y,z
-x,-y,z
x,-y,-z
-x,y,-z
-x,-y,-z
x,y,-z
-x,y,z
x,-y,z
loop_
_atom_site_type_symbol
_atom_site_label
_atom_site_fract_x
_atom_site_fract_y
_atom_site_fract_z
Si Si1 0.231933 0.749754 0.186969
Si Si2 0.105257 0.438894 0.183322
Si Si3 0.897755 0.157368 0.189584
Si Si4 0.208682 0.057020 0.312890
Si Si5 0.396893 0.559193 0.691592
Si Si6 0.401148 0.805543 0.317223
Si Si7 0.243903 0.363380 0.682987
Si Si8 0.599310 0.919807 0.815051
O O1 0.154831 0.790193 0.239983
O O2 0.323050 0.767556 0.268806
O O3 0.218943 0.689568 0.228609
O O4 0.240870 0.755792 0.000000
O O5 0.122910 0.500000 0.210559
O O6 0.163342 0.403542 0.295439
O O7 0.000000 0.430216 0.203499
O O8 0.127001 0.427484 0.000000
O O9 0.842481 0.106286 0.240449
O O10 0.000000 0.155902 0.246871
O O11 0.900022 0.157860 0.000000
O O12 0.199510 0.060273 0.500000
O O13 0.313438 0.059136 0.270109
O O14 0.174168 0.000000 0.259614
O O15 0.393556 0.559119 0.500000
O O16 0.500000 0.567770 0.736715
O O17 0.371054 0.500000 0.741770
O O18 0.330377 0.604725 0.744785
O O19 0.391118 0.821385 0.500000
O O20 0.500000 0.782328 0.298948
O O21 0.396451 0.857514 0.212666
O O22 0.258801 0.350780 0.500000
O O23 0.500000 0.936348 0.759828
O O24 0.605576 0.931642 0.000000
#
# Coordination Sequence:
#
# PCOD9386525 Si02
#       8
#     8   8   8   8   8   8   8   8
#     4  11  23  39  59  84 116 156 198 241 291 349
#     4   9  19  37  59  81 109 148 190 234 291 355
#     4  10  23  44  67  87 109 146 197 249 301 358
#     4  11  24  40  61  91 125 157 191 238 295 353
#     4   8  15  30  52  78 111 152 195 237 284 339
#     4  10  20  35  58  86 116 151 190 235 286 339
#     4  11  22  34  54  86 119 150 190 242 296 348
#     4  10  20  35  58  88 121 158 197 235 279 335
#
# _framework density 19.591494999999998
#
# number of rings (size 3 to 8) (size 9 to 14) (size 15 to 20)
#    0.000    2.000    1.250    3.000    0.000    5.750 
#    0.000    5.625    0.000    1.125    0.000    4.375 
#    0.000    0.000    0.000    0.000    0.000    0.000 
#
# Total GULP energy -357254.845154 kJ/mol
# GULP energy per Si atom -5582.106956 kJ/mol
# Density = 1.954690 g / cm^3
# Si number density = 19.591495 Si / 1000 Ang^3
#
#
#
# Elastic Constant Matrix: (Units=GPa)
#
#
# Indices 1 2 3 4 5 6 
#
# 1 103.9063 61.5222 19.5308 0.0000 0.0000 0.0000
# 2 61.5222 95.3663 16.8019 0.0000 0.0000 0.0000
# 3 19.5308 16.8019 19.8270 0.0000 0.0000 0.0000
# 4 0.0000 0.0000 0.0000 20.9296 0.0000 0.0000
# 5 0.0000 0.0000 0.0000 0.0000 21.4303 0.0000
# 6 0.0000 0.0000 0.0000 0.0000 0.0000 83.9816
#
#
#
# Elastic Compliance Matrix: (Units=1/GPa)
#
#
# Indices 1 2 3 4 5 6 
#
# 1 0.016740 -0.009279 -0.008626 0.000000 0.000000 0.000000
# 2 -0.009279 0.017470 -0.005664 0.000000 0.000000 0.000000
# 3 -0.008626 -0.005664 0.063733 0.000000 0.000000 0.000000
# 4 0.000000 0.000000 0.000000 0.047779 0.000000 0.000000
# 5 0.000000 0.000000 0.000000 0.000000 0.046663 0.000000
# 6 0.000000 0.000000 0.000000 0.000000 0.000000 0.011907
#
#
# Mechanical properties :
#
#
# Convention : Reuss Voigt Hill
#
# Bulk Modulus (GPa) = 19.68331 46.08996 32.88663
# Shear Modulus (GPa) = 18.63128 33.35126 25.99127
#
# Velocity S-wave (km/s) = 3.08715 4.13041 3.64629
# Velocity P-wave (km/s) = 4.77243 6.80615 5.87791
#
# Compressibility (1/GPa) = 0.05080447
#
# Stress axis : x y z
#
# Youngs Moduli (GPa) = 59.73845 57.24128 15.69036
#
# Poissons Ratio (x) = 0.53115 0.13535
# Poissons Ratio (y) = 0.55433 0.08887
# Poissons Ratio (z) = 0.51531 0.32421
#
# Static dielectric constant tensor:
#      x y z
#    x 1.684850 0.000000 0.000000 
#    y 0.000000 1.684840 0.000000 
#    z 0.000000 0.000000 1.683840 
# 
# From -- ./inp_files/7811.got.cif
#   From: 2010.05.17/outbox.cif.g08.bks.cpg/sg47_4_cif.got.tgz:7811.got - 2010.06.03 20:15:42.
