data_PCOD9386209
_publ_section_title
;
Structure prediction by ZEFSAII (Michael W. Deem and Ramdas Pophale) SiO2 
 PCOD9386209
Probable space group: P M M M
;
_chemical_formula_sum "Si O2"
_cell_formula_units_Z 52
_cell_length_a 21.029505
_cell_length_b 8.859637
_cell_length_c 15.020932
_cell_angle_alpha 90.000000
_cell_angle_beta 90.000000
_cell_angle_gamma 90.000000
_cell_volume 2798.606629
_symmetry_space_group_name_H-M "P M M M"
_symmetry_group_IT_number 47
_symmetry_cell_setting 'orthorhombic'
loop_
_space_group_symop_operation_xyz
x,y,z
-x,-y,z
x,-y,-z
-x,y,-z
-x,-y,-z
x,y,-z
-x,y,z
x,-y,z
loop_
_atom_site_type_symbol
_atom_site_label
_atom_site_fract_x
_atom_site_fract_y
_atom_site_fract_z
Si Si1 0.308004 0.681398 0.394630
Si Si2 0.198515 0.175199 0.274323
Si Si3 0.278697 0.830063 0.903307
Si Si4 0.429361 0.819652 0.709294
Si Si5 0.927173 0.679930 0.313933
Si Si6 0.591144 0.323053 0.900026
Si Si7 0.076373 0.830292 0.500000
O O1 0.309202 0.720900 0.500000
O O2 0.307899 0.500000 0.387071
O O3 0.244791 0.745578 0.346302
O O4 0.370585 0.745089 0.343666
O O5 0.234384 0.183477 0.180649
O O6 0.129924 0.249606 0.259018
O O7 0.190505 0.000000 0.299693
O O8 0.333425 0.706547 0.899290
O O9 0.308187 0.000000 0.898890
O O10 0.246590 0.819442 0.000000
O O11 0.500000 0.784379 0.671523
O O12 0.430447 0.763993 0.811917
O O13 0.420582 0.000000 0.707628
O O14 0.926267 0.500000 0.310202
O O15 0.908776 0.736957 0.412483
O O16 0.000000 0.729856 0.294799
O O17 0.576430 0.500000 0.891309
O O18 0.570420 0.273753 0.000000
O O19 0.000000 0.843925 0.500000
O O20 0.103081 0.000000 0.500000
#
# Coordination Sequence:
#
# PCOD9386209 Si02
#       7
#     8   8   8   8   8   8   4
#     4  11  25  43  62  85 115 151 193 241 291 344
#     4  11  22  36  60  89 117 151 190 236 287 341
#     4   9  18  34  57  85 116 148 184 229 285 346
#     4  11  24  41  61  85 115 153 195 240 291 344
#     4  10  21  36  54  78 113 155 194 236 288 343
#     4  10  20  34  56  86 118 151 187 232 287 345
#     4   9  17  31  51  75 105 141 184 231 278 335
#
# _framework density 18.580673999999998
#
# number of rings (size 3 to 8) (size 9 to 14) (size 15 to 20)
#    0.000    1.769    1.538    2.538    1.077    6.462 
#    0.000    3.077    0.000    0.462    0.000    3.231 
#    0.000    0.000    0.000    0.000    0.000    0.000 
#
# Total GULP energy -289996.244940 kJ/mol
# GULP energy per Si atom -5576.850864 kJ/mol
# Density = 1.853838 g / cm^3
# Si number density = 18.580674 Si / 1000 Ang^3
#
#
#
# Elastic Constant Matrix: (Units=GPa)
#
#
# Indices 1 2 3 4 5 6 
#
# 1 121.7740 52.1300 43.7125 0.0000 0.0000 0.0000
# 2 52.1300 79.7855 35.6116 0.0000 0.0000 0.0000
# 3 43.7125 35.6116 90.5273 0.0000 0.0000 0.0000
# 4 0.0000 0.0000 0.0000 25.7263 0.0000 0.0000
# 5 0.0000 0.0000 0.0000 0.0000 0.0823 0.0000
# 6 0.0000 0.0000 0.0000 0.0000 0.0000 59.1985
#
#
#
# Elastic Compliance Matrix: (Units=1/GPa)
#
#
# Indices 1 2 3 4 5 6 
#
# 1 0.012178 -0.006468 -0.003336 0.000000 0.000000 0.000000
# 2 -0.006468 0.018638 -0.004209 0.000000 0.000000 0.000000
# 3 -0.003336 -0.004209 0.014313 0.000000 0.000000 0.000000
# 4 0.000000 0.000000 0.000000 0.038871 0.000000 0.000000
# 5 0.000000 0.000000 0.000000 0.000000 12.151560 0.000000
# 6 0.000000 0.000000 0.000000 0.000000 0.000000 0.016892
#
#
# Mechanical properties :
#
#
# Convention : Reuss Voigt Hill
#
# Bulk Modulus (GPa) = 58.46665 61.66612 60.06638
# Shear Modulus (GPa) = 0.40696 27.71027 14.05861
#
# Velocity S-wave (km/s) = 0.46851 3.86599 2.75367
# Velocity P-wave (km/s) = 5.64157 7.29302 6.51980
#
# Compressibility (1/GPa) = 0.01710377
#
# Stress axis : x y z
#
# Youngs Moduli (GPa) = 82.11286 53.65327 69.86701
#
# Poissons Ratio (x) = 0.34703 0.23308
# Poissons Ratio (y) = 0.53111 0.29405
# Poissons Ratio (z) = 0.27394 0.22581
#
# Static dielectric constant tensor:
#      x y z
#    x 1.662620 0.000000 0.000000 
#    y 0.000000 1.638370 0.000000 
#    z 0.000000 0.000000 1.674500 
# 
# From -- ./inp_files/25041.got.cif
#   From: 2010.05.17/outbox.cif.g08.bks.cpg/sg47_13_cif.got.tgz:25041.got - 2010.06.03 20:15:42.
