data_PCOD9386550
_publ_section_title
;
Structure prediction by ZEFSAII (Michael W. Deem and Ramdas Pophale) SiO2 
 PCOD9386550
Probable space group: P M M M
;
_chemical_formula_sum "Si O2"
_cell_formula_units_Z 48
_cell_length_a 19.259274
_cell_length_b 14.138728
_cell_length_c 9.993815
_cell_angle_alpha 90.000000
_cell_angle_beta 90.000000
_cell_angle_gamma 90.000000
_cell_volume 2721.332180
_symmetry_space_group_name_H-M "P M M M"
_symmetry_group_IT_number 47
_symmetry_cell_setting 'orthorhombic'
loop_
_space_group_symop_operation_xyz
x,y,z
-x,-y,z
x,-y,-z
-x,y,-z
-x,-y,-z
x,y,-z
-x,y,z
x,-y,z
loop_
_atom_site_type_symbol
_atom_site_label
_atom_site_fract_x
_atom_site_fract_y
_atom_site_fract_z
Si Si1 0.083522 0.113841 0.500000
Si Si2 0.351040 0.606586 0.654143
Si Si3 0.216642 0.390523 0.158926
Si Si4 0.301320 0.887173 0.157406
Si Si5 0.082473 0.892552 0.000000
Si Si6 0.156869 0.203194 0.244528
Si Si7 0.580580 0.804372 0.656010
O O1 0.120635 0.163346 0.375382
O O2 0.000000 0.127790 0.500000
O O3 0.095244 0.000000 0.500000
O O4 0.324021 0.613523 0.500000
O O5 0.379731 0.500000 0.669260
O O6 0.289317 0.618060 0.761100
O O7 0.404627 0.692008 0.670250
O O8 0.194625 0.500000 0.170489
O O9 0.165156 0.315490 0.226384
O O10 0.224432 0.368931 0.000000
O O11 0.234310 0.837985 0.223022
O O12 0.368430 0.856334 0.241749
O O13 0.292949 0.000000 0.163720
O O14 0.305939 0.860282 0.000000
O O15 0.110852 0.838302 0.126401
O O16 0.000000 0.895916 0.000000
O O17 0.109853 0.000000 0.000000
O O18 0.596179 0.828771 0.500000
O O19 0.500000 0.825225 0.680985
#
# Coordination Sequence:
#
# PCOD9386550 Si02
#       7
#     4   8   8   8   4   8   8
#     4  11  26  44  63  93 130 162 194 239 301 363
#     4   9  18  33  55  83 114 150 193 241 296 353
#     4  10  20  35  58  90 122 154 197 249 299 348
#     4  11  23  38  58  85 114 149 198 248 294 350
#     4  11  22  38  63  91 120 156 198 241 293 355
#     4  12  22  39  63  91 123 159 198 246 298 352
#     4  10  22  38  56  81 116 155 195 244 298 351
#
# _framework density 17.63842
#
# number of rings (size 3 to 8) (size 9 to 14) (size 15 to 20)
#    0.000    1.500    3.333    2.000    2.333    2.667 
#    0.000    3.333    0.000    3.000    0.000    3.500 
#    0.000    0.000    0.000    0.000    0.000    0.000 
#
# Total GULP energy -267872.605477 kJ/mol
# GULP energy per Si atom -5580.679281 kJ/mol
# Density = 1.759827 g / cm^3
# Si number density = 17.638420 Si / 1000 Ang^3
#
#
#
# Elastic Constant Matrix: (Units=GPa)
#
#
# Indices 1 2 3 4 5 6 
#
# 1 91.4986 45.7303 63.8427 0.0000 0.0000 0.0000
# 2 45.7303 93.1678 49.1839 0.0000 0.0000 0.0000
# 3 63.8427 49.1839 135.6949 0.0000 0.0000 0.0000
# 4 0.0000 0.0000 0.0000 33.8866 0.0000 0.0000
# 5 0.0000 0.0000 0.0000 0.0000 32.7273 0.0000
# 6 0.0000 0.0000 0.0000 0.0000 0.0000 29.3892
#
#
#
# Elastic Compliance Matrix: (Units=1/GPa)
#
#
# Indices 1 2 3 4 5 6 
#
# 1 0.018285 -0.005483 -0.006616 0.000000 0.000000 0.000000
# 2 -0.005483 0.014917 -0.002827 0.000000 0.000000 0.000000
# 3 -0.006616 -0.002827 0.011507 0.000000 0.000000 0.000000
# 4 0.000000 0.000000 0.000000 0.029510 0.000000 0.000000
# 5 0.000000 0.000000 0.000000 0.000000 0.030556 0.000000
# 6 0.000000 0.000000 0.000000 0.000000 0.000000 0.034026
#
#
# Mechanical properties :
#
#
# Convention : Reuss Voigt Hill
#
# Bulk Modulus (GPa) = 67.30469 70.87500 69.08984
# Shear Modulus (GPa) = 28.80096 29.97425 29.38760
#
# Velocity S-wave (km/s) = 4.04524 4.12682 4.08623
# Velocity P-wave (km/s) = 7.74981 7.93580 7.84335
#
# Compressibility (1/GPa) = 0.01485781
#
# Stress axis : x y z
#
# Youngs Moduli (GPa) = 54.68815 67.03781 86.90428
#
# Poissons Ratio (x) = 0.36755 0.57495
# Poissons Ratio (y) = 0.29984 0.24570
# Poissons Ratio (z) = 0.36181 0.18953
#
# Static dielectric constant tensor:
#      x y z
#    x 1.570230 0.000000 0.000000 
#    y 0.000000 1.622820 0.000000 
#    z 0.000000 0.000000 1.583940 
# 
# From -- ./inp_files/9173.got.cif
#   From: 2010.05.17/outbox.cif.g08.bks.cpg/sg47_5_cif.got.tgz:9173.got - 2010.06.03 20:15:42.
