data_PCOD9386474
_publ_section_title
;
Structure prediction by ZEFSAII (Michael W. Deem and Ramdas Pophale) SiO2 
 PCOD9386474
Probable space group: P M M M
;
_chemical_formula_sum "Si O2"
_cell_formula_units_Z 40
_cell_length_a 7.731937
_cell_length_b 14.378884
_cell_length_c 16.477688
_cell_angle_alpha 90.000000
_cell_angle_beta 90.000000
_cell_angle_gamma 90.000000
_cell_volume 1831.933743
_symmetry_space_group_name_H-M "P M M M"
_symmetry_group_IT_number 47
_symmetry_cell_setting 'orthorhombic'
loop_
_space_group_symop_operation_xyz
x,y,z
-x,-y,z
x,-y,-z
-x,y,-z
-x,-y,-z
x,y,-z
-x,y,z
x,-y,z
loop_
_atom_site_type_symbol
_atom_site_label
_atom_site_fract_x
_atom_site_fract_y
_atom_site_fract_z
Si Si1 0.207205 0.393821 0.324866
Si Si2 0.704814 0.395841 0.000000
Si Si3 0.792342 0.289660 0.835744
Si Si4 0.203315 0.113368 0.413387
Si Si5 0.787828 0.894561 0.235023
Si Si6 0.294839 0.607208 0.500000
O O1 0.274850 0.500000 0.326055
O O2 0.273579 0.342558 0.244786
O O3 0.241824 0.350276 0.413563
O O4 0.000000 0.397858 0.317723
O O5 0.751774 0.341266 0.918550
O O6 0.781442 0.500000 0.000000
O O7 0.500000 0.404233 0.000000
O O8 0.733846 0.182789 0.829205
O O9 0.000000 0.288200 0.829223
O O10 0.280645 0.143762 0.500000
O O11 0.271921 0.138475 0.324784
O O12 0.000000 0.139319 0.414338
O O13 0.208842 0.000000 0.413067
O O14 0.000000 0.897165 0.238154
O O15 0.730472 0.000000 0.220020
O O16 0.222992 0.500000 0.500000
O O17 0.500000 0.602172 0.500000
#
# Coordination Sequence:
#
# PCOD9386474 Si02
#       6
#     8   4   8   8   8   4
#     4   9  17  30  48  72 105 140 172 213 268 323
#     4  11  25  43  62  83 106 134 171 221 280 339
#     4  10  20  35  57  85 111 140 177 221 274 328
#     4   7   9  15  30  55  92 137 176 208 246 290
#     4   8  14  26  45  73 110 146 179 217 261 310
#     4   9  17  29  47  71 100 139 182 218 257 313
#
# _framework density 21.834849999999999
#
# number of rings (size 3 to 8) (size 9 to 14) (size 15 to 20)
#    0.000    3.200    0.000    3.000    0.000    3.600 
#    1.800    2.500    0.000    3.600    0.000    0.000 
#    0.000    0.800    0.000    0.000    0.000    0.000 
#
# Total GULP energy -223082.230559 kJ/mol
# GULP energy per Si atom -5577.055764 kJ/mol
# Density = 2.178515 g / cm^3
# Si number density = 21.834850 Si / 1000 Ang^3
#
#
#
# Elastic Constant Matrix: (Units=GPa)
#
#
# Indices 1 2 3 4 5 6 
#
# 1 31.9386 8.0039 3.7070 0.0000 0.0000 0.0000
# 2 8.0039 130.9359 108.3870 0.0000 0.0000 0.0000
# 3 3.7070 108.3870 190.4891 0.0000 0.0000 0.0000
# 4 0.0000 0.0000 0.0000 41.0779 0.0000 0.0000
# 5 0.0000 0.0000 0.0000 0.0000 235.4748 0.0000
# 6 0.0000 0.0000 0.0000 0.0000 0.0000 -20.0432
#
#
#
# Elastic Compliance Matrix: (Units=1/GPa)
#
#
# Indices 1 2 3 4 5 6 
#
# 1 0.031883 -0.002713 0.000923 0.000000 0.000000 0.000000
# 2 -0.002713 0.014668 -0.008293 0.000000 0.000000 0.000000
# 3 0.000923 -0.008293 0.009951 0.000000 0.000000 0.000000
# 4 0.000000 0.000000 0.000000 0.024344 0.000000 0.000000
# 5 0.000000 0.000000 0.000000 0.000000 0.004247 0.000000
# 6 0.000000 0.000000 0.000000 0.000000 0.000000 -0.049892
#
#
# Mechanical properties :
#
#
# Convention : Reuss Voigt Hill
#
# Bulk Modulus (GPa) = 27.52159 65.95108 46.73633
# Shear Modulus (GPa) = 74.09749 66.85294 70.47521
#
# Velocity S-wave (km/s) = 5.83173 5.53931 5.68740
# Velocity P-wave (km/s) = 7.61428 8.43695 8.03615
#
# Compressibility (1/GPa) = 0.03633511
#
# Stress axis : x y z
#
# Youngs Moduli (GPa) = 31.36483 68.17401 100.49691
#
# Poissons Ratio (x) = 0.18498 -0.09280
# Poissons Ratio (y) = 0.08510 0.83346
# Poissons Ratio (z) = -0.02896 0.56539
#
# Static dielectric constant tensor:
#      x y z
#    x 1.798140 0.000000 0.000000 
#    y 0.000000 1.859500 0.000000 
#    z 0.000000 0.000000 1.814990 
# 
# From -- ./inp_files/20697.got.cif
#   From: 2010.05.17/outbox.cif.g08.bks.cpg/sg47_11_cif.got.tgz:20697.got - 2010.06.03 20:15:42.
