data_PCOD9386189
_publ_section_title
;
Structure prediction by ZEFSAII (Michael W. Deem and Ramdas Pophale) SiO2 
 PCOD9386189
Probable space group: P M M M
;
_chemical_formula_sum "Si O2"
_cell_formula_units_Z 29
_cell_length_a 15.937480
_cell_length_b 12.619798
_cell_length_c 7.811836
_cell_angle_alpha 90.000000
_cell_angle_beta 90.000000
_cell_angle_gamma 90.000000
_cell_volume 1571.177219
_symmetry_space_group_name_H-M "P M M M"
_symmetry_group_IT_number 47
_symmetry_cell_setting 'orthorhombic'
loop_
_space_group_symop_operation_xyz
x,y,z
-x,-y,z
x,-y,-z
-x,y,-z
-x,-y,-z
x,y,-z
-x,y,z
x,-y,z
loop_
_atom_site_type_symbol
_atom_site_label
_atom_site_fract_x
_atom_site_fract_y
_atom_site_fract_z
Si Si1 0.500000 0.000000 0.000000
Si Si2 0.644327 0.000000 0.297908
Si Si3 0.096642 0.872521 0.000000
Si Si4 0.782777 0.181397 0.691316
Si Si5 0.500000 0.628206 0.302282
Si Si6 0.316152 0.622285 0.799636
O O1 0.573181 0.000000 0.846317
O O2 0.705430 0.101362 0.274644
O O3 0.616059 0.000000 0.500000
O O4 0.146843 0.834310 0.166599
O O5 0.000000 0.837640 0.000000
O O6 0.098507 0.000000 0.000000
O O7 0.813971 0.158823 0.500000
O O8 0.744671 0.298873 0.703022
O O9 0.500000 0.500000 0.292290
O O10 0.500000 0.660297 0.500000
O O11 0.587485 0.661425 0.219806
O O12 0.312615 0.500000 0.739557
O O13 0.295205 0.624207 0.000000
#
# Coordination Sequence:
#
# PCOD9386189 Si02
#       6
#     1   4   4   8   4   8
#     4  12  22  36  60  74 120 172 198 244 284 340
#     4  10  23  39  57  86 114 154 206 243 288 343
#     4  11  23  41  67  96 120 144 184 238 303 370
#     4  11  22  40  63  87 122 155 192 243 296 358
#     4   9  17  30  47  74 111 151 203 254 287 322
#     4  10  20  34  56  84 117 160 206 248 291 337
#
# _framework density 18.457497
#
# number of rings (size 3 to 8) (size 9 to 14) (size 15 to 20)
#    0.000    1.655    2.759    2.276    0.000    4.966 
#    0.000    2.759    0.000    1.655    0.000    1.931 
#    0.000    0.000    0.000    0.000    0.000    0.000 
#
# Total GULP energy -161656.512211 kJ/mol
# GULP energy per Si atom -5574.362490 kJ/mol
# Density = 1.841549 g / cm^3
# Si number density = 18.457497 Si / 1000 Ang^3
#
#
#
# Elastic Constant Matrix: (Units=GPa)
#
#
# Indices 1 2 3 4 5 6 
#
# 1 126.2391 41.5139 94.4579 0.0000 0.0000 0.0000
# 2 41.5139 65.4227 24.4218 0.0000 0.0000 0.0000
# 3 94.4579 24.4218 147.8484 0.0000 0.0000 0.0000
# 4 0.0000 0.0000 0.0000 14.2547 0.0000 0.0000
# 5 0.0000 0.0000 0.0000 0.0000 4.1128 0.0000
# 6 0.0000 0.0000 0.0000 0.0000 0.0000 26.2417
#
#
#
# Elastic Compliance Matrix: (Units=1/GPa)
#
#
# Indices 1 2 3 4 5 6 
#
# 1 0.018197 -0.007681 -0.010357 0.000000 0.000000 0.000000
# 2 -0.007681 0.019532 0.001681 0.000000 0.000000 0.000000
# 3 -0.010357 0.001681 0.013103 0.000000 0.000000 0.000000
# 4 0.000000 0.000000 0.000000 0.070152 0.000000 0.000000
# 5 0.000000 0.000000 0.000000 0.000000 0.243144 0.000000
# 6 0.000000 0.000000 0.000000 0.000000 0.000000 0.038107
#
#
# Mechanical properties :
#
#
# Convention : Reuss Voigt Hill
#
# Bulk Modulus (GPa) = 55.19468 73.36640 64.28054
# Shear Modulus (GPa) = 11.33819 20.86294 16.10056
#
# Velocity S-wave (km/s) = 2.48117 3.36568 2.95668
# Velocity P-wave (km/s) = 6.17874 7.41207 6.82333
#
# Compressibility (1/GPa) = 0.01811769
#
# Stress axis : x y z
#
# Youngs Moduli (GPa) = 54.95471 51.19932 76.31878
#
# Poissons Ratio (x) = 0.39324 0.79043
# Poissons Ratio (y) = 0.42208 -0.12827
# Poissons Ratio (z) = 0.56916 -0.08605
#
# Static dielectric constant tensor:
#      x y z
#    x 1.598530 0.000000 0.000000 
#    y 0.000000 1.663270 0.000000 
#    z 0.000000 0.000000 1.657860 
# 
# From -- ./inp_files/5181.got.cif
#   From: 2010.05.17/outbox.cif.g08.bks.cpg/sg47_3_cif.got.tgz:5181.got - 2010.06.03 20:15:42.
