data_PCOD9386001
_publ_section_title
;
Structure prediction by ZEFSAII (Michael W. Deem and Ramdas Pophale) SiO2 
 PCOD9386001
Probable space group: P M M M
;
_chemical_formula_sum "Si O2"
_cell_formula_units_Z 52
_cell_length_a 21.476600
_cell_length_b 14.587760
_cell_length_c 8.708056
_cell_angle_alpha 90.000000
_cell_angle_beta 90.000000
_cell_angle_gamma 90.000000
_cell_volume 2728.194640
_symmetry_space_group_name_H-M "P M M M"
_symmetry_group_IT_number 47
_symmetry_cell_setting 'orthorhombic'
loop_
_space_group_symop_operation_xyz
x,y,z
-x,-y,z
x,-y,-z
-x,y,-z
-x,-y,-z
x,y,-z
-x,y,z
x,-y,z
loop_
_atom_site_type_symbol
_atom_site_label
_atom_site_fract_x
_atom_site_fract_y
_atom_site_fract_z
Si Si1 0.372335 0.606007 0.316269
Si Si2 0.431657 0.221216 0.185352
Si Si3 0.822777 0.895571 0.315001
Si Si4 0.000000 0.393673 0.816107
Si Si5 0.688196 0.891647 0.817176
Si Si6 0.236589 0.609862 0.820562
Si Si7 0.118575 0.288499 0.316545
O O1 0.371305 0.613821 0.500000
O O2 0.385054 0.500000 0.276048
O O3 0.420794 0.676369 0.244940
O O4 0.304199 0.630072 0.249534
O O5 0.500000 0.187104 0.233453
O O6 0.372440 0.162302 0.239570
O O7 0.430118 0.220402 0.000000
O O8 0.822737 0.897236 0.500000
O O9 0.753644 0.867378 0.260608
O O10 0.871306 0.817312 0.266392
O O11 0.834667 0.000000 0.260296
O O12 0.060732 0.340224 0.758209
O O13 0.000000 0.500000 0.762585
O O14 0.000000 0.394913 0.000000
O O15 0.678509 0.000000 0.793141
O O16 0.694604 0.875791 0.000000
O O17 0.227587 0.500000 0.810641
O O18 0.181558 0.659390 0.731207
O O19 0.235461 0.636054 0.000000
O O20 0.111284 0.290452 0.500000
#
# Coordination Sequence:
#
# PCOD9386001 Si02
#       7
#     8   8   8   4   8   8   8
#     4  10  21  36  53  74 101 134 175 224 274 322
#     4  10  21  35  51  73 102 138 178 219 268 327
#     4   9  19  36  57  82 111 141 175 217 267 320
#     4  11  25  43  60  81 114 154 189 221 264 317
#     4   9  18  33  54  80 108 138 174 218 267 318
#     4  10  20  34  54  80 109 140 174 217 271 326
#     4  11  22  36  58  85 112 146 185 224 265 309
#
# _framework density 19.060224000000002
#
# number of rings (size 3 to 8) (size 9 to 14) (size 15 to 20)
#    0.000    2.077    0.000    3.000    0.000    9.538 
#    0.000    3.462    0.000    2.308    0.000    3.231 
#    0.000    0.000    0.000    0.000    0.000    0.000 
#
# Total GULP energy -290383.112196 kJ/mol
# GULP energy per Si atom -5584.290619 kJ/mol
# Density = 1.901684 g / cm^3
# Si number density = 19.060224 Si / 1000 Ang^3
#
#
#
# Elastic Constant Matrix: (Units=GPa)
#
#
# Indices 1 2 3 4 5 6 
#
# 1 89.5493 73.4793 16.8113 0.0000 0.0000 0.0000
# 2 73.4793 99.2639 24.1800 0.0000 0.0000 0.0000
# 3 16.8113 24.1800 19.3303 0.0000 0.0000 0.0000
# 4 0.0000 0.0000 0.0000 22.7382 0.0000 0.0000
# 5 0.0000 0.0000 0.0000 0.0000 37.3006 0.0000
# 6 0.0000 0.0000 0.0000 0.0000 0.0000 22.0641
#
#
#
# Elastic Compliance Matrix: (Units=1/GPa)
#
#
# Indices 1 2 3 4 5 6 
#
# 1 0.028515 -0.021671 0.002308 0.000000 0.000000 0.000000
# 2 -0.021671 0.030958 -0.019878 0.000000 0.000000 0.000000
# 3 0.002308 -0.019878 0.074590 0.000000 0.000000 0.000000
# 4 0.000000 0.000000 0.000000 0.043979 0.000000 0.000000
# 5 0.000000 0.000000 0.000000 0.000000 0.026809 0.000000
# 6 0.000000 0.000000 0.000000 0.000000 0.000000 0.045323
#
#
# Mechanical properties :
#
#
# Convention : Reuss Voigt Hill
#
# Bulk Modulus (GPa) = 17.99146 48.56497 33.27822
# Shear Modulus (GPa) = 14.40164 22.66542 18.53353
#
# Velocity S-wave (km/s) = 2.75178 3.45214 3.12166
# Velocity P-wave (km/s) = 4.42223 6.43621 5.52182
#
# Compressibility (1/GPa) = 0.05558192
#
# Stress axis : x y z
#
# Youngs Moduli (GPa) = 35.06870 32.30210 13.40661
#
# Poissons Ratio (x) = 0.70000 -0.03094
# Poissons Ratio (y) = 0.75996 0.26650
# Poissons Ratio (z) = -0.08093 0.64210
#
# Static dielectric constant tensor:
#      x y z
#    x 1.638820 0.000000 0.000000 
#    y 0.000000 1.692990 0.000000 
#    z 0.000000 0.000000 1.641660 
# 
# From -- ./inp_files/6982.got.cif
#   From: 2010.05.17/outbox.cif.g08.bks.cpg/sg47_4_cif.got.tgz:6982.got - 2010.06.03 20:15:42.
