data_PCOD9386980
_publ_section_title
;
Structure prediction by ZEFSAII (Michael W. Deem and Ramdas Pophale) SiO2 
 PCOD9386980
Probable space group: P M M M
;
_chemical_formula_sum "Si O2"
_cell_formula_units_Z 56
_cell_length_a 7.599180
_cell_length_b 15.819585
_cell_length_c 21.152832
_cell_angle_alpha 90.000000
_cell_angle_beta 90.000000
_cell_angle_gamma 90.000000
_cell_volume 2542.906185
_symmetry_space_group_name_H-M "P M M M"
_symmetry_group_IT_number 47
_symmetry_cell_setting 'orthorhombic'
loop_
_space_group_symop_operation_xyz
x,y,z
-x,-y,z
x,-y,-z
-x,y,-z
-x,-y,-z
x,y,-z
-x,y,z
x,-y,z
loop_
_atom_site_type_symbol
_atom_site_label
_atom_site_fract_x
_atom_site_fract_y
_atom_site_fract_z
Si Si1 0.198841 0.899557 0.704133
Si Si2 0.793432 0.865864 0.567762
Si Si3 0.215684 0.902334 0.840831
Si Si4 0.204027 0.663162 0.567716
Si Si5 0.294697 0.405322 0.703164
Si Si6 0.215666 0.747371 0.072789
Si Si7 0.794710 0.403226 0.839345
O O1 0.285659 0.888004 0.635748
O O2 0.277285 0.871853 0.770978
O O3 0.000000 0.862208 0.699316
O O4 0.182728 0.000000 0.712183
O O5 0.720333 0.896014 0.500000
O O6 0.789865 0.764520 0.565839
O O7 0.000000 0.893256 0.569047
O O8 0.269242 0.834373 0.892884
O O9 0.000000 0.903050 0.837997
O O10 0.269605 0.000000 0.852405
O O11 0.280880 0.632687 0.500000
O O12 0.277715 0.636624 0.635013
O O13 0.000000 0.637148 0.568276
O O14 0.500000 0.409701 0.717227
O O15 0.220584 0.500000 0.696656
O O16 0.214227 0.368719 0.767254
O O17 0.278994 0.666023 0.112569
O O18 0.000000 0.746819 0.074081
O O19 0.270059 0.744013 0.000000
O O20 0.721670 0.500000 0.840727
O O21 0.000000 0.411096 0.855169
#
# Coordination Sequence:
#
# PCOD9386980 Si02
#       7
#     8   8   8   8   8   8   8
#     4   8  13  20  31  50  79 118 158 189 224 272
#     4   8  14  23  35  55  84 117 152 190 230 271
#     4   8  14  23  34  54  88 127 161 191 229 282
#     4   9  18  31  47  69  96 126 160 197 238 284
#     4  10  21  35  50  69  93 122 158 199 240 283
#     4   9  17  27  42  67  94 124 161 195 236 290
#     4   9  18  32  50  72  97 125 157 196 242 290
#
# _framework density 22.022048000000002
#
# number of rings (size 3 to 8) (size 9 to 14) (size 15 to 20)
#    0.000    3.286    0.000    2.143    2.000    2.286 
#    0.000    5.714    0.000    0.429    0.000    2.000 
#    0.000    2.286    0.000    4.429    0.000    4.571 
#
# Total GULP energy -311870.784624 kJ/mol
# GULP energy per Si atom -5569.121154 kJ/mol
# Density = 2.197192 g / cm^3
# Si number density = 22.022048 Si / 1000 Ang^3
#
#
#
# Elastic Constant Matrix: (Units=GPa)
#
#
# Indices 1 2 3 4 5 6 
#
# 1 44.6176 5.7800 6.7989 0.0000 0.0000 0.0000
# 2 5.7800 80.4102 89.7931 0.0000 0.0000 0.0000
# 3 6.7989 89.7931 230.0929 0.0000 0.0000 0.0000
# 4 0.0000 0.0000 0.0000 68.5591 0.0000 0.0000
# 5 0.0000 0.0000 0.0000 0.0000 -31.9391 0.0000
# 6 0.0000 0.0000 0.0000 0.0000 0.0000 13.8483
#
#
#
# Elastic Compliance Matrix: (Units=1/GPa)
#
#
# Indices 1 2 3 4 5 6 
#
# 1 0.022624 -0.001559 -0.000060 0.000000 0.000000 0.000000
# 2 -0.001559 0.022149 -0.008598 0.000000 0.000000 0.000000
# 3 -0.000060 -0.008598 0.007703 0.000000 0.000000 0.000000
# 4 0.000000 0.000000 0.000000 0.014586 0.000000 0.000000
# 5 0.000000 0.000000 0.000000 0.000000 -0.031310 0.000000
# 6 0.000000 0.000000 0.000000 0.000000 0.000000 0.072211
#
#
# Mechanical properties :
#
#
# Convention : Reuss Voigt Hill
#
# Bulk Modulus (GPa) = 31.20869 62.20718 46.70793
# Shear Modulus (GPa) = 35.95114 26.94357 31.44735
#
# Velocity S-wave (km/s) = 4.04481 3.50162 3.78298
# Velocity P-wave (km/s) = 6.00136 6.68263 6.35114
#
# Compressibility (1/GPa) = 0.03204236
#
# Stress axis : x y z
#
# Youngs Moduli (GPa) = 44.20123 45.14862 129.81943
#
# Poissons Ratio (x) = 0.07040 0.00779
# Poissons Ratio (y) = 0.06892 1.11613
# Poissons Ratio (z) = 0.00265 0.38817
#
# Static dielectric constant tensor:
#      x y z
#    x 1.810040 0.000000 0.000000 
#    y 0.000000 1.800670 0.000000 
#    z 0.000000 0.000000 1.848020 
# 
# From -- ./inp_files/29881.got.cif
#   From: 2010.05.17/outbox.cif.g08.bks.cpg/sg47_15_cif.got.tgz:29881.got - 2010.06.03 20:15:42.
