data_PCOD9386179
_publ_section_title
;
Structure prediction by ZEFSAII (Michael W. Deem and Ramdas Pophale) SiO2 
 PCOD9386179
Probable space group: P M M M
;
_chemical_formula_sum "Si O2"
_cell_formula_units_Z 56
_cell_length_a 21.967034
_cell_length_b 8.025027
_cell_length_c 14.719740
_cell_angle_alpha 90.000000
_cell_angle_beta 90.000000
_cell_angle_gamma 90.000000
_cell_volume 2594.884689
_symmetry_space_group_name_H-M "P M M M"
_symmetry_group_IT_number 47
_symmetry_cell_setting 'orthorhombic'
loop_
_space_group_symop_operation_xyz
x,y,z
-x,-y,z
x,-y,-z
-x,y,-z
-x,-y,-z
x,y,-z
-x,y,z
x,-y,z
loop_
_atom_site_type_symbol
_atom_site_label
_atom_site_fract_x
_atom_site_fract_y
_atom_site_fract_z
Si Si1 0.933908 0.695980 0.793743
Si Si2 0.892003 0.199097 0.398313
Si Si3 0.426947 0.191292 0.598152
Si Si4 0.186393 0.196899 0.102611
Si Si5 0.432075 0.692266 0.203264
Si Si6 0.695556 0.699417 0.212404
Si Si7 0.249234 0.297924 0.399040
O O1 0.932565 0.500000 0.813063
O O2 0.926609 0.721726 0.685817
O O3 0.875646 0.772621 0.842629
O O4 0.000000 0.763896 0.822396
O O5 0.909885 0.255077 0.500000
O O6 0.820531 0.241580 0.386722
O O7 0.899580 0.000000 0.393933
O O8 0.405234 0.256833 0.500000
O O9 0.500000 0.180619 0.591494
O O10 0.419325 0.299447 0.688066
O O11 0.405453 0.000000 0.610578
O O12 0.244765 0.271038 0.152984
O O13 0.196313 0.000000 0.099300
O O14 0.180764 0.262329 0.000000
O O15 0.500000 0.766873 0.187247
O O16 0.436085 0.500000 0.173803
O O17 0.367824 0.767096 0.169828
O O18 0.687576 0.500000 0.219396
O O19 0.711390 0.763826 0.314007
O O20 0.267954 0.241550 0.500000
O O21 0.250151 0.500000 0.397725
#
# Coordination Sequence:
#
# PCOD9386179 Si02
#       7
#     8   8   8   8   8   8   8
#     4  11  24  41  63  92 125 161 198 235 280 337
#     4  10  20  34  55  85 122 163 205 246 286 329
#     4   8  14  25  40  60  92 137 186 230 272 323
#     4  11  25  44  66  91 117 146 185 238 298 355
#     4   9  18  31  48  75 110 145 184 232 285 341
#     4  10  20  35  58  85 114 153 196 238 289 348
#     4   9  17  30  50  77 111 152 198 244 288 338
#
# _framework density 21.580921
#
# number of rings (size 3 to 8) (size 9 to 14) (size 15 to 20)
#    0.000    2.286    1.429    1.714    0.000    5.143 
#    0.000    5.714    0.000    2.143    0.000    3.000 
#    0.000    0.000    0.000    0.000    0.000    0.000 
#
# Total GULP energy -312330.078427 kJ/mol
# GULP energy per Si atom -5577.322829 kJ/mol
# Density = 2.153180 g / cm^3
# Si number density = 21.580921 Si / 1000 Ang^3
#
#
#
# Elastic Constant Matrix: (Units=GPa)
#
#
# Indices 1 2 3 4 5 6 
#
# 1 155.9729 1.0827 43.2533 0.0000 0.0000 0.0000
# 2 1.0827 24.6381 -0.9569 0.0000 0.0000 0.0000
# 3 43.2533 -0.9569 67.6311 0.0000 0.0000 0.0000
# 4 0.0000 0.0000 0.0000 105.1738 0.0000 0.0000
# 5 0.0000 0.0000 0.0000 0.0000 -5.4365 0.0000
# 6 0.0000 0.0000 0.0000 0.0000 0.0000 -16.7694
#
#
#
# Elastic Compliance Matrix: (Units=1/GPa)
#
#
# Indices 1 2 3 4 5 6 
#
# 1 0.007801 -0.000537 -0.004997 0.000000 0.000000 0.000000
# 2 -0.000537 0.040647 0.000918 0.000000 0.000000 0.000000
# 3 -0.004997 0.000918 0.017995 0.000000 0.000000 0.000000
# 4 0.000000 0.000000 0.000000 0.009508 0.000000 0.000000
# 5 0.000000 0.000000 0.000000 0.000000 -0.183942 0.000000
# 6 0.000000 0.000000 0.000000 0.000000 0.000000 -0.059632
#
#
# Mechanical properties :
#
#
# Convention : Reuss Voigt Hill
#
# Bulk Modulus (GPa) = 17.47878 37.22225 27.35051
# Shear Modulus (GPa) = -35.88772 30.25111 -2.81831
#
# Velocity S-wave (km/s) = -4.08234 3.74806 -1.14401
# Velocity P-wave (km/s) = 3.75551 6.00132 3.30998
#
# Compressibility (1/GPa) = 0.05721224
#
# Stress axis : x y z
#
# Youngs Moduli (GPa) = 128.19367 24.60221 55.57220
#
# Poissons Ratio (x) = 0.01321 0.27767
# Poissons Ratio (y) = 0.06882 -0.05104
# Poissons Ratio (z) = 0.64052 -0.02260
#
# Static dielectric constant tensor:
#      x y z
#    x 1.860960 0.000000 0.000000 
#    y 0.000000 1.763860 0.000000 
#    z 0.000000 0.000000 1.804510 
# 
# From -- ./inp_files/11188.got.cif
#   From: 2010.05.17/outbox.cif.g08.bks.cpg/sg47_6_cif.got.tgz:11188.got - 2010.06.03 20:15:42.
