data_PCOD9386733
_publ_section_title
;
Structure prediction by ZEFSAII (Michael W. Deem and Ramdas Pophale) SiO2 
 PCOD9386733
Probable space group: P M M M
;
_chemical_formula_sum "Si O2"
_cell_formula_units_Z 44
_cell_length_a 7.820172
_cell_length_b 32.334509
_cell_length_c 8.466381
_cell_angle_alpha 90.000000
_cell_angle_beta 90.000000
_cell_angle_gamma 90.000000
_cell_volume 2140.821138
_symmetry_space_group_name_H-M "P M M M"
_symmetry_group_IT_number 47
_symmetry_cell_setting 'orthorhombic'
loop_
_space_group_symop_operation_xyz
x,y,z
-x,-y,z
x,-y,-z
-x,y,-z
-x,-y,-z
x,y,-z
-x,y,z
x,-y,z
loop_
_atom_site_type_symbol
_atom_site_label
_atom_site_fract_x
_atom_site_fract_y
_atom_site_fract_z
Si Si1 0.793538 0.779741 0.182818
Si Si2 0.207635 0.044494 0.689035
Si Si3 0.809899 0.397907 0.809130
Si Si4 0.203844 0.133396 0.311208
Si Si5 0.500000 0.452818 0.688686
Si Si6 0.297435 0.309143 0.816492
O O1 0.727069 0.822729 0.253600
O O2 0.738260 0.735881 0.255984
O O3 0.000000 0.780144 0.190143
O O4 0.739614 0.779710 0.000000
O O5 0.241634 0.044097 0.500000
O O6 0.271090 0.089008 0.750497
O O7 0.000000 0.044844 0.704933
O O8 0.268466 0.000000 0.753137
O O9 0.665138 0.427788 0.745639
O O10 0.784898 0.350712 0.749430
O O11 0.000000 0.412287 0.769171
O O12 0.793501 0.396301 0.000000
O O13 0.220180 0.132602 0.500000
O O14 0.000000 0.133729 0.274383
O O15 0.500000 0.500000 0.748330
O O16 0.500000 0.453718 0.500000
O O17 0.500000 0.315952 0.817618
O O18 0.236798 0.306261 0.000000
#
# Coordination Sequence:
#
# PCOD9386733 Si02
#       6
#     8   8   8   8   4   8
#     4   9  16  25  39  61  88 118 151 186 232 295
#     4   7   9  14  26  44  65  93 133 178 222 272
#     4  10  20  37  64  93 117 146 191 245 291 328
#     4   8  13  21  33  50  75 107 142 182 228 280
#     4  11  25  43  61  85 123 165 197 229 276 337
#     4   9  16  29  51  76 101 130 167 213 262 311
#
# _framework density 20.552861
#
# number of rings (size 3 to 8) (size 9 to 14) (size 15 to 20)
#    0.000    3.182    0.909    2.455    0.000    3.636 
#    0.000    2.727    0.000    2.727    0.000    3.818 
#    0.000    0.727    0.000    9.091    0.000    8.364 
#
# Total GULP energy -245020.771197 kJ/mol
# GULP energy per Si atom -5568.653891 kJ/mol
# Density = 2.050608 g / cm^3
# Si number density = 20.552861 Si / 1000 Ang^3
#
#
#
# Elastic Constant Matrix: (Units=GPa)
#
#
# Indices 1 2 3 4 5 6 
#
# 1 64.3337 68.9809 23.7647 0.0000 0.0000 0.0000
# 2 68.9809 222.9250 17.4396 0.0000 0.0000 0.0000
# 3 23.7647 17.4396 -19.3623 0.0000 0.0000 0.0000
# 4 0.0000 0.0000 0.0000 25.7422 0.0000 0.0000
# 5 0.0000 0.0000 0.0000 0.0000 0.2416 0.0000
# 6 0.0000 0.0000 0.0000 0.0000 0.0000 20.8210
#
#
#
# Elastic Compliance Matrix: (Units=1/GPa)
#
#
# Indices 1 2 3 4 5 6 
#
# 1 0.016873 -0.006391 0.014953 0.000000 0.000000 0.000000
# 2 -0.006391 0.006611 -0.001889 0.000000 0.000000 0.000000
# 3 0.014953 -0.001889 -0.034995 0.000000 0.000000 0.000000
# 4 0.000000 0.000000 0.000000 0.038847 0.000000 0.000000
# 5 0.000000 0.000000 0.000000 0.000000 4.138593 0.000000
# 6 0.000000 0.000000 0.000000 0.000000 0.000000 0.048028
#
#
# Mechanical properties :
#
#
# Convention : Reuss Voigt Hill
#
# Bulk Modulus (GPa) = 545.17816 54.25188 299.71502
# Shear Modulus (GPa) = 1.19013 19.87505 10.53259
#
# Velocity S-wave (km/s) = 0.76178 3.11307 2.26622
# Velocity P-wave (km/s) = 16.32808 6.27496 12.36894
#
# Compressibility (1/GPa) = 0.00183426
#
# Stress axis : x y z
#
# Youngs Moduli (GPa) = 59.26680 151.25930 -28.57510
#
# Poissons Ratio (x) = 0.96667 0.42728
# Poissons Ratio (y) = 0.37876 -0.05399
# Poissons Ratio (z) = -0.88621 0.28577
#
# Static dielectric constant tensor:
#      x y z
#    x 1.761020 0.000000 0.000000 
#    y 0.000000 1.802130 0.000000 
#    z 0.000000 0.000000 1.728360 
# 
# From -- ./inp_files/2241.got.cif
#   From: 2010.05.17/outbox.cif.g08.bks.cpg/sg47_2_cif.got.tgz:2241.got - 2010.06.03 20:15:42.
