data_PCOD9386118
_publ_section_title
;
Structure prediction by ZEFSAII (Michael W. Deem and Ramdas Pophale) SiO2 
 PCOD9386118
Probable space group: P M M M
;
_chemical_formula_sum "Si O2"
_cell_formula_units_Z 52
_cell_length_a 14.555469
_cell_length_b 20.968208
_cell_length_c 8.475778
_cell_angle_alpha 90.000000
_cell_angle_beta 90.000000
_cell_angle_gamma 90.000000
_cell_volume 2586.825258
_symmetry_space_group_name_H-M "P M M M"
_symmetry_group_IT_number 47
_symmetry_cell_setting 'orthorhombic'
loop_
_space_group_symop_operation_xyz
x,y,z
-x,-y,z
x,-y,-z
-x,y,-z
-x,-y,-z
x,y,-z
-x,y,z
x,-y,z
loop_
_atom_site_type_symbol
_atom_site_label
_atom_site_fract_x
_atom_site_fract_y
_atom_site_fract_z
Si Si1 0.858957 0.700742 0.321721
Si Si2 0.803470 0.570621 0.809375
Si Si3 0.099261 0.833618 0.813861
Si Si4 0.393735 0.000000 0.307076
Si Si5 0.356931 0.264454 0.319501
Si Si6 0.598232 0.603251 0.186842
Si Si7 0.702221 0.869906 0.690417
O O1 0.893959 0.704541 0.500000
O O2 0.862232 0.629224 0.256600
O O3 0.899255 0.757575 0.218294
O O4 0.750739 0.717685 0.326443
O O5 0.836337 0.500000 0.766402
O O6 0.696482 0.577538 0.753575
O O7 0.802419 0.575894 0.000000
O O8 0.191384 0.862042 0.738050
O O9 0.000000 0.857986 0.754377
O O10 0.104259 0.844805 0.000000
O O11 0.341826 0.064052 0.255331
O O12 0.500000 0.000000 0.258584
O O13 0.392452 0.000000 0.500000
O O14 0.392130 0.266364 0.500000
O O15 0.399499 0.320760 0.217668
O O16 0.356000 0.192288 0.256062
O O17 0.500000 0.579191 0.251448
O O18 0.598187 0.590335 0.000000
O O19 0.698736 0.867410 0.500000
#
# Coordination Sequence:
#
# PCOD9386118 Si02
#       7
#     8   8   8   4   8   8   8
#     4   9  17  30  49  72  97 125 160 205 251 298
#     4   9  17  29  45  64  90 129 171 208 253 310
#     4  10  20  34  55  82 109 137 168 207 261 319
#     4   9  18  34  56  81 110 146 187 225 260 301
#     4   8  15  27  43  64  88 117 156 201 250 298
#     4   9  17  27  39  59  87 119 159 207 256 305
#     4   9  18  33  54  79 106 139 178 218 258 302
#
# _framework density 20.101859999999999
#
# number of rings (size 3 to 8) (size 9 to 14) (size 15 to 20)
#    0.000    3.000    0.000    1.846    0.000    6.462 
#    0.000    3.846    0.000    3.692    0.000    7.538 
#    0.000    0.000    0.000    0.000    0.000    0.000 
#
# Total GULP energy -289698.910524 kJ/mol
# GULP energy per Si atom -5571.132895 kJ/mol
# Density = 2.005611 g / cm^3
# Si number density = 20.101860 Si / 1000 Ang^3
#
#
#
# Elastic Constant Matrix: (Units=GPa)
#
#
# Indices 1 2 3 4 5 6 
#
# 1 76.7236 22.3503 -1.6838 0.0000 0.0000 0.0000
# 2 22.3503 133.7745 3.0740 0.0000 0.0000 0.0000
# 3 -1.6838 3.0740 6.3889 0.0000 0.0000 0.0000
# 4 0.0000 0.0000 0.0000 9.9857 0.0000 0.0000
# 5 0.0000 0.0000 0.0000 0.0000 3.5256 0.0000
# 6 0.0000 0.0000 0.0000 0.0000 0.0000 2.9094
#
#
#
# Elastic Compliance Matrix: (Units=1/GPa)
#
#
# Indices 1 2 3 4 5 6 
#
# 1 0.013846 -0.002424 0.004815 0.000000 0.000000 0.000000
# 2 -0.002424 0.007983 -0.004480 0.000000 0.000000 0.000000
# 3 0.004815 -0.004480 0.159946 0.000000 0.000000 0.000000
# 4 0.000000 0.000000 0.000000 0.100143 0.000000 0.000000
# 5 0.000000 0.000000 0.000000 0.000000 0.283640 0.000000
# 6 0.000000 0.000000 0.000000 0.000000 0.000000 0.343709
#
#
# Mechanical properties :
#
#
# Convention : Reuss Voigt Hill
#
# Bulk Modulus (GPa) = 5.63070 29.37422 17.50246
# Shear Modulus (GPa) = 5.14063 16.16057 10.65060
#
# Velocity S-wave (km/s) = 1.60089 2.83845 2.30430
# Velocity P-wave (km/s) = 2.49485 5.03853 3.97562
#
# Compressibility (1/GPa) = 0.17759793
#
# Stress axis : x y z
#
# Youngs Moduli (GPa) = 72.22517 125.26339 6.25210
#
# Poissons Ratio (x) = 0.30363 -0.03011
# Poissons Ratio (y) = 0.17507 0.02801
# Poissons Ratio (z) = -0.34778 0.56116
#
# Static dielectric constant tensor:
#      x y z
#    x 1.764250 0.000000 0.000000 
#    y 0.000000 1.721870 0.000000 
#    z 0.000000 0.000000 1.698580 
# 
# From -- ./inp_files/7031.got.cif
#   From: 2010.05.17/outbox.cif.g08.bks.cpg/sg47_4_cif.got.tgz:7031.got - 2010.06.03 20:15:42.
