data_PCOD9386307
_publ_section_title
;
Structure prediction by ZEFSAII (Michael W. Deem and Ramdas Pophale) SiO2 
 PCOD9386307
Probable space group: P M M M
;
_chemical_formula_sum "Si O2"
_cell_formula_units_Z 52
_cell_length_a 7.960293
_cell_length_b 19.665355
_cell_length_c 16.521461
_cell_angle_alpha 90.000000
_cell_angle_beta 90.000000
_cell_angle_gamma 90.000000
_cell_volume 2586.302345
_symmetry_space_group_name_H-M "P M M M"
_symmetry_group_IT_number 47
_symmetry_cell_setting 'orthorhombic'
loop_
_space_group_symop_operation_xyz
x,y,z
-x,-y,z
x,-y,-z
-x,y,-z
-x,-y,-z
x,y,-z
-x,y,z
x,-y,z
loop_
_atom_site_type_symbol
_atom_site_label
_atom_site_fract_x
_atom_site_fract_y
_atom_site_fract_z
Si Si1 0.300148 0.076381 0.000000
Si Si2 0.199825 0.858796 0.169074
Si Si3 0.203710 0.923910 0.336252
Si Si4 0.297922 0.718693 0.756725
Si Si5 0.700848 0.217654 0.410693
Si Si6 0.693047 0.424162 0.763030
Si Si7 0.807037 0.581721 0.413081
O O1 0.249319 0.113871 0.082000
O O2 0.500000 0.072139 0.000000
O O3 0.228219 0.000000 0.000000
O O4 0.258799 0.905834 0.244249
O O5 0.262401 0.783029 0.187226
O O6 0.000000 0.857879 0.173933
O O7 0.266095 0.861600 0.390737
O O8 0.000000 0.922968 0.338846
O O9 0.259021 0.000000 0.358741
O O10 0.500000 0.711690 0.750953
O O11 0.232906 0.739767 0.666667
O O12 0.229919 0.647178 0.792118
O O13 0.769186 0.233980 0.500000
O O14 0.500000 0.227865 0.412258
O O15 0.500000 0.428510 0.790236
O O16 0.768710 0.500000 0.775880
O O17 0.697900 0.409050 0.666427
O O18 0.742273 0.607212 0.500000
O O19 0.816115 0.500000 0.419238
O O20 0.000000 0.605052 0.401508
#
# Coordination Sequence:
#
# PCOD9386307 Si02
#       7
#     4   8   8   8   8   8   8
#     4  11  23  37  57  87 118 143 166 193 231 284
#     4  10  20  35  55  78 105 136 169 202 240 290
#     4   9  18  32  49  69  94 124 158 200 248 290
#     4   9  18  33  50  68  97 134 169 209 256 305
#     4   9  18  31  45  62  87 124 169 211 251 296
#     4   9  17  28  44  67  91 118 158 207 255 303
#     4   8  14  24  36  52  79 114 150 194 251 308
#
# _framework density 20.105924999999999
#
# number of rings (size 3 to 8) (size 9 to 14) (size 15 to 20)
#    0.000    2.846    0.000    1.615    0.000    4.308 
#    0.000    4.615    0.000    0.000    0.000    0.538 
#    0.000    4.308    0.000    0.000    0.000    0.000 
#
# Total GULP energy -289723.748854 kJ/mol
# GULP energy per Si atom -5571.610555 kJ/mol
# Density = 2.006016 g / cm^3
# Si number density = 20.105925 Si / 1000 Ang^3
#
#
#
# Elastic Constant Matrix: (Units=GPa)
#
#
# Indices 1 2 3 4 5 6 
#
# 1 24.1680 5.5213 1.1023 0.0000 0.0000 0.0000
# 2 5.5213 176.2511 40.2456 0.0000 0.0000 0.0000
# 3 1.1023 40.2456 71.6154 0.0000 0.0000 0.0000
# 4 0.0000 0.0000 0.0000 2.2454 0.0000 0.0000
# 5 0.0000 0.0000 0.0000 0.0000 25.5673 0.0000
# 6 0.0000 0.0000 0.0000 0.0000 0.0000 8.2267
#
#
#
# Elastic Compliance Matrix: (Units=1/GPa)
#
#
# Indices 1 2 3 4 5 6 
#
# 1 0.041676 -0.001330 0.000106 0.000000 0.000000 0.000000
# 2 -0.001330 0.006551 -0.003661 0.000000 0.000000 0.000000
# 3 0.000106 -0.003661 0.016019 0.000000 0.000000 0.000000
# 4 0.000000 0.000000 0.000000 0.445350 0.000000 0.000000
# 5 0.000000 0.000000 0.000000 0.000000 0.039113 0.000000
# 6 0.000000 0.000000 0.000000 0.000000 0.000000 0.121555
#
#
# Mechanical properties :
#
#
# Convention : Reuss Voigt Hill
#
# Bulk Modulus (GPa) = 18.35654 40.64143 29.49899
# Shear Modulus (GPa) = 7.16134 22.21890 14.69012
#
# Velocity S-wave (km/s) = 1.88932 3.32790 2.70596
# Velocity P-wave (km/s) = 3.72949 5.91812 4.94637
#
# Compressibility (1/GPa) = 0.05447649
#
# Stress axis : x y z
#
# Youngs Moduli (GPa) = 23.99460 152.63950 62.42458
#
# Poissons Ratio (x) = 0.20297 -0.00660
# Poissons Ratio (y) = 0.03191 0.22855
# Poissons Ratio (z) = -0.00254 0.55884
#
# Static dielectric constant tensor:
#      x y z
#    x 1.719290 0.000000 0.000000 
#    y 0.000000 1.785650 0.000000 
#    z 0.000000 0.000000 1.685760 
# 
# From -- ./inp_files/21449.got.cif
#   From: 2010.05.17/outbox.cif.g08.bks.cpg/sg47_11_cif.got.tgz:21449.got - 2010.06.03 20:15:42.
