data_PCOD9386597
_publ_section_title
;
Structure prediction by ZEFSAII (Michael W. Deem and Ramdas Pophale) SiO2 
 PCOD9386597
Probable space group: P M M M
;
_chemical_formula_sum "Si O2"
_cell_formula_units_Z 40
_cell_length_a 13.459585
_cell_length_b 14.873065
_cell_length_c 10.399742
_cell_angle_alpha 90.000000
_cell_angle_beta 90.000000
_cell_angle_gamma 90.000000
_cell_volume 2081.875291
_symmetry_space_group_name_H-M "P M M M"
_symmetry_group_IT_number 47
_symmetry_cell_setting 'orthorhombic'
loop_
_space_group_symop_operation_xyz
x,y,z
-x,-y,z
x,-y,-z
-x,y,-z
-x,-y,-z
x,y,-z
-x,y,z
x,-y,z
loop_
_atom_site_type_symbol
_atom_site_label
_atom_site_fract_x
_atom_site_fract_y
_atom_site_fract_z
Si Si1 0.118705 0.100100 0.500000
Si Si2 0.380217 0.500000 0.846201
Si Si3 0.116909 0.239215 0.272888
Si Si4 0.769832 0.097751 0.142400
Si Si5 0.383752 0.151070 0.645498
Si Si6 0.298942 0.649012 0.650047
O O1 0.139994 0.162853 0.379623
O O2 0.000000 0.090360 0.500000
O O3 0.161047 0.000000 0.500000
O O4 0.500000 0.500000 0.843895
O O5 0.340710 0.583559 0.760074
O O6 0.351226 0.500000 0.000000
O O7 0.157516 0.183555 0.152115
O O8 0.186516 0.322408 0.310872
O O9 0.000000 0.258750 0.269915
O O10 0.683033 0.106702 0.246127
O O11 0.821241 0.000000 0.161178
O O12 0.726136 0.098298 0.000000
O O13 0.356964 0.122421 0.500000
O O14 0.500000 0.134403 0.663964
O O15 0.360909 0.257944 0.652661
O O16 0.301942 0.616641 0.500000
#
# Coordination Sequence:
#
# PCOD9386597 Si02
#       6
#     4   4   8   8   8   8
#     4   9  16  28  52  85 115 148 194 243 287 326
#     4  11  25  43  64  91 120 150 189 239 294 355
#     4  10  20  36  58  85 117 154 196 242 291 342
#     4  10  22  36  50  76 114 156 201 245 291 346
#     4   9  19  36  58  83 110 144 189 242 300 358
#     4  10  20  37  62  90 118 148 187 239 294 354
#
# _framework density 19.213448
#
# number of rings (size 3 to 8) (size 9 to 14) (size 15 to 20)
#    0.000    2.200    1.000    1.500    1.400    7.600 
#    0.000    3.500    0.000    1.800    0.000    0.000 
#    0.000    0.000    0.000    0.000    0.000    0.000 
#
# Total GULP energy -222927.021114 kJ/mol
# GULP energy per Si atom -5573.175528 kJ/mol
# Density = 1.916972 g / cm^3
# Si number density = 19.213448 Si / 1000 Ang^3
#
#
#
# Elastic Constant Matrix: (Units=GPa)
#
#
# Indices 1 2 3 4 5 6 
#
# 1 115.1341 23.8110 51.4367 0.0000 0.0000 0.0000
# 2 23.8110 73.3565 49.2604 0.0000 0.0000 0.0000
# 3 51.4367 49.2604 152.4579 0.0000 0.0000 0.0000
# 4 0.0000 0.0000 0.0000 32.2968 0.0000 0.0000
# 5 0.0000 0.0000 0.0000 0.0000 20.2688 0.0000
# 6 0.0000 0.0000 0.0000 0.0000 0.0000 23.1616
#
#
#
# Elastic Compliance Matrix: (Units=1/GPa)
#
#
# Indices 1 2 3 4 5 6 
#
# 1 0.010322 -0.001292 -0.003065 0.000000 0.000000 0.000000
# 2 -0.001292 0.017571 -0.005241 0.000000 0.000000 0.000000
# 3 -0.003065 -0.005241 0.009287 0.000000 0.000000 0.000000
# 4 0.000000 0.000000 0.000000 0.030963 0.000000 0.000000
# 5 0.000000 0.000000 0.000000 0.000000 0.049337 0.000000
# 6 0.000000 0.000000 0.000000 0.000000 0.000000 0.043175
#
#
# Mechanical properties :
#
#
# Convention : Reuss Voigt Hill
#
# Bulk Modulus (GPa) = 55.60871 65.55163 60.58017
# Shear Modulus (GPa) = 26.90394 29.57478 28.23936
#
# Velocity S-wave (km/s) = 3.74607 3.92762 3.83792
# Velocity P-wave (km/s) = 6.90769 7.39999 7.15807
#
# Compressibility (1/GPa) = 0.01798280
#
# Stress axis : x y z
#
# Youngs Moduli (GPa) = 96.87993 56.91116 107.67983
#
# Poissons Ratio (x) = 0.07355 0.33003
# Poissons Ratio (y) = 0.12520 0.56439
# Poissons Ratio (z) = 0.29693 0.29830
#
# Static dielectric constant tensor:
#      x y z
#    x 1.674120 0.000000 0.000000 
#    y 0.000000 1.686360 0.000000 
#    z 0.000000 0.000000 1.665170 
# 
# From -- ./inp_files/5714.got.cif
#   From: 2010.05.17/outbox.cif.g08.bks.cpg/sg47_3_cif.got.tgz:5714.got - 2010.06.03 20:15:42.
