data_PCOD9386656
_publ_section_title
;
Structure prediction by ZEFSAII (Michael W. Deem and Ramdas Pophale) SiO2 
 PCOD9386656
Probable space group: P M M M
;
_chemical_formula_sum "Si O2"
_cell_formula_units_Z 52
_cell_length_a 7.884902
_cell_length_b 14.774628
_cell_length_c 21.860333
_cell_angle_alpha 90.000000
_cell_angle_beta 90.000000
_cell_angle_gamma 90.000000
_cell_volume 2546.652149
_symmetry_space_group_name_H-M "P M M M"
_symmetry_group_IT_number 47
_symmetry_cell_setting 'orthorhombic'
loop_
_space_group_symop_operation_xyz
x,y,z
-x,-y,z
x,-y,-z
-x,y,-z
-x,-y,-z
x,y,-z
-x,y,z
x,-y,z
loop_
_atom_site_type_symbol
_atom_site_label
_atom_site_fract_x
_atom_site_fract_y
_atom_site_fract_z
Si Si1 0.705293 0.292287 0.565645
Si Si2 0.697474 0.900760 0.598678
Si Si3 0.500000 0.106180 0.073232
Si Si4 0.806395 0.606557 0.311369
Si Si5 0.200995 0.102820 0.263871
Si Si6 0.695953 0.602940 0.176342
Si Si7 0.196457 0.793896 0.858527
O O1 0.757905 0.332807 0.500000
O O2 0.500000 0.290392 0.566519
O O3 0.770345 0.189041 0.569003
O O4 0.758855 0.341684 0.627289
O O5 0.500000 0.905155 0.580713
O O6 0.706842 0.885084 0.671794
O O7 0.773636 0.000000 0.586160
O O8 0.333114 0.157427 0.098500
O O9 0.500000 0.000000 0.092268
O O10 0.500000 0.109068 0.000000
O O11 0.793971 0.500000 0.324795
O O12 0.703795 0.622342 0.249298
O O13 0.000000 0.629615 0.295267
O O14 0.241570 0.171370 0.209973
O O15 0.000000 0.110212 0.276844
O O16 0.234881 0.000000 0.242447
O O17 0.500000 0.603583 0.157371
O O18 0.763581 0.500000 0.168056
O O19 0.786919 0.685276 0.142340
O O20 0.000000 0.819714 0.870514
#
# Coordination Sequence:
#
# PCOD9386656 Si02
#       7
#     8   8   4   8   8   8   8
#     4  10  21  35  50  68  94 135 187 239 291 354
#     4   9  18  31  48  71  99 133 173 224 288 354
#     4  11  26  46  67  95 133 177 221 260 300 350
#     4  10  21  36  54  79 111 145 183 234 298 363
#     4   9  18  31  49  78 112 143 180 233 299 364
#     4  10  20  36  61  94 129 161 197 248 311 376
#     4  11  22  38  64  95 128 169 214 260 309 362
#
# _framework density 20.418963999999999
#
# number of rings (size 3 to 8) (size 9 to 14) (size 15 to 20)
#    0.000    2.077    0.769    2.308    1.077    7.077 
#    0.000    3.846    0.000    0.923    0.000    4.308 
#    0.000    0.000    0.000    0.000    0.000    0.000 
#
# Total GULP energy -290240.767130 kJ/mol
# GULP energy per Si atom -5581.553214 kJ/mol
# Density = 2.037249 g / cm^3
# Si number density = 20.418964 Si / 1000 Ang^3
#
#
#
# Elastic Constant Matrix: (Units=GPa)
#
#
# Indices 1 2 3 4 5 6 
#
# 1 60.8764 36.8637 23.2033 0.0000 0.0000 0.0000
# 2 36.8637 90.4754 37.9979 0.0000 0.0000 0.0000
# 3 23.2033 37.9979 45.9637 0.0000 0.0000 0.0000
# 4 0.0000 0.0000 0.0000 13.3886 0.0000 0.0000
# 5 0.0000 0.0000 0.0000 0.0000 -76.0668 0.0000
# 6 0.0000 0.0000 0.0000 0.0000 0.0000 17.8399
#
#
#
# Elastic Compliance Matrix: (Units=1/GPa)
#
#
# Indices 1 2 3 4 5 6 
#
# 1 0.022795 -0.006824 -0.005866 0.000000 0.000000 0.000000
# 2 -0.006824 0.018974 -0.012241 0.000000 0.000000 0.000000
# 3 -0.005866 -0.012241 0.034837 0.000000 0.000000 0.000000
# 4 0.000000 0.000000 0.000000 0.074691 0.000000 0.000000
# 5 0.000000 0.000000 0.000000 0.000000 -0.013146 0.000000
# 6 0.000000 0.000000 0.000000 0.000000 0.000000 0.056054
#
#
# Mechanical properties :
#
#
# Convention : Reuss Voigt Hill
#
# Bulk Modulus (GPa) = 37.39108 43.71615 40.55361
# Shear Modulus (GPa) = 19.76438 -2.35095 8.70672
#
# Velocity S-wave (km/s) = 3.11455 -1.07418 2.06719
# Velocity P-wave (km/s) = 5.59335 4.46291 5.05980
#
# Compressibility (1/GPa) = 0.02674435
#
# Stress axis : x y z
#
# Youngs Moduli (GPa) = 43.86959 52.70339 28.70524
#
# Poissons Ratio (x) = 0.35966 0.16838
# Poissons Ratio (y) = 0.29937 0.35138
# Poissons Ratio (z) = 0.25733 0.64513
#
# Static dielectric constant tensor:
#      x y z
#    x 1.740380 0.000000 0.000000 
#    y 0.000000 1.766360 0.000000 
#    z 0.000000 0.000000 1.699810 
# 
# From -- ./inp_files/29585.got.cif
#   From: 2010.05.17/outbox.cif.g08.bks.cpg/sg47_15_cif.got.tgz:29585.got - 2010.06.03 20:15:42.
