data_PCOD9386557
_publ_section_title
;
Structure prediction by ZEFSAII (Michael W. Deem and Ramdas Pophale) SiO2 
 PCOD9386557
Probable space group: P M M M
;
_chemical_formula_sum "Si O2"
_cell_formula_units_Z 48
_cell_length_a 14.293087
_cell_length_b 8.810692
_cell_length_c 20.987858
_cell_angle_alpha 90.000000
_cell_angle_beta 90.000000
_cell_angle_gamma 90.000000
_cell_volume 2643.042667
_symmetry_space_group_name_H-M "P M M M"
_symmetry_group_IT_number 47
_symmetry_cell_setting 'orthorhombic'
loop_
_space_group_symop_operation_xyz
x,y,z
-x,-y,z
x,-y,-z
-x,y,-z
-x,-y,-z
x,y,-z
-x,y,z
x,-y,z
loop_
_atom_site_type_symbol
_atom_site_label
_atom_site_fract_x
_atom_site_fract_y
_atom_site_fract_z
Si Si1 0.797671 0.681797 0.125809
Si Si2 0.607888 0.180791 0.672854
Si Si3 0.110228 0.817959 0.500000
Si Si4 0.109584 0.817918 0.000000
Si Si5 0.209342 0.680839 0.623730
Si Si6 0.606037 0.681551 0.812895
Si Si7 0.888148 0.821180 0.747947
O O1 0.806927 0.500000 0.122693
O O2 0.688272 0.719244 0.138026
O O3 0.851552 0.744399 0.187620
O O4 0.840084 0.754477 0.062688
O O5 0.500000 0.216616 0.656713
O O6 0.683699 0.263903 0.629633
O O7 0.622558 0.234609 0.745873
O O8 0.620859 0.000000 0.669084
O O9 0.159039 0.750863 0.562491
O O10 0.000000 0.780135 0.500000
O O11 0.118988 0.000000 0.500000
O O12 0.000000 0.773093 0.000000
O O13 0.113742 0.000000 0.000000
O O14 0.204652 0.500000 0.622032
O O15 0.158499 0.742748 0.687094
O O16 0.500000 0.716173 0.834235
O O17 0.611432 0.500000 0.800718
O O18 0.000000 0.807413 0.744120
O O19 0.864086 0.000000 0.748276
#
# Coordination Sequence:
#
# PCOD9386557 Si02
#       7
#     8   8   4   4   8   8   8
#     4  11  22  37  60  89 117 152 196 246 300 354
#     4  10  20  35  59  90 122 158 199 244 295 351
#     4  11  25  45  66  87 118 161 203 248 304 361
#     4  11  25  43  60  79 112 160 203 245 302 363
#     4  12  24  39  61  90 122 158 199 247 299 354
#     4   9  18  34  57  87 121 154 190 237 296 356
#     4  11  23  38  58  85 118 155 197 247 299 353
#
# _framework density 18.160886000000001
#
# number of rings (size 3 to 8) (size 9 to 14) (size 15 to 20)
#    0.000    1.333    1.667    4.500    0.000    8.333 
#    0.000    0.833    0.000    5.000    0.000    0.000 
#    0.000    0.000    0.000    0.000    0.000    0.000 
#
# Total GULP energy -268324.766271 kJ/mol
# GULP energy per Si atom -5590.099297 kJ/mol
# Density = 1.811955 g / cm^3
# Si number density = 18.160886 Si / 1000 Ang^3
#
#
#
# Elastic Constant Matrix: (Units=GPa)
#
#
# Indices 1 2 3 4 5 6 
#
# 1 156.0148 81.4083 91.1274 0.0000 0.0000 0.0000
# 2 81.4083 95.3796 66.0188 0.0000 0.0000 0.0000
# 3 91.1274 66.0188 155.4727 0.0000 0.0000 0.0000
# 4 0.0000 0.0000 0.0000 34.6710 0.0000 0.0000
# 5 0.0000 0.0000 0.0000 0.0000 30.1819 0.0000
# 6 0.0000 0.0000 0.0000 0.0000 0.0000 29.6070
#
#
#
# Elastic Compliance Matrix: (Units=1/GPa)
#
#
# Indices 1 2 3 4 5 6 
#
# 1 0.013243 -0.008399 -0.004196 0.000000 0.000000 0.000000
# 2 -0.008399 0.020176 -0.003644 0.000000 0.000000 0.000000
# 3 -0.004196 -0.003644 0.010439 0.000000 0.000000 0.000000
# 4 0.000000 0.000000 0.000000 0.028843 0.000000 0.000000
# 5 0.000000 0.000000 0.000000 0.000000 0.033132 0.000000
# 6 0.000000 0.000000 0.000000 0.000000 0.000000 0.033776
#
#
# Mechanical properties :
#
#
# Convention : Reuss Voigt Hill
#
# Bulk Modulus (GPa) = 87.87833 98.21955 93.04894
# Shear Modulus (GPa) = 28.42869 30.11281 29.27075
#
# Velocity S-wave (km/s) = 3.96078 4.07641 4.01901
# Velocity P-wave (km/s) = 8.33132 8.73823 8.53720
#
# Compressibility (1/GPa) = 0.01137937
#
# Stress axis : x y z
#
# Youngs Moduli (GPa) = 75.51265 49.56487 95.79802
#
# Poissons Ratio (x) = 0.41629 0.40193
# Poissons Ratio (y) = 0.63423 0.34912
# Poissons Ratio (z) = 0.31682 0.18063
#
# Static dielectric constant tensor:
#      x y z
#    x 1.642410 0.000000 0.000000 
#    y 0.000000 1.605620 0.000000 
#    z 0.000000 0.000000 1.571420 
# 
# From -- ./inp_files/28040.got.cif
#   From: 2010.05.17/outbox.cif.g08.bks.cpg/sg47_15_cif.got.tgz:28040.got - 2010.06.03 20:15:42.
