data_PCOD9386301
_publ_section_title
;
Structure prediction by ZEFSAII (Michael W. Deem and Ramdas Pophale) SiO2 
 PCOD9386301
Probable space group: P M M M
;
_chemical_formula_sum "Si O2"
_cell_formula_units_Z 48
_cell_length_a 29.933658
_cell_length_b 7.814198
_cell_length_c 9.914370
_cell_angle_alpha 90.000000
_cell_angle_beta 90.000000
_cell_angle_gamma 90.000000
_cell_volume 2319.045803
_symmetry_space_group_name_H-M "P M M M"
_symmetry_group_IT_number 47
_symmetry_cell_setting 'orthorhombic'
loop_
_space_group_symop_operation_xyz
x,y,z
-x,-y,z
x,-y,-z
-x,y,-z
-x,-y,-z
x,y,-z
-x,y,z
x,-y,z
loop_
_atom_site_type_symbol
_atom_site_label
_atom_site_fract_x
_atom_site_fract_y
_atom_site_fract_z
Si Si1 0.369160 0.709066 0.844038
Si Si2 0.448755 0.291237 0.346872
Si Si3 0.949174 0.297395 0.500000
Si Si4 0.051782 0.293554 0.000000
Si Si5 0.793633 0.300079 0.846596
Si Si6 0.888981 0.195130 0.248992
Si Si7 0.714382 0.709628 0.656393
O O1 0.369215 0.500000 0.847359
O O2 0.414277 0.764909 0.767504
O O3 0.328021 0.759577 0.747802
O O4 0.365502 0.765840 0.000000
O O5 0.435685 0.239986 0.500000
O O6 0.500000 0.237684 0.323672
O O7 0.448385 0.500000 0.346185
O O8 0.954201 0.500000 0.500000
O O9 0.918701 0.249528 0.374277
O O10 0.000000 0.224249 0.500000
O O11 0.077459 0.220214 0.126357
O O12 0.055276 0.500000 0.000000
O O13 0.000000 0.247994 0.000000
O O14 0.782069 0.500000 0.860352
O O15 0.843313 0.290838 0.786141
O O16 0.758033 0.230032 0.739177
O O17 0.792710 0.227018 0.000000
O O18 0.875448 0.000000 0.265791
O O19 0.712734 0.766587 0.500000
O O20 0.714760 0.500000 0.651240
#
# Coordination Sequence:
#
# PCOD9386301 Si02
#       7
#     8   8   4   4   8   8   8
#     4   9  15  22  33  51  78 109 148 205 266 321
#     4   8  13  20  29  42  65 103 150 200 257 321
#     4  11  25  45  67  89 117 155 195 233 276 331
#     4  11  23  41  65  91 119 155 197 233 272 329
#     4  10  20  35  55  77 105 140 179 222 270 329
#     4  12  25  40  61  90 122 153 187 233 286 336
#     4   9  17  28  44  66  88 118 163 214 266 320
#
# _framework density 20.698167999999999
#
# number of rings (size 3 to 8) (size 9 to 14) (size 15 to 20)
#    0.000    2.167    0.833    4.000    1.167    7.667 
#    0.000    1.667    0.000    0.000    0.000    0.000 
#    0.000    0.000    0.000    0.000    0.000    0.833 
#
# Total GULP energy -267865.582346 kJ/mol
# GULP energy per Si atom -5580.532966 kJ/mol
# Density = 2.065106 g / cm^3
# Si number density = 20.698168 Si / 1000 Ang^3
#
#
#
# Elastic Constant Matrix: (Units=GPa)
#
#
# Indices 1 2 3 4 5 6 
#
# 1 153.1083 -5.3942 117.5916 0.0000 0.0000 0.0000
# 2 -5.3942 25.2900 3.0793 0.0000 0.0000 0.0000
# 3 117.5916 3.0793 237.4600 0.0000 0.0000 0.0000
# 4 0.0000 0.0000 0.0000 4.6580 0.0000 0.0000
# 5 0.0000 0.0000 0.0000 0.0000 42.1394 0.0000
# 6 0.0000 0.0000 0.0000 0.0000 0.0000 -19.5605
#
#
#
# Elastic Compliance Matrix: (Units=1/GPa)
#
#
# Indices 1 2 3 4 5 6 
#
# 1 0.010755 0.002947 -0.005364 0.000000 0.000000 0.000000
# 2 0.002947 0.040411 -0.001983 0.000000 0.000000 0.000000
# 3 -0.005364 -0.001983 0.006893 0.000000 0.000000 0.000000
# 4 0.000000 0.000000 0.000000 0.214684 0.000000 0.000000
# 5 0.000000 0.000000 0.000000 0.000000 0.023731 0.000000
# 6 0.000000 0.000000 0.000000 0.000000 0.000000 -0.051123
#
#
# Mechanical properties :
#
#
# Convention : Reuss Voigt Hill
#
# Bulk Modulus (GPa) = 20.30099 71.82351 46.06225
# Shear Modulus (GPa) = 18.47940 25.48614 21.98277
#
# Velocity S-wave (km/s) = 2.99122 3.51283 3.26247
# Velocity P-wave (km/s) = 4.66469 7.15745 6.04104
#
# Compressibility (1/GPa) = 0.04925868
#
# Stress axis : x y z
#
# Youngs Moduli (GPa) = 92.98027 24.74550 145.06814
#
# Poissons Ratio (x) = -0.07293 0.77817
# Poissons Ratio (y) = -0.27402 0.28774
# Poissons Ratio (z) = 0.49876 0.04908
#
# Static dielectric constant tensor:
#      x y z
#    x 1.729070 0.000000 0.000000 
#    y 0.000000 1.764540 0.000000 
#    z 0.000000 0.000000 1.709370 
# 
# From -- ./inp_files/13928.got.cif
#   From: 2010.05.17/outbox.cif.g08.bks.cpg/sg47_7_cif.got.tgz:13928.got - 2010.06.03 20:15:42.
