data_PCOD9386674
_publ_section_title
;
Structure prediction by ZEFSAII (Michael W. Deem and Ramdas Pophale) SiO2 
 PCOD9386674
Probable space group: P M M M
;
_chemical_formula_sum "Si O2"
_cell_formula_units_Z 52
_cell_length_a 9.322472
_cell_length_b 19.043378
_cell_length_c 16.195769
_cell_angle_alpha 90.000000
_cell_angle_beta 90.000000
_cell_angle_gamma 90.000000
_cell_volume 2875.256868
_symmetry_space_group_name_H-M "P M M M"
_symmetry_group_IT_number 47
_symmetry_cell_setting 'orthorhombic'
loop_
_space_group_symop_operation_xyz
x,y,z
-x,-y,z
x,-y,-z
-x,y,-z
-x,-y,-z
x,y,-z
-x,y,z
x,-y,z
loop_
_atom_site_type_symbol
_atom_site_label
_atom_site_fract_x
_atom_site_fract_y
_atom_site_fract_z
Si Si1 0.172370 0.850659 0.341818
Si Si2 0.164335 0.701358 0.594176
Si Si3 0.670396 0.418665 0.329602
Si Si4 0.169795 0.915893 0.834314
Si Si5 0.334051 0.085562 0.000000
Si Si6 0.331788 0.915709 0.500000
Si Si7 0.163405 0.585148 0.161581
Si Si8 0.334522 0.414096 0.000000
O O1 0.199647 0.767365 0.348474
O O2 0.213203 0.880565 0.252195
O O3 0.254530 0.887181 0.417508
O O4 0.000000 0.861134 0.352459
O O5 0.170155 0.727516 0.500000
O O6 0.268640 0.636182 0.605468
O O7 0.000000 0.678778 0.610560
O O8 0.500000 0.413369 0.320253
O O9 0.704667 0.500000 0.349492
O O10 0.749583 0.399485 0.244309
O O11 0.000000 0.903054 0.846710
O O12 0.189264 0.000000 0.825741
O O13 0.255177 0.892052 0.915685
O O14 0.500000 0.106733 0.000000
O O15 0.328575 0.000000 0.000000
O O16 0.500000 0.895227 0.500000
O O17 0.323080 0.000000 0.500000
O O18 0.156949 0.500000 0.156458
O O19 0.000000 0.611209 0.164093
O O20 0.249666 0.609228 0.081268
O O21 0.335012 0.500000 0.000000
O O22 0.500000 0.391955 0.000000
#
# Coordination Sequence:
#
# PCOD9386674 Si02
#       8
#     8   8   8   8   4   4   8   4
#     4  10  20  37  58  80 108 146 189 230 274 326
#     4  10  21  38  58  79 104 135 175 223 273 330
#     4  10  21  36  54  77 104 134 172 220 274 332
#     4   9  17  30  52  81 110 144 188 232 270 313
#     4   9  17  29  47  74 111 150 184 225 275 321
#     4  11  23  35  51  81 118 151 184 225 269 316
#     4   9  16  27  45  70  99 130 165 205 251 305
#     4   9  15  23  39  66 101 136 165 197 245 307
#
# _framework density 18.085341
#
# number of rings (size 3 to 8) (size 9 to 14) (size 15 to 20)
#    0.000    2.385    0.769    2.077    0.000    7.692 
#    0.000    3.077    0.000    0.923    0.000    4.308 
#    0.000    0.000    0.000    0.000    0.000    0.000 
#
# Total GULP energy -290016.871994 kJ/mol
# GULP energy per Si atom -5577.247538 kJ/mol
# Density = 1.804418 g / cm^3
# Si number density = 18.085341 Si / 1000 Ang^3
#
#
#
# Elastic Constant Matrix: (Units=GPa)
#
#
# Indices 1 2 3 4 5 6 
#
# 1 91.8613 44.4560 61.7012 0.0000 0.0000 0.0000
# 2 44.4560 43.7211 42.0422 0.0000 0.0000 0.0000
# 3 61.7012 42.0422 132.8044 0.0000 0.0000 0.0000
# 4 0.0000 0.0000 0.0000 13.0899 0.0000 0.0000
# 5 0.0000 0.0000 0.0000 0.0000 13.9184 0.0000
# 6 0.0000 0.0000 0.0000 0.0000 0.0000 16.8093
#
#
#
# Elastic Compliance Matrix: (Units=1/GPa)
#
#
# Indices 1 2 3 4 5 6 
#
# 1 0.023381 -0.019161 -0.004797 0.000000 0.000000 0.000000
# 2 -0.019161 0.048585 -0.006478 0.000000 0.000000 0.000000
# 3 -0.004797 -0.006478 0.011809 0.000000 0.000000 0.000000
# 4 0.000000 0.000000 0.000000 0.076395 0.000000 0.000000
# 5 0.000000 0.000000 0.000000 0.000000 0.071848 0.000000
# 6 0.000000 0.000000 0.000000 0.000000 0.000000 0.059491
#
#
# Mechanical properties :
#
#
# Convention : Reuss Voigt Hill
#
# Bulk Modulus (GPa) = 43.66347 62.75395 53.20871
# Shear Modulus (GPa) = 13.88827 16.77599 15.33213
#
# Velocity S-wave (km/s) = 2.77416 3.04896 2.91480
# Velocity P-wave (km/s) = 5.86998 6.86797 6.38849
#
# Compressibility (1/GPa) = 0.02290244
#
# Stress axis : x y z
#
# Youngs Moduli (GPa) = 42.76975 20.58248 84.67833
#
# Poissons Ratio (x) = 0.39439 0.40620
# Poissons Ratio (y) = 0.81952 0.54857
# Poissons Ratio (z) = 0.20516 0.13334
#
# Static dielectric constant tensor:
#      x y z
#    x 1.611520 0.000000 0.000000 
#    y 0.000000 1.607520 0.000000 
#    z 0.000000 0.000000 1.624520 
# 
# From -- ./inp_files/21551.got.cif
#   From: 2010.05.17/outbox.cif.g08.bks.cpg/sg47_11_cif.got.tgz:21551.got - 2010.06.03 20:15:42.
