data_PCOD9386537
_publ_section_title
;
Structure prediction by ZEFSAII (Michael W. Deem and Ramdas Pophale) SiO2 
 PCOD9386537
Probable space group: P M M M
;
_chemical_formula_sum "Si O2"
_cell_formula_units_Z 64
_cell_length_a 14.827470
_cell_length_b 8.892080
_cell_length_c 25.250288
_cell_angle_alpha 90.000000
_cell_angle_beta 90.000000
_cell_angle_gamma 90.000000
_cell_volume 3329.175970
_symmetry_space_group_name_H-M "P M M M"
_symmetry_group_IT_number 47
_symmetry_cell_setting 'orthorhombic'
loop_
_space_group_symop_operation_xyz
x,y,z
-x,-y,z
x,-y,-z
-x,y,-z
-x,-y,-z
x,y,-z
-x,y,z
x,-y,z
loop_
_atom_site_type_symbol
_atom_site_label
_atom_site_fract_x
_atom_site_fract_y
_atom_site_fract_z
Si Si1 0.397704 0.323471 0.791787
Si Si2 0.400759 0.821077 0.906921
Si Si3 0.606133 0.819391 0.439381
Si Si4 0.893725 0.680012 0.839004
Si Si5 0.755977 0.674871 0.632818
Si Si6 0.776168 0.177881 0.745194
Si Si7 0.105343 0.169466 0.563230
Si Si8 0.201858 0.180688 0.058362
O O1 0.500000 0.301142 0.772289
O O2 0.375124 0.500000 0.787114
O O3 0.396304 0.273611 0.853034
O O4 0.324654 0.223578 0.762580
O O5 0.500000 0.793639 0.931637
O O6 0.309450 0.788510 0.938328
O O7 0.397654 0.000000 0.894097
O O8 0.632445 0.776139 0.500000
O O9 0.500000 0.784811 0.433054
O O10 0.667243 0.742693 0.395158
O O11 0.616293 0.000000 0.435885
O O12 0.884127 0.500000 0.837799
O O13 0.842957 0.748682 0.788227
O O14 0.847629 0.742646 0.892449
O O15 0.000000 0.717485 0.838364
O O16 0.742766 0.500000 0.643699
O O17 0.785183 0.757629 0.686433
O O18 0.835296 0.706866 0.591251
O O19 0.788123 0.000000 0.746032
O O20 0.113396 0.179210 0.500000
O O21 0.000000 0.182346 0.576675
O O22 0.136202 0.000000 0.578618
O O23 0.190818 0.000000 0.063017
O O24 0.168692 0.227114 0.000000
#
# Coordination Sequence:
#
# PCOD9386537 Si02
#       8
#     8   8   8   8   8   8   8   8
#     4  10  20  35  58  87 119 153 189 234 287 343
#     4   9  17  31  54  85 121 161 200 235 278 336
#     4   9  19  38  63  89 121 165 214 259 302 352
#     4  11  25  45  67  89 116 152 196 249 312 374
#     4  12  25  38  57  88 125 160 196 245 302 358
#     4  12  25  42  64  87 115 155 201 247 298 359
#     4   9  19  38  63  88 116 153 196 241 290 347
#     4  10  21  37  60  92 127 163 203 247 293 347
#
# _framework density 19.223977000000001
#
# number of rings (size 3 to 8) (size 9 to 14) (size 15 to 20)
#    0.000    1.750    1.250    4.125    0.000    6.000 
#    0.000    3.750    0.000    0.000    0.000    2.625 
#    0.000    0.000    0.000    0.000    0.000    0.000 
#
# Total GULP energy -357429.727759 kJ/mol
# GULP energy per Si atom -5584.839496 kJ/mol
# Density = 1.918022 g / cm^3
# Si number density = 19.223977 Si / 1000 Ang^3
#
#
#
# Elastic Constant Matrix: (Units=GPa)
#
#
# Indices 1 2 3 4 5 6 
#
# 1 94.5357 49.1358 54.0386 0.0000 0.0000 0.0000
# 2 49.1358 73.7354 43.2760 0.0000 0.0000 0.0000
# 3 54.0386 43.2760 88.7104 0.0000 0.0000 0.0000
# 4 0.0000 0.0000 0.0000 61.2259 0.0000 0.0000
# 5 0.0000 0.0000 0.0000 0.0000 78.8308 0.0000
# 6 0.0000 0.0000 0.0000 0.0000 0.0000 73.1559
#
#
#
# Elastic Compliance Matrix: (Units=1/GPa)
#
#
# Indices 1 2 3 4 5 6 
#
# 1 0.019319 -0.008361 -0.007690 0.000000 0.000000 0.000000
# 2 -0.008361 0.022621 -0.005942 0.000000 0.000000 0.000000
# 3 -0.007690 -0.005942 0.018856 0.000000 0.000000 0.000000
# 4 0.000000 0.000000 0.000000 0.016333 0.000000 0.000000
# 5 0.000000 0.000000 0.000000 0.000000 0.012685 0.000000
# 6 0.000000 0.000000 0.000000 0.000000 0.000000 0.013669
#
#
# Mechanical properties :
#
#
# Convention : Reuss Voigt Hill
#
# Bulk Modulus (GPa) = 59.48712 61.09804 60.29258
# Shear Modulus (GPa) = 32.66416 50.01126 41.33771
#
# Velocity S-wave (km/s) = 4.12653 5.10603 4.64219
# Velocity P-wave (km/s) = 7.32910 8.16169 7.75658
#
# Compressibility (1/GPa) = 0.01681036
#
# Stress axis : x y z
#
# Youngs Moduli (GPa) = 51.76195 44.20668 53.03406
#
# Poissons Ratio (x) = 0.36960 0.40782
# Poissons Ratio (y) = 0.43277 0.31515
# Poissons Ratio (z) = 0.39804 0.26269
#
# Static dielectric constant tensor:
#      x y z
#    x 1.681290 0.000000 0.000000 
#    y 0.000000 1.648530 0.000000 
#    z 0.000000 0.000000 1.678360 
# 
# From -- ./inp_files/32808.got.cif
#   From: 2010.05.17/outbox.cif.g08.bks.cpg/sg47_17_cif.got.tgz:32808.got - 2010.06.03 20:15:42.
