data_PCOD9386904
_publ_section_title
;
Structure prediction by ZEFSAII (Michael W. Deem and Ramdas Pophale) SiO2 
 PCOD9386904
Probable space group: P M M M
;
_chemical_formula_sum "Si O2"
_cell_formula_units_Z 56
_cell_length_a 14.823043
_cell_length_b 22.068510
_cell_length_c 7.462274
_cell_angle_alpha 90.000000
_cell_angle_beta 90.000000
_cell_angle_gamma 90.000000
_cell_volume 2441.077523
_symmetry_space_group_name_H-M "P M M M"
_symmetry_group_IT_number 47
_symmetry_cell_setting 'orthorhombic'
loop_
_space_group_symop_operation_xyz
x,y,z
-x,-y,z
x,-y,-z
-x,y,-z
-x,-y,-z
x,y,-z
-x,y,z
x,-y,z
loop_
_atom_site_type_symbol
_atom_site_label
_atom_site_fract_x
_atom_site_fract_y
_atom_site_fract_z
Si Si1 0.105971 0.685086 0.717546
Si Si2 0.896908 0.182707 0.714387
Si Si3 0.603207 0.867445 0.219639
Si Si4 0.224036 0.933997 0.785800
Si Si5 0.390873 0.264240 0.203920
Si Si6 0.399394 0.399164 0.704771
Si Si7 0.791192 0.434455 0.280121
O O1 0.112286 0.683944 0.500000
O O2 0.139651 0.751637 0.778251
O O3 0.157199 0.625482 0.782186
O O4 0.000000 0.681781 0.762401
O O5 0.901404 0.187630 0.500000
O O6 0.839883 0.123098 0.752072
O O7 0.000000 0.175983 0.780343
O O8 0.500000 0.877787 0.276278
O O9 0.675584 0.916638 0.277877
O O10 0.637454 0.800721 0.279371
O O11 0.602066 0.865044 0.000000
O O12 0.194334 0.000000 0.717487
O O13 0.229524 0.938199 0.000000
O O14 0.500000 0.258681 0.199101
O O15 0.374013 0.327623 0.298335
O O16 0.358620 0.270410 0.000000
O O17 0.406622 0.420073 0.500000
O O18 0.500000 0.405253 0.785571
O O19 0.312401 0.430943 0.783946
O O20 0.789883 0.432248 0.500000
O O21 0.830520 0.500000 0.230674
#
# Coordination Sequence:
#
# PCOD9386904 Si02
#       7
#     8   8   8   8   8   8   8
#     4   8  15  29  48  69  92 119 155 199 242 284
#     4   9  19  36  56  75  97 130 168 204 248 303
#     4   8  15  29  48  70  98 131 165 200 240 290
#     4  10  21  34  50  77 107 132 163 205 250 292
#     4   8  14  26  44  64  86 117 158 198 233 271
#     4   9  17  27  40  63  95 126 156 191 231 276
#     4   9  17  27  41  65  95 126 158 192 235 284
#
# _framework density 22.940688999999999
#
# number of rings (size 3 to 8) (size 9 to 14) (size 15 to 20)
#    0.000    3.286    0.000    1.714    2.000    1.714 
#    0.000    5.714    0.000    0.857    0.000    3.000 
#    0.000    0.000    0.000    4.429    0.000    4.571 
#
# Total GULP energy -312338.283910 kJ/mol
# GULP energy per Si atom -5577.469356 kJ/mol
# Density = 2.288847 g / cm^3
# Si number density = 22.940689 Si / 1000 Ang^3
#
#
#
# Elastic Constant Matrix: (Units=GPa)
#
#
# Indices 1 2 3 4 5 6 
#
# 1 91.0765 95.2645 2.0966 0.0000 0.0000 0.0000
# 2 95.2645 220.7356 6.5298 0.0000 0.0000 0.0000
# 3 2.0966 6.5298 66.6374 0.0000 0.0000 0.0000
# 4 0.0000 0.0000 0.0000 15.1982 0.0000 0.0000
# 5 0.0000 0.0000 0.0000 0.0000 6.0500 0.0000
# 6 0.0000 0.0000 0.0000 0.0000 0.0000 7.0916
#
#
#
# Elastic Compliance Matrix: (Units=1/GPa)
#
#
# Indices 1 2 3 4 5 6 
#
# 1 0.020018 -0.008646 0.000217 0.000000 0.000000 0.000000
# 2 -0.008646 0.008278 -0.000539 0.000000 0.000000 0.000000
# 3 0.000217 -0.000539 0.015053 0.000000 0.000000 0.000000
# 4 0.000000 0.000000 0.000000 0.065797 0.000000 0.000000
# 5 0.000000 0.000000 0.000000 0.000000 0.165288 0.000000
# 6 0.000000 0.000000 0.000000 0.000000 0.000000 0.141011
#
#
# Mechanical properties :
#
#
# Convention : Reuss Voigt Hill
#
# Bulk Modulus (GPa) = 39.34953 65.13680 52.24317
# Shear Modulus (GPa) = 11.31602 23.97187 17.64395
#
# Velocity S-wave (km/s) = 2.22338 3.23608 2.77629
# Velocity P-wave (km/s) = 4.87660 6.51292 5.75323
#
# Compressibility (1/GPa) = 0.02541326
#
# Stress axis : x y z
#
# Youngs Moduli (GPa) = 49.95460 120.80797 66.43377
#
# Poissons Ratio (x) = 1.04448 -0.01444
# Poissons Ratio (y) = 0.43190 0.03581
# Poissons Ratio (z) = -0.01086 0.06513
#
# Static dielectric constant tensor:
#      x y z
#    x 1.847810 0.000000 0.000000 
#    y 0.000000 1.889180 0.000000 
#    z 0.000000 0.000000 1.875450 
# 
# From -- ./inp_files/7331.got.cif
#   From: 2010.05.17/outbox.cif.g08.bks.cpg/sg47_4_cif.got.tgz:7331.got - 2010.06.03 20:15:42.
