data_PCOD9386901
_publ_section_title
;
Structure prediction by ZEFSAII (Michael W. Deem and Ramdas Pophale) SiO2 
 PCOD9386901
Probable space group: P M M M
;
_chemical_formula_sum "Si O2"
_cell_formula_units_Z 40
_cell_length_a 23.219943
_cell_length_b 10.766158
_cell_length_c 8.865171
_cell_angle_alpha 90.000000
_cell_angle_beta 90.000000
_cell_angle_gamma 90.000000
_cell_volume 2216.200331
_symmetry_space_group_name_H-M "P M M M"
_symmetry_group_IT_number 47
_symmetry_cell_setting 'orthorhombic'
loop_
_space_group_symop_operation_xyz
x,y,z
-x,-y,z
x,-y,-z
-x,y,-z
-x,-y,-z
x,y,-z
-x,y,z
x,-y,z
loop_
_atom_site_type_symbol
_atom_site_label
_atom_site_fract_x
_atom_site_fract_y
_atom_site_fract_z
Si Si1 0.313788 0.635552 0.181964
Si Si2 0.000000 0.848335 0.674489
Si Si3 0.434892 0.728818 0.815690
Si Si4 0.118213 0.849752 0.828587
Si Si5 0.569520 0.000000 0.830366
Si Si6 0.759934 0.856670 0.319730
O O1 0.290808 0.500000 0.228541
O O2 0.381586 0.642753 0.222457
O O3 0.281695 0.753466 0.250601
O O4 0.309917 0.643773 0.000000
O O5 0.941533 0.806037 0.755670
O O6 0.000000 0.811865 0.500000
O O7 0.000000 0.000000 0.678560
O O8 0.500000 0.696460 0.766930
O O9 0.418055 0.867311 0.758808
O O10 0.437316 0.736216 0.000000
O O11 0.175236 0.824005 0.732811
O O12 0.114288 0.000000 0.833801
O O13 0.124766 0.804793 0.000000
O O14 0.500000 0.000000 0.844554
O O15 0.594768 0.000000 0.000000
O O16 0.756485 0.854673 0.500000
O O17 0.747624 0.000000 0.269602
#
# Coordination Sequence:
#
# PCOD9386901 Si02
#       6
#     8   4   8   8   4   8
#     4  10  21  34  50  76 105 133 169 212 261 317
#     4   9  15  23  39  67 106 145 174 205 250 305
#     4   8  14  25  43  69 100 129 159 202 256 311
#     4   9  16  27  45  71 102 135 172 215 262 306
#     4   7  10  18  34  60  91 121 153 188 233 292
#     4  10  21  36  53  73  99 135 179 221 262 311
#
# _framework density 18.048909999999999
#
# number of rings (size 3 to 8) (size 9 to 14) (size 15 to 20)
#    0.000    3.000    0.000    2.700    1.400    5.600 
#    0.000    2.000    0.000    0.600    0.000    3.500 
#    0.000    5.600    0.000    0.000    0.000    0.000 
#
# Total GULP energy -222677.453372 kJ/mol
# GULP energy per Si atom -5566.936334 kJ/mol
# Density = 1.800783 g / cm^3
# Si number density = 18.048910 Si / 1000 Ang^3
#
#
#
# Elastic Constant Matrix: (Units=GPa)
#
#
# Indices 1 2 3 4 5 6 
#
# 1 114.4097 60.9849 28.9974 0.0000 0.0000 0.0000
# 2 60.9849 91.5055 32.1918 0.0000 0.0000 0.0000
# 3 28.9974 32.1918 42.5350 0.0000 0.0000 0.0000
# 4 0.0000 0.0000 0.0000 12.0271 0.0000 0.0000
# 5 0.0000 0.0000 0.0000 0.0000 -86.6989 0.0000
# 6 0.0000 0.0000 0.0000 0.0000 0.0000 1.3992
#
#
#
# Elastic Compliance Matrix: (Units=1/GPa)
#
#
# Indices 1 2 3 4 5 6 
#
# 1 0.013900 -0.008082 -0.003359 0.000000 0.000000 0.000000
# 2 -0.008082 0.019593 -0.009319 0.000000 0.000000 0.000000
# 3 -0.003359 -0.009319 0.032853 0.000000 0.000000 0.000000
# 4 0.000000 0.000000 0.000000 0.083145 0.000000 0.000000
# 5 0.000000 0.000000 0.000000 0.000000 -0.011534 0.000000
# 6 0.000000 0.000000 0.000000 0.000000 0.000000 0.714712
#
#
# Mechanical properties :
#
#
# Convention : Reuss Voigt Hill
#
# Bulk Modulus (GPa) = 40.28096 54.75540 47.51818
# Shear Modulus (GPa) = 5.54039 -6.23610 -0.34786
#
# Velocity S-wave (km/s) = 1.75394 -1.86081 -0.43949
# Velocity P-wave (km/s) = 5.14469 5.07802 5.11146
#
# Compressibility (1/GPa) = 0.02482563
#
# Stress axis : x y z
#
# Youngs Moduli (GPa) = 71.94263 51.03856 30.43860
#
# Poissons Ratio (x) = 0.41249 0.10225
# Poissons Ratio (y) = 0.58144 0.28365
# Poissons Ratio (z) = 0.24168 0.47562
#
# Static dielectric constant tensor:
#      x y z
#    x 1.623510 0.000000 0.000000 
#    y 0.000000 1.634020 0.000000 
#    z 0.000000 0.000000 1.623970 
# 
# From -- ./inp_files/10648.got.cif
#   From: 2010.05.17/outbox.cif.g08.bks.cpg/sg47_6_cif.got.tgz:10648.got - 2010.06.03 20:15:42.
