data_PCOD9386589
_publ_section_title
;
Structure prediction by ZEFSAII (Michael W. Deem and Ramdas Pophale) SiO2 
 PCOD9386589
Probable space group: P M M M
;
_chemical_formula_sum "Si O2"
_cell_formula_units_Z 29
_cell_length_a 7.420343
_cell_length_b 18.116868
_cell_length_c 9.988443
_cell_angle_alpha 90.000000
_cell_angle_beta 90.000000
_cell_angle_gamma 90.000000
_cell_volume 1342.780100
_symmetry_space_group_name_H-M "P M M M"
_symmetry_group_IT_number 47
_symmetry_cell_setting 'orthorhombic'
loop_
_space_group_symop_operation_xyz
x,y,z
-x,-y,z
x,-y,-z
-x,y,-z
-x,-y,-z
x,y,-z
-x,y,z
x,-y,z
loop_
_atom_site_type_symbol
_atom_site_label
_atom_site_fract_x
_atom_site_fract_y
_atom_site_fract_z
Si Si1 0.280461 0.084363 0.652175
Si Si2 0.282022 0.343620 0.351221
Si Si3 0.500000 0.500000 0.000000
Si Si4 0.199139 0.500000 0.767423
Si Si5 0.720408 0.214892 0.846152
O O1 0.225871 0.103783 0.500000
O O2 0.500000 0.085030 0.652627
O O3 0.221846 0.143216 0.762053
O O4 0.224877 0.000000 0.679369
O O5 0.224741 0.320244 0.500000
O O6 0.500000 0.342833 0.349392
O O7 0.222749 0.426326 0.319931
O O8 0.222376 0.287087 0.236402
O O9 0.345352 0.500000 0.883084
O O10 0.000000 0.500000 0.825457
O O11 0.500000 0.214893 0.847690
O O12 0.779332 0.214966 0.000000
#
# Coordination Sequence:
#
# PCOD9386589 Si02
#       5
#     8   8   1   4   8
#     4   8  13  22  36  57  90 134 188 249 308 366
#     4  10  20  36  58  82 115 157 203 257 312 366
#     4  12  26  48  66  94 136 160 194 256 308 370
#     4  12  26  42  68  95 122 165 207 250 305 365
#     4   9  17  26  42  67 100 145 195 246 307 375
#
# _framework density 21.596985
#
# number of rings (size 3 to 8) (size 9 to 14) (size 15 to 20)
#    0.000    2.483    1.379    2.276    1.931    6.069 
#    0.000    2.759    0.000    0.000    0.000    0.000 
#    0.000    1.103    0.000    8.276    0.000   11.862 
#
# Total GULP energy -161799.528768 kJ/mol
# GULP energy per Si atom -5579.294095 kJ/mol
# Density = 2.154783 g / cm^3
# Si number density = 21.596985 Si / 1000 Ang^3
#
#
#
# Elastic Constant Matrix: (Units=GPa)
#
#
# Indices 1 2 3 4 5 6 
#
# 1 96.4164 -0.0568 23.6533 0.0000 0.0000 0.0000
# 2 -0.0568 176.0817 131.7435 0.0000 0.0000 0.0000
# 3 23.6533 131.7435 216.6186 0.0000 0.0000 0.0000
# 4 0.0000 0.0000 0.0000 -12.6836 0.0000 0.0000
# 5 0.0000 0.0000 0.0000 0.0000 150.2876 0.0000
# 6 0.0000 0.0000 0.0000 0.0000 0.0000 -9.4244
#
#
#
# Elastic Compliance Matrix: (Units=1/GPa)
#
#
# Indices 1 2 3 4 5 6 
#
# 1 0.010910 0.001642 -0.002190 0.000000 0.000000 0.000000
# 2 0.001642 0.010668 -0.006668 0.000000 0.000000 0.000000
# 3 -0.002190 -0.006668 0.008911 0.000000 0.000000 0.000000
# 4 0.000000 0.000000 0.000000 -0.078842 0.000000 0.000000
# 5 0.000000 0.000000 0.000000 0.000000 0.006654 0.000000
# 6 0.000000 0.000000 0.000000 0.000000 0.000000 -0.106107
#
#
# Mechanical properties :
#
#
# Convention : Reuss Voigt Hill
#
# Bulk Modulus (GPa) = 62.27477 88.86632 75.57054
# Shear Modulus (GPa) = -39.05553 47.88771 4.41609
#
# Velocity S-wave (km/s) = -4.25712 4.71396 1.43151
# Velocity P-wave (km/s) = 2.17565 8.41817 6.14813
#
# Compressibility (1/GPa) = 0.01605787
#
# Stress axis : x y z
#
# Youngs Moduli (GPa) = 91.65996 93.73486 112.22520
#
# Poissons Ratio (x) = -0.15391 0.24577
# Poissons Ratio (y) = -0.15051 0.74827
# Poissons Ratio (z) = 0.20073 0.62499
#
# Static dielectric constant tensor:
#      x y z
#    x 1.788890 0.000000 0.000000 
#    y 0.000000 1.750010 0.000000 
#    z 0.000000 0.000000 1.730450 
# 
# From -- ./inp_files/1011.got.cif
#   From: 2010.05.17/outbox.cif.g08.bks.cpg/sg47_1_cif.got.tgz:1011.got - 2010.06.03 20:15:42.
