data_PCOD9386554
_publ_section_title
;
Structure prediction by ZEFSAII (Michael W. Deem and Ramdas Pophale) SiO2 
 PCOD9386554
Probable space group: P M M M
;
_chemical_formula_sum "Si O2"
_cell_formula_units_Z 64
_cell_length_a 14.826120
_cell_length_b 25.910666
_cell_length_c 8.843543
_cell_angle_alpha 90.000000
_cell_angle_beta 90.000000
_cell_angle_gamma 90.000000
_cell_volume 3397.288108
_symmetry_space_group_name_H-M "P M M M"
_symmetry_group_IT_number 47
_symmetry_cell_setting 'orthorhombic'
loop_
_space_group_symop_operation_xyz
x,y,z
-x,-y,z
x,-y,-z
-x,y,-z
-x,-y,-z
x,y,-z
-x,y,z
x,-y,z
loop_
_atom_site_type_symbol
_atom_site_label
_atom_site_fract_x
_atom_site_fract_y
_atom_site_fract_z
Si Si1 0.783750 0.749082 0.820077
Si Si2 0.215062 0.558724 0.681465
Si Si3 0.893953 0.155215 0.318878
Si Si4 0.398302 0.218976 0.680525
Si Si5 0.598249 0.562650 0.822887
Si Si6 0.399494 0.104919 0.181080
Si Si7 0.104169 0.343911 0.317427
Si Si8 0.208165 0.058509 0.817798
O O1 0.836191 0.798947 0.754994
O O2 0.681730 0.750416 0.759451
O O3 0.835044 0.698989 0.760199
O O4 0.784082 0.751411 0.000000
O O5 0.216129 0.556463 0.500000
O O6 0.201391 0.500000 0.738036
O O7 0.312477 0.578861 0.735939
O O8 0.139167 0.599357 0.726705
O O9 0.885290 0.158509 0.500000
O O10 0.853318 0.101337 0.260577
O O11 0.000000 0.159904 0.280342
O O12 0.387867 0.221060 0.500000
O O13 0.500000 0.236296 0.719654
O O14 0.390471 0.159602 0.735246
O O15 0.500000 0.580851 0.766713
O O16 0.596922 0.500000 0.813115
O O17 0.605806 0.575806 0.000000
O O18 0.500000 0.083705 0.214789
O O19 0.313318 0.070190 0.218841
O O20 0.395969 0.114356 0.000000
O O21 0.112323 0.339110 0.500000
O O22 0.000000 0.336548 0.277628
O O23 0.185144 0.000000 0.774729
O O24 0.198879 0.063239 0.000000
#
# Coordination Sequence:
#
# PCOD9386554 Si02
#       8
#     8   8   8   8   8   8   8   8
#     4  12  24  39  62  89 116 146 185 235 288 342
#     4   9  18  33  55  84 115 148 188 232 279 333
#     4  11  24  41  61  83 108 145 193 241 294 352
#     4  10  20  35  59  89 119 151 186 226 276 336
#     4   8  14  26  46  73 106 145 186 225 268 321
#     4   9  17  31  53  82 116 153 191 229 273 330
#     4  10  22  40  60  83 114 151 190 235 287 340
#     4  10  21  36  55  83 118 155 194 237 286 339
#
# _framework density 18.838554999999999
#
# number of rings (size 3 to 8) (size 9 to 14) (size 15 to 20)
#    0.000    2.125    1.250    2.625    0.000    5.250 
#    0.000    5.625    0.000    0.750    0.000    5.250 
#    0.000    0.000    0.000    0.000    0.000    0.000 
#
# Total GULP energy -357214.677729 kJ/mol
# GULP energy per Si atom -5581.479340 kJ/mol
# Density = 1.879568 g / cm^3
# Si number density = 18.838555 Si / 1000 Ang^3
#
#
#
# Elastic Constant Matrix: (Units=GPa)
#
#
# Indices 1 2 3 4 5 6 
#
# 1 133.6341 67.0302 52.2676 0.0000 0.0000 0.0000
# 2 67.0302 88.6929 37.2292 0.0000 0.0000 0.0000
# 3 52.2676 37.2292 39.2235 0.0000 0.0000 0.0000
# 4 0.0000 0.0000 0.0000 28.2158 0.0000 0.0000
# 5 0.0000 0.0000 0.0000 0.0000 12.8663 0.0000
# 6 0.0000 0.0000 0.0000 0.0000 0.0000 5.6586
#
#
#
# Elastic Compliance Matrix: (Units=1/GPa)
#
#
# Indices 1 2 3 4 5 6 
#
# 1 0.017153 -0.005600 -0.017542 0.000000 0.000000 0.000000
# 2 -0.005600 0.020570 -0.012062 0.000000 0.000000 0.000000
# 3 -0.017542 -0.012062 0.060320 0.000000 0.000000 0.000000
# 4 0.000000 0.000000 0.000000 0.035441 0.000000 0.000000
# 5 0.000000 0.000000 0.000000 0.000000 0.077722 0.000000
# 6 0.000000 0.000000 0.000000 0.000000 0.000000 0.176724
#
#
# Mechanical properties :
#
#
# Convention : Reuss Voigt Hill
#
# Bulk Modulus (GPa) = 36.18653 63.84493 50.01573
# Shear Modulus (GPa) = 10.69403 16.34970 13.52186
#
# Velocity S-wave (km/s) = 2.38516 2.94918 2.68204
# Velocity P-wave (km/s) = 5.18033 6.74989 6.01651
#
# Compressibility (1/GPa) = 0.02763459
#
# Stress axis : x y z
#
# Youngs Moduli (GPa) = 58.29717 48.61380 16.57834
#
# Poissons Ratio (x) = 0.27225 0.29082
# Poissons Ratio (y) = 0.32648 0.19996
# Poissons Ratio (z) = 1.02267 0.58636
#
# Static dielectric constant tensor:
#      x y z
#    x 1.662840 0.000000 0.000000 
#    y 0.000000 1.641040 0.000000 
#    z 0.000000 0.000000 1.630350 
# 
# From -- ./inp_files/7787.got.cif
#   From: 2010.05.17/outbox.cif.g08.bks.cpg/sg47_4_cif.got.tgz:7787.got - 2010.06.03 20:15:42.
