data_PCOD9386896
_publ_section_title
;
Structure prediction by ZEFSAII (Michael W. Deem and Ramdas Pophale) SiO2 
 PCOD9386896
Probable space group: P M M M
;
_chemical_formula_sum "Si O2"
_cell_formula_units_Z 64
_cell_length_a 14.497366
_cell_length_b 7.967514
_cell_length_c 27.481004
_cell_angle_alpha 90.000000
_cell_angle_beta 90.000000
_cell_angle_gamma 90.000000
_cell_volume 3174.274891
_symmetry_space_group_name_H-M "P M M M"
_symmetry_group_IT_number 47
_symmetry_cell_setting 'orthorhombic'
loop_
_space_group_symop_operation_xyz
x,y,z
-x,-y,z
x,-y,-z
-x,y,-z
-x,-y,-z
x,y,-z
-x,y,z
x,-y,z
loop_
_atom_site_type_symbol
_atom_site_label
_atom_site_fract_x
_atom_site_fract_y
_atom_site_fract_z
Si Si1 0.892658 0.204826 0.054277
Si Si2 0.890493 0.703253 0.351580
Si Si3 0.387963 0.192391 0.293661
Si Si4 0.105322 0.299146 0.754526
Si Si5 0.395697 0.304192 0.812529
Si Si6 0.210487 0.804431 0.851124
Si Si7 0.212372 0.700773 0.552977
Si Si8 0.605848 0.203638 0.400071
O O1 0.831995 0.268009 0.099250
O O2 0.000000 0.249173 0.061974
O O3 0.888361 0.000000 0.053564
O O4 0.865085 0.261511 0.000000
O O5 0.879674 0.500000 0.352291
O O6 0.858183 0.763888 0.298045
O O7 0.839904 0.770325 0.399507
O O8 0.000000 0.736990 0.354271
O O9 0.500000 0.189188 0.296480
O O10 0.365572 0.285970 0.244027
O O11 0.361038 0.263311 0.346266
O O12 0.356419 0.000000 0.288745
O O13 0.100426 0.500000 0.749991
O O14 0.163992 0.263403 0.802121
O O15 0.000000 0.236580 0.760953
O O16 0.500000 0.235506 0.816491
O O17 0.397838 0.500000 0.824102
O O18 0.319548 0.219757 0.845824
O O19 0.188930 0.000000 0.851465
O O20 0.183087 0.766604 0.500000
O O21 0.197950 0.500000 0.552382
O O22 0.320377 0.735498 0.561348
O O23 0.500000 0.256744 0.408568
O O24 0.605873 0.000000 0.398325
#
# Coordination Sequence:
#
# PCOD9386896 Si02
#       8
#     8   8   8   8   8   8   8   8
#     4   8  15  30  52  78 109 143 178 217 260 306
#     4   8  16  33  54  73  96 129 166 204 250 303
#     4   8  15  30  50  71  95 123 161 209 255 300
#     4   9  18  33  52  75 106 140 171 207 255 315
#     4  10  21  35  50  71 103 143 182 216 256 310
#     4  11  21  31  51  82 111 140 176 220 264 307
#     4  10  21  34  50  75 100 124 165 217 257 296
#     4   9  19  35  53  72  97 130 164 200 250 313
#
# _framework density 20.162085000000001
#
# number of rings (size 3 to 8) (size 9 to 14) (size 15 to 20)
#    0.000    2.875    0.000    3.000    1.750    3.000 
#    0.000    3.750    0.000    3.000    0.000    7.875 
#    0.000    0.000    0.000    0.000    0.000    0.000 
#
# Total GULP energy -356936.221204 kJ/mol
# GULP energy per Si atom -5577.128456 kJ/mol
# Density = 2.011620 g / cm^3
# Si number density = 20.162085 Si / 1000 Ang^3
#
#
#
# Elastic Constant Matrix: (Units=GPa)
#
#
# Indices 1 2 3 4 5 6 
#
# 1 63.2492 -3.5113 76.8710 0.0000 0.0000 0.0000
# 2 -3.5113 13.7913 9.1068 0.0000 0.0000 0.0000
# 3 76.8710 9.1068 175.5109 0.0000 0.0000 0.0000
# 4 0.0000 0.0000 0.0000 16.5073 0.0000 0.0000
# 5 0.0000 0.0000 0.0000 0.0000 31.1694 0.0000
# 6 0.0000 0.0000 0.0000 0.0000 0.0000 10.3602
#
#
#
# Elastic Compliance Matrix: (Units=1/GPa)
#
#
# Indices 1 2 3 4 5 6 
#
# 1 0.039436 0.022207 -0.018425 0.000000 0.000000 0.000000
# 2 0.022207 0.087587 -0.014271 0.000000 0.000000 0.000000
# 3 -0.018425 -0.014271 0.014508 0.000000 0.000000 0.000000
# 4 0.000000 0.000000 0.000000 0.060579 0.000000 0.000000
# 5 0.000000 0.000000 0.000000 0.000000 0.032083 0.000000
# 6 0.000000 0.000000 0.000000 0.000000 0.000000 0.096523
#
#
# Mechanical properties :
#
#
# Convention : Reuss Voigt Hill
#
# Bulk Modulus (GPa) = 8.29506 46.38715 27.34111
# Shear Modulus (GPa) = 12.75908 22.94639 17.85273
#
# Velocity S-wave (km/s) = 2.51833 3.37723 2.97890
# Velocity P-wave (km/s) = 3.54670 6.18584 5.04201
#
# Compressibility (1/GPa) = 0.12055366
#
# Stress axis : x y z
#
# Youngs Moduli (GPa) = 25.35756 11.41720 68.92837
#
# Poissons Ratio (x) = -0.25354 1.26998
# Poissons Ratio (y) = -0.56311 0.98367
# Poissons Ratio (z) = 0.46720 0.16293
#
# Static dielectric constant tensor:
#      x y z
#    x 1.729890 0.000000 0.000000 
#    y 0.000000 1.728860 0.000000 
#    z 0.000000 0.000000 1.746350 
# 
# From -- ./inp_files/21942.got.cif
#   From: 2010.05.17/outbox.cif.g08.bks.cpg/sg47_11_cif.got.tgz:21942.got - 2010.06.03 20:15:42.
