data_PCOD9386088
_publ_section_title
;
Structure prediction by ZEFSAII (Michael W. Deem and Ramdas Pophale) SiO2 
 PCOD9386088
Probable space group: P M M M
;
_chemical_formula_sum "Si O2"
_cell_formula_units_Z 48
_cell_length_a 13.977327
_cell_length_b 9.214198
_cell_length_c 20.026212
_cell_angle_alpha 90.000000
_cell_angle_beta 90.000000
_cell_angle_gamma 90.000000
_cell_volume 2579.173010
_symmetry_space_group_name_H-M "P M M M"
_symmetry_group_IT_number 47
_symmetry_cell_setting 'orthorhombic'
loop_
_space_group_symop_operation_xyz
x,y,z
-x,-y,z
x,-y,-z
-x,y,-z
-x,-y,-z
x,y,-z
-x,y,z
x,-y,z
loop_
_atom_site_type_symbol
_atom_site_label
_atom_site_fract_x
_atom_site_fract_y
_atom_site_fract_z
Si Si1 0.500000 0.664074 0.368200
Si Si2 0.704097 0.330530 0.575263
Si Si3 0.000000 0.664474 0.421067
Si Si4 0.892408 0.175900 0.188798
Si Si5 0.317550 0.176356 0.864752
Si Si6 0.500000 0.825789 0.228375
Si Si7 0.385070 0.328455 0.000000
Si Si8 0.843237 0.827221 0.340387
O O1 0.500000 0.500000 0.340513
O O2 0.591377 0.678211 0.415156
O O3 0.500000 0.765262 0.303287
O O4 0.731637 0.283324 0.500000
O O5 0.734199 0.500000 0.582071
O O6 0.742816 0.235985 0.636611
O O7 0.089153 0.752200 0.393912
O O8 0.000000 0.500000 0.395209
O O9 0.000000 0.659578 0.500000
O O10 0.791800 0.220044 0.154576
O O11 0.877970 0.213600 0.266719
O O12 0.000000 0.225748 0.167180
O O13 0.894378 0.000000 0.184252
O O14 0.402141 0.216443 0.811763
O O15 0.344816 0.250077 0.934372
O O16 0.319152 0.000000 0.869948
O O17 0.500000 0.000000 0.230710
O O18 0.362153 0.500000 0.000000
O O19 0.500000 0.313700 0.000000
O O20 0.845774 0.000000 0.344711
#
# Coordination Sequence:
#
# PCOD9386088 Si02
#       8
#     4   8   4   8   8   4   4   8
#     4  10  21  36  55  77 106 149 193 231 282 352
#     4  10  21  37  54  74 105 146 191 238 289 350
#     4  11  23  37  53  77 111 148 189 238 291 349
#     4   9  18  35  58  85 115 149 190 234 278 329
#     4  10  20  36  62  88 116 154 191 227 271 334
#     4  10  20  34  54  87 119 143 182 239 294 337
#     4  11  23  39  60  89 126 156 183 228 281 326
#     4  11  21  36  58  82 109 142 186 242 296 340
#
# _framework density 18.610616
#
# number of rings (size 3 to 8) (size 9 to 14) (size 15 to 20)
#    0.000    1.833    1.667    2.750    0.000    7.000 
#    0.000    2.083    0.000    4.000    0.000    0.000 
#    0.000    0.000    0.000    0.000    0.000    0.000 
#
# Total GULP energy -267570.619897 kJ/mol
# GULP energy per Si atom -5574.387915 kJ/mol
# Density = 1.856826 g / cm^3
# Si number density = 18.610616 Si / 1000 Ang^3
#
#
#
# Elastic Constant Matrix: (Units=GPa)
#
#
# Indices 1 2 3 4 5 6 
#
# 1 119.8556 24.6684 30.8896 0.0000 0.0000 0.0000
# 2 24.6684 32.1126 26.2458 0.0000 0.0000 0.0000
# 3 30.8896 26.2458 89.3918 0.0000 0.0000 0.0000
# 4 0.0000 0.0000 0.0000 81.7117 0.0000 0.0000
# 5 0.0000 0.0000 0.0000 0.0000 11.4197 0.0000
# 6 0.0000 0.0000 0.0000 0.0000 0.0000 20.2553
#
#
#
# Elastic Compliance Matrix: (Units=1/GPa)
#
#
# Indices 1 2 3 4 5 6 
#
# 1 0.010079 -0.006442 -0.001592 0.000000 0.000000 0.000000
# 2 -0.006442 0.045090 -0.011012 0.000000 0.000000 0.000000
# 3 -0.001592 -0.011012 0.014970 0.000000 0.000000 0.000000
# 4 0.000000 0.000000 0.000000 0.012238 0.000000 0.000000
# 5 0.000000 0.000000 0.000000 0.000000 0.087568 0.000000
# 6 0.000000 0.000000 0.000000 0.000000 0.000000 0.049370
#
#
# Mechanical properties :
#
#
# Convention : Reuss Voigt Hill
#
# Bulk Modulus (GPa) = 31.20424 44.99640 38.10032
# Shear Modulus (GPa) = 18.65048 33.31441 25.98245
#
# Velocity S-wave (km/s) = 3.16910 4.23552 3.74051
# Velocity P-wave (km/s) = 5.49493 6.93901 6.25875
#
# Compressibility (1/GPa) = 0.03204693
#
# Stress axis : x y z
#
# Youngs Moduli (GPa) = 99.21178 22.17806 66.80046
#
# Poissons Ratio (x) = 0.14287 0.10632
# Poissons Ratio (y) = 0.63913 0.73563
# Poissons Ratio (z) = 0.15790 0.24423
#
# Static dielectric constant tensor:
#      x y z
#    x 1.636520 0.000000 0.000000 
#    y 0.000000 1.619180 0.000000 
#    z 0.000000 0.000000 1.615420 
# 
# From -- ./inp_files/28074.got.cif
#   From: 2010.05.17/outbox.cif.g08.bks.cpg/sg47_15_cif.got.tgz:28074.got - 2010.06.03 20:15:42.
