data_PCOD9386831
_publ_section_title
;
Structure prediction by ZEFSAII (Michael W. Deem and Ramdas Pophale) SiO2 
 PCOD9386831
Probable space group: P M M M
;
_chemical_formula_sum "Si O2"
_cell_formula_units_Z 56
_cell_length_a 7.424903
_cell_length_b 19.006671
_cell_length_c 19.966591
_cell_angle_alpha 90.000000
_cell_angle_beta 90.000000
_cell_angle_gamma 90.000000
_cell_volume 2817.739003
_symmetry_space_group_name_H-M "P M M M"
_symmetry_group_IT_number 47
_symmetry_cell_setting 'orthorhombic'
loop_
_space_group_symop_operation_xyz
x,y,z
-x,-y,z
x,-y,-z
-x,y,-z
-x,-y,-z
x,y,-z
-x,y,z
x,-y,z
loop_
_atom_site_type_symbol
_atom_site_label
_atom_site_fract_x
_atom_site_fract_y
_atom_site_fract_z
Si Si1 0.291118 0.721787 0.074310
Si Si2 0.279812 0.920139 0.706491
Si Si3 0.209780 0.422775 0.856031
Si Si4 0.719078 0.840077 0.426026
Si Si5 0.280559 0.324354 0.425891
Si Si6 0.282589 0.352909 0.718303
Si Si7 0.279996 0.210218 0.792284
O O1 0.500000 0.742118 0.068972
O O2 0.288679 0.642344 0.102980
O O3 0.213741 0.769750 0.133745
O O4 0.211693 0.725635 0.000000
O O5 0.500000 0.920519 0.706271
O O6 0.221498 0.888165 0.635117
O O7 0.223083 0.864126 0.762578
O O8 0.220470 0.000000 0.716316
O O9 0.286360 0.500000 0.869808
O O10 0.224450 0.405349 0.776932
O O11 0.000000 0.423638 0.873453
O O12 0.775721 0.863963 0.500000
O O13 0.500000 0.840471 0.424877
O O14 0.770129 0.758074 0.418556
O O15 0.221391 0.348375 0.500000
O O16 0.500000 0.326412 0.426357
O O17 0.221310 0.363265 0.358129
O O18 0.500000 0.354623 0.718218
O O19 0.228392 0.274860 0.743621
O O20 0.500000 0.210801 0.793031
#
# Coordination Sequence:
#
# PCOD9386831 Si02
#       7
#     8   8   8   8   8   8   8
#     4   9  18  32  51  71  88 112 145 177 208 249
#     4   9  14  18  27  46  77 118 154 180 212 255
#     4  10  21  34  47  67  95 120 138 164 209 262
#     4   8  12  17  25  42  74 113 148 180 216 259
#     4   8  12  19  35  59  83 108 145 193 234 259
#     4   9  15  26  46  65  84 116 155 189 218 252
#     4   8  13  23  37  55  80 108 144 183 214 246
#
# _framework density 19.874092000000001
#
# number of rings (size 3 to 8) (size 9 to 14) (size 15 to 20)
#    0.000    3.286    1.429    2.143    0.000    2.000 
#    0.000    2.857    0.000    1.286    0.000    6.000 
#    0.000    9.143    0.000    5.143    0.000   24.000 
#
# Total GULP energy -312128.895553 kJ/mol
# GULP energy per Si atom -5573.730278 kJ/mol
# Density = 1.982886 g / cm^3
# Si number density = 19.874092 Si / 1000 Ang^3
#
#
#
# Elastic Constant Matrix: (Units=GPa)
#
#
# Indices 1 2 3 4 5 6 
#
# 1 61.1534 -5.4846 0.2126 0.0000 0.0000 0.0000
# 2 -5.4846 46.8463 31.2784 0.0000 0.0000 0.0000
# 3 0.2126 31.2784 158.8663 0.0000 0.0000 0.0000
# 4 0.0000 0.0000 0.0000 11.5194 0.0000 0.0000
# 5 0.0000 0.0000 0.0000 0.0000 -23.8618 0.0000
# 6 0.0000 0.0000 0.0000 0.0000 0.0000 21.0721
#
#
#
# Elastic Compliance Matrix: (Units=1/GPa)
#
#
# Indices 1 2 3 4 5 6 
#
# 1 0.016556 0.002249 -0.000465 0.000000 0.000000 0.000000
# 2 0.002249 0.024883 -0.004902 0.000000 0.000000 0.000000
# 3 -0.000465 -0.004902 0.007260 0.000000 0.000000 0.000000
# 4 0.000000 0.000000 0.000000 0.086810 0.000000 0.000000
# 5 0.000000 0.000000 0.000000 0.000000 -0.041908 0.000000
# 6 0.000000 0.000000 0.000000 0.000000 0.000000 0.047456
#
#
# Mechanical properties :
#
#
# Convention : Reuss Voigt Hill
#
# Bulk Modulus (GPa) = 23.55039 35.43097 29.49068
# Shear Modulus (GPa) = 30.96987 17.80326 24.38656
#
# Velocity S-wave (km/s) = 3.95182 2.99624 3.50673
# Velocity P-wave (km/s) = 5.71822 5.46227 5.59171
#
# Compressibility (1/GPa) = 0.04246214
#
# Stress axis : x y z
#
# Youngs Moduli (GPa) = 60.40251 40.18865 137.73429
#
# Poissons Ratio (x) = -0.09037 0.06403
# Poissons Ratio (y) = -0.13583 0.67518
# Poissons Ratio (z) = 0.02808 0.19701
#
# Static dielectric constant tensor:
#      x y z
#    x 1.787770 0.000000 0.000000 
#    y 0.000000 1.663370 0.000000 
#    z 0.000000 0.000000 1.728420 
# 
# From -- ./inp_files/9788.got.cif
#   From: 2010.05.17/outbox.cif.g08.bks.cpg/sg47_5_cif.got.tgz:9788.got - 2010.06.03 20:15:42.
