data_PCOD9386123
_publ_section_title
;
Structure prediction by ZEFSAII (Michael W. Deem and Ramdas Pophale) SiO2 
 PCOD9386123
Probable space group: P M M M
;
_chemical_formula_sum "Si O2"
_cell_formula_units_Z 64
_cell_length_a 15.803696
_cell_length_b 8.842910
_cell_length_c 24.451757
_cell_angle_alpha 90.000000
_cell_angle_beta 90.000000
_cell_angle_gamma 90.000000
_cell_volume 3417.149213
_symmetry_space_group_name_H-M "P M M M"
_symmetry_group_IT_number 47
_symmetry_cell_setting 'orthorhombic'
loop_
_space_group_symop_operation_xyz
x,y,z
-x,-y,z
x,-y,-z
-x,y,-z
-x,-y,-z
x,y,-z
-x,y,z
x,-y,z
loop_
_atom_site_type_symbol
_atom_site_label
_atom_site_fract_x
_atom_site_fract_y
_atom_site_fract_z
Si Si1 0.250000 0.319214 0.064050
Si Si2 0.351585 0.321673 0.245120
Si Si3 0.404280 0.817875 0.639611
Si Si4 0.851585 0.678327 0.245120
Si Si5 0.750000 0.184346 0.437427
Si Si6 0.904280 0.182125 0.360389
Si Si7 0.595524 0.819216 0.868826
Si Si8 0.095525 0.180784 0.131174
O O1 0.250000 0.500000 0.069985
O O2 0.332788 0.254086 0.093659
O O3 0.167211 0.254087 0.093659
O O4 0.250000 0.280467 0.000000
O O5 0.369877 0.500000 0.241500
O O6 0.385799 0.255638 0.301792
O O7 0.250000 0.301518 0.243883
O O8 0.390140 0.237843 0.192947
O O9 0.500000 0.782251 0.622068
O O10 0.333187 0.769005 0.596296
O O11 0.397774 0.000000 0.645515
O O12 0.869877 0.500000 0.241501
O O13 0.885799 0.744363 0.301792
O O14 0.890140 0.762157 0.192948
O O15 0.750000 0.236872 0.500000
O O16 0.833187 0.230995 0.403704
O O17 0.750000 0.000000 0.438597
O O18 0.000000 0.217751 0.377933
O O19 0.897774 0.000000 0.354485
O O20 0.500000 0.779269 0.886192
O O21 0.604271 0.000000 0.870174
O O22 0.000000 0.220729 0.113809
O O23 0.104272 0.000000 0.129826
#
# Coordination Sequence:
#
# PCOD9386123 Si02
#       8
#     8   8   8   8   8   8   8   8
#     4  11  25  44  65  90 121 160 204 247 292 343
#     4  11  22  36  58  87 118 153 191 234 289 350
#     4  10  20  34  55  82 111 146 187 231 284 345
#     4  11  22  36  58  87 118 153 191 234 289 350
#     4   9  18  33  53  78 109 144 184 235 288 335
#     4  10  20  34  55  82 111 146 187 231 284 345
#     4  11  24  41  64  93 123 157 197 243 296 352
#     4  11  24  41  64  93 123 157 197 243 296 352
#
# _framework density 18.729061999999999
#
# number of rings (size 3 to 8) (size 9 to 14) (size 15 to 20)
#    0.000    1.500    2.500    2.625    0.000    8.500 
#    0.000    5.000    0.000    1.500    0.000    1.750 
#    0.000    0.000    0.000    0.000    0.000    0.000 
#
# Total GULP energy -357735.004732 kJ/mol
# GULP energy per Si atom -5589.609449 kJ/mol
# Density = 1.868643 g / cm^3
# Si number density = 18.729062 Si / 1000 Ang^3
#
#
#
# Elastic Constant Matrix: (Units=GPa)
#
#
# Indices 1 2 3 4 5 6 
#
# 1 176.8952 57.5639 102.0006 0.0000 0.0000 0.0000
# 2 57.5639 33.5142 44.2885 0.0000 0.0000 0.0000
# 3 102.0006 44.2885 160.7909 0.0000 0.0000 0.0000
# 4 0.0000 0.0000 0.0000 38.3773 0.0000 0.0000
# 5 0.0000 0.0000 0.0000 0.0000 -2.8134 0.0000
# 6 0.0000 0.0000 0.0000 0.0000 0.0000 12.0769
#
#
#
# Elastic Compliance Matrix: (Units=1/GPa)
#
#
# Indices 1 2 3 4 5 6 
#
# 1 0.013996 -0.019350 -0.003549 0.000000 0.000000 0.000000
# 2 -0.019350 0.073666 -0.008016 0.000000 0.000000 0.000000
# 3 -0.003549 -0.008016 0.010678 0.000000 0.000000 0.000000
# 4 0.000000 0.000000 0.000000 0.026057 0.000000 0.000000
# 5 0.000000 0.000000 0.000000 0.000000 -0.355437 0.000000
# 6 0.000000 0.000000 0.000000 0.000000 0.000000 0.082803
#
#
# Mechanical properties :
#
#
# Convention : Reuss Voigt Hill
#
# Bulk Modulus (GPa) = 27.38862 86.54515 56.96688
# Shear Modulus (GPa) = -67.35185 20.68463 -23.33361
#
# Velocity S-wave (km/s) = -6.00327 3.32688 -3.53349
# Velocity P-wave (km/s) = 5.77901 7.81453 3.71953
#
# Compressibility (1/GPa) = 0.03651152
#
# Stress axis : x y z
#
# Youngs Moduli (GPa) = 71.44837 13.57478 93.64637
#
# Poissons Ratio (x) = 0.26267 0.33235
# Poissons Ratio (y) = 1.38251 0.75065
# Poissons Ratio (z) = 0.25357 0.10881
#
# Static dielectric constant tensor:
#      x y z
#    x 1.655740 0.000000 0.000000 
#    y 0.000000 1.624760 0.000000 
#    z 0.000000 0.000000 1.604110 
# 
# From -- ./inp_files/7834.got.cif
#   From: 2010.05.17/outbox.cif.g08.bks.cpg/sg47_4_cif.got.tgz:7834.got - 2010.06.03 20:15:42.
