data_PCOD9386927
_publ_section_title
;
Structure prediction by ZEFSAII (Michael W. Deem and Ramdas Pophale) SiO2 
 PCOD9386927
Probable space group: P M M M
;
_chemical_formula_sum "Si O2"
_cell_formula_units_Z 45
_cell_length_a 7.582859
_cell_length_b 28.646937
_cell_length_c 10.060364
_cell_angle_alpha 90.000000
_cell_angle_beta 90.000000
_cell_angle_gamma 90.000000
_cell_volume 2185.369452
_symmetry_space_group_name_H-M "P M M M"
_symmetry_group_IT_number 47
_symmetry_cell_setting 'orthorhombic'
loop_
_space_group_symop_operation_xyz
x,y,z
-x,-y,z
x,-y,-z
-x,y,-z
-x,-y,-z
x,y,-z
-x,y,z
x,-y,z
loop_
_atom_site_type_symbol
_atom_site_label
_atom_site_fract_x
_atom_site_fract_y
_atom_site_fract_z
Si Si1 0.208557 0.680710 0.349936
Si Si2 0.712199 0.500000 0.739328
Si Si3 0.289119 0.399156 0.146143
Si Si4 0.288518 0.051770 0.650514
Si Si5 0.215667 0.760288 0.847400
Si Si6 0.210851 0.865486 0.851365
Si Si7 0.000000 0.500000 0.500000
O O1 0.280836 0.677746 0.500000
O O2 0.226911 0.633416 0.265933
O O3 0.280795 0.722533 0.258341
O O4 0.000000 0.689460 0.362426
O O5 0.500000 0.500000 0.705334
O O6 0.747556 0.453065 0.822594
O O7 0.843618 0.500000 0.615391
O O8 0.500000 0.394003 0.142453
O O9 0.219361 0.385535 0.000000
O O10 0.223662 0.060255 0.500000
O O11 0.500000 0.049402 0.644077
O O12 0.247696 0.093701 0.748637
O O13 0.225559 0.000000 0.693158
O O14 0.272444 0.813272 0.814694
O O15 0.000000 0.759152 0.846394
O O16 0.268439 0.749899 0.000000
O O17 0.000000 0.861932 0.859630
O O18 0.277710 0.876438 0.000000
#
# Coordination Sequence:
#
# PCOD9386927 Si02
#       7
#     8   4   8   8   8   8   1
#     4  10  21  34  54  84 115 142 180 230 277 329
#     4  10  24  43  65  91 126 163 198 248 298 346
#     4  10  22  41  62  83 113 154 195 236 287 340
#     4   9  19  35  51  69  98 136 175 215 262 317
#     4   8  15  31  52  74 104 142 178 217 270 325
#     4   9  18  32  52  78 105 133 171 219 269 323
#     4  12  26  40  66  98 128 160 204 240 296 370
#
# _framework density 20.591481999999999
#
# number of rings (size 3 to 8) (size 9 to 14) (size 15 to 20)
#    0.000    2.667    0.000    2.533    2.489    4.622 
#    0.000    5.778    0.000    1.067    0.000    0.000 
#    0.000    0.000    0.000    0.000    0.000    0.000 
#
# Total GULP energy -250781.031201 kJ/mol
# GULP energy per Si atom -5572.911804 kJ/mol
# Density = 2.054461 g / cm^3
# Si number density = 20.591482 Si / 1000 Ang^3
#
#
#
# Elastic Constant Matrix: (Units=GPa)
#
#
# Indices 1 2 3 4 5 6 
#
# 1 48.8995 4.4393 15.1391 0.0000 0.0000 0.0000
# 2 4.4393 172.3775 117.4691 0.0000 0.0000 0.0000
# 3 15.1391 117.4691 171.6426 0.0000 0.0000 0.0000
# 4 0.0000 0.0000 0.0000 -122.9981 0.0000 0.0000
# 5 0.0000 0.0000 0.0000 0.0000 22.3317 0.0000
# 6 0.0000 0.0000 0.0000 0.0000 0.0000 26.0862
#
#
#
# Elastic Compliance Matrix: (Units=1/GPa)
#
#
# Indices 1 2 3 4 5 6 
#
# 1 0.021194 0.001364 -0.002803 0.000000 0.000000 0.000000
# 2 0.001364 0.010959 -0.007621 0.000000 0.000000 0.000000
# 3 -0.002803 -0.007621 0.011289 0.000000 0.000000 0.000000
# 4 0.000000 0.000000 0.000000 -0.008130 0.000000 0.000000
# 5 0.000000 0.000000 0.000000 0.000000 0.044779 0.000000
# 6 0.000000 0.000000 0.000000 0.000000 0.000000 0.038334
#
#
# Mechanical properties :
#
#
# Convention : Reuss Voigt Hill
#
# Bulk Modulus (GPa) = 39.48926 74.11273 56.80100
# Shear Modulus (GPa) = 34.48616 2.14210 18.31413
#
# Velocity S-wave (km/s) = 4.09684 1.02105 2.98552
# Velocity P-wave (km/s) = 6.44965 6.12047 6.28721
#
# Compressibility (1/GPa) = 0.02532334
#
# Stress axis : x y z
#
# Youngs Moduli (GPa) = 47.18297 91.24655 88.58363
#
# Poissons Ratio (x) = -0.12450 0.24831
# Poissons Ratio (y) = -0.06438 0.67507
# Poissons Ratio (z) = 0.13226 0.69536
#
# Static dielectric constant tensor:
#      x y z
#    x 1.784810 0.000000 0.000000 
#    y 0.000000 1.724900 0.000000 
#    z 0.000000 0.000000 1.736110 
# 
# From -- ./inp_files/2367.got.cif
#   From: 2010.05.17/outbox.cif.g08.bks.cpg/sg47_2_cif.got.tgz:2367.got - 2010.06.03 20:15:42.
