data_PCOD9386356
_publ_section_title
;
Structure prediction by ZEFSAII (Michael W. Deem and Ramdas Pophale) SiO2 
 PCOD9386356
Probable space group: P M M M
;
_chemical_formula_sum "Si O2"
_cell_formula_units_Z 40
_cell_length_a 9.249678
_cell_length_b 7.787829
_cell_length_c 28.433271
_cell_angle_alpha 90.000000
_cell_angle_beta 90.000000
_cell_angle_gamma 90.000000
_cell_volume 2048.188134
_symmetry_space_group_name_H-M "P M M M"
_symmetry_group_IT_number 47
_symmetry_cell_setting 'orthorhombic'
loop_
_space_group_symop_operation_xyz
x,y,z
-x,-y,z
x,-y,-z
-x,y,-z
-x,-y,-z
x,y,-z
-x,y,z
x,-y,z
loop_
_atom_site_type_symbol
_atom_site_label
_atom_site_fract_x
_atom_site_fract_y
_atom_site_fract_z
Si Si1 0.835429 0.706595 0.220117
Si Si2 0.836663 0.705086 0.592123
Si Si3 0.663559 0.204196 0.314399
Si Si4 0.673616 0.297985 0.875231
Si Si5 0.333501 0.710716 0.500000
Si Si6 0.675653 0.000000 0.053564
O O1 0.841593 0.500000 0.218854
O O2 0.746967 0.753942 0.266487
O O3 0.753124 0.758369 0.172557
O O4 0.000000 0.772258 0.221891
O O5 0.847133 0.500000 0.586085
O O6 0.751710 0.734908 0.640297
O O7 0.748849 0.769705 0.546894
O O8 0.000000 0.774310 0.594337
O O9 0.500000 0.275079 0.313827
O O10 0.654553 0.000000 0.317826
O O11 0.500000 0.284543 0.868529
O O12 0.705567 0.500000 0.884488
O O13 0.716520 0.170261 0.917222
O O14 0.333540 0.500000 0.500000
O O15 0.500000 0.765160 0.500000
O O16 0.500000 0.000000 0.051840
O O17 0.728827 0.000000 0.000000
#
# Coordination Sequence:
#
# PCOD9386356 Si02
#       6
#     8   8   8   8   4   4
#     4  10  21  37  57  81 108 140 180 226 276 329
#     4  10  20  35  56  81 108 138 176 223 272 324
#     4  11  24  38  53  77 109 143 179 221 270 326
#     4   9  18  33  54  80 111 147 187 233 284 336
#     4   9  17  31  54  81 106 137 178 222 270 323
#     4   9  18  32  53  83 115 147 189 238 283 332
#
# _framework density 19.529456
#
# number of rings (size 3 to 8) (size 9 to 14) (size 15 to 20)
#    0.000    2.200    0.000    2.700    1.400    8.000 
#    0.000    2.500    0.000    4.200    0.000    2.800 
#    0.000    0.000    0.000    0.000    0.000    0.000 
#
# Total GULP energy -223350.910600 kJ/mol
# GULP energy per Si atom -5583.772765 kJ/mol
# Density = 1.948501 g / cm^3
# Si number density = 19.529456 Si / 1000 Ang^3
#
#
#
# Elastic Constant Matrix: (Units=GPa)
#
#
# Indices 1 2 3 4 5 6 
#
# 1 147.7379 33.0316 104.4979 0.0000 0.0000 0.0000
# 2 33.0316 47.8753 43.4914 0.0000 0.0000 0.0000
# 3 104.4979 43.4914 213.3332 0.0000 0.0000 0.0000
# 4 0.0000 0.0000 0.0000 52.8870 0.0000 0.0000
# 5 0.0000 0.0000 0.0000 0.0000 3.2107 0.0000
# 6 0.0000 0.0000 0.0000 0.0000 0.0000 9.6719
#
#
#
# Elastic Compliance Matrix: (Units=1/GPa)
#
#
# Indices 1 2 3 4 5 6 
#
# 1 0.010750 -0.003232 -0.004607 0.000000 0.000000 0.000000
# 2 -0.003232 0.026607 -0.003841 0.000000 0.000000 0.000000
# 3 -0.004607 -0.003841 0.007727 0.000000 0.000000 0.000000
# 4 0.000000 0.000000 0.000000 0.018908 0.000000 0.000000
# 5 0.000000 0.000000 0.000000 0.000000 0.311463 0.000000
# 6 0.000000 0.000000 0.000000 0.000000 0.000000 0.103392
#
#
# Mechanical properties :
#
#
# Convention : Reuss Voigt Hill
#
# Bulk Modulus (GPa) = 46.03164 85.66537 65.84851
# Shear Modulus (GPa) = 9.81455 28.34895 19.08175
#
# Velocity S-wave (km/s) = 2.24420 3.81412 3.12921
# Velocity P-wave (km/s) = 5.50788 7.95969 6.84446
#
# Compressibility (1/GPa) = 0.02172419
#
# Stress axis : x y z
#
# Youngs Moduli (GPa) = 93.02517 37.58426 129.41438
#
# Poissons Ratio (x) = 0.12147 0.59618
# Poissons Ratio (y) = 0.30065 0.49710
# Poissons Ratio (z) = 0.42854 0.14437
#
# Static dielectric constant tensor:
#      x y z
#    x 1.684910 0.000000 0.000000 
#    y 0.000000 1.705620 0.000000 
#    z 0.000000 0.000000 1.645900 
# 
# From -- ./inp_files/13088.got.cif
#   From: 2010.05.17/outbox.cif.g08.bks.cpg/sg47_7_cif.got.tgz:13088.got - 2010.06.03 20:15:42.
