data_PCOD9386973
_publ_section_title
;
Structure prediction by ZEFSAII (Michael W. Deem and Ramdas Pophale) SiO2 
 PCOD9386973
Probable space group: P M M M
;
_chemical_formula_sum "Si O2"
_cell_formula_units_Z 36
_cell_length_a 13.079094
_cell_length_b 7.625806
_cell_length_c 17.577738
_cell_angle_alpha 90.000000
_cell_angle_beta 90.000000
_cell_angle_gamma 90.000000
_cell_volume 1753.179568
_symmetry_space_group_name_H-M "P M M M"
_symmetry_group_IT_number 47
_symmetry_cell_setting 'orthorhombic'
loop_
_space_group_symop_operation_xyz
x,y,z
-x,-y,z
x,-y,-z
-x,y,-z
-x,-y,-z
x,y,-z
-x,y,z
x,-y,z
loop_
_atom_site_type_symbol
_atom_site_label
_atom_site_fract_x
_atom_site_fract_y
_atom_site_fract_z
Si Si1 0.000000 0.215173 0.413219
Si Si2 0.665553 0.212479 0.081646
Si Si3 0.889435 0.785598 0.124987
Si Si4 0.610302 0.705319 0.747030
Si Si5 0.163947 0.793914 0.293323
O O1 0.099570 0.273103 0.364810
O O2 0.000000 0.276264 0.500000
O O3 0.000000 0.000000 0.416269
O O4 0.785034 0.265649 0.084425
O O5 0.619564 0.273464 0.161399
O O6 0.659898 0.000000 0.083791
O O7 0.622312 0.269608 0.000000
O O8 0.876633 0.724443 0.212417
O O9 0.000000 0.729352 0.095394
O O10 0.889130 0.000000 0.123839
O O11 0.500000 0.781162 0.723782
O O12 0.609789 0.500000 0.730353
O O13 0.713613 0.776134 0.708973
O O14 0.141310 0.000000 0.290577
#
# Coordination Sequence:
#
# PCOD9386973 Si02
#       5
#     4   8   8   8   8
#     4   9  16  28  53  89 118 133 150 187 241 296
#     4   9  18  30  45  68  95 124 162 209 257 303
#     4   8  12  21  40  64  90 121 156 190 227 277
#     4  10  21  35  50  68  92 129 175 216 253 290
#     4   9  16  29  51  77 103 130 161 196 237 290
#
# _framework density 20.534120000000001
#
# number of rings (size 3 to 8) (size 9 to 14) (size 15 to 20)
#    0.000    3.000    1.111    2.000    0.000    3.111 
#    0.000    5.000    0.000    2.000    0.000    7.778 
#    0.000    0.000    0.000    0.000    0.000    0.000 
#
# Total GULP energy -200635.545098 kJ/mol
# GULP energy per Si atom -5573.209586 kJ/mol
# Density = 2.048738 g / cm^3
# Si number density = 20.534120 Si / 1000 Ang^3
#
#
#
# Elastic Constant Matrix: (Units=GPa)
#
#
# Indices 1 2 3 4 5 6 
#
# 1 150.3243 -10.1631 47.2811 0.0000 0.0000 0.0000
# 2 -10.1631 34.1587 1.0324 0.0000 0.0000 0.0000
# 3 47.2811 1.0324 119.0730 0.0000 0.0000 0.0000
# 4 0.0000 0.0000 0.0000 -14.9426 0.0000 0.0000
# 5 0.0000 0.0000 0.0000 0.0000 348.6756 0.0000
# 6 0.0000 0.0000 0.0000 0.0000 0.0000 18.4916
#
#
#
# Elastic Compliance Matrix: (Units=1/GPa)
#
#
# Indices 1 2 3 4 5 6 
#
# 1 0.007796 0.002414 -0.003116 0.000000 0.000000 0.000000
# 2 0.002414 0.030030 -0.001219 0.000000 0.000000 0.000000
# 3 -0.003116 -0.001219 0.009646 0.000000 0.000000 0.000000
# 4 0.000000 0.000000 0.000000 -0.066923 0.000000 0.000000
# 5 0.000000 0.000000 0.000000 0.000000 0.002868 0.000000
# 6 0.000000 0.000000 0.000000 0.000000 0.000000 0.054079
#
#
# Mechanical properties :
#
#
# Convention : Reuss Voigt Hill
#
# Bulk Modulus (GPa) = 22.92064 42.20632 32.56348
# Shear Modulus (GPa) = 89.47472 88.13864 88.80668
#
# Velocity S-wave (km/s) = 6.60820 6.55867 6.58348
# Velocity P-wave (km/s) = 8.33132 8.82914 8.58384
#
# Compressibility (1/GPa) = 0.04362880
#
# Stress axis : x y z
#
# Youngs Moduli (GPa) = 128.27656 33.29999 103.66753
#
# Poissons Ratio (x) = -0.08037 0.32307
# Poissons Ratio (y) = -0.30961 0.12635
# Poissons Ratio (z) = 0.39976 0.04058
#
# Static dielectric constant tensor:
#      x y z
#    x 1.785430 0.000000 0.000000 
#    y 0.000000 1.775290 0.000000 
#    z 0.000000 0.000000 1.709860 
# 
# From -- ./inp_files/27283.got.cif
#   From: 2010.05.17/outbox.cif.g08.bks.cpg/sg47_14_cif.got.tgz:27283.got - 2010.06.03 20:15:42.
