data_PCOD9386615
_publ_section_title
;
Structure prediction by ZEFSAII (Michael W. Deem and Ramdas Pophale) SiO2 
 PCOD9386615
Probable space group: P M M M
;
_chemical_formula_sum "Si O2"
_cell_formula_units_Z 37
_cell_length_a 15.715639
_cell_length_b 7.204244
_cell_length_c 16.851638
_cell_angle_alpha 90.000000
_cell_angle_beta 90.000000
_cell_angle_gamma 90.000000
_cell_volume 1907.930624
_symmetry_space_group_name_H-M "P M M M"
_symmetry_group_IT_number 47
_symmetry_cell_setting 'orthorhombic'
loop_
_space_group_symop_operation_xyz
x,y,z
-x,-y,z
x,-y,-z
-x,y,-z
-x,-y,-z
x,y,-z
-x,y,z
x,-y,z
loop_
_atom_site_type_symbol
_atom_site_label
_atom_site_fract_x
_atom_site_fract_y
_atom_site_fract_z
Si Si1 0.245924 0.276349 0.217010
Si Si2 0.856026 0.725573 0.500000
Si Si3 0.341905 0.274596 0.500000
Si Si4 0.403992 0.725502 0.674366
Si Si5 0.909125 0.725026 0.671188
Si Si6 0.000000 0.000000 0.000000
Si Si7 0.181648 0.000000 0.912394
O O1 0.246500 0.500000 0.207174
O O2 0.334032 0.220509 0.260062
O O3 0.172119 0.221946 0.278846
O O4 0.217022 0.174941 0.137048
O O5 0.859001 0.500000 0.500000
O O6 0.757117 0.776818 0.500000
O O7 0.899090 0.786589 0.580819
O O8 0.346785 0.500000 0.500000
O O9 0.381851 0.214888 0.415999
O O10 0.500000 0.781363 0.693999
O O11 0.401057 0.500000 0.672481
O O12 0.908494 0.500000 0.670393
O O13 0.000000 0.784210 0.704467
O O14 0.078987 0.000000 0.068703
O O15 0.220595 0.000000 0.000000
#
# Coordination Sequence:
#
# PCOD9386615 Si02
#       7
#     8   4   4   8   8   1   4
#     4  10  20  36  59  86 115 148 189 234 282 338
#     4   9  13  21  35  62 108 149 187 233 271 314
#     4   9  13  21  39  70 114 159 201 242 282 322
#     4   9  16  27  48  80 117 158 202 245 285 327
#     4   9  16  24  41  70 104 146 190 229 273 324
#     4   8  24  48  66  92 118 140 180 224 286 368
#     4  10  24  44  63  87 115 140 173 224 287 355
#
# _framework density 19.392738999999999
#
# number of rings (size 3 to 8) (size 9 to 14) (size 15 to 20)
#    0.324    2.378    2.162    0.649    1.514    3.027 
#    0.000    1.081    0.000    3.892    0.000    6.054 
#    0.000    0.000    0.000    0.000    0.000    0.000 
#
# Total GULP energy -206046.104591 kJ/mol
# GULP energy per Si atom -5568.813638 kJ/mol
# Density = 1.934860 g / cm^3
# Si number density = 19.392739 Si / 1000 Ang^3
#
#
#
# Elastic Constant Matrix: (Units=GPa)
#
#
# Indices 1 2 3 4 5 6 
#
# 1 186.5543 23.0091 79.3926 0.0000 0.0000 0.0000
# 2 23.0091 102.5397 29.3602 0.0000 0.0000 0.0000
# 3 79.3926 29.3602 144.5006 0.0000 0.0000 0.0000
# 4 0.0000 0.0000 0.0000 29.9488 0.0000 0.0000
# 5 0.0000 0.0000 0.0000 0.0000 12.6776 0.0000
# 6 0.0000 0.0000 0.0000 0.0000 0.0000 -10.3276
#
#
#
# Elastic Compliance Matrix: (Units=1/GPa)
#
#
# Indices 1 2 3 4 5 6 
#
# 1 0.007020 -0.000500 -0.003756 0.000000 0.000000 0.000000
# 2 -0.000500 0.010390 -0.001836 0.000000 0.000000 0.000000
# 3 -0.003756 -0.001836 0.009357 0.000000 0.000000 0.000000
# 4 0.000000 0.000000 0.000000 0.033390 0.000000 0.000000
# 5 0.000000 0.000000 0.000000 0.000000 0.078880 0.000000
# 6 0.000000 0.000000 0.000000 0.000000 0.000000 -0.096828
#
#
# Mechanical properties :
#
#
# Convention : Reuss Voigt Hill
#
# Bulk Modulus (GPa) = 68.57013 77.45759 73.01386
# Shear Modulus (GPa) = 84.38151 26.58193 55.48172
#
# Velocity S-wave (km/s) = 6.60351 3.70633 5.35459
# Velocity P-wave (km/s) = 9.67353 7.63833 8.71554
#
# Compressibility (1/GPa) = 0.01458361
#
# Stress axis : x y z
#
# Youngs Moduli (GPa) = 142.44408 96.24323 106.87266
#
# Poissons Ratio (x) = 0.04812 0.40137
# Poissons Ratio (y) = 0.07122 0.19627
# Poissons Ratio (z) = 0.53496 0.17675
#
# Static dielectric constant tensor:
#      x y z
#    x 1.673840 0.000000 0.000000 
#    y 0.000000 1.775690 0.000000 
#    z 0.000000 0.000000 1.639080 
# 
# From -- ./inp_files/27843.got.cif
#   From: 2010.05.17/outbox.cif.g08.bks.cpg/sg47_14_cif.got.tgz:27843.got - 2010.06.03 20:15:42.
