data_PCOD9386131
_publ_section_title
;
Structure prediction by ZEFSAII (Michael W. Deem and Ramdas Pophale) SiO2 
 PCOD9386131
Probable space group: P M M M
;
_chemical_formula_sum "Si O2"
_cell_formula_units_Z 41
_cell_length_a 26.156913
_cell_length_b 9.499898
_cell_length_c 7.576736
_cell_angle_alpha 90.000000
_cell_angle_beta 90.000000
_cell_angle_gamma 90.000000
_cell_volume 1882.728017
_symmetry_space_group_name_H-M "P M M M"
_symmetry_group_IT_number 47
_symmetry_cell_setting 'orthorhombic'
loop_
_space_group_symop_operation_xyz
x,y,z
-x,-y,z
x,-y,-z
-x,y,-z
-x,-y,-z
x,y,-z
-x,y,z
x,-y,z
loop_
_atom_site_type_symbol
_atom_site_label
_atom_site_fract_x
_atom_site_fract_y
_atom_site_fract_z
Si Si1 0.399022 0.839627 0.710512
Si Si2 0.797492 0.160830 0.715737
Si Si3 0.500000 0.339253 0.210131
Si Si4 0.000000 0.000000 0.500000
Si Si5 0.698634 0.337629 0.283871
Si Si6 0.891718 0.655549 0.286762
Si Si7 0.000000 0.234229 0.193433
O O1 0.392171 0.851186 0.500000
O O2 0.449972 0.749060 0.738849
O O3 0.350122 0.752695 0.777222
O O4 0.402779 0.000000 0.779659
O O5 0.797613 0.160352 0.500000
O O6 0.750502 0.259192 0.770356
O O7 0.851365 0.227223 0.772088
O O8 0.791198 0.000000 0.773197
O O9 0.500000 0.500000 0.281260
O O10 0.500000 0.349333 0.000000
O O11 0.000000 0.878798 0.347097
O O12 0.698112 0.338904 0.500000
O O13 0.696321 0.500000 0.227064
O O14 0.895177 0.664516 0.500000
O O15 0.872048 0.500000 0.242324
O O16 0.948172 0.677281 0.213969
O O17 0.000000 0.169353 0.000000
#
# Coordination Sequence:
#
# PCOD9386131 Si02
#       7
#     8   8   4   1   8   8   4
#     4  10  20  34  55  82 113 145 186 239 294 346
#     4   9  17  28  49  79 116 158 202 248 297 350
#     4  11  24  39  54  76 106 143 188 233 284 354
#     4  12  26  48  66  94 136 160 208 264 316 380
#     4   9  16  28  48  78 113 149 193 244 292 347
#     4  10  20  36  59  87 123 165 208 257 307 363
#     4  12  26  42  68  95 126 169 211 258 317 377
#
# _framework density 21.776909
#
# number of rings (size 3 to 8) (size 9 to 14) (size 15 to 20)
#    0.000    2.049    0.976    2.780    1.366    9.366 
#    0.000    0.000    0.000    1.171    0.000    0.000 
#    0.000    0.000    0.000    0.000    0.000    0.000 
#
# Total GULP energy -228893.245382 kJ/mol
# GULP energy per Si atom -5582.762082 kJ/mol
# Density = 2.172734 g / cm^3
# Si number density = 21.776909 Si / 1000 Ang^3
#
#
#
# Elastic Constant Matrix: (Units=GPa)
#
#
# Indices 1 2 3 4 5 6 
#
# 1 183.5940 103.9750 -2.9447 0.0000 0.0000 0.0000
# 2 103.9750 218.1908 18.5658 0.0000 0.0000 0.0000
# 3 -2.9447 18.5658 73.9422 0.0000 0.0000 0.0000
# 4 0.0000 0.0000 0.0000 39.6091 0.0000 0.0000
# 5 0.0000 0.0000 0.0000 0.0000 14.3423 0.0000
# 6 0.0000 0.0000 0.0000 0.0000 0.0000 86.3074
#
#
#
# Elastic Compliance Matrix: (Units=1/GPa)
#
#
# Indices 1 2 3 4 5 6 
#
# 1 0.007569 -0.003712 0.001233 0.000000 0.000000 0.000000
# 2 -0.003712 0.006503 -0.001781 0.000000 0.000000 0.000000
# 3 0.001233 -0.001781 0.014020 0.000000 0.000000 0.000000
# 4 0.000000 0.000000 0.000000 0.025247 0.000000 0.000000
# 5 0.000000 0.000000 0.000000 0.000000 0.069724 0.000000
# 6 0.000000 0.000000 0.000000 0.000000 0.000000 0.011586
#
#
# Mechanical properties :
#
#
# Convention : Reuss Voigt Hill
#
# Bulk Modulus (GPa) = 51.08741 79.43546 65.26143
# Shear Modulus (GPa) = 33.40185 51.79381 42.59783
#
# Velocity S-wave (km/s) = 3.92065 4.88216 4.42758
# Velocity P-wave (km/s) = 6.63368 8.26660 7.49475
#
# Compressibility (1/GPa) = 0.01957430
#
# Stress axis : x y z
#
# Youngs Moduli (GPa) = 132.12493 153.76627 71.32511
#
# Poissons Ratio (x) = 0.57072 -0.08797
# Poissons Ratio (y) = 0.49040 0.12701
# Poissons Ratio (z) = -0.16296 0.27381
#
# Static dielectric constant tensor:
#      x y z
#    x 1.753680 0.000000 0.000000 
#    y 0.000000 1.763290 0.000000 
#    z 0.000000 0.000000 1.810480 
# 
# From -- ./inp_files/13125.got.cif
#   From: 2010.05.17/outbox.cif.g08.bks.cpg/sg47_7_cif.got.tgz:13125.got - 2010.06.03 20:15:42.
