data_PCOD9386147
_publ_section_title
;
Structure prediction by ZEFSAII (Michael W. Deem and Ramdas Pophale) SiO2 
 PCOD9386147
Probable space group: P M M M
;
_chemical_formula_sum "Si O2"
_cell_formula_units_Z 48
_cell_length_a 21.037985
_cell_length_b 8.834531
_cell_length_c 14.665886
_cell_angle_alpha 90.000000
_cell_angle_beta 90.000000
_cell_angle_gamma 90.000000
_cell_volume 2725.812288
_symmetry_space_group_name_H-M "P M M M"
_symmetry_group_IT_number 47
_symmetry_cell_setting 'orthorhombic'
loop_
_space_group_symop_operation_xyz
x,y,z
-x,-y,z
x,-y,-z
-x,y,-z
-x,-y,-z
x,y,-z
-x,y,z
x,-y,z
loop_
_atom_site_type_symbol
_atom_site_label
_atom_site_fract_x
_atom_site_fract_y
_atom_site_fract_z
Si Si1 0.242607 0.679295 0.895825
Si Si2 0.689131 0.182488 0.394444
Si Si3 0.813854 0.818827 0.721792
Si Si4 0.570615 0.319165 0.286940
Si Si5 0.617011 0.181082 0.896480
Si Si6 0.073641 0.318103 0.606039
O O1 0.252853 0.500000 0.882310
O O2 0.195671 0.743660 0.820161
O O3 0.310099 0.764244 0.885997
O O4 0.220773 0.702672 0.000000
O O5 0.693680 0.229249 0.500000
O O6 0.752292 0.226619 0.338794
O O7 0.626946 0.249336 0.346618
O O8 0.685128 0.000000 0.391319
O O9 0.876713 0.763080 0.671067
O O10 0.813731 0.000000 0.730002
O O11 0.500000 0.278222 0.320772
O O12 0.576528 0.500000 0.287094
O O13 0.578439 0.259172 0.183899
O O14 0.614083 0.000000 0.886433
O O15 0.596802 0.219942 0.000000
O O16 0.086334 0.278881 0.500000
O O17 0.080057 0.500000 0.614409
O O18 0.000000 0.279916 0.625451
#
# Coordination Sequence:
#
# PCOD9386147 Si02
#       6
#     8   8   8   8   8   8
#     4  10  20  34  55  83 113 145 182 224 271 324
#     4  10  22  39  57  79 107 141 183 228 275 329
#     4  11  21  34  57  87 116 147 184 226 274 327
#     4  11  24  39  55  77 106 142 184 229 279 334
#     4  10  20  35  56  81 108 139 177 222 275 333
#     4   9  19  36  57  83 117 156 194 229 270 323
#
# _framework density 17.609428999999999
#
# number of rings (size 3 to 8) (size 9 to 14) (size 15 to 20)
#    0.000    1.833    1.667    3.000    0.000    6.333 
#    0.000    4.167    0.000    0.500    0.000    3.500 
#    0.000    0.000    0.000    0.000    0.000    0.000 
#
# Total GULP energy -268100.430285 kJ/mol
# GULP energy per Si atom -5585.425631 kJ/mol
# Density = 1.756935 g / cm^3
# Si number density = 17.609429 Si / 1000 Ang^3
#
#
#
# Elastic Constant Matrix: (Units=GPa)
#
#
# Indices 1 2 3 4 5 6 
#
# 1 86.0313 24.6899 50.8468 0.0000 0.0000 0.0000
# 2 24.6899 25.9907 29.2261 0.0000 0.0000 0.0000
# 3 50.8468 29.2261 97.4778 0.0000 0.0000 0.0000
# 4 0.0000 0.0000 0.0000 27.6020 0.0000 0.0000
# 5 0.0000 0.0000 0.0000 0.0000 18.8138 0.0000
# 6 0.0000 0.0000 0.0000 0.0000 0.0000 36.8557
#
#
#
# Elastic Compliance Matrix: (Units=1/GPa)
#
#
# Indices 1 2 3 4 5 6 
#
# 1 0.018406 -0.010091 -0.006576 0.000000 0.000000 0.000000
# 2 -0.010091 0.063577 -0.013798 0.000000 0.000000 0.000000
# 3 -0.006576 -0.013798 0.017826 0.000000 0.000000 0.000000
# 4 0.000000 0.000000 0.000000 0.036229 0.000000 0.000000
# 5 0.000000 0.000000 0.000000 0.000000 0.053152 0.000000
# 6 0.000000 0.000000 0.000000 0.000000 0.000000 0.027133
#
#
# Mechanical properties :
#
#
# Convention : Reuss Voigt Hill
#
# Bulk Modulus (GPa) = 25.72041 46.55836 36.13938
# Shear Modulus (GPa) = 17.22879 23.63676 20.43278
#
# Velocity S-wave (km/s) = 3.13131 3.66769 3.41006
# Velocity P-wave (km/s) = 5.26414 6.66579 6.00599
#
# Compressibility (1/GPa) = 0.03887963
#
# Stress axis : x y z
#
# Youngs Moduli (GPa) = 54.33045 15.72898 56.09854
#
# Poissons Ratio (x) = 0.15871 0.36888
# Poissons Ratio (y) = 0.54823 0.77406
# Poissons Ratio (z) = 0.35725 0.21703
#
# Static dielectric constant tensor:
#      x y z
#    x 1.579190 0.000000 0.000000 
#    y 0.000000 1.587880 0.000000 
#    z 0.000000 0.000000 1.598440 
# 
# From -- ./inp_files/6328.got.cif
#   From: 2010.05.17/outbox.cif.g08.bks.cpg/sg47_4_cif.got.tgz:6328.got - 2010.06.03 20:15:42.
