data_PCOD9386932
_publ_section_title
;
Structure prediction by ZEFSAII (Michael W. Deem and Ramdas Pophale) SiO2 
 PCOD9386932
Probable space group: P M M M
;
_chemical_formula_sum "Si O2"
_cell_formula_units_Z 40
_cell_length_a 13.501087
_cell_length_b 7.703181
_cell_length_c 20.175469
_cell_angle_alpha 90.000000
_cell_angle_beta 90.000000
_cell_angle_gamma 90.000000
_cell_volume 2098.275344
_symmetry_space_group_name_H-M "P M M M"
_symmetry_group_IT_number 47
_symmetry_cell_setting 'orthorhombic'
loop_
_space_group_symop_operation_xyz
x,y,z
-x,-y,z
x,-y,-z
-x,y,-z
-x,-y,-z
x,y,-z
-x,y,z
x,-y,z
loop_
_atom_site_type_symbol
_atom_site_label
_atom_site_fract_x
_atom_site_fract_y
_atom_site_fract_z
Si Si1 0.283965 0.713341 0.423166
Si Si2 0.111265 0.793062 0.823705
Si Si3 0.888971 0.293555 0.327711
Si Si4 0.500000 0.299417 0.080736
Si Si5 0.500000 0.701042 0.580589
Si Si6 0.285046 0.708663 0.075275
O O1 0.268374 0.761816 0.500000
O O2 0.286937 0.500000 0.421813
O O3 0.195829 0.774595 0.376154
O O4 0.393145 0.775526 0.400554
O O5 0.135890 0.731897 0.749476
O O6 0.194725 0.744879 0.876251
O O7 0.000000 0.726957 0.840121
O O8 0.106524 0.000000 0.821793
O O9 0.893881 0.500000 0.339627
O O10 0.000000 0.221942 0.338656
O O11 0.500000 0.500000 0.103850
O O12 0.607126 0.222889 0.099137
O O13 0.500000 0.300998 0.000000
O O14 0.500000 0.500000 0.602579
O O15 0.500000 0.700302 0.500000
O O16 0.295437 0.500000 0.071504
O O17 0.266500 0.771555 0.000000
#
# Coordination Sequence:
#
# PCOD9386932 Si02
#       6
#     8   8   8   4   4   8
#     4   8  13  22  39  64  90 113 140 178 223 268
#     4  10  21  35  48  63  90 128 162 192 229 272
#     4   9  17  29  45  64  87 116 149 186 228 272
#     4   7  12  26  48  73  98 120 142 175 224 275
#     4   7  10  18  33  56  88 118 138 165 214 271
#     4   9  17  31  53  77  97 118 148 187 228 272
#
# _framework density 19.063274
#
# number of rings (size 3 to 8) (size 9 to 14) (size 15 to 20)
#    0.000    3.400    0.000    3.000    0.000    2.400 
#    0.000    5.500    0.000    6.000    0.000    2.800 
#    0.000    2.400    0.000    0.000    0.000    0.000 
#
# Total GULP energy -222700.132857 kJ/mol
# GULP energy per Si atom -5567.503321 kJ/mol
# Density = 1.901989 g / cm^3
# Si number density = 19.063274 Si / 1000 Ang^3
#
#
#
# Elastic Constant Matrix: (Units=GPa)
#
#
# Indices 1 2 3 4 5 6 
#
# 1 212.3089 6.1359 118.6118 0.0000 0.0000 0.0000
# 2 6.1359 31.0686 -1.0294 0.0000 0.0000 0.0000
# 3 118.6118 -1.0294 88.4276 0.0000 0.0000 0.0000
# 4 0.0000 0.0000 0.0000 -224.3737 0.0000 0.0000
# 5 0.0000 0.0000 0.0000 0.0000 -7.1634 0.0000
# 6 0.0000 0.0000 0.0000 0.0000 0.0000 -51.7700
#
#
#
# Elastic Compliance Matrix: (Units=1/GPa)
#
#
# Indices 1 2 3 4 5 6 
#
# 1 0.019459 -0.004710 -0.026156 0.000000 0.000000 0.000000
# 2 -0.004710 0.033339 0.006705 0.000000 0.000000 0.000000
# 3 -0.026156 0.006705 0.046471 0.000000 0.000000 0.000000
# 4 0.000000 0.000000 0.000000 -0.004457 0.000000 0.000000
# 5 0.000000 0.000000 0.000000 0.000000 -0.139598 0.000000
# 6 0.000000 0.000000 0.000000 0.000000 0.000000 -0.019316
#
#
# Mechanical properties :
#
#
# Convention : Reuss Voigt Hill
#
# Bulk Modulus (GPa) = 19.62764 64.36020 41.99392
# Shear Modulus (GPa) = 4164.56833 -42.78898 2060.88967
#
# Velocity S-wave (km/s) = 46.79044 -4.74284 32.91543
# Velocity P-wave (km/s) = 54.12435 1.96010 38.29679
#
# Compressibility (1/GPa) = 0.05094857
#
# Stress axis : x y z
#
# Youngs Moduli (GPa) = 51.39032 29.99474 21.51887
#
# Poissons Ratio (x) = 0.14127 0.56285
# Poissons Ratio (y) = 0.24203 -0.14429
# Poissons Ratio (z) = 1.34416 -0.20113
#
# Static dielectric constant tensor:
#      x y z
#    x 1.750230 0.000000 0.000000 
#    y 0.000000 1.695980 0.000000 
#    z 0.000000 0.000000 1.619660 
# 
# From -- ./inp_files/30338.got.cif
#   From: 2010.05.17/outbox.cif.g08.bks.cpg/sg47_16_cif.got.tgz:30338.got - 2010.06.03 20:15:42.
