data_PCOD9386415
_publ_section_title
;
Structure prediction by ZEFSAII (Michael W. Deem and Ramdas Pophale) SiO2 
 PCOD9386415
Probable space group: P M M M
;
_chemical_formula_sum "Si O2"
_cell_formula_units_Z 52
_cell_length_a 13.512818
_cell_length_b 20.484610
_cell_length_c 8.346873
_cell_angle_alpha 90.000000
_cell_angle_beta 90.000000
_cell_angle_gamma 90.000000
_cell_volume 2310.454568
_symmetry_space_group_name_H-M "P M M M"
_symmetry_group_IT_number 47
_symmetry_cell_setting 'orthorhombic'
loop_
_space_group_symop_operation_xyz
x,y,z
-x,-y,z
x,-y,-z
-x,y,-z
-x,-y,-z
x,y,-z
-x,y,z
x,-y,z
loop_
_atom_site_type_symbol
_atom_site_label
_atom_site_fract_x
_atom_site_fract_y
_atom_site_fract_z
Si Si1 0.317419 0.252646 0.309078
Si Si2 0.178383 0.929737 0.807649
Si Si3 0.883564 0.575050 0.500000
Si Si4 0.187563 0.574483 0.828215
Si Si5 0.388350 0.603867 0.308309
Si Si6 0.390209 0.110963 0.305900
Si Si7 0.891681 0.788291 0.192937
O O1 0.308213 0.249258 0.500000
O O2 0.374890 0.319059 0.274041
O O3 0.374641 0.187090 0.259242
O O4 0.206760 0.250403 0.240368
O O5 0.294618 0.924344 0.764939
O O6 0.127014 0.863206 0.748999
O O7 0.140551 0.000000 0.748342
O O8 0.168056 0.929253 0.000000
O O9 0.842286 0.500000 0.500000
O O10 0.851096 0.606858 0.334095
O O11 0.000000 0.570721 0.500000
O O12 0.147740 0.500000 0.831272
O O13 0.304654 0.571524 0.798890
O O14 0.163786 0.604974 0.000000
O O15 0.368907 0.593304 0.500000
O O16 0.500000 0.583145 0.276917
O O17 0.385644 0.106131 0.500000
O O18 0.500000 0.088941 0.256311
O O19 0.000000 0.765327 0.249632
O O20 0.893960 0.789415 0.000000
#
# Coordination Sequence:
#
# PCOD9386415 Si02
#       7
#     8   8   4   8   8   8   8
#     4   9  18  33  53  76 101 130 171 220 264 315
#     4   9  18  31  46  67  95 126 163 208 255 306
#     4   9  18  36  61  85 113 151 194 238 284 333
#     4  10  21  37  58  87 122 156 194 240 288 340
#     4  10  20  35  57  82 110 148 190 231 278 334
#     4   9  17  30  48  69  95 128 165 206 255 309
#     4   9  18  33  52  72  96 129 167 210 263 319
#
# _framework density 22.506392999999999
#
# number of rings (size 3 to 8) (size 9 to 14) (size 15 to 20)
#    0.000    2.692    0.769    0.462    0.000    4.923 
#    0.000    6.923    0.000    2.769    0.000    4.308 
#    0.000    0.000    0.000    0.000    0.000    0.000 
#
# Total GULP energy -290183.302292 kJ/mol
# GULP energy per Si atom -5580.448121 kJ/mol
# Density = 2.245517 g / cm^3
# Si number density = 22.506393 Si / 1000 Ang^3
#
#
#
# Elastic Constant Matrix: (Units=GPa)
#
#
# Indices 1 2 3 4 5 6 
#
# 1 89.5526 -10.4464 14.5971 0.0000 0.0000 0.0000
# 2 -10.4464 54.5194 12.0859 0.0000 0.0000 0.0000
# 3 14.5971 12.0859 68.3835 0.0000 0.0000 0.0000
# 4 0.0000 0.0000 0.0000 -22.2039 0.0000 0.0000
# 5 0.0000 0.0000 0.0000 0.0000 12.9511 0.0000
# 6 0.0000 0.0000 0.0000 0.0000 0.0000 2.7634
#
#
#
# Elastic Compliance Matrix: (Units=1/GPa)
#
#
# Indices 1 2 3 4 5 6 
#
# 1 0.012020 0.002989 -0.003094 0.000000 0.000000 0.000000
# 2 0.002989 0.019833 -0.004143 0.000000 0.000000 0.000000
# 3 -0.003094 -0.004143 0.016016 0.000000 0.000000 0.000000
# 4 0.000000 0.000000 0.000000 -0.045037 0.000000 0.000000
# 5 0.000000 0.000000 0.000000 0.000000 0.077213 0.000000
# 6 0.000000 0.000000 0.000000 0.000000 0.000000 0.361870
#
#
# Mechanical properties :
#
#
# Convention : Reuss Voigt Hill
#
# Bulk Modulus (GPa) = 25.39852 27.21431 26.30641
# Shear Modulus (GPa) = 10.78665 11.78339 11.28502
#
# Velocity S-wave (km/s) = 2.19160 2.29062 2.24166
# Velocity P-wave (km/s) = 4.20876 4.37195 4.29113
#
# Compressibility (1/GPa) = 0.03937237
#
# Stress axis : x y z
#
# Youngs Moduli (GPa) = 83.19748 50.42025 62.43714
#
# Poissons Ratio (x) = -0.15070 0.19318
# Poissons Ratio (y) = -0.24867 0.25870
# Poissons Ratio (z) = 0.25741 0.20891
#
# Static dielectric constant tensor:
#      x y z
#    x 1.808920 0.000000 0.000000 
#    y 0.000000 1.895260 0.000000 
#    z 0.000000 0.000000 1.832490 
# 
# From -- ./inp_files/6974.got.cif
#   From: 2010.05.17/outbox.cif.g08.bks.cpg/sg47_4_cif.got.tgz:6974.got - 2010.06.03 20:15:42.
