data_PCOD9386283
_publ_section_title
;
Structure prediction by ZEFSAII (Michael W. Deem and Ramdas Pophale) SiO2 
 PCOD9386283
Probable space group: P M M M
;
_chemical_formula_sum "Si O2"
_cell_formula_units_Z 60
_cell_length_a 13.103146
_cell_length_b 13.262784
_cell_length_c 19.252405
_cell_angle_alpha 90.000000
_cell_angle_beta 90.000000
_cell_angle_gamma 90.000000
_cell_volume 3345.763707
_symmetry_space_group_name_H-M "P M M M"
_symmetry_group_IT_number 47
_symmetry_cell_setting 'orthorhombic'
loop_
_space_group_symop_operation_xyz
x,y,z
-x,-y,z
x,-y,-z
-x,y,-z
-x,-y,-z
x,y,-z
-x,y,z
x,-y,z
loop_
_atom_site_type_symbol
_atom_site_label
_atom_site_fract_x
_atom_site_fract_y
_atom_site_fract_z
Si Si1 0.000000 0.385454 0.584339
Si Si2 0.121836 0.885848 0.316253
Si Si3 0.613774 0.208536 0.081366
Si Si4 0.827859 0.887185 0.082300
Si Si5 0.320579 0.616380 0.815504
Si Si6 0.797165 0.261973 0.417037
Si Si7 0.114673 0.728567 0.193308
Si Si8 0.382559 0.381385 0.655952
O O1 0.897136 0.327533 0.604670
O O2 0.000000 0.500000 0.609998
O O3 0.000000 0.387984 0.500000
O O4 0.182267 0.846307 0.382989
O O5 0.142274 0.806319 0.255029
O O6 0.000000 0.883454 0.329819
O O7 0.148832 0.000000 0.296856
O O8 0.500000 0.167504 0.093572
O O9 0.706562 0.131340 0.093487
O O10 0.631999 0.305009 0.130198
O O11 0.620472 0.237836 0.000000
O O12 0.880929 0.798658 0.124885
O O13 0.857332 0.000000 0.105032
O O14 0.847780 0.879325 0.000000
O O15 0.336902 0.500000 0.834998
O O16 0.200541 0.643730 0.811260
O O17 0.365849 0.632149 0.738519
O O18 0.792699 0.258757 0.500000
O O19 0.697713 0.314395 0.385582
O O20 0.000000 0.690641 0.204411
O O21 0.500000 0.358496 0.638657
O O22 0.363825 0.500000 0.640956
#
# Coordination Sequence:
#
# PCOD9386283 Si02
#       8
#     4   8   8   8   8   8   8   8
#     4   9  18  32  51  77 111 143 169 210 266 322
#     4  10  20  35  56  81 109 141 177 220 271 323
#     4   9  18  32  51  77 108 141 178 222 268 311
#     4   9  18  32  51  77 108 142 180 221 265 313
#     4  10  20  35  55  78 106 140 177 217 262 315
#     4  11  21  35  54  80 110 141 179 220 270 326
#     4  10  20  35  54  78 108 139 175 217 263 316
#     4  10  21  37  57  81 109 143 181 221 269 323
#
# _framework density 17.933126000000001
#
# number of rings (size 3 to 8) (size 9 to 14) (size 15 to 20)
#    0.000    2.200    2.000    1.200    0.000    4.000 
#    0.000    4.000    0.000    0.400    0.000    4.667 
#    0.000    0.000    0.000    0.000    0.000    0.000 
#
# Total GULP energy -334785.971189 kJ/mol
# GULP energy per Si atom -5579.766186 kJ/mol
# Density = 1.789231 g / cm^3
# Si number density = 17.933126 Si / 1000 Ang^3
#
#
#
# Elastic Constant Matrix: (Units=GPa)
#
#
# Indices 1 2 3 4 5 6 
#
# 1 61.9278 -7.2419 1.7293 0.0000 0.0000 0.0000
# 2 -7.2419 27.6335 7.1929 0.0000 0.0000 0.0000
# 3 1.7293 7.1929 42.4202 0.0000 0.0000 0.0000
# 4 0.0000 0.0000 0.0000 20.0929 0.0000 0.0000
# 5 0.0000 0.0000 0.0000 0.0000 19.4396 0.0000
# 6 0.0000 0.0000 0.0000 0.0000 0.0000 11.5152
#
#
#
# Elastic Compliance Matrix: (Units=1/GPa)
#
#
# Indices 1 2 3 4 5 6 
#
# 1 0.016748 0.004778 -0.001493 0.000000 0.000000 0.000000
# 2 0.004778 0.039222 -0.006845 0.000000 0.000000 0.000000
# 3 -0.001493 -0.006845 0.024795 0.000000 0.000000 0.000000
# 4 0.000000 0.000000 0.000000 0.049769 0.000000 0.000000
# 5 0.000000 0.000000 0.000000 0.000000 0.051441 0.000000
# 6 0.000000 0.000000 0.000000 0.000000 0.000000 0.086841
#
#
# Mechanical properties :
#
#
# Convention : Reuss Voigt Hill
#
# Bulk Modulus (GPa) = 13.57875 15.03802 14.30839
# Shear Modulus (GPa) = 16.63969 18.89627 17.76798
#
# Velocity S-wave (km/s) = 3.04941 3.24961 3.15110
# Velocity P-wave (km/s) = 4.47066 4.74170 4.60818
#
# Compressibility (1/GPa) = 0.07364446
#
# Stress axis : x y z
#
# Youngs Moduli (GPa) = 59.70769 25.49594 40.33027
#
# Poissons Ratio (x) = -0.12181 0.06021
# Poissons Ratio (y) = -0.28527 0.27608
# Poissons Ratio (z) = 0.08914 0.17453
#
# Static dielectric constant tensor:
#      x y z
#    x 1.619870 0.000000 0.000000 
#    y 0.000000 1.588530 0.000000 
#    z 0.000000 0.000000 1.616970 
# 
# From -- ./inp_files/16601.got.cif
#   From: 2010.05.17/outbox.cif.g08.bks.cpg/sg47_9_cif.got.tgz:16601.got - 2010.06.03 20:15:42.
