data_PCOD9386782
_publ_section_title
;
Structure prediction by ZEFSAII (Michael W. Deem and Ramdas Pophale) SiO2 
 PCOD9386782
Probable space group: P M M M
;
_chemical_formula_sum "Si O2"
_cell_formula_units_Z 56
_cell_length_a 19.463280
_cell_length_b 7.767890
_cell_length_c 22.101420
_cell_angle_alpha 90.000000
_cell_angle_beta 90.000000
_cell_angle_gamma 90.000000
_cell_volume 3341.483147
_symmetry_space_group_name_H-M "P M M M"
_symmetry_group_IT_number 47
_symmetry_cell_setting 'orthorhombic'
loop_
_space_group_symop_operation_xyz
x,y,z
-x,-y,z
x,-y,-z
-x,y,-z
-x,-y,-z
x,y,-z
-x,y,z
x,-y,z
loop_
_atom_site_type_symbol
_atom_site_label
_atom_site_fract_x
_atom_site_fract_y
_atom_site_fract_z
Si Si1 0.422453 0.295550 0.634233
Si Si2 0.078341 0.204731 0.000000
Si Si3 0.078016 0.291432 0.625072
Si Si4 0.921334 0.705905 0.131133
Si Si5 0.216171 0.202089 0.432910
Si Si6 0.288333 0.300829 0.688812
Si Si7 0.583232 0.196133 0.500000
Si Si8 0.153478 0.289056 0.748762
O O1 0.500000 0.224151 0.640118
O O2 0.426569 0.500000 0.644810
O O3 0.363604 0.222440 0.678043
O O4 0.398207 0.274593 0.564559
O O5 0.108592 0.258432 0.064494
O O6 0.000000 0.277280 0.000000
O O7 0.074825 0.000000 0.000000
O O8 0.079399 0.500000 0.622148
O O9 0.134752 0.223295 0.578679
O O10 0.104462 0.242027 0.692347
O O11 0.000000 0.234644 0.614816
O O12 0.925472 0.500000 0.137658
O O13 0.877284 0.770407 0.187697
O O14 0.000000 0.773864 0.133366
O O15 0.234636 0.264234 0.500000
O O16 0.252486 0.295738 0.377257
O O17 0.233368 0.000000 0.428666
O O18 0.297920 0.500000 0.706487
O O19 0.230352 0.226090 0.733074
O O20 0.500000 0.201212 0.500000
O O21 0.606925 0.000000 0.500000
O O22 0.155678 0.500000 0.749094
#
# Coordination Sequence:
#
# PCOD9386782 Si02
#       8
#     8   4   8   8   8   8   4   8
#     4   9  17  29  44  62  82 103 129 162 201 246
#     4   9  17  27  37  55  85 113 136 163 192 224
#     4   9  17  30  47  63  77  96 128 168 205 244
#     4   9  15  24  41  61  80 105 136 167 196 226
#     4  10  21  33  42  55  76 101 128 163 208 251
#     4   9  18  31  46  61  78 103 133 165 201 244
#     4   9  17  27  39  57  79 101 126 157 196 243
#     4   8  14  26  43  62  80 100 131 167 199 231
#
# _framework density 16.759025000000001
#
# number of rings (size 3 to 8) (size 9 to 14) (size 15 to 20)
#    0.000    3.000    0.000    2.143    1.000    5.714 
#    0.000    4.286    0.000    3.429    0.000    0.000 
#    0.000    0.000    0.000    0.643    0.000   17.429 
#
# Total GULP energy -312015.613300 kJ/mol
# GULP energy per Si atom -5571.707380 kJ/mol
# Density = 1.672088 g / cm^3
# Si number density = 16.759025 Si / 1000 Ang^3
#
#
#
# Elastic Constant Matrix: (Units=GPa)
#
#
# Indices 1 2 3 4 5 6 
#
# 1 88.4859 -1.0313 26.7590 0.0000 0.0000 0.0000
# 2 -1.0313 25.2901 -0.1851 0.0000 0.0000 0.0000
# 3 26.7590 -0.1851 88.4937 0.0000 0.0000 0.0000
# 4 0.0000 0.0000 0.0000 66.7431 0.0000 0.0000
# 5 0.0000 0.0000 0.0000 0.0000 15.7060 0.0000
# 6 0.0000 0.0000 0.0000 0.0000 0.0000 -0.1810
#
#
#
# Elastic Compliance Matrix: (Units=1/GPa)
#
#
# Indices 1 2 3 4 5 6 
#
# 1 0.012444 0.000480 -0.003762 0.000000 0.000000 0.000000
# 2 0.000480 0.039560 -0.000062 0.000000 0.000000 0.000000
# 3 -0.003762 -0.000062 0.012438 0.000000 0.000000 0.000000
# 4 0.000000 0.000000 0.000000 0.014983 0.000000 0.000000
# 5 0.000000 0.000000 0.000000 0.000000 0.063670 0.000000
# 6 0.000000 0.000000 0.000000 0.000000 0.000000 -5.525217
#
#
# Mechanical properties :
#
#
# Convention : Reuss Voigt Hill
#
# Bulk Modulus (GPa) = 17.31497 28.15054 22.73276
# Shear Modulus (GPa) = -0.93350 28.23543 13.65097
#
# Velocity S-wave (km/s) = -0.74714 4.10907 2.85712
# Velocity P-wave (km/s) = 3.09998 6.27267 4.94753
#
# Compressibility (1/GPa) = 0.05775349
#
# Stress axis : x y z
#
# Youngs Moduli (GPa) = 80.35688 25.27792 80.40090
#
# Poissons Ratio (x) = -0.01213 0.30247
# Poissons Ratio (y) = -0.03857 0.00502
# Poissons Ratio (z) = 0.30230 0.00158
#
# Static dielectric constant tensor:
#      x y z
#    x 1.621920 0.000000 0.000000 
#    y 0.000000 1.606880 0.000000 
#    z 0.000000 0.000000 1.555720 
# 
# From -- ./inp_files/30110.got.cif
#   From: 2010.05.17/outbox.cif.g08.bks.cpg/sg47_16_cif.got.tgz:30110.got - 2010.06.03 20:15:42.
