data_PCOD9386362
_publ_section_title
;
Structure prediction by ZEFSAII (Michael W. Deem and Ramdas Pophale) SiO2 
 PCOD9386362
Probable space group: P M M M
;
_chemical_formula_sum "Si O2"
_cell_formula_units_Z 52
_cell_length_a 27.850942
_cell_length_b 8.758614
_cell_length_c 12.260583
_cell_angle_alpha 90.000000
_cell_angle_beta 90.000000
_cell_angle_gamma 90.000000
_cell_volume 2990.793290
_symmetry_space_group_name_H-M "P M M M"
_symmetry_group_IT_number 47
_symmetry_cell_setting 'orthorhombic'
loop_
_space_group_symop_operation_xyz
x,y,z
-x,-y,z
x,-y,-z
-x,y,-z
-x,-y,-z
x,y,-z
-x,y,z
x,-y,z
loop_
_atom_site_type_symbol
_atom_site_label
_atom_site_fract_x
_atom_site_fract_y
_atom_site_fract_z
Si Si1 0.322849 0.817450 0.127340
Si Si2 0.944804 0.814040 0.000000
Si Si3 0.053801 0.320321 0.630293
Si Si4 0.121805 0.180905 0.202182
Si Si5 0.500000 0.816471 0.871774
Si Si6 0.219567 0.680358 0.871286
Si Si7 0.444126 0.685601 0.500000
Si Si8 0.410277 0.683678 0.738902
O O1 0.268945 0.765775 0.155968
O O2 0.361286 0.742037 0.207269
O O3 0.326937 0.000000 0.132840
O O4 0.331542 0.771774 0.000000
O O5 0.914202 0.766896 0.105490
O O6 0.000000 0.760005 0.000000
O O7 0.946487 0.000000 0.000000
O O8 0.055896 0.306806 0.500000
O O9 0.059520 0.500000 0.657079
O O10 0.094352 0.223383 0.688015
O O11 0.000000 0.272751 0.665618
O O12 0.173037 0.260864 0.191433
O O13 0.128630 0.000000 0.191099
O O14 0.453571 0.749934 0.811302
O O15 0.500000 0.000000 0.863726
O O16 0.500000 0.776074 0.000000
O O17 0.226195 0.500000 0.855652
O O18 0.210286 0.708728 0.000000
O O19 0.444695 0.500000 0.500000
O O20 0.500000 0.735470 0.500000
O O21 0.418822 0.732530 0.612952
O O22 0.411898 0.500000 0.742297
#
# Coordination Sequence:
#
# PCOD9386362 Si02
#       8
#     8   4   8   8   4   8   4   8
#     4  10  21  37  57  82 114 145 177 223 279 327
#     4   9  18  30  45  73 113 149 177 210 263 326
#     4   9  19  36  55  75 103 140 181 225 272 322
#     4  11  20  32  53  79 111 145 179 222 273 326
#     4  11  23  36  51  78 118 153 182 223 276 323
#     4  10  20  35  56  81 109 143 185 225 267 327
#     4   9  18  36  58  82 112 148 186 226 269 316
#     4  11  21  36  59  83 110 146 188 228 269 323
#
# _framework density 17.386692
#
# number of rings (size 3 to 8) (size 9 to 14) (size 15 to 20)
#    0.000    1.923    1.538    3.462    0.000    5.231 
#    0.000    2.692    1.692    1.846    0.000    0.000 
#    0.000    0.000    0.000    0.000    0.000    0.000 
#
# Total GULP energy -290301.214149 kJ/mol
# GULP energy per Si atom -5582.715657 kJ/mol
# Density = 1.734712 g / cm^3
# Si number density = 17.386692 Si / 1000 Ang^3
#
#
#
# Elastic Constant Matrix: (Units=GPa)
#
#
# Indices 1 2 3 4 5 6 
#
# 1 125.6357 32.3543 61.5577 0.0000 0.0000 0.0000
# 2 32.3543 37.7416 30.0942 0.0000 0.0000 0.0000
# 3 61.5577 30.0942 90.0820 0.0000 0.0000 0.0000
# 4 0.0000 0.0000 0.0000 20.5888 0.0000 0.0000
# 5 0.0000 0.0000 0.0000 0.0000 21.9009 0.0000
# 6 0.0000 0.0000 0.0000 0.0000 0.0000 26.3821
#
#
#
# Elastic Compliance Matrix: (Units=1/GPa)
#
#
# Indices 1 2 3 4 5 6 
#
# 1 0.012731 -0.005421 -0.006889 0.000000 0.000000 0.000000
# 2 -0.005421 0.038425 -0.009133 0.000000 0.000000 0.000000
# 3 -0.006889 -0.009133 0.018859 0.000000 0.000000 0.000000
# 4 0.000000 0.000000 0.000000 0.048570 0.000000 0.000000
# 5 0.000000 0.000000 0.000000 0.000000 0.045660 0.000000
# 6 0.000000 0.000000 0.000000 0.000000 0.000000 0.037904
#
#
# Mechanical properties :
#
#
# Convention : Reuss Voigt Hill
#
# Bulk Modulus (GPa) = 36.85798 55.71909 46.28853
# Shear Modulus (GPa) = 19.67903 22.40457 21.04180
#
# Velocity S-wave (km/s) = 3.36794 3.59361 3.48260
# Velocity P-wave (km/s) = 6.03067 7.02390 6.54615
#
# Compressibility (1/GPa) = 0.02713117
#
# Stress axis : x y z
#
# Youngs Moduli (GPa) = 78.55020 26.02470 53.02405
#
# Poissons Ratio (x) = 0.14107 0.36526
# Poissons Ratio (y) = 0.42580 0.48425
# Poissons Ratio (z) = 0.54110 0.23767
#
# Static dielectric constant tensor:
#      x y z
#    x 1.569090 0.000000 0.000000 
#    y 0.000000 1.587030 0.000000 
#    z 0.000000 0.000000 1.587900 
# 
# From -- ./inp_files/19889.got.cif
#   From: 2010.05.17/outbox.cif.g08.bks.cpg/sg47_10_cif.got.tgz:19889.got - 2010.06.03 20:15:42.
