data_PCOD9386882
_publ_section_title
;
Structure prediction by ZEFSAII (Michael W. Deem and Ramdas Pophale) SiO2 
 PCOD9386882
Probable space group: P M M M
;
_chemical_formula_sum "Si O2"
_cell_formula_units_Z 48
_cell_length_a 33.637198
_cell_length_b 8.053069
_cell_length_c 9.614908
_cell_angle_alpha 90.000000
_cell_angle_beta 90.000000
_cell_angle_gamma 90.000000
_cell_volume 2604.512013
_symmetry_space_group_name_H-M "P M M M"
_symmetry_group_IT_number 47
_symmetry_cell_setting 'orthorhombic'
loop_
_space_group_symop_operation_xyz
x,y,z
-x,-y,z
x,-y,-z
-x,y,-z
-x,-y,-z
x,y,-z
-x,y,z
x,-y,z
loop_
_atom_site_type_symbol
_atom_site_label
_atom_site_fract_x
_atom_site_fract_y
_atom_site_fract_z
Si Si1 0.400395 0.190941 0.830742
Si Si2 0.545893 0.500000 0.830199
Si Si3 0.162588 0.699907 0.841118
Si Si4 0.689561 0.800013 0.841383
Si Si5 0.925442 0.198127 0.158655
Si Si6 0.000000 0.697741 0.657177
Si Si7 0.763985 0.699806 0.342428
O O1 0.431131 0.332557 0.785484
O O2 0.355222 0.242215 0.794219
O O3 0.408136 0.000000 0.784593
O O4 0.401121 0.186375 0.000000
O O5 0.500000 0.500000 0.786705
O O6 0.546563 0.500000 0.000000
O O7 0.165237 0.500000 0.845300
O O8 0.118186 0.744538 0.793984
O O9 0.197680 0.762799 0.742595
O O10 0.167446 0.761843 0.000000
O O11 0.724067 0.739911 0.741181
O O12 0.690682 0.000000 0.846268
O O13 0.695613 0.738230 0.000000
O O14 0.960896 0.250992 0.258256
O O15 0.925284 0.000000 0.152516
O O16 0.931492 0.262136 0.000000
O O17 0.000000 0.500000 0.648893
O O18 0.000000 0.766266 0.500000
O O19 0.762834 0.763777 0.500000
O O20 0.767372 0.500000 0.348680
#
# Coordination Sequence:
#
# PCOD9386882 Si02
#       7
#     8   4   8   8   8   4   8
#     4   8  15  27  41  62  93 127 167 214 259 308
#     4   9  16  24  38  64  95 131 171 207 257 320
#     4   9  18  34  54  75 102 139 179 213 250 301
#     4   9  18  32  50  71  95 129 174 217 256 303
#     4  10  21  37  58  83 108 134 168 212 257 302
#     4  11  24  39  56  80 108 139 174 211 254 304
#     4  10  21  34  49  74 106 136 168 209 257 308
#
# _framework density 18.429556000000002
#
# number of rings (size 3 to 8) (size 9 to 14) (size 15 to 20)
#    0.000    2.667    0.000    2.500    1.167    5.667 
#    0.000    5.000    0.000    0.000    0.000    0.000 
#    0.000    1.333    0.000    3.667    0.000    3.667 
#
# Total GULP energy -267682.583890 kJ/mol
# GULP energy per Si atom -5576.720498 kJ/mol
# Density = 1.838761 g / cm^3
# Si number density = 18.429556 Si / 1000 Ang^3
#
#
#
# Elastic Constant Matrix: (Units=GPa)
#
#
# Indices 1 2 3 4 5 6 
#
# 1 195.4912 52.9878 88.8634 0.0000 0.0000 0.0000
# 2 52.9878 44.6021 25.3205 0.0000 0.0000 0.0000
# 3 88.8634 25.3205 74.4352 0.0000 0.0000 0.0000
# 4 0.0000 0.0000 0.0000 13.5340 0.0000 0.0000
# 5 0.0000 0.0000 0.0000 0.0000 -5.2796 0.0000
# 6 0.0000 0.0000 0.0000 0.0000 0.0000 72.9015
#
#
#
# Elastic Compliance Matrix: (Units=1/GPa)
#
#
# Indices 1 2 3 4 5 6 
#
# 1 0.013332 -0.008431 -0.013048 0.000000 0.000000 0.000000
# 2 -0.008431 0.033118 -0.001201 0.000000 0.000000 0.000000
# 3 -0.013048 -0.001201 0.029420 0.000000 0.000000 0.000000
# 4 0.000000 0.000000 0.000000 0.073888 0.000000 0.000000
# 5 0.000000 0.000000 0.000000 0.000000 -0.189410 0.000000
# 6 0.000000 0.000000 0.000000 0.000000 0.000000 0.013717
#
#
# Mechanical properties :
#
#
# Convention : Reuss Voigt Hill
#
# Bulk Modulus (GPa) = 32.77519 72.09689 52.43604
# Shear Modulus (GPa) = 168.95279 26.05496 97.50388
#
# Velocity S-wave (km/s) = 9.58509 3.76408 7.28156
# Velocity P-wave (km/s) = 11.84573 7.62209 9.96036
#
# Compressibility (1/GPa) = 0.03051088
#
# Stress axis : x y z
#
# Youngs Moduli (GPa) = 75.00990 30.19498 33.99064
#
# Poissons Ratio (x) = 0.25457 0.44350
# Poissons Ratio (y) = 0.63240 0.04081
# Poissons Ratio (z) = 0.97871 0.03625
#
# Static dielectric constant tensor:
#      x y z
#    x 1.624810 0.000000 0.000000 
#    y 0.000000 1.654340 0.000000 
#    z 0.000000 0.000000 1.630590 
# 
# From -- ./inp_files/13832.got.cif
#   From: 2010.05.17/outbox.cif.g08.bks.cpg/sg47_7_cif.got.tgz:13832.got - 2010.06.03 20:15:42.
