data_PCOD9386962
_publ_section_title
;
Structure prediction by ZEFSAII (Michael W. Deem and Ramdas Pophale) SiO2 
 PCOD9386962
Probable space group: P M M M
;
_chemical_formula_sum "Si O2"
_cell_formula_units_Z 32
_cell_length_a 7.611511
_cell_length_b 23.545026
_cell_length_c 9.417250
_cell_angle_alpha 90.000000
_cell_angle_beta 90.000000
_cell_angle_gamma 90.000000
_cell_volume 1687.695737
_symmetry_space_group_name_H-M "P M M M"
_symmetry_group_IT_number 47
_symmetry_cell_setting 'orthorhombic'
loop_
_space_group_symop_operation_xyz
x,y,z
-x,-y,z
x,-y,-z
-x,y,-z
-x,-y,-z
x,y,-z
-x,y,z
x,-y,z
loop_
_atom_site_type_symbol
_atom_site_label
_atom_site_fract_x
_atom_site_fract_y
_atom_site_fract_z
Si Si1 0.792511 0.846044 0.830284
Si Si2 0.500000 0.064569 0.827514
Si Si3 0.711507 0.622993 0.838258
Si Si4 0.296662 0.500000 0.173130
Si Si5 0.789494 0.265366 0.660349
O O1 0.671734 0.899068 0.787399
O O2 0.730783 0.789256 0.750192
O O3 0.000000 0.855739 0.802249
O O4 0.773453 0.837434 0.000000
O O5 0.500000 0.000000 0.774589
O O6 0.500000 0.062052 0.000000
O O7 0.500000 0.617684 0.845516
O O8 0.780026 0.561327 0.786646
O O9 0.751157 0.675930 0.739517
O O10 0.774384 0.633206 0.000000
O O11 0.500000 0.500000 0.221265
O O12 0.297018 0.500000 0.000000
O O13 0.719905 0.265090 0.500000
O O14 0.000000 0.260621 0.653561
#
# Coordination Sequence:
#
# PCOD9386962 Si02
#       5
#     8   4   8   4   8
#     4   9  18  33  53  76 104 138 173 211 256 304
#     4   9  18  32  53  83 111 132 165 212 255 303
#     4   9  17  30  51  75  97 125 164 210 257 306
#     4   7  12  26  46  69  96 124 158 203 254 305
#     4  10  21  35  49  69 100 135 170 210 255 301
#
# _framework density 18.960764000000001
#
# number of rings (size 3 to 8) (size 9 to 14) (size 15 to 20)
#    0.000    3.000    0.000    2.250    1.750    2.500 
#    0.000    3.750    0.000    7.500    0.000    3.500 
#    0.000    0.000    0.000    0.000    0.000    0.000 
#
# Total GULP energy -178333.176305 kJ/mol
# GULP energy per Si atom -5572.911760 kJ/mol
# Density = 1.891761 g / cm^3
# Si number density = 18.960764 Si / 1000 Ang^3
#
#
#
# Elastic Constant Matrix: (Units=GPa)
#
#
# Indices 1 2 3 4 5 6 
#
# 1 59.7270 51.9682 28.9980 0.0000 0.0000 0.0000
# 2 51.9682 228.2194 76.9454 0.0000 0.0000 0.0000
# 3 28.9980 76.9454 62.3398 0.0000 0.0000 0.0000
# 4 0.0000 0.0000 0.0000 -5.7237 0.0000 0.0000
# 5 0.0000 0.0000 0.0000 0.0000 2.9533 0.0000
# 6 0.0000 0.0000 0.0000 0.0000 0.0000 59.9940
#
#
#
# Elastic Compliance Matrix: (Units=1/GPa)
#
#
# Indices 1 2 3 4 5 6 
#
# 1 0.022586 -0.002742 -0.007122 0.000000 0.000000 0.000000
# 2 -0.002742 0.007838 -0.008399 0.000000 0.000000 0.000000
# 3 -0.007122 -0.008399 0.029720 0.000000 0.000000 0.000000
# 4 0.000000 0.000000 0.000000 -0.174713 0.000000 0.000000
# 5 0.000000 0.000000 0.000000 0.000000 0.338602 0.000000
# 6 0.000000 0.000000 0.000000 0.000000 0.000000 0.016668
#
#
# Mechanical properties :
#
#
# Convention : Reuss Voigt Hill
#
# Bulk Modulus (GPa) = 42.33803 74.01217 58.17510
# Shear Modulus (GPa) = 17.53771 24.26971 20.90371
#
# Velocity S-wave (km/s) = 3.04459 3.58158 3.32395
# Velocity P-wave (km/s) = 5.89382 7.49819 6.74388
#
# Compressibility (1/GPa) = 0.02361943
#
# Stress axis : x y z
#
# Youngs Moduli (GPa) = 44.27450 127.58733 33.64713
#
# Poissons Ratio (x) = 0.34985 0.23963
# Poissons Ratio (y) = 0.12140 0.28259
# Poissons Ratio (z) = 0.31532 1.07155
#
# Static dielectric constant tensor:
#      x y z
#    x 1.706320 0.000000 0.000000 
#    y 0.000000 1.663160 0.000000 
#    z 0.000000 0.000000 1.637470 
# 
# From -- ./inp_files/1307.got.cif
#   From: 2010.05.17/outbox.cif.g08.bks.cpg/sg47_1_cif.got.tgz:1307.got - 2010.06.03 20:15:42.
