data_PCOD9386572
_publ_section_title
;
Structure prediction by ZEFSAII (Michael W. Deem and Ramdas Pophale) SiO2 
 PCOD9386572
Probable space group: P M M M
;
_chemical_formula_sum "Si O2"
_cell_formula_units_Z 32
_cell_length_a 7.464683
_cell_length_b 20.285839
_cell_length_c 12.242076
_cell_angle_alpha 90.000000
_cell_angle_beta 90.000000
_cell_angle_gamma 90.000000
_cell_volume 1853.785219
_symmetry_space_group_name_H-M "P M M M"
_symmetry_group_IT_number 47
_symmetry_cell_setting 'orthorhombic'
loop_
_space_group_symop_operation_xyz
x,y,z
-x,-y,z
x,-y,-z
-x,y,-z
-x,-y,-z
x,y,-z
-x,y,z
x,-y,z
loop_
_atom_site_type_symbol
_atom_site_label
_atom_site_fract_x
_atom_site_fract_y
_atom_site_fract_z
Si Si1 0.788671 0.715952 0.374889
Si Si2 0.783410 0.925400 0.500000
Si Si3 0.216596 0.850752 0.276531
Si Si4 0.500000 0.077819 0.130415
Si Si5 0.715285 0.570838 0.626958
O O1 0.714109 0.718552 0.500000
O O2 0.725979 0.775006 0.297933
O O3 0.766293 0.642249 0.328482
O O4 0.000000 0.727765 0.386095
O O5 0.735453 0.887291 0.609890
O O6 0.000000 0.927606 0.500000
O O7 0.716074 0.000000 0.500000
O O8 0.327051 0.886479 0.182344
O O9 0.000000 0.854764 0.260272
O O10 0.500000 0.000000 0.159193
O O11 0.500000 0.083399 0.000000
O O12 0.775704 0.571894 0.500000
O O13 0.500000 0.569569 0.626608
O O14 0.776300 0.500000 0.673873
#
# Coordination Sequence:
#
# PCOD9386572 Si02
#       5
#     8   4   8   4   8
#     4   9  16  27  44  69 101 134 168 205 249 302
#     4   9  16  29  51  77 105 133 160 199 254 316
#     4  10  20  36  56  79 108 137 167 211 263 312
#     4  11  26  43  57  77 100 130 180 224 257 310
#     4   8  14  23  35  56  92 138 178 204 231 280
#
# _framework density 17.261977000000002
#
# number of rings (size 3 to 8) (size 9 to 14) (size 15 to 20)
#    0.000    2.750    1.250    1.500    1.750    3.000 
#    0.000    5.000    0.000    0.000    0.000    0.000 
#    0.000    2.000    0.000    5.500    0.000    0.250 
#
# Total GULP energy -178206.997377 kJ/mol
# GULP energy per Si atom -5568.968668 kJ/mol
# Density = 1.722269 g / cm^3
# Si number density = 17.261977 Si / 1000 Ang^3
#
#
#
# Elastic Constant Matrix: (Units=GPa)
#
#
# Indices 1 2 3 4 5 6 
#
# 1 70.2348 30.8917 22.5872 0.0000 0.0000 0.0000
# 2 30.8917 194.2120 50.1584 0.0000 0.0000 0.0000
# 3 22.5872 50.1584 55.2807 0.0000 0.0000 0.0000
# 4 0.0000 0.0000 0.0000 6.7091 0.0000 0.0000
# 5 0.0000 0.0000 0.0000 0.0000 12.8765 0.0000
# 6 0.0000 0.0000 0.0000 0.0000 0.0000 22.8096
#
#
#
# Elastic Compliance Matrix: (Units=1/GPa)
#
#
# Indices 1 2 3 4 5 6 
#
# 1 0.016590 -0.001160 -0.005726 0.000000 0.000000 0.000000
# 2 -0.001160 0.006806 -0.005701 0.000000 0.000000 0.000000
# 3 -0.005726 -0.005701 0.025602 0.000000 0.000000 0.000000
# 4 0.000000 0.000000 0.000000 0.149052 0.000000 0.000000
# 5 0.000000 0.000000 0.000000 0.000000 0.077661 0.000000
# 6 0.000000 0.000000 0.000000 0.000000 0.000000 0.043841
#
#
# Mechanical properties :
#
#
# Convention : Reuss Voigt Hill
#
# Bulk Modulus (GPa) = 41.97581 58.55577 50.26579
# Shear Modulus (GPa) = 14.17769 22.88506 18.53137
#
# Velocity S-wave (km/s) = 2.86899 3.64503 3.28004
# Velocity P-wave (km/s) = 5.94512 7.19100 6.59754
#
# Compressibility (1/GPa) = 0.02382325
#
# Stress axis : x y z
#
# Youngs Moduli (GPa) = 60.27892 146.92926 39.05927
#
# Poissons Ratio (x) = 0.17043 0.22365
# Poissons Ratio (y) = 0.06992 0.22269
# Poissons Ratio (z) = 0.34515 0.83770
#
# Static dielectric constant tensor:
#      x y z
#    x 1.643420 0.000000 0.000000 
#    y 0.000000 1.656610 0.000000 
#    z 0.000000 0.000000 1.532940 
# 
# From -- ./inp_files/14817.got.cif
#   From: 2010.05.17/outbox.cif.g08.bks.cpg/sg47_8_cif.got.tgz:14817.got - 2010.06.03 20:15:42.
