data_PCOD9386053
_publ_section_title
;
Structure prediction by ZEFSAII (Michael W. Deem and Ramdas Pophale) SiO2 
 PCOD9386053
Probable space group: P M M M
;
_chemical_formula_sum "Si O2"
_cell_formula_units_Z 64
_cell_length_a 8.001229
_cell_length_b 14.909744
_cell_length_c 26.082223
_cell_angle_alpha 90.000000
_cell_angle_beta 90.000000
_cell_angle_gamma 90.000000
_cell_volume 3111.512076
_symmetry_space_group_name_H-M "P M M M"
_symmetry_group_IT_number 47
_symmetry_cell_setting 'orthorhombic'
loop_
_space_group_symop_operation_xyz
x,y,z
-x,-y,z
x,-y,-z
-x,y,-z
-x,-y,-z
x,y,-z
-x,y,z
x,-y,z
loop_
_atom_site_type_symbol
_atom_site_label
_atom_site_fract_x
_atom_site_fract_y
_atom_site_fract_z
Si Si1 0.197795 0.292385 0.555757
Si Si2 0.301959 0.722299 0.754202
Si Si3 0.802041 0.096060 0.062216
Si Si4 0.203080 0.604277 0.656515
Si Si5 0.299212 0.399862 0.154590
Si Si6 0.797571 0.708738 0.058845
Si Si7 0.804516 0.900624 0.295446
Si Si8 0.305751 0.100241 0.589371
O O1 0.269319 0.316443 0.500000
O O2 0.264163 0.347109 0.604533
O O3 0.219825 0.186180 0.564821
O O4 0.000000 0.311124 0.554405
O O5 0.500000 0.733044 0.759564
O O6 0.266291 0.659469 0.705245
O O7 0.233596 0.671513 0.804115
O O8 0.229085 0.819917 0.742814
O O9 0.734664 0.193132 0.078019
O O10 0.000000 0.094892 0.074738
O O11 0.730086 0.000000 0.079703
O O12 0.791856 0.097100 0.000000
O O13 0.252385 0.500000 0.658362
O O14 0.000000 0.608262 0.657371
O O15 0.500000 0.402438 0.160181
O O16 0.234685 0.500000 0.164445
O O17 0.258228 0.366829 0.097814
O O18 0.000000 0.712232 0.058305
O O19 0.743139 0.694830 0.000000
O O20 0.708168 0.888565 0.349020
O O21 0.000000 0.898498 0.309396
O O22 0.764841 0.000000 0.274963
O O23 0.500000 0.102231 0.574619
O O24 0.239139 0.000000 0.577332
#
# Coordination Sequence:
#
# PCOD9386053 Si02
#       8
#     8   8   8   8   8   8   8   8
#     4  10  21  36  54  79 113 151 189 232 283 338
#     4  11  22  38  61  85 111 144 184 232 281 331
#     4   7  10  20  42  72 104 136 169 207 254 308
#     4  10  21  37  58  83 109 142 186 233 285 342
#     4  10  23  41  57  77 108 147 188 228 276 332
#     4   9  18  33  55  84 114 144 183 231 278 323
#     4  10  20  35  58  87 117 147 180 221 272 334
#     4  10  20  34  54  81 112 148 188 228 274 329
#
# _framework density 20.568776
#
# number of rings (size 3 to 8) (size 9 to 14) (size 15 to 20)
#    0.000    2.375    1.250    2.625    0.000    4.750 
#    0.000    4.375    0.000    2.625    0.000    3.500 
#    0.000    0.000    0.000    0.000    0.000    0.000 
#
# Total GULP energy -357071.251793 kJ/mol
# GULP energy per Si atom -5579.238309 kJ/mol
# Density = 2.052196 g / cm^3
# Si number density = 20.568776 Si / 1000 Ang^3
#
#
#
# Elastic Constant Matrix: (Units=GPa)
#
#
# Indices 1 2 3 4 5 6 
#
# 1 17.7379 -3.7107 -5.0334 0.0000 0.0000 0.0000
# 2 -3.7107 90.5409 32.5329 0.0000 0.0000 0.0000
# 3 -5.0334 32.5329 77.2330 0.0000 0.0000 0.0000
# 4 0.0000 0.0000 0.0000 1.6538 0.0000 0.0000
# 5 0.0000 0.0000 0.0000 0.0000 20.2523 0.0000
# 6 0.0000 0.0000 0.0000 0.0000 0.0000 10.1915
#
#
#
# Elastic Compliance Matrix: (Units=1/GPa)
#
#
# Indices 1 2 3 4 5 6 
#
# 1 0.057548 0.001191 0.003249 0.000000 0.000000 0.000000
# 2 0.001191 0.013039 -0.005415 0.000000 0.000000 0.000000
# 3 0.003249 -0.005415 0.015440 0.000000 0.000000 0.000000
# 4 0.000000 0.000000 0.000000 0.604675 0.000000 0.000000
# 5 0.000000 0.000000 0.000000 0.000000 0.049377 0.000000
# 6 0.000000 0.000000 0.000000 0.000000 0.000000 0.098121
#
#
# Mechanical properties :
#
#
# Convention : Reuss Voigt Hill
#
# Bulk Modulus (GPa) = 11.89380 25.89882 18.89631
# Shear Modulus (GPa) = 5.75920 17.20105 11.48012
#
# Velocity S-wave (km/s) = 1.67513 2.89497 2.36505
# Velocity P-wave (km/s) = 3.08811 4.87782 4.08225
#
# Compressibility (1/GPa) = 0.08407740
#
# Stress axis : x y z
#
# Youngs Moduli (GPa) = 17.37690 76.69168 64.76488
#
# Poissons Ratio (x) = -0.09136 -0.21040
# Poissons Ratio (y) = -0.02070 0.35069
# Poissons Ratio (z) = -0.05645 0.41528
#
# Static dielectric constant tensor:
#      x y z
#    x 1.745700 0.000000 0.000000 
#    y 0.000000 1.752930 0.000000 
#    z 0.000000 0.000000 1.721180 
# 
# From -- ./inp_files/21895.got.cif
#   From: 2010.05.17/outbox.cif.g08.bks.cpg/sg47_11_cif.got.tgz:21895.got - 2010.06.03 20:15:42.
