data_PCOD9386339
_publ_section_title
;
Structure prediction by ZEFSAII (Michael W. Deem and Ramdas Pophale) SiO2 
 PCOD9386339
Probable space group: P M M M
;
_chemical_formula_sum "Si O2"
_cell_formula_units_Z 52
_cell_length_a 20.646975
_cell_length_b 7.476636
_cell_length_c 16.335718
_cell_angle_alpha 90.000000
_cell_angle_beta 90.000000
_cell_angle_gamma 90.000000
_cell_volume 2521.743425
_symmetry_space_group_name_H-M "P M M M"
_symmetry_group_IT_number 47
_symmetry_cell_setting 'orthorhombic'
loop_
_space_group_symop_operation_xyz
x,y,z
-x,-y,z
x,-y,-z
-x,y,-z
-x,-y,-z
x,y,-z
-x,y,z
x,-y,z
loop_
_atom_site_type_symbol
_atom_site_label
_atom_site_fract_x
_atom_site_fract_y
_atom_site_fract_z
Si Si1 0.199495 0.714189 0.589882
Si Si2 0.214960 0.219090 0.091187
Si Si3 0.711123 0.787462 0.744551
Si Si4 0.071807 0.791253 0.866218
Si Si5 0.928941 0.283251 0.326063
Si Si6 0.422558 0.500000 0.912485
Si Si7 0.426715 0.213878 0.220269
O O1 0.218648 0.781737 0.500000
O O2 0.195041 0.500000 0.584306
O O3 0.246702 0.750290 0.665139
O O4 0.129093 0.781351 0.617686
O O5 0.255975 0.281965 0.170791
O O6 0.139779 0.280049 0.099636
O O7 0.214412 0.000000 0.094417
O O8 0.238793 0.268621 0.000000
O O9 0.636476 0.733666 0.728015
O O10 0.709674 0.000000 0.755588
O O11 0.078295 0.778849 0.767684
O O12 0.000000 0.715703 0.887209
O O13 0.069786 0.000000 0.889702
O O14 0.926895 0.500000 0.323504
O O15 0.000000 0.229185 0.355205
O O16 0.500000 0.500000 0.921012
O O17 0.410629 0.680381 0.862654
O O18 0.390420 0.500000 0.000000
O O19 0.500000 0.265695 0.246800
O O20 0.427618 0.000000 0.209197
#
# Coordination Sequence:
#
# PCOD9386339 Si02
#       7
#     8   8   8   8   8   4   8
#     4  10  21  35  53  78 106 137 173 216 270 328
#     4   9  17  29  46  71 101 131 168 213 259 307
#     4  10  20  35  56  78 104 139 175 219 274 326
#     4   9  16  27  45  67  92 126 168 210 253 301
#     4   9  17  30  49  71  98 133 171 212 260 315
#     4   9  18  32  52  82 115 147 188 233 279 333
#     4   9  19  35  55  80 110 148 191 231 279 339
#
# _framework density 20.620653999999998
#
# number of rings (size 3 to 8) (size 9 to 14) (size 15 to 20)
#    0.000    2.692    1.538    0.000    1.077    1.846 
#    0.000    6.154    0.000    1.846    0.000    8.615 
#    0.000    0.000    0.000    0.000    0.000    0.000 
#
# Total GULP energy -289710.683574 kJ/mol
# GULP energy per Si atom -5571.359299 kJ/mol
# Density = 2.057372 g / cm^3
# Si number density = 20.620654 Si / 1000 Ang^3
#
#
#
# Elastic Constant Matrix: (Units=GPa)
#
#
# Indices 1 2 3 4 5 6 
#
# 1 166.3524 13.2491 84.9748 0.0000 0.0000 0.0000
# 2 13.2491 45.1188 -5.8414 0.0000 0.0000 0.0000
# 3 84.9748 -5.8414 122.6085 0.0000 0.0000 0.0000
# 4 0.0000 0.0000 0.0000 18.0327 0.0000 0.0000
# 5 0.0000 0.0000 0.0000 0.0000 3.1348 0.0000
# 6 0.0000 0.0000 0.0000 0.0000 0.0000 7.7372
#
#
#
# Elastic Compliance Matrix: (Units=1/GPa)
#
#
# Indices 1 2 3 4 5 6 
#
# 1 0.009922 -0.003827 -0.007059 0.000000 0.000000 0.000000
# 2 -0.003827 0.023778 0.003785 0.000000 0.000000 0.000000
# 3 -0.007059 0.003785 0.013229 0.000000 0.000000 0.000000
# 4 0.000000 0.000000 0.000000 0.055455 0.000000 0.000000
# 5 0.000000 0.000000 0.000000 0.000000 0.319001 0.000000
# 6 0.000000 0.000000 0.000000 0.000000 0.000000 0.129245
#
#
# Mechanical properties :
#
#
# Convention : Reuss Voigt Hill
#
# Bulk Modulus (GPa) = 30.55612 57.64939 44.10276
# Shear Modulus (GPa) = 8.68448 21.89410 15.28929
#
# Velocity S-wave (km/s) = 2.05443 3.26199 2.72592
# Velocity P-wave (km/s) = 4.52526 6.49656 5.59836
#
# Compressibility (1/GPa) = 0.03272666
#
# Stress axis : x y z
#
# Youngs Moduli (GPa) = 100.78735 42.05616 75.59409
#
# Poissons Ratio (x) = 0.16097 0.53360
# Poissons Ratio (y) = 0.38576 -0.28616
# Poissons Ratio (z) = 0.71144 -0.15920
#
# Static dielectric constant tensor:
#      x y z
#    x 1.784890 0.000000 0.000000 
#    y 0.000000 1.652350 0.000000 
#    z 0.000000 0.000000 1.832810 
# 
# From -- ./inp_files/25054.got.cif
#   From: 2010.05.17/outbox.cif.g08.bks.cpg/sg47_13_cif.got.tgz:25054.got - 2010.06.03 20:15:42.
