data_PCOD9386644
_publ_section_title
;
Structure prediction by ZEFSAII (Michael W. Deem and Ramdas Pophale) SiO2 
 PCOD9386644
Probable space group: P M M M
;
_chemical_formula_sum "Si O2"
_cell_formula_units_Z 56
_cell_length_a 20.374957
_cell_length_b 9.053366
_cell_length_c 15.634364
_cell_angle_alpha 90.000000
_cell_angle_beta 90.000000
_cell_angle_gamma 90.000000
_cell_volume 2883.945160
_symmetry_space_group_name_H-M "P M M M"
_symmetry_group_IT_number 47
_symmetry_cell_setting 'orthorhombic'
loop_
_space_group_symop_operation_xyz
x,y,z
-x,-y,z
x,-y,-z
-x,y,-z
-x,-y,-z
x,y,-z
-x,y,z
x,-y,z
loop_
_atom_site_type_symbol
_atom_site_label
_atom_site_fract_x
_atom_site_fract_y
_atom_site_fract_z
Si Si1 0.400014 0.325200 0.405668
Si Si2 0.704579 0.327640 0.169302
Si Si3 0.750622 0.668304 0.365373
Si Si4 0.924487 0.326437 0.768418
Si Si5 0.172553 0.824674 0.096959
Si Si6 0.426771 0.175980 0.226859
Si Si7 0.882247 0.824645 0.595707
O O1 0.424047 0.282856 0.500000
O O2 0.414240 0.500000 0.392150
O O3 0.321018 0.310506 0.405104
O O4 0.424479 0.233559 0.324923
O O5 0.699328 0.500000 0.147043
O O6 0.737496 0.318611 0.263949
O O7 0.754958 0.242459 0.109161
O O8 0.632811 0.255814 0.178268
O O9 0.772421 0.500000 0.383886
O O10 0.805586 0.780438 0.395970
O O11 0.908440 0.500000 0.765544
O O12 0.875878 0.247418 0.834205
O O13 0.916092 0.259098 0.673899
O O14 0.000000 0.308542 0.795490
O O15 0.175146 0.000000 0.111003
O O16 0.149917 0.795972 0.000000
O O17 0.500000 0.208256 0.193086
O O18 0.416552 0.000000 0.225628
O O19 0.904855 0.783505 0.500000
O O20 0.890442 0.000000 0.605850
#
# Coordination Sequence:
#
# PCOD9386644 Si02
#       7
#     8   8   8   8   8   8   8
#     4   9  18  31  47  70 103 146 197 252 305 357
#     4  10  20  36  61  89 118 155 197 244 297 353
#     4   9  17  31  52  78 109 148 195 247 302 356
#     4  11  25  44  65  90 123 165 209 252 300 354
#     4  11  24  42  68 100 129 158 194 240 300 368
#     4  10  21  35  52  77 112 156 201 246 301 361
#     4  11  23  36  55  85 120 161 207 255 307 359
#
# _framework density 19.417845
#
# number of rings (size 3 to 8) (size 9 to 14) (size 15 to 20)
#    0.000    1.857    1.429    3.429    0.000    8.571 
#    0.000    4.286    0.000    0.429    0.000    3.000 
#    0.000    0.000    0.000    0.000    0.000    0.000 
#
# Total GULP energy -312836.902491 kJ/mol
# GULP energy per Si atom -5586.373259 kJ/mol
# Density = 1.937365 g / cm^3
# Si number density = 19.417845 Si / 1000 Ang^3
#
#
#
# Elastic Constant Matrix: (Units=GPa)
#
#
# Indices 1 2 3 4 5 6 
#
# 1 100.4982 55.9117 47.8246 0.0000 0.0000 0.0000
# 2 55.9117 96.7594 57.3269 0.0000 0.0000 0.0000
# 3 47.8246 57.3269 82.7971 0.0000 0.0000 0.0000
# 4 0.0000 0.0000 0.0000 2.6678 0.0000 0.0000
# 5 0.0000 0.0000 0.0000 0.0000 -32.7573 0.0000
# 6 0.0000 0.0000 0.0000 0.0000 0.0000 28.4853
#
#
#
# Elastic Compliance Matrix: (Units=1/GPa)
#
#
# Indices 1 2 3 4 5 6 
#
# 1 0.015682 -0.006265 -0.004720 0.000000 0.000000 0.000000
# 2 -0.006265 0.020026 -0.010247 0.000000 0.000000 0.000000
# 3 -0.004720 -0.010247 0.021899 0.000000 0.000000 0.000000
# 4 0.000000 0.000000 0.000000 0.374842 0.000000 0.000000
# 5 0.000000 0.000000 0.000000 0.000000 -0.030528 0.000000
# 6 0.000000 0.000000 0.000000 0.000000 0.000000 0.035106
#
#
# Mechanical properties :
#
#
# Convention : Reuss Voigt Hill
#
# Bulk Modulus (GPa) = 66.03895 66.90900 66.47398
# Shear Modulus (GPa) = 10.31906 7.61193 8.96550
#
# Velocity S-wave (km/s) = 2.30776 1.98206 2.15108
# Velocity P-wave (km/s) = 6.41750 6.30638 6.36218
#
# Compressibility (1/GPa) = 0.01514258
#
# Stress axis : x y z
#
# Youngs Moduli (GPa) = 63.76572 49.93473 45.66438
#
# Poissons Ratio (x) = 0.31286 0.21555
# Poissons Ratio (y) = 0.39951 0.46791
# Poissons Ratio (z) = 0.30100 0.51167
#
# Static dielectric constant tensor:
#      x y z
#    x 1.688080 0.000000 0.000000 
#    y 0.000000 1.647110 0.000000 
#    z 0.000000 0.000000 1.678860 
# 
# From -- ./inp_files/25121.got.cif
#   From: 2010.05.17/outbox.cif.g08.bks.cpg/sg47_13_cif.got.tgz:25121.got - 2010.06.03 20:15:42.
