data_PCOD9386193
_publ_section_title
;
Structure prediction by ZEFSAII (Michael W. Deem and Ramdas Pophale) SiO2 
 PCOD9386193
Probable space group: P M M M
;
_chemical_formula_sum "Si O2"
_cell_formula_units_Z 40
_cell_length_a 7.748422
_cell_length_b 9.377893
_cell_length_c 28.616591
_cell_angle_alpha 90.000000
_cell_angle_beta 90.000000
_cell_angle_gamma 90.000000
_cell_volume 2079.392318
_symmetry_space_group_name_H-M "P M M M"
_symmetry_group_IT_number 47
_symmetry_cell_setting 'orthorhombic'
loop_
_space_group_symop_operation_xyz
x,y,z
-x,-y,z
x,-y,-z
-x,y,-z
-x,-y,-z
x,y,-z
-x,y,z
x,-y,z
loop_
_atom_site_type_symbol
_atom_site_label
_atom_site_fract_x
_atom_site_fract_y
_atom_site_fract_z
Si Si1 0.500000 0.326674 0.053195
Si Si2 0.292803 0.661396 0.306688
Si Si3 0.709698 0.835348 0.216210
Si Si4 0.208475 0.836774 0.398586
Si Si5 0.802756 0.331270 0.877358
Si Si6 0.199822 0.826256 0.500000
O O1 0.500000 0.500000 0.051173
O O2 0.332297 0.284984 0.083080
O O3 0.500000 0.274198 0.000000
O O4 0.500000 0.654858 0.302320
O O5 0.225422 0.500000 0.305466
O O6 0.229817 0.753909 0.262774
O O7 0.254214 0.737883 0.355457
O O8 0.500000 0.832303 0.215529
O O9 0.772758 0.755220 0.170051
O O10 0.763985 0.000000 0.216865
O O11 0.275051 0.786003 0.449542
O O12 0.000000 0.841710 0.402050
O O13 0.267990 0.000000 0.390416
O O14 0.772614 0.500000 0.867832
O O15 0.000000 0.314777 0.892974
O O16 0.000000 0.778031 0.500000
O O17 0.198722 0.000000 0.500000
#
# Coordination Sequence:
#
# PCOD9386193 Si02
#       6
#     4   8   8   8   8   4
#     4   9  18  34  57  85 119 155 189 230 275 318
#     4  10  21  35  51  73 104 140 174 212 262 318
#     4  10  20  35  56  78 102 138 181 224 273 327
#     4   9  17  31  52  75  98 127 168 217 265 315
#     4  10  20  34  56  85 115 149 188 229 275 326
#     4   7  12  26  48  71  94 124 164 211 262 313
#
# _framework density 19.236391000000001
#
# number of rings (size 3 to 8) (size 9 to 14) (size 15 to 20)
#    0.000    2.600    1.000    2.400    0.000    4.000 
#    0.000    3.000    0.000    6.000    0.000    1.400 
#    0.000    0.000    0.000    0.000    0.000    0.000 
#
# Total GULP energy -223155.452286 kJ/mol
# GULP energy per Si atom -5578.886307 kJ/mol
# Density = 1.919261 g / cm^3
# Si number density = 19.236391 Si / 1000 Ang^3
#
#
#
# Elastic Constant Matrix: (Units=GPa)
#
#
# Indices 1 2 3 4 5 6 
#
# 1 56.8658 37.6448 49.1883 0.0000 0.0000 0.0000
# 2 37.6448 99.7882 88.4592 0.0000 0.0000 0.0000
# 3 49.1883 88.4592 211.3892 0.0000 0.0000 0.0000
# 4 0.0000 0.0000 0.0000 29.6528 0.0000 0.0000
# 5 0.0000 0.0000 0.0000 0.0000 27.2620 0.0000
# 6 0.0000 0.0000 0.0000 0.0000 0.0000 17.1480
#
#
#
# Elastic Compliance Matrix: (Units=1/GPa)
#
#
# Indices 1 2 3 4 5 6 
#
# 1 0.024520 -0.006665 -0.002917 0.000000 0.000000 0.000000
# 2 -0.006665 0.017742 -0.005874 0.000000 0.000000 0.000000
# 3 -0.002917 -0.005874 0.007867 0.000000 0.000000 0.000000
# 4 0.000000 0.000000 0.000000 0.033724 0.000000 0.000000
# 5 0.000000 0.000000 0.000000 0.000000 0.036681 0.000000
# 6 0.000000 0.000000 0.000000 0.000000 0.000000 0.058316
#
#
# Mechanical properties :
#
#
# Convention : Reuss Voigt Hill
#
# Bulk Modulus (GPa) = 52.03021 79.84754 65.93888
# Shear Modulus (GPa) = 23.13030 27.66264 25.39647
#
# Velocity S-wave (km/s) = 3.47136 3.79626 3.63744
# Velocity P-wave (km/s) = 6.57067 7.79834 7.21068
#
# Compressibility (1/GPa) = 0.01921960
#
# Stress axis : x y z
#
# Youngs Moduli (GPa) = 40.78297 56.36233 127.10868
#
# Poissons Ratio (x) = 0.37563 0.37074
# Poissons Ratio (y) = 0.27180 0.74661
# Poissons Ratio (z) = 0.11895 0.33106
#
# Static dielectric constant tensor:
#      x y z
#    x 1.711050 0.000000 0.000000 
#    y 0.000000 1.652330 0.000000 
#    z 0.000000 0.000000 1.652860 
# 
# From -- ./inp_files/1696.got.cif
#   From: 2010.05.17/outbox.cif.g08.bks.cpg/sg47_1_cif.got.tgz:1696.got - 2010.06.03 20:15:42.
