data_PCOD9386553
_publ_section_title
;
Structure prediction by ZEFSAII (Michael W. Deem and Ramdas Pophale) SiO2 
 PCOD9386553
Probable space group: P M M M
;
_chemical_formula_sum "Si O2"
_cell_formula_units_Z 48
_cell_length_a 7.909537
_cell_length_b 19.322817
_cell_length_c 16.026699
_cell_angle_alpha 90.000000
_cell_angle_beta 90.000000
_cell_angle_gamma 90.000000
_cell_volume 2449.433105
_symmetry_space_group_name_H-M "P M M M"
_symmetry_group_IT_number 47
_symmetry_cell_setting 'orthorhombic'
loop_
_space_group_symop_operation_xyz
x,y,z
-x,-y,z
x,-y,-z
-x,y,-z
-x,-y,-z
x,y,-z
-x,y,z
x,-y,z
loop_
_atom_site_type_symbol
_atom_site_label
_atom_site_fract_x
_atom_site_fract_y
_atom_site_fract_z
Si Si1 0.198580 0.657834 0.408980
Si Si2 0.798081 0.921128 0.500000
Si Si3 0.703081 0.676421 0.093852
Si Si4 0.000000 0.920175 0.099917
Si Si5 0.698241 0.809731 0.634944
Si Si6 0.298314 0.173133 0.831949
Si Si7 0.796500 0.421315 0.245981
O O1 0.272919 0.640467 0.500000
O O2 0.211172 0.740205 0.395411
O O3 0.270414 0.619049 0.327865
O O4 0.000000 0.640069 0.412138
O O5 0.744317 0.876292 0.580187
O O6 0.000000 0.924361 0.500000
O O7 0.731928 0.000000 0.500000
O O8 0.500000 0.674048 0.090639
O O9 0.746363 0.753313 0.125898
O O10 0.757638 0.621132 0.162522
O O11 0.768588 0.664495 0.000000
O O12 0.169245 0.882942 0.132641
O O13 0.000000 0.000000 0.126244
O O14 0.000000 0.916512 0.000000
O O15 0.500000 0.796236 0.623682
O O16 0.729518 0.820928 0.732716
O O17 0.500000 0.159594 0.846280
O O18 0.733381 0.500000 0.242650
O O19 0.000000 0.423560 0.252464
#
# Coordination Sequence:
#
# PCOD9386553 Si02
#       7
#     8   4   8   4   8   8   8
#     4  10  20  35  59  86 116 157 203 249 301 365
#     4  11  25  41  59  87 124 163 202 249 305 372
#     4  10  21  38  61  88 118 157 204 253 309 372
#     4  11  26  44  66  97 128 164 207 257 322 382
#     4  11  22  37  61  89 120 159 201 253 309 365
#     4  10  23  42  66  95 127 165 213 263 312 375
#     4  10  22  38  57  86 122 159 202 254 310 370
#
# _framework density 19.596371999999999
#
# number of rings (size 3 to 8) (size 9 to 14) (size 15 to 20)
#    0.000    1.667    2.500    1.250    3.500    4.000 
#    0.000    5.833    0.000    0.000    0.000    2.333 
#    0.000    0.000    0.000    0.000    0.000    0.000 
#
# Total GULP energy -268079.218218 kJ/mol
# GULP energy per Si atom -5584.983713 kJ/mol
# Density = 1.955177 g / cm^3
# Si number density = 19.596372 Si / 1000 Ang^3
#
#
#
# Elastic Constant Matrix: (Units=GPa)
#
#
# Indices 1 2 3 4 5 6 
#
# 1 36.2469 29.0491 36.9258 0.0000 0.0000 0.0000
# 2 29.0491 163.1434 99.0294 0.0000 0.0000 0.0000
# 3 36.9258 99.0294 178.5980 0.0000 0.0000 0.0000
# 4 0.0000 0.0000 0.0000 59.0201 0.0000 0.0000
# 5 0.0000 0.0000 0.0000 0.0000 22.5003 0.0000
# 6 0.0000 0.0000 0.0000 0.0000 0.0000 -60.0734
#
#
#
# Elastic Compliance Matrix: (Units=1/GPa)
#
#
# Indices 1 2 3 4 5 6 
#
# 1 0.035800 -0.002836 -0.005829 0.000000 0.000000 0.000000
# 2 -0.002836 0.009464 -0.004661 0.000000 0.000000 0.000000
# 3 -0.005829 -0.004661 0.009389 0.000000 0.000000 0.000000
# 4 0.000000 0.000000 0.000000 0.016943 0.000000 0.000000
# 5 0.000000 0.000000 0.000000 0.000000 0.044444 0.000000
# 6 0.000000 0.000000 0.000000 0.000000 0.000000 -0.016646
#
#
# Mechanical properties :
#
#
# Convention : Reuss Voigt Hill
#
# Bulk Modulus (GPa) = 35.71464 78.66633 57.19049
# Shear Modulus (GPa) = 36.93308 18.48834 27.71071
#
# Velocity S-wave (km/s) = 4.34601 3.07491 3.76450
# Velocity P-wave (km/s) = 6.59154 7.26892 6.93850
#
# Compressibility (1/GPa) = 0.02799972
#
# Stress axis : x y z
#
# Youngs Moduli (GPa) = 27.93306 105.66380 106.50829
#
# Poissons Ratio (x) = 0.29968 0.62086
# Poissons Ratio (y) = 0.07922 0.49646
# Poissons Ratio (z) = 0.16283 0.49252
#
# Static dielectric constant tensor:
#      x y z
#    x 1.706730 0.000000 0.000000 
#    y 0.000000 1.658220 0.000000 
#    z 0.000000 0.000000 1.695560 
# 
# From -- ./inp_files/21148.got.cif
#   From: 2010.05.17/outbox.cif.g08.bks.cpg/sg47_11_cif.got.tgz:21148.got - 2010.06.03 20:15:42.
