data_PCOD9386178
_publ_section_title
;
Structure prediction by ZEFSAII (Michael W. Deem and Ramdas Pophale) SiO2 
 PCOD9386178
Probable space group: P M M M
;
_chemical_formula_sum "Si O2"
_cell_formula_units_Z 64
_cell_length_a 14.899570
_cell_length_b 8.774205
_cell_length_c 25.371014
_cell_angle_alpha 90.000000
_cell_angle_beta 90.000000
_cell_angle_gamma 90.000000
_cell_volume 3316.800398
_symmetry_space_group_name_H-M "P M M M"
_symmetry_group_IT_number 47
_symmetry_cell_setting 'orthorhombic'
loop_
_space_group_symop_operation_xyz
x,y,z
-x,-y,z
x,-y,-z
-x,y,-z
-x,-y,-z
x,y,-z
-x,y,z
x,-y,z
loop_
_atom_site_type_symbol
_atom_site_label
_atom_site_fract_x
_atom_site_fract_y
_atom_site_fract_z
Si Si1 0.399240 0.320173 0.798487
Si Si2 0.400454 0.817616 0.915245
Si Si3 0.605460 0.183291 0.439660
Si Si4 0.894922 0.684427 0.837484
Si Si5 0.755824 0.676518 0.633161
Si Si6 0.772630 0.181236 0.745508
Si Si7 0.104841 0.172841 0.562867
Si Si8 0.211099 0.316448 0.057287
O O1 0.500000 0.304840 0.776601
O O2 0.381484 0.500000 0.807093
O O3 0.397153 0.235140 0.854454
O O4 0.323494 0.247910 0.762812
O O5 0.500000 0.771951 0.935280
O O6 0.312840 0.743569 0.940283
O O7 0.394266 0.000000 0.919305
O O8 0.631296 0.227425 0.500000
O O9 0.500000 0.219571 0.432952
O O10 0.667379 0.258825 0.395690
O O11 0.614742 0.000000 0.436463
O O12 0.888819 0.500000 0.834983
O O13 0.844857 0.752023 0.786697
O O14 0.844060 0.734989 0.891187
O O15 0.000000 0.725413 0.838986
O O16 0.743463 0.500000 0.645972
O O17 0.784187 0.765325 0.685724
O O18 0.835101 0.704966 0.591680
O O19 0.773086 0.000000 0.749242
O O20 0.113231 0.185174 0.500000
O O21 0.000000 0.187042 0.576158
O O22 0.134480 0.000000 0.577333
O O23 0.213203 0.500000 0.059488
O O24 0.172079 0.272258 0.000000
#
# Coordination Sequence:
#
# PCOD9386178 Si02
#       8
#     8   8   8   8   8   8   8   8
#     4  10  20  36  60  87 116 150 188 234 287 344
#     4  10  20  34  55  85 120 159 198 235 282 339
#     4   9  19  38  63  89 121 164 210 253 298 351
#     4  10  22  42  66  89 117 153 195 246 303 363
#     4  12  25  38  57  87 123 159 197 246 300 353
#     4  12  25  41  62  86 116 156 200 245 295 355
#     4   9  19  38  63  88 116 152 193 239 293 352
#     4  10  21  37  60  90 123 159 198 243 296 354
#
# _framework density 19.295704000000001
#
# number of rings (size 3 to 8) (size 9 to 14) (size 15 to 20)
#    0.000    1.750    1.250    4.125    0.000    6.000 
#    0.000    3.750    0.000    0.000    0.000    1.750 
#    0.000    0.000    0.000    0.000    0.000    0.000 
#
# Total GULP energy -357440.134406 kJ/mol
# GULP energy per Si atom -5585.002100 kJ/mol
# Density = 1.925179 g / cm^3
# Si number density = 19.295704 Si / 1000 Ang^3
#
#
#
# Elastic Constant Matrix: (Units=GPa)
#
#
# Indices 1 2 3 4 5 6 
#
# 1 99.3977 26.6257 52.6535 0.0000 0.0000 0.0000
# 2 26.6257 15.0169 20.6975 0.0000 0.0000 0.0000
# 3 52.6535 20.6975 83.6626 0.0000 0.0000 0.0000
# 4 0.0000 0.0000 0.0000 32.5706 0.0000 0.0000
# 5 0.0000 0.0000 0.0000 0.0000 -53.5485 0.0000
# 6 0.0000 0.0000 0.0000 0.0000 0.0000 23.1716
#
#
#
# Elastic Compliance Matrix: (Units=1/GPa)
#
#
# Indices 1 2 3 4 5 6 
#
# 1 0.021021 -0.028887 -0.006083 0.000000 0.000000 0.000000
# 2 -0.028887 0.140741 -0.016638 0.000000 0.000000 0.000000
# 3 -0.006083 -0.016638 0.019898 0.000000 0.000000 0.000000
# 4 0.000000 0.000000 0.000000 0.030703 0.000000 0.000000
# 5 0.000000 0.000000 0.000000 0.000000 -0.018675 0.000000
# 6 0.000000 0.000000 0.000000 0.000000 0.000000 0.043156
#
#
# Mechanical properties :
#
#
# Convention : Reuss Voigt Hill
#
# Bulk Modulus (GPa) = 12.74812 44.22563 28.48687
# Shear Modulus (GPa) = 13.65345 6.97875 10.31610
#
# Velocity S-wave (km/s) = 2.66294 1.90384 2.31472
# Velocity P-wave (km/s) = 4.00950 5.27281 4.68394
#
# Compressibility (1/GPa) = 0.07844295
#
# Stress axis : x y z
#
# Youngs Moduli (GPa) = 47.57161 7.10526 50.25740
#
# Poissons Ratio (x) = 0.20525 0.30573
# Poissons Ratio (y) = 1.37418 0.83620
# Poissons Ratio (z) = 0.28939 0.11822
#
# Static dielectric constant tensor:
#      x y z
#    x 1.672680 0.000000 0.000000 
#    y 0.000000 1.657060 0.000000 
#    z 0.000000 0.000000 1.689520 
# 
# From -- ./inp_files/12764.got.cif
#   From: 2010.05.17/outbox.cif.g08.bks.cpg/sg47_7_cif.got.tgz:12764.got - 2010.06.03 20:15:42.
