data_PCOD9386635
_publ_section_title
;
Structure prediction by ZEFSAII (Michael W. Deem and Ramdas Pophale) SiO2 
 PCOD9386635
Probable space group: P M M M
;
_chemical_formula_sum "Si O2"
_cell_formula_units_Z 32
_cell_length_a 12.448624
_cell_length_b 15.755366
_cell_length_c 8.631529
_cell_angle_alpha 90.000000
_cell_angle_beta 90.000000
_cell_angle_gamma 90.000000
_cell_volume 1692.924461
_symmetry_space_group_name_H-M "P M M M"
_symmetry_group_IT_number 47
_symmetry_cell_setting 'orthorhombic'
loop_
_space_group_symop_operation_xyz
x,y,z
-x,-y,z
x,-y,-z
-x,y,-z
-x,-y,-z
x,y,-z
-x,y,z
x,-y,z
loop_
_atom_site_type_symbol
_atom_site_label
_atom_site_fract_x
_atom_site_fract_y
_atom_site_fract_z
Si Si1 0.500000 0.903176 0.811514
Si Si2 0.000000 0.600976 0.175115
Si Si3 0.625702 0.500000 0.813805
Si Si4 0.124434 0.000000 0.811245
Si Si5 0.268044 0.162282 0.812084
Si Si6 0.773113 0.349078 0.316064
O O1 0.610576 0.860290 0.764065
O O2 0.500000 0.000000 0.758803
O O3 0.500000 0.903952 0.000000
O O4 0.107583 0.626044 0.262925
O O5 0.000000 0.500000 0.162959
O O6 0.000000 0.637267 0.000000
O O7 0.500000 0.500000 0.766248
O O8 0.688835 0.583375 0.754832
O O9 0.629640 0.500000 0.000000
O O10 0.188714 0.085269 0.764297
O O11 0.000000 0.000000 0.760668
O O12 0.124724 0.000000 0.000000
O O13 0.242736 0.253740 0.744024
O O14 0.263721 0.166559 0.000000
O O15 0.763614 0.352771 0.500000
#
# Coordination Sequence:
#
# PCOD9386635 Si02
#       6
#     4   4   4   4   8   8
#     4   9  16  32  59  88 115 152 211 271 306 344
#     4  11  23  43  71  94 118 159 214 262 303 361
#     4  11  25  46  69  92 121 163 217 265 304 359
#     4   9  18  33  56  88 119 155 209 264 309 355
#     4  10  20  36  60  88 120 161 211 260 305 361
#     4  12  26  42  63  94 132 166 201 251 319 382
#
# _framework density 18.902200000000001
#
# number of rings (size 3 to 8) (size 9 to 14) (size 15 to 20)
#    0.000    1.500    2.500    3.000    3.500    1.500 
#    0.000    0.625    0.000    1.500    0.000    0.000 
#    0.000    0.000    0.000    0.000    0.000    0.000 
#
# Total GULP energy -178740.775092 kJ/mol
# GULP energy per Si atom -5585.649222 kJ/mol
# Density = 1.885918 g / cm^3
# Si number density = 18.902200 Si / 1000 Ang^3
#
#
#
# Elastic Constant Matrix: (Units=GPa)
#
#
# Indices 1 2 3 4 5 6 
#
# 1 212.0345 116.0922 50.1430 0.0000 0.0000 0.0000
# 2 116.0922 187.1444 49.7254 0.0000 0.0000 0.0000
# 3 50.1430 49.7254 63.1077 0.0000 0.0000 0.0000
# 4 0.0000 0.0000 0.0000 -33.7865 0.0000 0.0000
# 5 0.0000 0.0000 0.0000 0.0000 39.7136 0.0000
# 6 0.0000 0.0000 0.0000 0.0000 0.0000 -9.8886
#
#
#
# Elastic Compliance Matrix: (Units=1/GPa)
#
#
# Indices 1 2 3 4 5 6 
#
# 1 0.007544 -0.003905 -0.002918 0.000000 0.000000 0.000000
# 2 -0.003905 0.008779 -0.003815 0.000000 0.000000 0.000000
# 3 -0.002918 -0.003815 0.021170 0.000000 0.000000 0.000000
# 4 0.000000 0.000000 0.000000 -0.029598 0.000000 0.000000
# 5 0.000000 0.000000 0.000000 0.000000 0.025180 0.000000
# 6 0.000000 0.000000 0.000000 0.000000 0.000000 -0.101127
#
#
# Mechanical properties :
#
#
# Convention : Reuss Voigt Hill
#
# Bulk Modulus (GPa) = 61.65645 99.35642 80.50643
# Shear Modulus (GPa) = -120.86158 15.62943 -52.61608
#
# Velocity S-wave (km/s) = -8.00495 2.87863 -5.28170
# Velocity P-wave (km/s) = 7.26289 7.98287 2.34272
#
# Compressibility (1/GPa) = 0.01621890
#
# Stress axis : x y z
#
# Youngs Moduli (GPa) = 132.55560 113.90366 47.23600
#
# Poissons Ratio (x) = 0.44475 0.13781
# Poissons Ratio (y) = 0.51758 0.18021
# Poissons Ratio (z) = 0.38674 0.43457
#
# Static dielectric constant tensor:
#      x y z
#    x 1.629110 0.000000 0.000000 
#    y 0.000000 1.678580 0.000000 
#    z 0.000000 0.000000 1.646820 
# 
# From -- ./inp_files/3466.got.cif
#   From: 2010.05.17/outbox.cif.g08.bks.cpg/sg47_2_cif.got.tgz:3466.got - 2010.06.03 20:15:42.
