data_PCOD9386741
_publ_section_title
;
Structure prediction by ZEFSAII (Michael W. Deem and Ramdas Pophale) SiO2 
 PCOD9386741
Probable space group: P M M M
;
_chemical_formula_sum "Si O2"
_cell_formula_units_Z 58
_cell_length_a 7.689319
_cell_length_b 16.141394
_cell_length_c 23.926130
_cell_angle_alpha 90.000000
_cell_angle_beta 90.000000
_cell_angle_gamma 90.000000
_cell_volume 2969.623389
_symmetry_space_group_name_H-M "P M M M"
_symmetry_group_IT_number 47
_symmetry_cell_setting 'orthorhombic'
loop_
_space_group_symop_operation_xyz
x,y,z
-x,-y,z
x,-y,-z
-x,y,-z
-x,-y,-z
x,y,-z
-x,y,z
x,-y,z
loop_
_atom_site_type_symbol
_atom_site_label
_atom_site_fract_x
_atom_site_fract_y
_atom_site_fract_z
Si Si1 0.202563 0.747399 0.233687
Si Si2 0.789093 0.707819 0.063911
Si Si3 0.692775 0.136073 0.138829
Si Si4 0.705556 0.247208 0.638272
Si Si5 0.789935 0.406224 0.435771
Si Si6 0.712210 0.906873 0.435456
Si Si7 0.788127 0.592545 0.836601
Si Si8 0.000000 0.000000 0.131707
O O1 0.294637 0.820453 0.199805
O O2 0.217734 0.750617 0.299905
O O3 0.267300 0.659439 0.209668
O O4 0.000000 0.754186 0.217633
O O5 0.719990 0.789812 0.094297
O O6 0.739507 0.630926 0.103444
O O7 0.000000 0.712468 0.064364
O O8 0.731846 0.700785 0.000000
O O9 0.500000 0.101001 0.131571
O O10 0.847046 0.071658 0.132315
O O11 0.500000 0.235637 0.644873
O O12 0.733964 0.332472 0.604629
O O13 0.773498 0.168692 0.602731
O O14 0.732973 0.390693 0.500000
O O15 0.733229 0.500000 0.420184
O O16 0.000000 0.406820 0.435808
O O17 0.765375 0.894870 0.500000
O O18 0.500000 0.905734 0.435075
O O19 0.765136 0.000000 0.417848
O O20 0.723176 0.500000 0.827858
O O21 0.000000 0.589383 0.834774
#
# Coordination Sequence:
#
# PCOD9386741 Si02
#       8
#     8   8   8   8   8   8   8   2
#     4  10  20  38  56  77 116 157 194 240 290 344
#     4   9  17  33  57  85 123 161 191 237 295 349
#     4  11  22  40  64  88 118 158 198 242 300 356
#     4  11  21  32  52  83 110 140 185 234 291 354
#     4   9  19  36  55  75 103 143 189 234 288 357
#     4   8  15  30  50  72 102 136 171 219 281 348
#     4   8  15  29  53  83 111 148 198 243 286 339
#     4  12  22  44  65  92 118 148 199 252 298 354
#
# _framework density 19.531095000000001
#
# number of rings (size 3 to 8) (size 9 to 14) (size 15 to 20)
#    0.000    2.483    1.379    3.103    0.000    2.207 
#    1.241    4.138    0.000   12.000    0.000    8.690 
#    0.000    0.000    0.000    0.000    0.000    0.000 
#
# Total GULP energy -323119.734911 kJ/mol
# GULP energy per Si atom -5571.029912 kJ/mol
# Density = 1.948664 g / cm^3
# Si number density = 19.531095 Si / 1000 Ang^3
#
#
#
# Elastic Constant Matrix: (Units=GPa)
#
#
# Indices 1 2 3 4 5 6 
#
# 1 77.4430 11.7274 -6.1291 0.0000 0.0000 0.0000
# 2 11.7274 102.2300 37.7196 0.0000 0.0000 0.0000
# 3 -6.1291 37.7196 99.0696 0.0000 0.0000 0.0000
# 4 0.0000 0.0000 0.0000 2.4255 0.0000 0.0000
# 5 0.0000 0.0000 0.0000 0.0000 10.0323 0.0000
# 6 0.0000 0.0000 0.0000 0.0000 0.0000 -6.6324
#
#
#
# Elastic Compliance Matrix: (Units=1/GPa)
#
#
# Indices 1 2 3 4 5 6 
#
# 1 0.013367 -0.002139 0.001641 0.000000 0.000000 0.000000
# 2 -0.002139 0.011723 -0.004596 0.000000 0.000000 0.000000
# 3 0.001641 -0.004596 0.011945 0.000000 0.000000 0.000000
# 4 0.000000 0.000000 0.000000 0.412283 0.000000 0.000000
# 5 0.000000 0.000000 0.000000 0.000000 0.099678 0.000000
# 6 0.000000 0.000000 0.000000 0.000000 0.000000 -0.150776
#
#
# Mechanical properties :
#
#
# Convention : Reuss Voigt Hill
#
# Bulk Modulus (GPa) = 37.24672 40.59760 38.92216
# Shear Modulus (GPa) = 11.98019 16.86006 14.42013
#
# Velocity S-wave (km/s) = 2.47936 2.94129 2.72015
# Velocity P-wave (km/s) = 5.22572 5.68913 5.46234
#
# Compressibility (1/GPa) = 0.02684800
#
# Stress axis : x y z
#
# Youngs Moduli (GPa) = 74.81377 85.30317 83.71556
#
# Poissons Ratio (x) = 0.18246 -0.13740
# Poissons Ratio (y) = 0.16002 0.38473
# Poissons Ratio (z) = -0.12279 0.39203
#
# Static dielectric constant tensor:
#      x y z
#    x 1.742190 0.000000 0.000000 
#    y 0.000000 1.667720 0.000000 
#    z 0.000000 0.000000 1.655860 
# 
# From -- ./inp_files/32061.got.cif
#   From: 2010.05.17/outbox.cif.g08.bks.cpg/sg47_17_cif.got.tgz:32061.got - 2010.06.03 20:15:42.
