data_PCOD9386600
_publ_section_title
;
Structure prediction by ZEFSAII (Michael W. Deem and Ramdas Pophale) SiO2 
 PCOD9386600
Probable space group: P M M M
;
_chemical_formula_sum "Si O2"
_cell_formula_units_Z 48
_cell_length_a 10.165336
_cell_length_b 8.624918
_cell_length_c 29.903466
_cell_angle_alpha 90.000000
_cell_angle_beta 90.000000
_cell_angle_gamma 90.000000
_cell_volume 2621.792047
_symmetry_space_group_name_H-M "P M M M"
_symmetry_group_IT_number 47
_symmetry_cell_setting 'orthorhombic'
loop_
_space_group_symop_operation_xyz
x,y,z
-x,-y,z
x,-y,-z
-x,y,-z
-x,-y,-z
x,y,-z
-x,y,z
x,-y,z
loop_
_atom_site_type_symbol
_atom_site_label
_atom_site_fract_x
_atom_site_fract_y
_atom_site_fract_z
Si Si1 0.846438 0.314786 0.305871
Si Si2 0.347489 0.189459 0.128360
Si Si3 0.000000 0.685788 0.552714
Si Si4 0.251683 0.815751 0.396055
Si Si5 0.151688 0.812710 0.792462
Si Si6 0.500000 0.314179 0.551655
Si Si7 0.148970 0.811109 0.051531
O O1 0.835253 0.500000 0.306569
O O2 0.760360 0.243172 0.345238
O O3 0.816229 0.252067 0.256537
O O4 0.000000 0.274097 0.314890
O O5 0.500000 0.240514 0.129193
O O6 0.259228 0.236551 0.171022
O O7 0.263781 0.239853 0.084890
O O8 0.349813 0.000000 0.128062
O O9 0.874348 0.755208 0.577101
O O10 0.000000 0.500000 0.557898
O O11 0.000000 0.721457 0.500000
O O12 0.374862 0.747028 0.421949
O O13 0.255852 0.000000 0.396289
O O14 0.000000 0.766589 0.803653
O O15 0.152954 0.000000 0.790876
O O16 0.500000 0.500000 0.551527
O O17 0.500000 0.261331 0.500000
O O18 0.000000 0.764232 0.065177
O O19 0.149259 0.000000 0.052251
O O20 0.169690 0.763894 0.000000
#
# Coordination Sequence:
#
# PCOD9386600 Si02
#       7
#     8   8   4   8   8   4   8
#     4  10  20  36  59  83 109 140 179 226 277 333
#     4   9  16  25  38  60  91 127 166 213 266 315
#     4  11  23  39  61  89 121 157 193 231 280 335
#     4  12  24  39  62  90 119 150 190 238 284 334
#     4   9  17  30  49  70  95 129 170 213 261 319
#     4  11  25  45  65  85 117 159 195 229 278 339
#     4   8  13  21  34  54  84 125 171 213 256 313
#
# _framework density 18.308088999999999
#
# number of rings (size 3 to 8) (size 9 to 14) (size 15 to 20)
#    0.000    2.167    0.833    4.000    0.000    6.333 
#    1.500    1.667    0.000    0.000    0.000    0.000 
#    0.000    0.667    0.000    7.667    0.000    9.833 
#
# Total GULP energy -267900.712862 kJ/mol
# GULP energy per Si atom -5581.264851 kJ/mol
# Density = 1.826642 g / cm^3
# Si number density = 18.308089 Si / 1000 Ang^3
#
#
#
# Elastic Constant Matrix: (Units=GPa)
#
#
# Indices 1 2 3 4 5 6 
#
# 1 177.9816 31.2020 117.6219 0.0000 0.0000 0.0000
# 2 31.2020 25.8477 38.0376 0.0000 0.0000 0.0000
# 3 117.6219 38.0376 163.9063 0.0000 0.0000 0.0000
# 4 0.0000 0.0000 0.0000 103.7665 0.0000 0.0000
# 5 0.0000 0.0000 0.0000 0.0000 26.3382 0.0000
# 6 0.0000 0.0000 0.0000 0.0000 0.0000 18.0290
#
#
#
# Elastic Compliance Matrix: (Units=1/GPa)
#
#
# Indices 1 2 3 4 5 6 
#
# 1 0.010790 -0.002476 -0.007169 0.000000 0.000000 0.000000
# 2 -0.002476 0.059321 -0.011990 0.000000 0.000000 0.000000
# 3 -0.007169 -0.011990 0.014028 0.000000 0.000000 0.000000
# 4 0.000000 0.000000 0.000000 0.009637 0.000000 0.000000
# 5 0.000000 0.000000 0.000000 0.000000 0.037968 0.000000
# 6 0.000000 0.000000 0.000000 0.000000 0.000000 0.055466
#
#
# Mechanical properties :
#
#
# Convention : Reuss Voigt Hill
#
# Bulk Modulus (GPa) = 24.46759 82.38432 53.42595
# Shear Modulus (GPa) = 20.48324 41.68502 31.08413
#
# Velocity S-wave (km/s) = 3.34849 4.77683 4.12495
# Velocity P-wave (km/s) = 5.32383 8.69026 7.20638
#
# Compressibility (1/GPa) = 0.04087039
#
# Stress axis : x y z
#
# Youngs Moduli (GPa) = 92.67795 16.85738 71.28718
#
# Poissons Ratio (x) = 0.04174 0.51102
# Poissons Ratio (y) = 0.22947 0.85472
# Poissons Ratio (z) = 0.66436 0.20212
#
# Static dielectric constant tensor:
#      x y z
#    x 1.602980 0.000000 0.000000 
#    y 0.000000 1.608820 0.000000 
#    z 0.000000 0.000000 1.620950 
# 
# From -- ./inp_files/13852.got.cif
#   From: 2010.05.17/outbox.cif.g08.bks.cpg/sg47_7_cif.got.tgz:13852.got - 2010.06.03 20:15:42.
