data_PCOD9386252
_publ_section_title
;
Structure prediction by ZEFSAII (Michael W. Deem and Ramdas Pophale) SiO2 
 PCOD9386252
Probable space group: P M M M
;
_chemical_formula_sum "Si O2"
_cell_formula_units_Z 52
_cell_length_a 8.852284
_cell_length_b 21.256631
_cell_length_c 15.601141
_cell_angle_alpha 90.000000
_cell_angle_beta 90.000000
_cell_angle_gamma 90.000000
_cell_volume 2935.662560
_symmetry_space_group_name_H-M "P M M M"
_symmetry_group_IT_number 47
_symmetry_cell_setting 'orthorhombic'
loop_
_space_group_symop_operation_xyz
x,y,z
-x,-y,z
x,-y,-z
-x,y,-z
-x,-y,-z
x,y,-z
-x,y,z
x,-y,z
loop_
_atom_site_type_symbol
_atom_site_label
_atom_site_fract_x
_atom_site_fract_y
_atom_site_fract_z
Si Si1 0.679002 0.853402 0.842430
Si Si2 0.317243 0.402789 0.752170
Si Si3 0.818204 0.264436 0.759717
Si Si4 0.181086 0.809249 0.591180
Si Si5 0.819145 0.927180 0.000000
Si Si6 0.683324 0.500000 0.601995
Si Si7 0.320603 0.927995 0.334946
Si Si8 0.683142 0.500000 0.099769
O O1 0.500000 0.846884 0.855622
O O2 0.751855 0.784806 0.828335
O O3 0.703070 0.896399 0.758005
O O4 0.755628 0.890768 0.918618
O O5 0.500000 0.398952 0.750571
O O6 0.245741 0.334356 0.760618
O O7 0.273197 0.440601 0.664229
O O8 0.274462 0.441602 0.838352
O O9 0.767802 0.233250 0.669675
O O10 0.000000 0.264972 0.764953
O O11 0.231623 0.783259 0.500000
O O12 0.239179 0.879999 0.602102
O O13 0.000000 0.810368 0.593978
O O14 0.000000 0.925998 0.000000
O O15 0.769380 0.000000 0.000000
O O16 0.500000 0.500000 0.598808
O O17 0.732903 0.500000 0.500000
O O18 0.500000 0.927555 0.351805
O O19 0.267855 0.000000 0.337814
O O20 0.500000 0.500000 0.095364
O O21 0.736695 0.500000 0.000000
#
# Coordination Sequence:
#
# PCOD9386252 Si02
#       8
#     8   8   8   8   4   4   8   4
#     4  10  20  36  56  76 100 134 178 219 257 309
#     4   9  17  31  53  78 103 134 174 215 256 311
#     4  10  20  35  53  73 104 141 172 213 267 314
#     4   9  19  34  49  67  94 131 173 210 248 304
#     4  11  23  37  55  81 111 138 167 212 271 327
#     4   8  15  29  50  78 110 140 174 222 273 317
#     4   9  18  32  50  72  97 125 161 210 263 308
#     4   8  15  31  54  78 102 130 166 208 246 292
#
# _framework density 17.713207000000001
#
# number of rings (size 3 to 8) (size 9 to 14) (size 15 to 20)
#    0.000    2.692    0.000    2.538    0.000    4.000 
#    1.385    3.077    0.000    0.923    0.000    0.000 
#    0.000    0.000    0.000    0.000    0.000    0.000 
#
# Total GULP energy -289645.085088 kJ/mol
# GULP energy per Si atom -5570.097790 kJ/mol
# Density = 1.767289 g / cm^3
# Si number density = 17.713207 Si / 1000 Ang^3
#
#
#
# Elastic Constant Matrix: (Units=GPa)
#
#
# Indices 1 2 3 4 5 6 
#
# 1 20.1688 37.8884 37.7922 0.0000 0.0000 0.0000
# 2 37.8884 174.1423 70.7152 0.0000 0.0000 0.0000
# 3 37.7922 70.7152 126.1006 0.0000 0.0000 0.0000
# 4 0.0000 0.0000 0.0000 12.5149 0.0000 0.0000
# 5 0.0000 0.0000 0.0000 0.0000 15.6976 0.0000
# 6 0.0000 0.0000 0.0000 0.0000 0.0000 25.6135
#
#
#
# Elastic Compliance Matrix: (Units=1/GPa)
#
#
# Indices 1 2 3 4 5 6 
#
# 1 0.147710 -0.018337 -0.033986 0.000000 0.000000 0.000000
# 2 -0.018337 0.009712 0.000049 0.000000 0.000000 0.000000
# 3 -0.033986 0.000049 0.018088 0.000000 0.000000 0.000000
# 4 0.000000 0.000000 0.000000 0.079905 0.000000 0.000000
# 5 0.000000 0.000000 0.000000 0.000000 0.063704 0.000000
# 6 0.000000 0.000000 0.000000 0.000000 0.000000 0.039042
#
#
# Mechanical properties :
#
#
# Convention : Reuss Voigt Hill
#
# Bulk Modulus (GPa) = 14.09167 68.13369 41.11268
# Shear Modulus (GPa) = 10.28041 22.36628 16.32334
#
# Velocity S-wave (km/s) = 2.41172 3.55729 3.03897
# Velocity P-wave (km/s) = 3.96585 7.44452 5.96443
#
# Compressibility (1/GPa) = 0.07096391
#
# Stress axis : x y z
#
# Youngs Moduli (GPa) = 6.77001 102.96517 55.28516
#
# Poissons Ratio (x) = 1.88805 1.87890
# Poissons Ratio (y) = 0.12414 -0.00272
# Poissons Ratio (z) = 0.23008 -0.00506
#
# Static dielectric constant tensor:
#      x y z
#    x 1.588590 0.000000 0.000000 
#    y 0.000000 1.585640 0.000000 
#    z 0.000000 0.000000 1.627680 
# 
# From -- ./inp_files/21513.got.cif
#   From: 2010.05.17/outbox.cif.g08.bks.cpg/sg47_11_cif.got.tgz:21513.got - 2010.06.03 20:15:42.
