data_PCOD9386817
_publ_section_title
;
Structure prediction by ZEFSAII (Michael W. Deem and Ramdas Pophale) SiO2 
 PCOD9386817
Probable space group: P M M M
;
_chemical_formula_sum "Si O2"
_cell_formula_units_Z 64
_cell_length_a 15.110658
_cell_length_b 7.502439
_cell_length_c 29.777728
_cell_angle_alpha 90.000000
_cell_angle_beta 90.000000
_cell_angle_gamma 90.000000
_cell_volume 3375.805434
_symmetry_space_group_name_H-M "P M M M"
_symmetry_group_IT_number 47
_symmetry_cell_setting 'orthorhombic'
loop_
_space_group_symop_operation_xyz
x,y,z
-x,-y,z
x,-y,-z
-x,y,-z
-x,-y,-z
x,y,-z
-x,y,z
x,-y,z
loop_
_atom_site_type_symbol
_atom_site_label
_atom_site_fract_x
_atom_site_fract_y
_atom_site_fract_z
Si Si1 0.899481 0.783415 0.188610
Si Si2 0.103039 0.285595 0.451731
Si Si3 0.397850 0.715216 0.867412
Si Si4 0.221012 0.219119 0.728950
Si Si5 0.599057 0.209819 0.235058
Si Si6 0.898858 0.210642 0.647269
Si Si7 0.285767 0.290516 0.951269
Si Si8 0.099695 0.784552 0.913859
O O1 0.831948 0.724541 0.226449
O O2 0.881807 0.725518 0.137558
O O3 0.000000 0.731377 0.200244
O O4 0.897495 0.000000 0.188034
O O5 0.141138 0.225149 0.500000
O O6 0.103624 0.500000 0.452267
O O7 0.138388 0.231694 0.403195
O O8 0.000000 0.227142 0.451301
O O9 0.500000 0.768331 0.875231
O O10 0.394454 0.500000 0.866712
O O11 0.373255 0.774680 0.817280
O O12 0.335614 0.782998 0.907438
O O13 0.321921 0.281103 0.734294
O O14 0.166649 0.280209 0.685456
O O15 0.222092 0.000000 0.728623
O O16 0.500000 0.286994 0.239420
O O17 0.592352 0.000000 0.244696
O O18 0.000000 0.284015 0.649257
O O19 0.906764 0.000000 0.655537
O O20 0.308084 0.500000 0.952402
O O21 0.180719 0.274871 0.944095
O O22 0.310248 0.214244 0.000000
O O23 0.000000 0.726448 0.926132
O O24 0.099078 0.000000 0.914228
#
# Coordination Sequence:
#
# PCOD9386817 Si02
#       8
#     8   8   8   8   8   8   8   8
#     4   8  13  22  38  59  80 103 132 162 192 231
#     4   8  14  25  39  53  74 109 147 177 207 243
#     4   9  18  33  51  68  86 108 135 170 211 254
#     4   9  15  23  37  58  85 111 132 161 202 242
#     4   9  17  29  46  66  85 108 139 170 201 243
#     4   9  16  24  36  57  83 110 141 174 205 238
#     4  10  21  34  47  65  87 110 136 167 208 256
#     4   9  18  32  49  67  85 109 143 177 205 237
#
# _framework density 18.958438000000001
#
# number of rings (size 3 to 8) (size 9 to 14) (size 15 to 20)
#    0.000    3.125    0.000    2.250    0.000    4.250 
#    0.000    4.375    0.000    0.750    0.000    4.375 
#    0.000    0.500    0.000    6.250    0.000    1.250 
#
# Total GULP energy -356764.648840 kJ/mol
# GULP energy per Si atom -5574.447638 kJ/mol
# Density = 1.891529 g / cm^3
# Si number density = 18.958438 Si / 1000 Ang^3
#
#
#
# Elastic Constant Matrix: (Units=GPa)
#
#
# Indices 1 2 3 4 5 6 
#
# 1 83.3679 1.7251 69.9941 0.0000 0.0000 0.0000
# 2 1.7251 49.3012 -0.2057 0.0000 0.0000 0.0000
# 3 69.9941 -0.2057 93.3486 0.0000 0.0000 0.0000
# 4 0.0000 0.0000 0.0000 12.5979 0.0000 0.0000
# 5 0.0000 0.0000 0.0000 0.0000 15.6924 0.0000
# 6 0.0000 0.0000 0.0000 0.0000 0.0000 5.8013
#
#
#
# Elastic Compliance Matrix: (Units=1/GPa)
#
#
# Indices 1 2 3 4 5 6 
#
# 1 0.032453 -0.001237 -0.024336 0.000000 0.000000 0.000000
# 2 -0.001237 0.020331 0.000972 0.000000 0.000000 0.000000
# 3 -0.024336 0.000972 0.028962 0.000000 0.000000 0.000000
# 4 0.000000 0.000000 0.000000 0.079378 0.000000 0.000000
# 5 0.000000 0.000000 0.000000 0.000000 0.063725 0.000000
# 6 0.000000 0.000000 0.000000 0.000000 0.000000 0.172376
#
#
# Mechanical properties :
#
#
# Convention : Reuss Voigt Hill
#
# Bulk Modulus (GPa) = 30.72760 41.00496 35.86628
# Shear Modulus (GPa) = 10.93431 17.11860 14.02645
#
# Velocity S-wave (km/s) = 2.40417 3.00818 2.72297
# Velocity P-wave (km/s) = 4.89385 5.80873 5.37081
#
# Compressibility (1/GPa) = 0.03254403
#
# Stress axis : x y z
#
# Youngs Moduli (GPa) = 30.81379 49.18635 34.52745
#
# Poissons Ratio (x) = 0.06085 0.84027
# Poissons Ratio (y) = 0.03812 -0.03358
# Poissons Ratio (z) = 0.74990 -0.04783
#
# Static dielectric constant tensor:
#      x y z
#    x 1.660420 0.000000 0.000000 
#    y 0.000000 1.732010 0.000000 
#    z 0.000000 0.000000 1.673960 
# 
# From -- ./inp_files/22169.got.cif
#   From: 2010.05.17/outbox.cif.g08.bks.cpg/sg47_12_cif.got.tgz:22169.got - 2010.06.03 20:15:42.
