data_PCOD9386826
_publ_section_title
;
Structure prediction by ZEFSAII (Michael W. Deem and Ramdas Pophale) SiO2 
 PCOD9386826
Probable space group: P M M M
;
_chemical_formula_sum "Si O2"
_cell_formula_units_Z 44
_cell_length_a 31.760869
_cell_length_b 7.846986
_cell_length_c 9.423805
_cell_angle_alpha 90.000000
_cell_angle_beta 90.000000
_cell_angle_gamma 90.000000
_cell_volume 2348.667538
_symmetry_space_group_name_H-M "P M M M"
_symmetry_group_IT_number 47
_symmetry_cell_setting 'orthorhombic'
loop_
_space_group_symop_operation_xyz
x,y,z
-x,-y,z
x,-y,-z
-x,y,-z
-x,-y,-z
x,y,-z
-x,y,z
x,-y,z
loop_
_atom_site_type_symbol
_atom_site_label
_atom_site_fract_x
_atom_site_fract_y
_atom_site_fract_z
Si Si1 0.781086 0.795011 0.339595
Si Si2 0.548403 0.000000 0.173507
Si Si3 0.700217 0.206628 0.164569
Si Si4 0.954726 0.297253 0.171928
Si Si5 0.393065 0.310163 0.827168
Si Si6 0.136629 0.294097 0.163084
O O1 0.782294 0.729356 0.500000
O O2 0.739907 0.733305 0.255429
O O3 0.823819 0.754356 0.257070
O O4 0.777618 0.000000 0.344762
O O5 0.574533 0.165765 0.219798
O O6 0.500000 0.000000 0.219591
O O7 0.548215 0.000000 0.000000
O O8 0.654954 0.271842 0.216326
O O9 0.698578 0.000000 0.167508
O O10 0.705796 0.257794 0.000000
O O11 0.955522 0.500000 0.203604
O O12 0.909059 0.230490 0.218359
O O13 0.000000 0.225544 0.220763
O O14 0.954042 0.282823 0.000000
O O15 0.405468 0.500000 0.784100
O O16 0.392479 0.303828 0.000000
O O17 0.134150 0.500000 0.159160
O O18 0.142561 0.235462 0.000000
#
# Coordination Sequence:
#
# PCOD9386826 Si02
#       6
#     8   4   8   8   8   8
#     4  10  21  34  47  66  94 128 162 195 237 290
#     4   9  16  26  40  62  97 135 165 197 240 289
#     4   9  16  29  48  65  86 120 160 201 244 288
#     4   7  10  19  38  64  90 113 141 184 236 283
#     4   9  16  26  42  65  92 124 163 203 242 288
#     4   9  17  29  47  71  95 119 152 194 239 289
#
# _framework density 18.734027000000001
#
# number of rings (size 3 to 8) (size 9 to 14) (size 15 to 20)
#    0.000    3.182    0.909    2.182    0.000    2.545 
#    0.000    3.636    0.000    1.091    0.000    6.364 
#    0.000    1.455    0.000    1.636    0.000    1.818 
#
# Total GULP energy -245083.530945 kJ/mol
# GULP energy per Si atom -5570.080249 kJ/mol
# Density = 1.869139 g / cm^3
# Si number density = 18.734027 Si / 1000 Ang^3
#
#
#
# Elastic Constant Matrix: (Units=GPa)
#
#
# Indices 1 2 3 4 5 6 
#
# 1 221.1637 58.2157 58.5676 0.0000 0.0000 0.0000
# 2 58.2157 58.3549 18.6217 0.0000 0.0000 0.0000
# 3 58.5676 18.6217 45.1980 0.0000 0.0000 0.0000
# 4 0.0000 0.0000 0.0000 6.6875 0.0000 0.0000
# 5 0.0000 0.0000 0.0000 0.0000 -4.5143 0.0000
# 6 0.0000 0.0000 0.0000 0.0000 0.0000 21.2510
#
#
#
# Elastic Compliance Matrix: (Units=1/GPa)
#
#
# Indices 1 2 3 4 5 6 
#
# 1 0.008173 -0.005497 -0.008326 0.000000 0.000000 0.000000
# 2 -0.005497 0.023427 -0.002529 0.000000 0.000000 0.000000
# 3 -0.008326 -0.002529 0.033956 0.000000 0.000000 0.000000
# 4 0.000000 0.000000 0.000000 0.149533 0.000000 0.000000
# 5 0.000000 0.000000 0.000000 0.000000 -0.221518 0.000000
# 6 0.000000 0.000000 0.000000 0.000000 0.000000 0.047057
#
#
# Mechanical properties :
#
#
# Convention : Reuss Voigt Hill
#
# Bulk Modulus (GPa) = 30.43955 66.16961 48.30458
# Shear Modulus (GPa) = 59.32327 17.30562 38.31445
#
# Velocity S-wave (km/s) = 5.63336 3.04263 4.52727
# Velocity P-wave (km/s) = 7.65484 6.90946 7.29168
#
# Compressibility (1/GPa) = 0.03285200
#
# Stress axis : x y z
#
# Youngs Moduli (GPa) = 122.34807 42.68507 29.44957
#
# Poissons Ratio (x) = 0.23463 0.24521
# Poissons Ratio (y) = 0.67253 0.07449
# Poissons Ratio (z) = 1.01872 0.10796
#
# Static dielectric constant tensor:
#      x y z
#    x 1.663330 0.000000 0.000000 
#    y 0.000000 1.693150 0.000000 
#    z 0.000000 0.000000 1.612590 
# 
# From -- ./inp_files/2218.got.cif
#   From: 2010.05.17/outbox.cif.g08.bks.cpg/sg47_2_cif.got.tgz:2218.got - 2010.06.03 20:15:42.
