data_PCOD9386535
_publ_section_title
;
Structure prediction by ZEFSAII (Michael W. Deem and Ramdas Pophale) SiO2 
 PCOD9386535
Probable space group: P M M M
;
_chemical_formula_sum "Si O2"
_cell_formula_units_Z 36
_cell_length_a 25.136609
_cell_length_b 8.082606
_cell_length_c 9.302162
_cell_angle_alpha 90.000000
_cell_angle_beta 90.000000
_cell_angle_gamma 90.000000
_cell_volume 1889.913805
_symmetry_space_group_name_H-M "P M M M"
_symmetry_group_IT_number 47
_symmetry_cell_setting 'orthorhombic'
loop_
_space_group_symop_operation_xyz
x,y,z
-x,-y,z
x,-y,-z
-x,y,-z
-x,-y,-z
x,y,-z
-x,y,z
x,-y,z
loop_
_atom_site_type_symbol
_atom_site_label
_atom_site_fract_x
_atom_site_fract_y
_atom_site_fract_z
Si Si1 0.560230 0.299972 0.666683
Si Si2 0.233961 0.694884 0.666314
Si Si3 0.336615 0.196240 0.164458
Si Si4 0.060946 0.500000 0.824992
Si Si5 0.131366 0.185468 0.827540
O O1 0.569517 0.251929 0.500000
O O2 0.500000 0.249202 0.705782
O O3 0.562164 0.500000 0.672269
O O4 0.605950 0.230934 0.767420
O O5 0.236119 0.746750 0.500000
O O6 0.221158 0.500000 0.671904
O O7 0.290674 0.722186 0.740661
O O8 0.187872 0.789378 0.751280
O O9 0.327129 0.000000 0.165027
O O10 0.334253 0.255983 0.000000
O O11 0.092361 0.333972 0.781514
O O12 0.000000 0.500000 0.775287
O O13 0.060099 0.500000 0.000000
O O14 0.110883 0.000000 0.797748
O O15 0.138746 0.199435 0.000000
#
# Coordination Sequence:
#
# PCOD9386535 Si02
#       5
#     8   8   8   4   8
#     4   9  19  37  59  81 106 139 182 230 279 335
#     4  11  23  38  58  83 111 146 189 236 288 345
#     4  11  24  38  53  79 113 146 183 229 282 340
#     4   9  18  34  57  87 123 159 194 237 286 333
#     4  10  20  35  58  87 118 154 195 238 287 342
#
# _framework density 19.048487999999999
#
# number of rings (size 3 to 8) (size 9 to 14) (size 15 to 20)
#    0.000    1.889    1.111    3.333    0.000   10.667 
#    0.000    5.556    0.000    1.333    0.000    1.556 
#    0.000    0.000    0.000    0.000    0.000    0.000 
#
# Total GULP energy -201080.887984 kJ/mol
# GULP energy per Si atom -5585.580222 kJ/mol
# Density = 1.900513 g / cm^3
# Si number density = 19.048488 Si / 1000 Ang^3
#
#
#
# Elastic Constant Matrix: (Units=GPa)
#
#
# Indices 1 2 3 4 5 6 
#
# 1 115.6167 43.4637 48.5891 0.0000 0.0000 0.0000
# 2 43.4637 87.2146 39.0377 0.0000 0.0000 0.0000
# 3 48.5891 39.0377 65.6583 0.0000 0.0000 0.0000
# 4 0.0000 0.0000 0.0000 10.7117 0.0000 0.0000
# 5 0.0000 0.0000 0.0000 0.0000 87.3957 0.0000
# 6 0.0000 0.0000 0.0000 0.0000 0.0000 5.9187
#
#
#
# Elastic Compliance Matrix: (Units=1/GPa)
#
#
# Indices 1 2 3 4 5 6 
#
# 1 0.013099 -0.002983 -0.007920 0.000000 0.000000 0.000000
# 2 -0.002983 0.016303 -0.007486 0.000000 0.000000 0.000000
# 3 -0.007920 -0.007486 0.025542 0.000000 0.000000 0.000000
# 4 0.000000 0.000000 0.000000 0.093356 0.000000 0.000000
# 5 0.000000 0.000000 0.000000 0.000000 0.011442 0.000000
# 6 0.000000 0.000000 0.000000 0.000000 0.000000 0.168956
#
#
# Mechanical properties :
#
#
# Convention : Reuss Voigt Hill
#
# Bulk Modulus (GPa) = 55.04537 58.96338 57.00437
# Shear Modulus (GPa) = 13.45775 29.96514 21.71144
#
# Velocity S-wave (km/s) = 2.66089 3.97053 3.37975
# Velocity P-wave (km/s) = 6.19683 7.21400 6.72467
#
# Compressibility (1/GPa) = 0.01816683
#
# Stress axis : x y z
#
# Youngs Moduli (GPa) = 76.34043 61.33779 39.15063
#
# Poissons Ratio (x) = 0.18296 0.31009
# Poissons Ratio (y) = 0.22771 0.29307
# Poissons Ratio (z) = 0.60464 0.45916
#
# Static dielectric constant tensor:
#      x y z
#    x 1.623860 0.000000 0.000000 
#    y 0.000000 1.684250 0.000000 
#    z 0.000000 0.000000 1.640970 
# 
# From -- ./inp_files/12059.got.cif
#   From: 2010.05.17/outbox.cif.g08.bks.cpg/sg47_7_cif.got.tgz:12059.got - 2010.06.03 20:15:42.
