data_PCOD9386127
_publ_section_title
;
Structure prediction by ZEFSAII (Michael W. Deem and Ramdas Pophale) SiO2 
 PCOD9386127
Probable space group: P M M M
;
_chemical_formula_sum "Si O2"
_cell_formula_units_Z 45
_cell_length_a 13.161772
_cell_length_b 22.359350
_cell_length_c 8.217179
_cell_angle_alpha 90.000000
_cell_angle_beta 90.000000
_cell_angle_gamma 90.000000
_cell_volume 2418.222653
_symmetry_space_group_name_H-M "P M M M"
_symmetry_group_IT_number 47
_symmetry_cell_setting 'orthorhombic'
loop_
_space_group_symop_operation_xyz
x,y,z
-x,-y,z
x,-y,-z
-x,y,-z
-x,-y,-z
x,y,-z
-x,y,z
x,-y,z
loop_
_atom_site_type_symbol
_atom_site_label
_atom_site_fract_x
_atom_site_fract_y
_atom_site_fract_z
Si Si1 0.614063 0.160285 0.193134
Si Si2 0.216837 0.931226 0.306097
Si Si3 0.614487 0.705348 0.306005
Si Si4 0.654830 0.500000 0.687375
Si Si5 0.000000 0.568769 0.192537
Si Si6 0.500000 0.500000 0.000000
Si Si7 0.788622 0.619376 0.311711
Si Si8 0.000000 0.930500 0.194249
O O1 0.500000 0.140070 0.237484
O O2 0.695627 0.110998 0.240011
O O3 0.630557 0.224407 0.276596
O O4 0.617452 0.170246 0.000000
O O5 0.223180 0.933200 0.500000
O O6 0.106291 0.905844 0.257677
O O7 0.225206 0.000000 0.243736
O O8 0.611064 0.693676 0.500000
O O9 0.500000 0.689753 0.242164
O O10 0.710108 0.668207 0.238459
O O11 0.610186 0.500000 0.500000
O O12 0.724879 0.441667 0.694262
O O13 0.586218 0.500000 0.849947
O O14 0.101595 0.604777 0.239264
O O15 0.000000 0.500000 0.262121
O O16 0.000000 0.562739 0.000000
O O17 0.806343 0.636224 0.500000
O O18 0.000000 0.000000 0.250146
O O19 0.000000 0.928915 0.000000
#
# Coordination Sequence:
#
# PCOD9386127 Si02
#       8
#     8   8   8   4   4   1   8   4
#     4  10  21  37  55  80 112 149 189 234 286 341
#     4  10  20  34  55  82 112 147 188 234 282 338
#     4   9  19  37  60  83 109 146 188 235 290 349
#     4  10  23  40  58  87 122 155 194 240 293 354
#     4  11  23  37  58  83 118 153 194 242 287 348
#     4  12  26  36  56  88 128 160 186 240 300 342
#     4  10  21  38  61  85 113 151 193 236 288 345
#     4   9  17  31  52  79 110 143 177 219 275 332
#
# _framework density 18.608708
#
# number of rings (size 3 to 8) (size 9 to 14) (size 15 to 20)
#    0.000    2.133    0.889    1.733    2.489    4.622 
#    0.000    2.667    0.000    3.200    0.000    0.000 
#    0.000    0.000    0.000    0.000    0.000    0.000 
#
# Total GULP energy -250557.125813 kJ/mol
# GULP energy per Si atom -5567.936129 kJ/mol
# Density = 1.856635 g / cm^3
# Si number density = 18.608708 Si / 1000 Ang^3
#
#
#
# Elastic Constant Matrix: (Units=GPa)
#
#
# Indices 1 2 3 4 5 6 
#
# 1 185.5097 75.2578 36.7211 0.0000 0.0000 0.0000
# 2 75.2578 64.1106 5.6423 0.0000 0.0000 0.0000
# 3 36.7211 5.6423 54.5332 0.0000 0.0000 0.0000
# 4 0.0000 0.0000 0.0000 12.7597 0.0000 0.0000
# 5 0.0000 0.0000 0.0000 0.0000 31.0546 0.0000
# 6 0.0000 0.0000 0.0000 0.0000 0.0000 -57.6799
#
#
#
# Elastic Compliance Matrix: (Units=1/GPa)
#
#
# Indices 1 2 3 4 5 6 
#
# 1 0.012437 -0.013990 -0.006927 0.000000 0.000000 0.000000
# 2 -0.013990 0.031478 0.006164 0.000000 0.000000 0.000000
# 3 -0.006927 0.006164 0.022364 0.000000 0.000000 0.000000
# 4 0.000000 0.000000 0.000000 0.078372 0.000000 0.000000
# 5 0.000000 0.000000 0.000000 0.000000 0.032201 0.000000
# 6 0.000000 0.000000 0.000000 0.000000 0.000000 -0.017337
#
#
# Mechanical properties :
#
#
# Convention : Reuss Voigt Hill
#
# Bulk Modulus (GPa) = 27.19449 59.93289 43.56369
# Shear Modulus (GPa) = 24.84082 9.66238 17.25160
#
# Velocity S-wave (km/s) = 3.65760 2.28116 3.04809
# Velocity P-wave (km/s) = 5.69938 6.26219 5.98740
#
# Compressibility (1/GPa) = 0.03677216
#
# Stress axis : x y z
#
# Youngs Moduli (GPa) = 80.40250 31.76781 44.71380
#
# Poissons Ratio (x) = 0.44444 0.30975
# Poissons Ratio (y) = 1.12485 -0.27560
# Poissons Ratio (z) = 0.55699 -0.19581
#
# Static dielectric constant tensor:
#      x y z
#    x 1.661000 0.000000 0.000000 
#    y 0.000000 1.639180 0.000000 
#    z 0.000000 0.000000 1.654860 
# 
# From -- ./inp_files/4388.got.cif
#   From: 2010.05.17/outbox.cif.g08.bks.cpg/sg47_3_cif.got.tgz:4388.got - 2010.06.03 20:15:42.
