data_PCOD9386575
_publ_section_title
;
Structure prediction by ZEFSAII (Michael W. Deem and Ramdas Pophale) SiO2 
 PCOD9386575
Probable space group: P M M M
;
_chemical_formula_sum "Si O2"
_cell_formula_units_Z 52
_cell_length_a 7.469056
_cell_length_b 21.391769
_cell_length_c 13.648013
_cell_angle_alpha 90.000000
_cell_angle_beta 90.000000
_cell_angle_gamma 90.000000
_cell_volume 2180.629301
_symmetry_space_group_name_H-M "P M M M"
_symmetry_group_IT_number 47
_symmetry_cell_setting 'orthorhombic'
loop_
_space_group_symop_operation_xyz
x,y,z
-x,-y,z
x,-y,-z
-x,y,-z
-x,-y,-z
x,y,-z
-x,y,z
x,-y,z
loop_
_atom_site_type_symbol
_atom_site_label
_atom_site_fract_x
_atom_site_fract_y
_atom_site_fract_z
Si Si1 0.714137 0.000000 0.610531
Si Si2 0.281410 0.432192 0.178350
Si Si3 0.283156 0.702649 0.107803
Si Si4 0.294801 0.602027 0.607338
Si Si5 0.793985 0.737322 0.671908
Si Si6 0.781347 0.071505 0.109981
Si Si7 0.789397 0.133115 0.703803
O O1 0.774484 0.065207 0.656239
O O2 0.500000 0.000000 0.614167
O O3 0.777609 0.000000 0.500000
O O4 0.500000 0.430878 0.180349
O O5 0.227037 0.500000 0.140020
O O6 0.229760 0.370452 0.119280
O O7 0.217646 0.424696 0.291332
O O8 0.500000 0.706165 0.110991
O O9 0.215844 0.732979 0.208955
O O10 0.225432 0.726136 0.000000
O O11 0.215065 0.588775 0.500000
O O12 0.500000 0.579967 0.604062
O O13 0.297247 0.676805 0.626157
O O14 0.717230 0.806062 0.648929
O O15 0.000000 0.732094 0.640003
O O16 0.713791 0.120895 0.188056
O O17 0.000000 0.071682 0.112017
O O18 0.728117 0.000000 0.134764
O O19 0.724585 0.084707 0.000000
O O20 0.000000 0.146844 0.713331
#
# Coordination Sequence:
#
# PCOD9386575 Si02
#       7
#     4   8   8   8   8   8   8
#     4  11  25  41  56  77 104 134 167 207 260 317
#     4   8  14  26  47  77 107 132 168 219 265 306
#     4   9  18  33  52  75 107 145 179 212 255 306
#     4   9  18  33  52  73 100 135 171 212 267 323
#     4  10  21  34  52  78 104 134 175 220 260 304
#     4   8  13  24  47  75  97 118 147 186 233 285
#     4  10  20  36  57  78 101 132 170 211 254 299
#
# _framework density 23.846329000000001
#
# number of rings (size 3 to 8) (size 9 to 14) (size 15 to 20)
#    0.000    2.846    0.769    2.077    0.000    4.308 
#    0.000    7.692    0.000    8.308    0.000    8.615 
#    0.000    0.000    0.000    0.000    0.000    0.000 
#
# Total GULP energy -290170.251104 kJ/mol
# GULP energy per Si atom -5580.197137 kJ/mol
# Density = 2.379205 g / cm^3
# Si number density = 23.846329 Si / 1000 Ang^3
#
#
#
# Elastic Constant Matrix: (Units=GPa)
#
#
# Indices 1 2 3 4 5 6 
#
# 1 76.9428 -3.8982 -6.6481 0.0000 0.0000 0.0000
# 2 -3.8982 103.9549 -13.3051 0.0000 0.0000 0.0000
# 3 -6.6481 -13.3051 57.6658 0.0000 0.0000 0.0000
# 4 0.0000 0.0000 0.0000 -2.4503 0.0000 0.0000
# 5 0.0000 0.0000 0.0000 0.0000 6.6644 0.0000
# 6 0.0000 0.0000 0.0000 0.0000 0.0000 7.7705
#
#
#
# Elastic Compliance Matrix: (Units=1/GPa)
#
#
# Indices 1 2 3 4 5 6 
#
# 1 0.013178 0.000710 0.001683 0.000000 0.000000 0.000000
# 2 0.000710 0.009950 0.002378 0.000000 0.000000 0.000000
# 3 0.001683 0.002378 0.018084 0.000000 0.000000 0.000000
# 4 0.000000 0.000000 0.000000 -0.408107 0.000000 0.000000
# 5 0.000000 0.000000 0.000000 0.000000 0.150050 0.000000
# 6 0.000000 0.000000 0.000000 0.000000 0.000000 0.128692
#
#
# Mechanical properties :
#
#
# Convention : Reuss Voigt Hill
#
# Bulk Modulus (GPa) = 19.70336 21.20675 20.45505
# Shear Modulus (GPa) = -61.90062 19.89124 -21.00469
#
# Velocity S-wave (km/s) = -5.10044 2.89129 -2.97111
# Velocity P-wave (km/s) = 5.13862 4.47866 1.78143
#
# Compressibility (1/GPa) = 0.05075278
#
# Stress axis : x y z
#
# Youngs Moduli (GPa) = 75.88388 100.49769 55.29778
#
# Poissons Ratio (x) = -0.07131 -0.09306
# Poissons Ratio (y) = -0.05384 -0.13148
# Poissons Ratio (z) = -0.12771 -0.23895
#
# Static dielectric constant tensor:
#      x y z
#    x 1.915920 0.000000 0.000000 
#    y 0.000000 1.967250 0.000000 
#    z 0.000000 0.000000 1.913770 
# 
# From -- ./inp_files/21435.got.cif
#   From: 2010.05.17/outbox.cif.g08.bks.cpg/sg47_11_cif.got.tgz:21435.got - 2010.06.03 20:15:42.
