data_PCOD9386006
_publ_section_title
;
Structure prediction by ZEFSAII (Michael W. Deem and Ramdas Pophale) SiO2 
 PCOD9386006
Probable space group: P M M M
;
_chemical_formula_sum "Si O2"
_cell_formula_units_Z 52
_cell_length_a 14.591933
_cell_length_b 8.793356
_cell_length_c 23.644537
_cell_angle_alpha 90.000000
_cell_angle_beta 90.000000
_cell_angle_gamma 90.000000
_cell_volume 3033.879288
_symmetry_space_group_name_H-M "P M M M"
_symmetry_group_IT_number 47
_symmetry_cell_setting 'orthorhombic'
loop_
_space_group_symop_operation_xyz
x,y,z
-x,-y,z
x,-y,-z
-x,y,-z
-x,-y,-z
x,y,-z
-x,y,z
x,-y,z
loop_
_atom_site_type_symbol
_atom_site_label
_atom_site_fract_x
_atom_site_fract_y
_atom_site_fract_z
Si Si1 0.105218 0.685194 0.500000
Si Si2 0.106305 0.183212 0.064953
Si Si3 0.396783 0.317816 0.225572
Si Si4 0.604280 0.818354 0.649480
Si Si5 0.788087 0.682506 0.387075
Si Si6 0.209035 0.681955 0.170144
Si Si7 0.892062 0.818026 0.721240
O O1 0.103780 0.500000 0.500000
O O2 0.158197 0.731927 0.556627
O O3 0.000000 0.737578 0.500000
O O4 0.171826 0.256214 0.111074
O O5 0.000000 0.225253 0.076497
O O6 0.111706 0.000000 0.068763
O O7 0.127045 0.226110 0.000000
O O8 0.500000 0.283095 0.205396
O O9 0.391585 0.500000 0.235674
O O10 0.383234 0.235618 0.285605
O O11 0.314695 0.277018 0.183594
O O12 0.500000 0.776901 0.633061
O O13 0.683928 0.740537 0.613709
O O14 0.613325 0.000000 0.646839
O O15 0.789288 0.500000 0.383786
O O16 0.838516 0.748780 0.331980
O O17 0.201087 0.500000 0.171433
O O18 0.149280 0.751102 0.221141
O O19 0.000000 0.782638 0.717131
O O20 0.880993 0.000000 0.721410
#
# Coordination Sequence:
#
# PCOD9386006 Si02
#       7
#     4   8   8   8   8   8   8
#     4   9  20  38  58  79 104 138 181 225 268 321
#     4   9  19  36  55  74 102 144 186 221 264 319
#     4   9  18  33  52  76 107 141 176 215 264 320
#     4  10  20  34  54  80 109 141 176 216 266 323
#     4  11  21  36  58  81 105 138 178 224 273 319
#     4  11  21  32  52  82 109 137 175 222 271 316
#     4  11  23  36  51  75 109 144 175 215 268 323
#
# _framework density 17.139771
#
# number of rings (size 3 to 8) (size 9 to 14) (size 15 to 20)
#    0.000    1.923    1.538    3.231    0.000    5.846 
#    0.000    2.692    0.000    5.538    0.000    3.231 
#    0.000    0.000    0.000    0.000    0.000    0.000 
#
# Total GULP energy -290322.962999 kJ/mol
# GULP energy per Si atom -5583.133904 kJ/mol
# Density = 1.710076 g / cm^3
# Si number density = 17.139771 Si / 1000 Ang^3
#
#
#
# Elastic Constant Matrix: (Units=GPa)
#
#
# Indices 1 2 3 4 5 6 
#
# 1 161.5111 51.4743 84.9610 0.0000 0.0000 0.0000
# 2 51.4743 36.5038 32.4988 0.0000 0.0000 0.0000
# 3 84.9610 32.4988 106.4984 0.0000 0.0000 0.0000
# 4 0.0000 0.0000 0.0000 37.4088 0.0000 0.0000
# 5 0.0000 0.0000 0.0000 0.0000 31.1959 0.0000
# 6 0.0000 0.0000 0.0000 0.0000 0.0000 28.5597
#
#
#
# Elastic Compliance Matrix: (Units=1/GPa)
#
#
# Indices 1 2 3 4 5 6 
#
# 1 0.014455 -0.013890 -0.007293 0.000000 0.000000 0.000000
# 2 -0.013890 0.050960 -0.004470 0.000000 0.000000 0.000000
# 3 -0.007293 -0.004470 0.016572 0.000000 0.000000 0.000000
# 4 0.000000 0.000000 0.000000 0.026732 0.000000 0.000000
# 5 0.000000 0.000000 0.000000 0.000000 0.032056 0.000000
# 6 0.000000 0.000000 0.000000 0.000000 0.000000 0.035014
#
#
# Mechanical properties :
#
#
# Convention : Reuss Voigt Hill
#
# Bulk Modulus (GPa) = 32.59314 71.37574 51.98444
# Shear Modulus (GPa) = 21.06853 28.47149 24.77001
#
# Velocity S-wave (km/s) = 3.50983 4.08012 3.80567
# Velocity P-wave (km/s) = 5.95672 7.99564 7.05028
#
# Compressibility (1/GPa) = 0.03068131
#
# Stress axis : x y z
#
# Youngs Moduli (GPa) = 69.18226 19.62312 60.34335
#
# Poissons Ratio (x) = 0.27256 0.44007
# Poissons Ratio (y) = 0.96093 0.26974
# Poissons Ratio (z) = 0.50453 0.08772
#
# Static dielectric constant tensor:
#      x y z
#    x 1.594260 0.000000 0.000000 
#    y 0.000000 1.576950 0.000000 
#    z 0.000000 0.000000 1.543900 
# 
# From -- ./inp_files/25048.got.cif
#   From: 2010.05.17/outbox.cif.g08.bks.cpg/sg47_13_cif.got.tgz:25048.got - 2010.06.03 20:15:42.
