data_PCOD9386480
_publ_section_title
;
Structure prediction by ZEFSAII (Michael W. Deem and Ramdas Pophale) SiO2 
 PCOD9386480
Probable space group: P M M M
;
_chemical_formula_sum "Si O2"
_cell_formula_units_Z 36
_cell_length_a 9.262183
_cell_length_b 23.685157
_cell_length_c 8.729683
_cell_angle_alpha 90.000000
_cell_angle_beta 90.000000
_cell_angle_gamma 90.000000
_cell_volume 1915.085195
_symmetry_space_group_name_H-M "P M M M"
_symmetry_group_IT_number 47
_symmetry_cell_setting 'orthorhombic'
loop_
_space_group_symop_operation_xyz
x,y,z
-x,-y,z
x,-y,-z
-x,y,-z
-x,-y,-z
x,y,-z
-x,y,z
x,-y,z
loop_
_atom_site_type_symbol
_atom_site_label
_atom_site_fract_x
_atom_site_fract_y
_atom_site_fract_z
Si Si1 0.167676 0.221796 0.183640
Si Si2 0.668166 0.886463 0.685381
Si Si3 0.667650 0.670688 0.316847
Si Si4 0.830557 0.564677 0.815797
Si Si5 0.166444 0.000000 0.686723
O O1 0.252976 0.168164 0.248619
O O2 0.241261 0.278821 0.243240
O O3 0.000000 0.219535 0.231687
O O4 0.173074 0.221059 0.000000
O O5 0.673931 0.883869 0.500000
O O6 0.500000 0.887958 0.729955
O O7 0.750019 0.943496 0.734692
O O8 0.675729 0.675353 0.500000
O O9 0.500000 0.675182 0.270752
O O10 0.733404 0.611234 0.263995
O O11 0.794290 0.500000 0.773842
O O12 0.000000 0.573955 0.779260
O O13 0.816358 0.569627 0.000000
O O14 0.166103 0.000000 0.500000
O O15 0.000000 0.000000 0.737401
#
# Coordination Sequence:
#
# PCOD9386480 Si02
#       5
#     8   8   8   8   4
#     4  11  24  40  58  81 109 143 185 231 278 330
#     4  10  20  35  57  85 115 146 183 227 274 326
#     4  11  24  39  56  82 114 146 183 228 276 327
#     4   9  19  37  60  85 113 146 185 227 271 323
#     4   9  17  31  54  83 114 149 186 224 270 323
#
# _framework density 18.798117000000001
#
# number of rings (size 3 to 8) (size 9 to 14) (size 15 to 20)
#    0.000    1.889    0.000    4.333    0.000   12.889 
#    0.000    3.889    0.000    3.333    0.000    0.000 
#    0.000    0.000    0.000    0.000    0.000    0.000 
#
# Total GULP energy -201192.178727 kJ/mol
# GULP energy per Si atom -5588.671631 kJ/mol
# Density = 1.875533 g / cm^3
# Si number density = 18.798117 Si / 1000 Ang^3
#
#
#
# Elastic Constant Matrix: (Units=GPa)
#
#
# Indices 1 2 3 4 5 6 
#
# 1 191.1945 114.6572 46.4661 0.0000 0.0000 0.0000
# 2 114.6572 156.9973 34.4690 0.0000 0.0000 0.0000
# 3 46.4661 34.4690 20.9190 0.0000 0.0000 0.0000
# 4 0.0000 0.0000 0.0000 48.7348 0.0000 0.0000
# 5 0.0000 0.0000 0.0000 0.0000 20.5197 0.0000
# 6 0.0000 0.0000 0.0000 0.0000 0.0000 69.7194
#
#
#
# Elastic Compliance Matrix: (Units=1/GPa)
#
#
# Indices 1 2 3 4 5 6 
#
# 1 0.013605 -0.005172 -0.021698 0.000000 0.000000 0.000000
# 2 -0.005172 0.011946 -0.008195 0.000000 0.000000 0.000000
# 3 -0.021698 -0.008195 0.109504 0.000000 0.000000 0.000000
# 4 0.000000 0.000000 0.000000 0.020519 0.000000 0.000000
# 5 0.000000 0.000000 0.000000 0.000000 0.048734 0.000000
# 6 0.000000 0.000000 0.000000 0.000000 0.000000 0.014343
#
#
# Mechanical properties :
#
#
# Convention : Reuss Voigt Hill
#
# Bulk Modulus (GPa) = 15.40262 84.47726 49.93994
# Shear Modulus (GPa) = 16.10696 39.36266 27.73481
#
# Velocity S-wave (km/s) = 2.93036 4.58095 3.84527
# Velocity P-wave (km/s) = 4.43405 8.54500 6.80727
#
# Compressibility (1/GPa) = 0.06492404
#
# Stress axis : x y z
#
# Youngs Moduli (GPa) = 73.50026 83.70832 9.13208
#
# Poissons Ratio (x) = 0.43297 0.19815
# Poissons Ratio (y) = 0.38017 0.07484
# Poissons Ratio (z) = 1.59482 0.68601
#
# Static dielectric constant tensor:
#      x y z
#    x 1.633170 0.000000 0.000000 
#    y 0.000000 1.612800 0.000000 
#    z 0.000000 0.000000 1.637020 
# 
# From -- ./inp_files/1380.got.cif
#   From: 2010.05.17/outbox.cif.g08.bks.cpg/sg47_1_cif.got.tgz:1380.got - 2010.06.03 20:15:42.
