data_PCOD9386438
_publ_section_title
;
Structure prediction by ZEFSAII (Michael W. Deem and Ramdas Pophale) SiO2 
 PCOD9386438
Probable space group: P M M M
;
_chemical_formula_sum "Si O2"
_cell_formula_units_Z 40
_cell_length_a 26.293914
_cell_length_b 9.026455
_cell_length_c 9.309847
_cell_angle_alpha 90.000000
_cell_angle_beta 90.000000
_cell_angle_gamma 90.000000
_cell_volume 2209.606828
_symmetry_space_group_name_H-M "P M M M"
_symmetry_group_IT_number 47
_symmetry_cell_setting 'orthorhombic'
loop_
_space_group_symop_operation_xyz
x,y,z
-x,-y,z
x,-y,-z
-x,y,-z
-x,-y,-z
x,y,-z
-x,y,z
x,-y,z
loop_
_atom_site_type_symbol
_atom_site_label
_atom_site_fract_x
_atom_site_fract_y
_atom_site_fract_z
Si Si1 0.302695 0.322721 0.168426
Si Si2 0.093010 0.176888 0.330258
Si Si3 0.000000 0.676758 0.166756
Si Si4 0.397567 0.178952 0.331269
Si Si5 0.500000 0.819752 0.165584
Si Si6 0.790574 0.822239 0.669811
O O1 0.304090 0.500000 0.181465
O O2 0.349376 0.251827 0.255135
O O3 0.250741 0.260584 0.235698
O O4 0.306387 0.283659 0.000000
O O5 0.086284 0.206032 0.500000
O O6 0.050108 0.259367 0.242099
O O7 0.151165 0.217438 0.292653
O O8 0.087857 0.000000 0.309792
O O9 0.000000 0.500000 0.178107
O O10 0.000000 0.719304 0.000000
O O11 0.399787 0.216327 0.500000
O O12 0.449201 0.225169 0.250015
O O13 0.393309 0.000000 0.320666
O O14 0.500000 0.000000 0.163981
O O15 0.500000 0.769552 0.000000
O O16 0.782956 0.790406 0.500000
O O17 0.785200 0.000000 0.686913
#
# Coordination Sequence:
#
# PCOD9386438 Si02
#       6
#     8   8   4   8   4   8
#     4  11  24  38  52  76 111 147 181 219 265 317
#     4   9  19  37  60  83 106 135 176 224 269 316
#     4  11  24  37  50  76 114 149 180 217 262 314
#     4  10  20  35  57  83 109 139 179 225 268 314
#     4   9  17  31  54  83 112 141 174 216 268 321
#     4   9  19  37  60  84 107 134 174 223 271 319
#
# _framework density 18.102768999999999
#
# number of rings (size 3 to 8) (size 9 to 14) (size 15 to 20)
#    0.000    2.200    0.000    3.900    0.000   10.800 
#    0.000    6.500    0.000    3.000    0.000    0.000 
#    0.000    0.000    0.000    0.000    0.000    0.000 
#
# Total GULP energy -223390.117226 kJ/mol
# GULP energy per Si atom -5584.752931 kJ/mol
# Density = 1.806157 g / cm^3
# Si number density = 18.102769 Si / 1000 Ang^3
#
#
#
# Elastic Constant Matrix: (Units=GPa)
#
#
# Indices 1 2 3 4 5 6 
#
# 1 187.2773 61.5880 128.9628 0.0000 0.0000 0.0000
# 2 61.5880 29.1883 61.2752 0.0000 0.0000 0.0000
# 3 128.9628 61.2752 155.4147 0.0000 0.0000 0.0000
# 4 0.0000 0.0000 0.0000 31.5449 0.0000 0.0000
# 5 0.0000 0.0000 0.0000 0.0000 -151.0798 0.0000
# 6 0.0000 0.0000 0.0000 0.0000 0.0000 -28.1545
#
#
#
# Elastic Compliance Matrix: (Units=1/GPa)
#
#
# Indices 1 2 3 4 5 6 
#
# 1 0.017446 -0.037261 0.000215 0.000000 0.000000 0.000000
# 2 -0.037261 0.278418 -0.078852 0.000000 0.000000 0.000000
# 3 0.000215 -0.078852 0.037345 0.000000 0.000000 0.000000
# 4 0.000000 0.000000 0.000000 0.031701 0.000000 0.000000
# 5 0.000000 0.000000 0.000000 0.000000 -0.006619 0.000000
# 6 0.000000 0.000000 0.000000 0.000000 0.000000 -0.035518
#
#
# Mechanical properties :
#
#
# Convention : Reuss Voigt Hill
#
# Bulk Modulus (GPa) = 9.86086 97.28137 53.57112
# Shear Modulus (GPa) = 8.49800 -21.53428 -6.51814
#
# Velocity S-wave (km/s) = 2.16899 -3.45274 -1.89959
# Velocity P-wave (km/s) = 3.42515 6.16116 4.98455
#
# Compressibility (1/GPa) = 0.10141105
#
# Stress axis : x y z
#
# Youngs Moduli (GPa) = 57.32079 3.59172 26.77720
#
# Poissons Ratio (x) = 0.13383 -0.00575
# Poissons Ratio (y) = 2.13586 2.11144
# Poissons Ratio (z) = -0.01230 0.28321
#
# Static dielectric constant tensor:
#      x y z
#    x 1.596480 0.000000 0.000000 
#    y 0.000000 1.597570 0.000000 
#    z 0.000000 0.000000 1.600860 
# 
# From -- ./inp_files/13042.got.cif
#   From: 2010.05.17/outbox.cif.g08.bks.cpg/sg47_7_cif.got.tgz:13042.got - 2010.06.03 20:15:42.
