data_PCOD9386845
_publ_section_title
;
Structure prediction by ZEFSAII (Michael W. Deem and Ramdas Pophale) SiO2 
 PCOD9386845
Probable space group: P M M M
;
_chemical_formula_sum "Si O2"
_cell_formula_units_Z 56
_cell_length_a 20.710789
_cell_length_b 9.039683
_cell_length_c 15.943481
_cell_angle_alpha 90.000000
_cell_angle_beta 90.000000
_cell_angle_gamma 90.000000
_cell_volume 2984.922047
_symmetry_space_group_name_H-M "P M M M"
_symmetry_group_IT_number 47
_symmetry_cell_setting 'orthorhombic'
loop_
_space_group_symop_operation_xyz
x,y,z
-x,-y,z
x,-y,-z
-x,y,-z
-x,-y,-z
x,y,-z
-x,y,z
x,-y,z
loop_
_atom_site_type_symbol
_atom_site_label
_atom_site_fract_x
_atom_site_fract_y
_atom_site_fract_z
Si Si1 0.171781 0.680587 0.093397
Si Si2 0.299990 0.326139 0.823184
Si Si3 0.252373 0.669733 0.632791
Si Si4 0.571146 0.823536 0.767962
Si Si5 0.877811 0.824043 0.593062
Si Si6 0.926346 0.322700 0.238316
Si Si7 0.400418 0.324596 0.592055
O O1 0.171798 0.500000 0.095960
O O2 0.245479 0.726623 0.112403
O O3 0.123800 0.729781 0.167211
O O4 0.151721 0.725652 0.000000
O O5 0.313053 0.500000 0.836919
O O6 0.265325 0.314204 0.732138
O O7 0.367870 0.243222 0.817038
O O8 0.231658 0.500000 0.616791
O O9 0.197317 0.778092 0.601665
O O10 0.322704 0.691279 0.593314
O O11 0.500000 0.783617 0.801796
O O12 0.574941 0.762138 0.672702
O O13 0.576755 0.000000 0.766107
O O14 0.900503 0.777630 0.500000
O O15 0.912274 0.747957 0.671525
O O16 0.884750 0.000000 0.599321
O O17 0.918495 0.500000 0.246261
O O18 0.000000 0.292546 0.212854
O O19 0.424059 0.278815 0.500000
O O20 0.414062 0.500000 0.602962
#
# Coordination Sequence:
#
# PCOD9386845 Si02
#       7
#     8   8   8   8   8   8   8
#     4   9  17  33  60  92 119 139 169 219 275 329
#     4   9  17  32  55  80 107 139 175 218 268 320
#     4   9  16  30  51  74 102 136 178 226 273 320
#     4  10  21  34  48  70 102 141 182 224 271 321
#     4  11  23  35  50  75 108 148 191 233 276 319
#     4  10  21  38  59  83 113 148 184 222 269 325
#     4   9  18  31  47  69  98 134 177 226 277 327
#
# _framework density 18.760959
#
# number of rings (size 3 to 8) (size 9 to 14) (size 15 to 20)
#    0.000    2.429    1.429    2.143    0.000    6.571 
#    0.000    4.286    0.000    2.143    0.000    4.000 
#    0.000    0.000    0.000    0.000    0.000    0.000 
#
# Total GULP energy -312373.881145 kJ/mol
# GULP energy per Si atom -5578.105020 kJ/mol
# Density = 1.871826 g / cm^3
# Si number density = 18.760959 Si / 1000 Ang^3
#
#
#
# Elastic Constant Matrix: (Units=GPa)
#
#
# Indices 1 2 3 4 5 6 
#
# 1 111.3325 36.2764 54.0463 0.0000 0.0000 0.0000
# 2 36.2764 27.6712 23.6249 0.0000 0.0000 0.0000
# 3 54.0463 23.6249 92.8926 0.0000 0.0000 0.0000
# 4 0.0000 0.0000 0.0000 1.7852 0.0000 0.0000
# 5 0.0000 0.0000 0.0000 0.0000 -11.7477 0.0000
# 6 0.0000 0.0000 0.0000 0.0000 0.0000 35.9706
#
#
#
# Elastic Compliance Matrix: (Units=1/GPa)
#
#
# Indices 1 2 3 4 5 6 
#
# 1 0.017714 -0.018424 -0.005620 0.000000 0.000000 0.000000
# 2 -0.018424 0.065324 -0.005894 0.000000 0.000000 0.000000
# 3 -0.005620 -0.005894 0.015534 0.000000 0.000000 0.000000
# 4 0.000000 0.000000 0.000000 0.560172 0.000000 0.000000
# 5 0.000000 0.000000 0.000000 0.000000 -0.085123 0.000000
# 6 0.000000 0.000000 0.000000 0.000000 0.000000 0.027800
#
#
# Mechanical properties :
#
#
# Convention : Reuss Voigt Hill
#
# Bulk Modulus (GPa) = 25.84307 51.08794 38.46551
# Shear Modulus (GPa) = 7.41623 13.06485 10.24054
#
# Velocity S-wave (km/s) = 1.99037 2.64177 2.33886
# Velocity P-wave (km/s) = 4.36886 6.04941 5.27647
#
# Compressibility (1/GPa) = 0.03869509
#
# Stress axis : x y z
#
# Youngs Moduli (GPa) = 56.45348 15.30823 64.37360
#
# Poissons Ratio (x) = 0.28203 0.36181
# Poissons Ratio (y) = 1.04008 0.37945
# Poissons Ratio (z) = 0.31730 0.09023
#
# Static dielectric constant tensor:
#      x y z
#    x 1.668950 0.000000 0.000000 
#    y 0.000000 1.622820 0.000000 
#    z 0.000000 0.000000 1.661120 
# 
# From -- ./inp_files/25132.got.cif
#   From: 2010.05.17/outbox.cif.g08.bks.cpg/sg47_13_cif.got.tgz:25132.got - 2010.06.03 20:15:42.
