data_PCOD9386355
_publ_section_title
;
Structure prediction by ZEFSAII (Michael W. Deem and Ramdas Pophale) SiO2 
 PCOD9386355
Probable space group: P M M M
;
_chemical_formula_sum "Si O2"
_cell_formula_units_Z 40
_cell_length_a 12.230718
_cell_length_b 8.517141
_cell_length_c 20.964614
_cell_angle_alpha 90.000000
_cell_angle_beta 90.000000
_cell_angle_gamma 90.000000
_cell_volume 2183.899558
_symmetry_space_group_name_H-M "P M M M"
_symmetry_group_IT_number 47
_symmetry_cell_setting 'orthorhombic'
loop_
_space_group_symop_operation_xyz
x,y,z
-x,-y,z
x,-y,-z
-x,y,-z
-x,-y,-z
x,y,-z
-x,y,z
x,-y,z
loop_
_atom_site_type_symbol
_atom_site_label
_atom_site_fract_x
_atom_site_fract_y
_atom_site_fract_z
Si Si1 0.125659 0.310328 0.310314
Si Si2 0.874315 0.189482 0.926824
Si Si3 0.735091 0.809956 0.427822
Si Si4 0.500000 0.812158 0.772536
Si Si5 0.500000 0.808941 0.624806
Si Si6 0.267922 0.687726 0.811464
O O1 0.125962 0.500000 0.309982
O O2 0.182068 0.252765 0.374998
O O3 0.197375 0.256226 0.249806
O O4 0.000000 0.257318 0.305181
O O5 0.792777 0.259017 0.875334
O O6 0.000000 0.236625 0.912766
O O7 0.869937 0.000000 0.923942
O O8 0.849950 0.235556 0.000000
O O9 0.761051 0.760531 0.500000
O O10 0.611857 0.758904 0.409161
O O11 0.736949 0.000000 0.425813
O O12 0.500000 0.757601 0.698519
O O13 0.389880 0.752844 0.805340
O O14 0.500000 0.000000 0.772163
O O15 0.500000 0.000000 0.624066
O O16 0.271779 0.500000 0.809340
#
# Coordination Sequence:
#
# PCOD9386355 Si02
#       6
#     8   8   8   4   4   8
#     4  10  22  38  54  75 108 148 185 223 273 333
#     4   9  19  37  61  89 120 153 189 229 274 326
#     4  10  20  35  56  81 107 137 180 233 282 330
#     4  11  21  36  60  84 110 147 188 229 284 341
#     4   9  17  33  56  80 106 136 175 224 279 333
#     4  11  22  37  58  85 116 148 188 234 280 330
#
# _framework density 18.315860000000001
#
# number of rings (size 3 to 8) (size 9 to 14) (size 15 to 20)
#    0.000    2.000    2.000    2.400    0.000    4.800 
#    0.000    4.000    0.000    4.200    0.000    0.000 
#    0.000    0.000    0.000    0.000    0.000    0.000 
#
# Total GULP energy -223385.899001 kJ/mol
# GULP energy per Si atom -5584.647475 kJ/mol
# Density = 1.827417 g / cm^3
# Si number density = 18.315860 Si / 1000 Ang^3
#
#
#
# Elastic Constant Matrix: (Units=GPa)
#
#
# Indices 1 2 3 4 5 6 
#
# 1 179.4624 33.3746 106.0453 0.0000 0.0000 0.0000
# 2 33.3746 20.4596 31.6460 0.0000 0.0000 0.0000
# 3 106.0453 31.6460 154.1010 0.0000 0.0000 0.0000
# 4 0.0000 0.0000 0.0000 27.0024 0.0000 0.0000
# 5 0.0000 0.0000 0.0000 0.0000 31.5294 0.0000
# 6 0.0000 0.0000 0.0000 0.0000 0.0000 15.1566
#
#
#
# Elastic Compliance Matrix: (Units=1/GPa)
#
#
# Indices 1 2 3 4 5 6 
#
# 1 0.010325 -0.008577 -0.005344 0.000000 0.000000 0.000000
# 2 -0.008577 0.078754 -0.010271 0.000000 0.000000 0.000000
# 3 -0.005344 -0.010271 0.012276 0.000000 0.000000 0.000000
# 4 0.000000 0.000000 0.000000 0.037034 0.000000 0.000000
# 5 0.000000 0.000000 0.000000 0.000000 0.031716 0.000000
# 6 0.000000 0.000000 0.000000 0.000000 0.000000 0.065978
#
#
# Mechanical properties :
#
#
# Convention : Reuss Voigt Hill
#
# Bulk Modulus (GPa) = 18.87791 77.35051 48.11421
# Shear Modulus (GPa) = 16.54959 26.93481 21.74220
#
# Velocity S-wave (km/s) = 3.00920 3.83897 3.44913
# Velocity P-wave (km/s) = 4.73318 7.87231 6.49524
#
# Compressibility (1/GPa) = 0.05297196
#
# Stress axis : x y z
#
# Youngs Moduli (GPa) = 96.85299 12.69781 81.46142
#
# Poissons Ratio (x) = 0.10891 0.43531
# Poissons Ratio (y) = 0.83070 0.83665
# Poissons Ratio (z) = 0.51756 0.13041
#
# Static dielectric constant tensor:
#      x y z
#    x 1.605910 0.000000 0.000000 
#    y 0.000000 1.629510 0.000000 
#    z 0.000000 0.000000 1.608770 
# 
# From -- ./inp_files/10666.got.cif
#   From: 2010.05.17/outbox.cif.g08.bks.cpg/sg47_6_cif.got.tgz:10666.got - 2010.06.03 20:15:42.
