data_PCOD9386456
_publ_section_title
;
Structure prediction by ZEFSAII (Michael W. Deem and Ramdas Pophale) SiO2 
 PCOD9386456
Probable space group: P M M M
;
_chemical_formula_sum "Si O2"
_cell_formula_units_Z 48
_cell_length_a 33.492364
_cell_length_b 8.309711
_cell_length_c 9.200385
_cell_angle_alpha 90.000000
_cell_angle_beta 90.000000
_cell_angle_gamma 90.000000
_cell_volume 2560.576313
_symmetry_space_group_name_H-M "P M M M"
_symmetry_group_IT_number 47
_symmetry_cell_setting 'orthorhombic'
loop_
_space_group_symop_operation_xyz
x,y,z
-x,-y,z
x,-y,-z
-x,y,-z
-x,-y,-z
x,y,-z
-x,y,z
x,-y,z
loop_
_atom_site_type_symbol
_atom_site_label
_atom_site_fract_x
_atom_site_fract_y
_atom_site_fract_z
Si Si1 0.915373 0.191962 0.832667
Si Si2 0.837361 0.307854 0.334821
Si Si3 0.000000 0.691856 0.168624
Si Si4 0.402408 0.687362 0.824544
Si Si5 0.681489 0.307270 0.666823
Si Si6 0.545829 0.000000 0.176719
Si Si7 0.240579 0.808257 0.834545
O O1 0.877453 0.248482 0.742530
O O2 0.957963 0.248517 0.769387
O O3 0.915516 0.000000 0.837465
O O4 0.912106 0.253214 0.000000
O O5 0.834939 0.245667 0.500000
O O6 0.838602 0.500000 0.339328
O O7 0.798269 0.257508 0.246358
O O8 0.000000 0.500000 0.169104
O O9 0.000000 0.750672 0.000000
O O10 0.413803 0.500000 0.787304
O O11 0.359781 0.722787 0.751112
O O12 0.432037 0.833064 0.780952
O O13 0.398589 0.692076 0.000000
O O14 0.679266 0.250466 0.500000
O O15 0.686866 0.500000 0.664584
O O16 0.719272 0.235155 0.749137
O O17 0.500000 0.000000 0.226589
O O18 0.545670 0.000000 0.000000
O O19 0.236934 0.000000 0.839667
O O20 0.242642 0.746122 0.000000
#
# Coordination Sequence:
#
# PCOD9386456 Si02
#       7
#     8   8   4   8   8   4   8
#     4  10  20  35  57  84 112 142 180 226 274 325
#     4  11  24  40  57  79 109 145 184 226 273 327
#     4   9  17  31  54  83 112 143 180 222 270 323
#     4   9  18  33  54  80 112 150 191 238 291 343
#     4  10  21  37  57  82 112 146 185 230 280 334
#     4   9  18  32  53  83 115 147 191 245 293 342
#     4  11  24  39  57  83 112 143 182 227 274 328
#
# _framework density 18.74578
#
# number of rings (size 3 to 8) (size 9 to 14) (size 15 to 20)
#    0.000    2.000    0.000    3.250    1.167   10.000 
#    0.000    2.083    0.000    3.500    0.000    2.333 
#    0.000    0.000    0.000    0.000    0.000    0.000 
#
# Total GULP energy -267917.652596 kJ/mol
# GULP energy per Si atom -5581.617762 kJ/mol
# Density = 1.870311 g / cm^3
# Si number density = 18.745780 Si / 1000 Ang^3
#
#
#
# Elastic Constant Matrix: (Units=GPa)
#
#
# Indices 1 2 3 4 5 6 
#
# 1 169.2811 81.2299 63.8859 0.0000 0.0000 0.0000
# 2 81.2299 78.5634 37.7561 0.0000 0.0000 0.0000
# 3 63.8859 37.7561 82.7122 0.0000 0.0000 0.0000
# 4 0.0000 0.0000 0.0000 16.2015 0.0000 0.0000
# 5 0.0000 0.0000 0.0000 0.0000 -16.8078 0.0000
# 6 0.0000 0.0000 0.0000 0.0000 0.0000 42.3666
#
#
#
# Elastic Compliance Matrix: (Units=1/GPa)
#
#
# Indices 1 2 3 4 5 6 
#
# 1 0.013205 -0.011211 -0.005082 0.000000 0.000000 0.000000
# 2 -0.011211 0.025823 -0.003129 0.000000 0.000000 0.000000
# 3 -0.005082 -0.003129 0.017443 0.000000 0.000000 0.000000
# 4 0.000000 0.000000 0.000000 0.061723 0.000000 0.000000
# 5 0.000000 0.000000 0.000000 0.000000 -0.059496 0.000000
# 6 0.000000 0.000000 0.000000 0.000000 0.000000 0.023603
#
#
# Mechanical properties :
#
#
# Convention : Reuss Voigt Hill
#
# Bulk Modulus (GPa) = 56.72437 77.36672 67.04554
# Shear Modulus (GPa) = 39.36404 18.19773 28.78088
#
# Velocity S-wave (km/s) = 4.58742 3.11909 3.92257
# Velocity P-wave (km/s) = 7.64099 7.37108 7.50725
#
# Compressibility (1/GPa) = 0.01762911
#
# Stress axis : x y z
#
# Youngs Moduli (GPa) = 75.73148 38.72483 57.32837
#
# Poissons Ratio (x) = 0.43413 0.29133
# Poissons Ratio (y) = 0.84899 0.17937
# Poissons Ratio (z) = 0.38484 0.12116
#
# Static dielectric constant tensor:
#      x y z
#    x 1.621020 0.000000 0.000000 
#    y 0.000000 1.648960 0.000000 
#    z 0.000000 0.000000 1.654230 
# 
# From -- ./inp_files/13940.got.cif
#   From: 2010.05.17/outbox.cif.g08.bks.cpg/sg47_7_cif.got.tgz:13940.got - 2010.06.03 20:15:42.
