data_PCOD9386299
_publ_section_title
;
Structure prediction by ZEFSAII (Michael W. Deem and Ramdas Pophale) SiO2 
 PCOD9386299
Probable space group: P M M M
;
_chemical_formula_sum "Si O2"
_cell_formula_units_Z 48
_cell_length_a 7.607298
_cell_length_b 15.933365
_cell_length_c 18.032149
_cell_angle_alpha 90.000000
_cell_angle_beta 90.000000
_cell_angle_gamma 90.000000
_cell_volume 2185.674178
_symmetry_space_group_name_H-M "P M M M"
_symmetry_group_IT_number 47
_symmetry_cell_setting 'orthorhombic'
loop_
_space_group_symop_operation_xyz
x,y,z
-x,-y,z
x,-y,-z
-x,y,-z
-x,-y,-z
x,y,-z
-x,y,z
x,-y,z
loop_
_atom_site_type_symbol
_atom_site_label
_atom_site_fract_x
_atom_site_fract_y
_atom_site_fract_z
Si Si1 0.798211 0.368307 0.840583
Si Si2 0.790802 0.165117 0.000000
Si Si3 0.215812 0.638187 0.000000
Si Si4 0.296707 0.176160 0.159413
Si Si5 0.209821 0.906933 0.686516
Si Si6 0.784892 0.407743 0.677773
Si Si7 0.215416 0.246133 0.585341
O O1 0.799588 0.266314 0.839827
O O2 0.721031 0.396878 0.762545
O O3 0.000000 0.397525 0.840744
O O4 0.722482 0.395225 0.920389
O O5 0.734680 0.263216 0.000000
O O6 0.729391 0.132203 0.079598
O O7 0.000000 0.161865 0.000000
O O8 0.000000 0.634092 0.000000
O O9 0.500000 0.196873 0.167942
O O10 0.239937 0.121023 0.228858
O O11 0.276497 0.834411 0.632023
O O12 0.000000 0.910236 0.675394
O O13 0.281571 0.000000 0.673182
O O14 0.736082 0.500000 0.650056
O O15 0.727285 0.330605 0.627219
O O16 0.000000 0.403840 0.679936
O O17 0.270179 0.243723 0.500000
O O18 0.000000 0.246042 0.586275
#
# Coordination Sequence:
#
# PCOD9386299 Si02
#       7
#     8   4   4   8   8   8   8
#     4   9  15  28  47  68 100 140 182 221 264 319
#     4   9  17  31  52  77 108 146 186 223 265 312
#     4   7  12  21  40  66  90 127 170 209 247 291
#     4  11  20  31  51  79 110 142 181 225 269 313
#     4  10  20  35  55  77 103 139 179 219 270 328
#     4   9  16  26  45  74 107 140 174 217 269 323
#     4   9  17  30  50  77 107 136 171 222 277 326
#
# _framework density 21.961185
#
# number of rings (size 3 to 8) (size 9 to 14) (size 15 to 20)
#    0.000    2.667    1.667    2.750    0.000    1.000 
#    0.000    4.167    0.000    6.000    0.000    1.167 
#    0.000    5.333    0.000    0.000    0.000    0.000 
#
# Total GULP energy -267863.161845 kJ/mol
# GULP energy per Si atom -5580.482538 kJ/mol
# Density = 2.191120 g / cm^3
# Si number density = 21.961185 Si / 1000 Ang^3
#
#
#
# Elastic Constant Matrix: (Units=GPa)
#
#
# Indices 1 2 3 4 5 6 
#
# 1 49.9603 7.0202 -4.9498 0.0000 0.0000 0.0000
# 2 7.0202 155.7333 112.5207 0.0000 0.0000 0.0000
# 3 -4.9498 112.5207 198.1282 0.0000 0.0000 0.0000
# 4 0.0000 0.0000 0.0000 -16.1361 0.0000 0.0000
# 5 0.0000 0.0000 0.0000 0.0000 -20.2930 0.0000
# 6 0.0000 0.0000 0.0000 0.0000 0.0000 -12.8210
#
#
#
# Elastic Compliance Matrix: (Units=1/GPa)
#
#
# Indices 1 2 3 4 5 6 
#
# 1 0.020498 -0.002195 0.001758 0.000000 0.000000 0.000000
# 2 -0.002195 0.011125 -0.006373 0.000000 0.000000 0.000000
# 3 0.001758 -0.006373 0.008710 0.000000 0.000000 0.000000
# 4 0.000000 0.000000 0.000000 -0.061973 0.000000 0.000000
# 5 0.000000 0.000000 0.000000 0.000000 -0.049278 0.000000
# 6 0.000000 0.000000 0.000000 0.000000 0.000000 -0.077997
#
#
# Mechanical properties :
#
#
# Convention : Reuss Voigt Hill
#
# Bulk Modulus (GPa) = 37.43105 70.33379 53.88242
# Shear Modulus (GPa) = -39.55945 9.43204 -15.06370
#
# Velocity S-wave (km/s) = -4.24882 2.07465 -2.62186
# Velocity P-wave (km/s) = 2.64362 6.15100 3.92722
#
# Compressibility (1/GPa) = 0.02671579
#
# Stress axis : x y z
#
# Youngs Moduli (GPa) = 48.78412 89.89119 114.80624
#
# Poissons Ratio (x) = 0.19727 -0.20188
# Poissons Ratio (y) = 0.10706 0.73162
# Poissons Ratio (z) = -0.08578 0.57285
#
# Static dielectric constant tensor:
#      x y z
#    x 1.798270 0.000000 0.000000 
#    y 0.000000 1.798310 0.000000 
#    z 0.000000 0.000000 1.804630 
# 
# From -- ./inp_files/26529.got.cif
#   From: 2010.05.17/outbox.cif.g08.bks.cpg/sg47_14_cif.got.tgz:26529.got - 2010.06.03 20:15:42.
