data_PCOD9386469
_publ_section_title
;
Structure prediction by ZEFSAII (Michael W. Deem and Ramdas Pophale) SiO2 
 PCOD9386469
Probable space group: P M M M
;
_chemical_formula_sum "Si O2"
_cell_formula_units_Z 44
_cell_length_a 32.352811
_cell_length_b 7.717497
_cell_length_c 9.373186
_cell_angle_alpha 90.000000
_cell_angle_beta 90.000000
_cell_angle_gamma 90.000000
_cell_volume 2340.322593
_symmetry_space_group_name_H-M "P M M M"
_symmetry_group_IT_number 47
_symmetry_cell_setting 'orthorhombic'
loop_
_space_group_symop_operation_xyz
x,y,z
-x,-y,z
x,-y,-z
-x,y,-z
-x,-y,-z
x,y,-z
-x,y,z
x,-y,z
loop_
_atom_site_type_symbol
_atom_site_label
_atom_site_fract_x
_atom_site_fract_y
_atom_site_fract_z
Si Si1 0.373567 0.796416 0.661796
Si Si2 0.234872 0.000000 0.171418
Si Si3 0.716769 0.696830 0.670142
Si Si4 0.148414 0.000000 0.669420
Si Si5 0.454759 0.709141 0.834722
Si Si6 0.082171 0.702786 0.330902
Si Si7 0.000000 0.289109 0.836870
O O1 0.381691 0.737046 0.500000
O O2 0.331655 0.705705 0.712359
O O3 0.414745 0.769925 0.751405
O O4 0.363768 0.000000 0.659693
O O5 0.257950 0.167104 0.237386
O O6 0.188567 0.000000 0.233020
O O7 0.236071 0.000000 0.000000
O O8 0.718689 0.741067 0.500000
O O9 0.731749 0.500000 0.686751
O O10 0.120230 0.169327 0.696654
O O11 0.159604 0.000000 0.500000
O O12 0.500000 0.766669 0.779335
O O13 0.454602 0.500000 0.831261
O O14 0.451975 0.762578 0.000000
O O15 0.072960 0.712169 0.500000
O O16 0.091030 0.500000 0.297316
O O17 0.041704 0.761288 0.244750
O O18 0.000000 0.500000 0.836410
O O19 0.000000 0.229832 0.000000
#
# Coordination Sequence:
#
# PCOD9386469 Si02
#       7
#     8   4   8   4   8   8   4
#     4  10  20  35  57  84 113 142 181 235 286 335
#     4  12  26  42  61  89 125 155 187 240 302 364
#     4  10  21  41  68  90 113 151 196 241 291 350
#     4  10  22  39  59  82 111 149 197 244 286 345
#     4   9  19  35  52  73 107 150 191 229 273 332
#     4   9  18  34  56  81 110 148 194 241 286 333
#     4   9  17  30  51  80 115 153 190 233 285 340
#
# _framework density 18.800827999999999
#
# number of rings (size 3 to 8) (size 9 to 14) (size 15 to 20)
#    0.000    2.273    0.909    2.182    0.000    6.182 
#    0.000    6.364    0.000    0.000    0.000    0.000 
#    0.000    0.000    0.000    0.000    0.000    0.000 
#
# Total GULP energy -245581.643524 kJ/mol
# GULP energy per Si atom -5581.400989 kJ/mol
# Density = 1.875804 g / cm^3
# Si number density = 18.800828 Si / 1000 Ang^3
#
#
#
# Elastic Constant Matrix: (Units=GPa)
#
#
# Indices 1 2 3 4 5 6 
#
# 1 146.5737 60.0867 89.5463 0.0000 0.0000 0.0000
# 2 60.0867 92.2026 52.1493 0.0000 0.0000 0.0000
# 3 89.5463 52.1493 86.8374 0.0000 0.0000 0.0000
# 4 0.0000 0.0000 0.0000 17.4057 0.0000 0.0000
# 5 0.0000 0.0000 0.0000 0.0000 124.2099 0.0000
# 6 0.0000 0.0000 0.0000 0.0000 0.0000 43.1037
#
#
#
# Elastic Compliance Matrix: (Units=1/GPa)
#
#
# Indices 1 2 3 4 5 6 
#
# 1 0.018664 -0.001934 -0.018084 0.000000 0.000000 0.000000
# 2 -0.001934 0.016625 -0.007989 0.000000 0.000000 0.000000
# 3 -0.018084 -0.007989 0.034962 0.000000 0.000000 0.000000
# 4 0.000000 0.000000 0.000000 0.057453 0.000000 0.000000
# 5 0.000000 0.000000 0.000000 0.000000 0.008051 0.000000
# 6 0.000000 0.000000 0.000000 0.000000 0.000000 0.023200
#
#
# Mechanical properties :
#
#
# Convention : Reuss Voigt Hill
#
# Bulk Modulus (GPa) = 70.24956 81.01983 75.63470
# Shear Modulus (GPa) = 22.75680 45.19928 33.97804
#
# Velocity S-wave (km/s) = 3.48288 4.90849 4.25580
# Velocity P-wave (km/s) = 7.32258 8.67823 8.02907
#
# Compressibility (1/GPa) = 0.01423496
#
# Stress axis : x y z
#
# Youngs Moduli (GPa) = 53.57994 60.15056 28.60255
#
# Poissons Ratio (x) = 0.11636 0.51725
# Poissons Ratio (y) = 0.10365 0.22851
# Poissons Ratio (z) = 0.96895 0.48055
#
# Static dielectric constant tensor:
#      x y z
#    x 1.630390 0.000000 0.000000 
#    y 0.000000 1.679840 0.000000 
#    z 0.000000 0.000000 1.632490 
# 
# From -- ./inp_files/13695.got.cif
#   From: 2010.05.17/outbox.cif.g08.bks.cpg/sg47_7_cif.got.tgz:13695.got - 2010.06.03 20:15:42.
