data_PCOD9386419
_publ_section_title
;
Structure prediction by ZEFSAII (Michael W. Deem and Ramdas Pophale) SiO2 
 PCOD9386419
Probable space group: P M M M
;
_chemical_formula_sum "Si O2"
_cell_formula_units_Z 48
_cell_length_a 7.886419
_cell_length_b 32.091399
_cell_length_c 9.313969
_cell_angle_alpha 90.000000
_cell_angle_beta 90.000000
_cell_angle_gamma 90.000000
_cell_volume 2357.237196
_symmetry_space_group_name_H-M "P M M M"
_symmetry_group_IT_number 47
_symmetry_cell_setting 'orthorhombic'
loop_
_space_group_symop_operation_xyz
x,y,z
-x,-y,z
x,-y,-z
-x,y,-z
-x,-y,-z
x,y,-z
-x,y,z
x,-y,z
loop_
_atom_site_type_symbol
_atom_site_label
_atom_site_fract_x
_atom_site_fract_y
_atom_site_fract_z
Si Si1 0.202015 0.327413 0.662396
Si Si2 0.797537 0.000000 0.663486
Si Si3 0.296120 0.082777 0.163547
Si Si4 0.303617 0.500000 0.825125
Si Si5 0.294787 0.409463 0.165056
Si Si6 0.702960 0.245730 0.162540
Si Si7 0.707892 0.835434 0.334482
O O1 0.270472 0.324859 0.500000
O O2 0.246586 0.371203 0.735533
O O3 0.264254 0.289058 0.758079
O O4 0.000000 0.324363 0.656038
O O5 0.743666 0.958862 0.748974
O O6 0.730098 0.000000 0.500000
O O7 0.000000 0.000000 0.656368
O O8 0.500000 0.086105 0.155768
O O9 0.235397 0.123688 0.248076
O O10 0.231333 0.080896 0.000000
O O11 0.500000 0.500000 0.776660
O O12 0.229736 0.544990 0.784574
O O13 0.305109 0.500000 0.000000
O O14 0.500000 0.412043 0.161393
O O15 0.238371 0.402308 0.000000
O O16 0.500000 0.240800 0.153250
O O17 0.765950 0.206519 0.254919
O O18 0.770667 0.245873 0.000000
O O19 0.762057 0.836515 0.500000
O O20 0.500000 0.835423 0.334699
#
# Coordination Sequence:
#
# PCOD9386419 Si02
#       7
#     8   4   8   4   8   8   8
#     4  11  24  38  50  70 104 143 179 215 257 306
#     4  11  24  39  54  76 108 145 184 225 268 314
#     4  10  20  35  57  84 111 140 177 220 264 312
#     4   7  12  26  50  79 106 128 158 207 260 307
#     4   9  17  32  56  82 104 130 168 213 260 310
#     4  10  20  35  57  83 107 133 170 216 263 311
#     4   9  17  31  54  83 112 140 170 209 259 312
#
# _framework density 20.362822999999999
#
# number of rings (size 3 to 8) (size 9 to 14) (size 15 to 20)
#    0.000    2.333    0.000    4.000    0.000    9.333 
#    0.000    1.667    0.000    9.000    0.000    0.000 
#    0.000    0.000    0.000    0.000    0.000    0.000 
#
# Total GULP energy -267999.803959 kJ/mol
# GULP energy per Si atom -5583.329249 kJ/mol
# Density = 2.031648 g / cm^3
# Si number density = 20.362823 Si / 1000 Ang^3
#
#
#
# Elastic Constant Matrix: (Units=GPa)
#
#
# Indices 1 2 3 4 5 6 
#
# 1 20.5521 -0.5373 8.5846 0.0000 0.0000 0.0000
# 2 -0.5373 214.5488 123.8964 0.0000 0.0000 0.0000
# 3 8.5846 123.8964 198.7037 0.0000 0.0000 0.0000
# 4 0.0000 0.0000 0.0000 103.7000 0.0000 0.0000
# 5 0.0000 0.0000 0.0000 0.0000 37.8993 0.0000
# 6 0.0000 0.0000 0.0000 0.0000 0.0000 -71.5437
#
#
#
# Elastic Compliance Matrix: (Units=1/GPa)
#
#
# Indices 1 2 3 4 5 6 
#
# 1 0.050179 0.002153 -0.003510 0.000000 0.000000 0.000000
# 2 0.002153 0.007376 -0.004692 0.000000 0.000000 0.000000
# 3 -0.003510 -0.004692 0.008110 0.000000 0.000000 0.000000
# 4 0.000000 0.000000 0.000000 0.009643 0.000000 0.000000
# 5 0.000000 0.000000 0.000000 0.000000 0.026386 0.000000
# 6 0.000000 0.000000 0.000000 0.000000 0.000000 -0.013977
#
#
# Mechanical properties :
#
#
# Convention : Reuss Voigt Hill
#
# Bulk Modulus (GPa) = 18.66859 77.52136 48.09498
# Shear Modulus (GPa) = 42.49150 34.13520 38.31335
#
# Velocity S-wave (km/s) = 4.57302 4.09877 4.34237
# Velocity P-wave (km/s) = 6.08861 7.78155 6.98655
#
# Compressibility (1/GPa) = 0.05356591
#
# Stress axis : x y z
#
# Youngs Moduli (GPa) = 19.92859 135.57749 123.30680
#
# Poissons Ratio (x) = -0.29185 0.43282
# Poissons Ratio (y) = -0.04290 0.57856
# Poissons Ratio (z) = 0.06995 0.63613
#
# Static dielectric constant tensor:
#      x y z
#    x 1.737010 0.000000 0.000000 
#    y 0.000000 1.700660 0.000000 
#    z 0.000000 0.000000 1.712190 
# 
# From -- ./inp_files/2647.got.cif
#   From: 2010.05.17/outbox.cif.g08.bks.cpg/sg47_2_cif.got.tgz:2647.got - 2010.06.03 20:15:42.
