data_PCOD9386630
_publ_section_title
;
Structure prediction by ZEFSAII (Michael W. Deem and Ramdas Pophale) SiO2 
 PCOD9386630
Probable space group: P M M M
;
_chemical_formula_sum "Si O2"
_cell_formula_units_Z 56
_cell_length_a 15.950791
_cell_length_b 20.870649
_cell_length_c 7.932335
_cell_angle_alpha 90.000000
_cell_angle_beta 90.000000
_cell_angle_gamma 90.000000
_cell_volume 2640.700976
_symmetry_space_group_name_H-M "P M M M"
_symmetry_group_IT_number 47
_symmetry_cell_setting 'orthorhombic'
loop_
_space_group_symop_operation_xyz
x,y,z
-x,-y,z
x,-y,-z
-x,y,-z
-x,-y,-z
x,y,-z
-x,y,z
x,-y,z
loop_
_atom_site_type_symbol
_atom_site_label
_atom_site_fract_x
_atom_site_fract_y
_atom_site_fract_z
Si Si1 0.409261 0.653156 0.796601
Si Si2 0.630442 0.930828 0.197350
Si Si3 0.643218 0.206970 0.206454
Si Si4 0.091846 0.660650 0.203040
Si Si5 0.161105 0.795157 0.797296
Si Si6 0.753017 0.572147 0.700290
Si Si7 0.823248 0.069158 0.699919
O O1 0.500000 0.628618 0.739293
O O2 0.397949 0.726783 0.738760
O O3 0.331050 0.610231 0.746283
O O4 0.409203 0.655132 0.000000
O O5 0.605554 0.861018 0.266401
O O6 0.732197 0.929268 0.210345
O O7 0.604236 0.000000 0.271290
O O8 0.607051 0.931906 0.000000
O O9 0.741300 0.210216 0.255947
O O10 0.640219 0.205179 0.000000
O O11 0.112952 0.732533 0.265031
O O12 0.166406 0.612787 0.245579
O O13 0.000000 0.640266 0.264052
O O14 0.089186 0.664168 0.000000
O O15 0.130070 0.865330 0.744123
O O16 0.160215 0.793711 0.000000
O O17 0.755783 0.567818 0.500000
O O18 0.753238 0.500000 0.771591
O O19 0.807091 0.069975 0.500000
O O20 0.862684 0.000000 0.742246
#
# Coordination Sequence:
#
# PCOD9386630 Si02
#       7
#     8   8   8   8   8   8   8
#     4  10  20  36  60  87 115 150 194 242 287 332
#     4   8  13  22  38  61  93 136 182 226 275 328
#     4   8  13  25  46  72 102 137 179 228 278 325
#     4  10  21  39  64  91 117 147 187 234 281 333
#     4   9  16  29  50  74 104 141 180 226 280 334
#     4  11  25  43  62  86 119 154 184 224 280 341
#     4   9  16  24  37  64 101 138 182 233 277 322
#
# _framework density 21.206491
#
# number of rings (size 3 to 8) (size 9 to 14) (size 15 to 20)
#    0.000    2.714    1.429    1.714    0.000    3.714 
#    0.000    2.857    0.000    0.857    0.000    6.000 
#    0.000    0.000    0.000   19.286    0.000   18.286 
#
# Total GULP energy -312233.287662 kJ/mol
# GULP energy per Si atom -5575.594423 kJ/mol
# Density = 2.115822 g / cm^3
# Si number density = 21.206491 Si / 1000 Ang^3
#
#
#
# Elastic Constant Matrix: (Units=GPa)
#
#
# Indices 1 2 3 4 5 6 
#
# 1 122.8314 92.1853 13.8532 0.0000 0.0000 0.0000
# 2 92.1853 206.7161 12.8633 0.0000 0.0000 0.0000
# 3 13.8532 12.8633 24.6533 0.0000 0.0000 0.0000
# 4 0.0000 0.0000 0.0000 36.5831 0.0000 0.0000
# 5 0.0000 0.0000 0.0000 0.0000 -15.3108 0.0000
# 6 0.0000 0.0000 0.0000 0.0000 0.0000 -15.1205
#
#
#
# Elastic Compliance Matrix: (Units=1/GPa)
#
#
# Indices 1 2 3 4 5 6 
#
# 1 0.012665 -0.005380 -0.004310 0.000000 0.000000 0.000000
# 2 -0.005380 0.007285 -0.000778 0.000000 0.000000 0.000000
# 3 -0.004310 -0.000778 0.043390 0.000000 0.000000 0.000000
# 4 0.000000 0.000000 0.000000 0.027335 0.000000 0.000000
# 5 0.000000 0.000000 0.000000 0.000000 -0.065313 0.000000
# 6 0.000000 0.000000 0.000000 0.000000 0.000000 -0.066135
#
#
# Mechanical properties :
#
#
# Convention : Reuss Voigt Hill
#
# Bulk Modulus (GPa) = 23.58206 65.77828 44.68017
# Shear Modulus (GPa) = -876.65247 16.91694 -429.86776
#
# Velocity S-wave (km/s) = -20.35402 2.82747 -14.25292
# Velocity P-wave (km/s) = 23.26451 6.46102 15.80336
#
# Compressibility (1/GPa) = 0.04240511
#
# Stress axis : x y z
#
# Youngs Moduli (GPa) = 78.95919 137.26727 23.04663
#
# Poissons Ratio (x) = 0.73846 0.09932
# Poissons Ratio (y) = 0.42478 0.01793
# Poissons Ratio (z) = 0.34029 0.10682
#
# Static dielectric constant tensor:
#      x y z
#    x 1.830930 0.000000 0.000000 
#    y 0.000000 1.813690 0.000000 
#    z 0.000000 0.000000 1.770730 
# 
# From -- ./inp_files/7258.got.cif
#   From: 2010.05.17/outbox.cif.g08.bks.cpg/sg47_4_cif.got.tgz:7258.got - 2010.06.03 20:15:42.
