data_PCOD9386346
_publ_section_title
;
Structure prediction by ZEFSAII (Michael W. Deem and Ramdas Pophale) SiO2 
 PCOD9386346
Probable space group: P M M M
;
_chemical_formula_sum "Si O2"
_cell_formula_units_Z 52
_cell_length_a 8.154679
_cell_length_b 12.189356
_cell_length_c 30.557539
_cell_angle_alpha 90.000000
_cell_angle_beta 90.000000
_cell_angle_gamma 90.000000
_cell_volume 3037.428098
_symmetry_space_group_name_H-M "P M M M"
_symmetry_group_IT_number 47
_symmetry_cell_setting 'orthorhombic'
loop_
_space_group_symop_operation_xyz
x,y,z
-x,-y,z
x,-y,-z
-x,y,-z
-x,-y,-z
x,y,-z
-x,y,z
x,-y,z
loop_
_atom_site_type_symbol
_atom_site_label
_atom_site_fract_x
_atom_site_fract_y
_atom_site_fract_z
Si Si1 0.694807 0.734513 0.950827
Si Si2 0.316756 0.866809 0.394273
Si Si3 0.198174 0.127918 0.702282
Si Si4 0.308099 0.500000 0.182115
Si Si5 0.000000 0.133864 0.449300
Si Si6 0.191725 0.500000 0.916780
Si Si7 0.196542 0.124156 0.869322
Si Si8 0.801152 0.267502 0.213237
O O1 0.500000 0.749828 0.951131
O O2 0.731577 0.610051 0.936428
O O3 0.766702 0.815453 0.914617
O O4 0.758437 0.753349 0.000000
O O5 0.500000 0.829670 0.406820
O O6 0.278706 0.840018 0.343722
O O7 0.165326 0.829592 0.424381
O O8 0.316586 0.000000 0.396539
O O9 0.246899 0.204827 0.742511
O O10 0.000000 0.133324 0.697168
O O11 0.238095 0.000000 0.711597
O O12 0.500000 0.500000 0.171755
O O13 0.214959 0.500000 0.135619
O O14 0.263016 0.609632 0.208246
O O15 0.000000 0.166361 0.500000
O O16 0.000000 0.000000 0.447907
O O17 0.000000 0.500000 0.926985
O O18 0.257034 0.197632 0.828822
O O19 0.000000 0.118499 0.864501
O O20 0.261164 0.000000 0.868194
O O21 0.000000 0.271009 0.212226
#
# Coordination Sequence:
#
# PCOD9386346 Si02
#       8
#     8   8   8   4   4   4   8   8
#     4  11  24  40  58  81 107 134 164 202 253 308
#     4   9  16  26  41  63  94 132 176 223 267 313
#     4   9  16  29  50  74 102 135 172 215 262 310
#     4  12  24  37  55  78 108 137 164 205 257 310
#     4   9  16  26  40  60  92 135 183 229 270 312
#     4  12  23  39  62  83 102 128 166 210 253 305
#     4  10  21  37  57  81 107 135 171 210 247 296
#     4  10  20  35  56  79 103 135 172 210 255 308
#
# _framework density 17.119748000000001
#
# number of rings (size 3 to 8) (size 9 to 14) (size 15 to 20)
#    0.000    1.923    2.308    2.538    0.000    5.538 
#    0.000    3.077    0.000    2.769    0.000    0.000 
#    0.000    0.000    0.000    1.385    0.000    3.846 
#
# Total GULP energy -290237.451611 kJ/mol
# GULP energy per Si atom -5581.489454 kJ/mol
# Density = 1.708078 g / cm^3
# Si number density = 17.119748 Si / 1000 Ang^3
#
#
#
# Elastic Constant Matrix: (Units=GPa)
#
#
# Indices 1 2 3 4 5 6 
#
# 1 55.4847 20.0561 42.7643 0.0000 0.0000 0.0000
# 2 20.0561 99.3573 51.6237 0.0000 0.0000 0.0000
# 3 42.7643 51.6237 128.2648 0.0000 0.0000 0.0000
# 4 0.0000 0.0000 0.0000 -127.2243 0.0000 0.0000
# 5 0.0000 0.0000 0.0000 0.0000 -11.2042 0.0000
# 6 0.0000 0.0000 0.0000 0.0000 0.0000 -4.9819
#
#
#
# Elastic Compliance Matrix: (Units=1/GPa)
#
#
# Indices 1 2 3 4 5 6 
#
# 1 0.024317 -0.000880 -0.007753 0.000000 0.000000 0.000000
# 2 -0.000880 0.012758 -0.004841 0.000000 0.000000 0.000000
# 3 -0.007753 -0.004841 0.012330 0.000000 0.000000 0.000000
# 4 0.000000 0.000000 0.000000 -0.007860 0.000000 0.000000
# 5 0.000000 0.000000 0.000000 0.000000 -0.089252 0.000000
# 6 0.000000 0.000000 0.000000 0.000000 0.000000 -0.200727
#
#
# Mechanical properties :
#
#
# Convention : Reuss Voigt Hill
#
# Bulk Modulus (GPa) = 44.53312 56.88835 50.71074
# Shear Modulus (GPa) = -23.36434 -17.43790 -20.40112
#
# Velocity S-wave (km/s) = -3.69827 -3.19499 -3.45580
# Velocity P-wave (km/s) = 2.79873 4.43748 3.70972
#
# Compressibility (1/GPa) = 0.02245520
#
# Stress axis : x y z
#
# Youngs Moduli (GPa) = 41.12392 78.38366 81.10443
#
# Poissons Ratio (x) = 0.06900 0.62881
# Poissons Ratio (y) = 0.03620 0.39265
# Poissons Ratio (z) = 0.31884 0.37947
#
# Static dielectric constant tensor:
#      x y z
#    x 1.602590 0.000000 0.000000 
#    y 0.000000 1.541900 0.000000 
#    z 0.000000 0.000000 1.570050 
# 
# From -- ./inp_files/34349.got.cif
#   From: 2010.05.17/outbox.cif.g08.bks.cpg/sg47_18_cif.got.tgz:34349.got - 2010.06.03 20:15:42.
