data_PCOD9386823
_publ_section_title
;
Structure prediction by ZEFSAII (Michael W. Deem and Ramdas Pophale) SiO2 
 PCOD9386823
Probable space group: P M M M
;
_chemical_formula_sum "Si O2"
_cell_formula_units_Z 64
_cell_length_a 24.580522
_cell_length_b 9.501191
_cell_length_c 14.474029
_cell_angle_alpha 90.000000
_cell_angle_beta 90.000000
_cell_angle_gamma 90.000000
_cell_volume 3380.326022
_symmetry_space_group_name_H-M "P M M M"
_symmetry_group_IT_number 47
_symmetry_cell_setting 'orthorhombic'
loop_
_space_group_symop_operation_xyz
x,y,z
-x,-y,z
x,-y,-z
-x,y,-z
-x,-y,-z
x,y,-z
-x,y,z
x,-y,z
loop_
_atom_site_type_symbol
_atom_site_label
_atom_site_fract_x
_atom_site_fract_y
_atom_site_fract_z
Si Si1 0.059594 0.162238 0.140999
Si Si2 0.639624 0.164543 0.743604
Si Si3 0.059970 0.841014 0.637673
Si Si4 0.258473 0.841569 0.392434
Si Si5 0.290018 0.332444 0.888389
Si Si6 0.818454 0.160810 0.109527
Si Si7 0.565455 0.665366 0.605882
Si Si8 0.162408 0.347247 0.608356
O O1 0.057564 0.157267 0.251517
O O2 0.120002 0.220955 0.121302
O O3 0.000000 0.221581 0.110844
O O4 0.061255 0.000000 0.107106
O O5 0.688729 0.165252 0.669661
O O6 0.662784 0.251512 0.831285
O O7 0.591840 0.242143 0.686856
O O8 0.627743 0.000000 0.765865
O O9 0.106639 0.735448 0.612311
O O10 0.000000 0.801465 0.604339
O O11 0.072134 0.000000 0.607143
O O12 0.271493 0.809759 0.500000
O O13 0.212176 0.740961 0.353330
O O14 0.236201 0.000000 0.390744
O O15 0.289348 0.500000 0.867475
O O16 0.232320 0.258062 0.862274
O O17 0.297122 0.317840 0.000000
O O18 0.815948 0.000000 0.150020
O O19 0.811882 0.146134 0.000000
O O20 0.581473 0.707322 0.500000
O O21 0.500000 0.674364 0.610046
O O22 0.580523 0.500000 0.616958
O O23 0.174959 0.360756 0.500000
O O24 0.157656 0.500000 0.651725
#
# Coordination Sequence:
#
# PCOD9386823 Si02
#       8
#     8   8   8   8   8   8   8   8
#     4   8  15  28  46  69  95 122 157 205 261 325
#     4  11  22  35  58  89 117 151 194 240 287 331
#     4   9  18  32  48  64  85 118 160 204 251 311
#     4   9  19  35  52  74 107 142 175 213 263 328
#     4  10  22  39  56  77 110 151 194 240 291 348
#     4   9  17  30  50  75 101 129 166 217 276 335
#     4   9  19  37  61  91 130 172 206 234 268 319
#     4  10  21  34  47  66  92 121 157 208 264 312
#
# _framework density 18.933085999999999
#
# number of rings (size 3 to 8) (size 9 to 14) (size 15 to 20)
#    0.000    2.625    0.000    2.625    1.750    4.250 
#    0.000    4.375    0.000    1.500    0.000    4.375 
#    0.000    0.000    0.000    0.000    0.000    0.000 
#
# Total GULP energy -356547.887560 kJ/mol
# GULP energy per Si atom -5571.060743 kJ/mol
# Density = 1.888999 g / cm^3
# Si number density = 18.933086 Si / 1000 Ang^3
#
#
#
# Elastic Constant Matrix: (Units=GPa)
#
#
# Indices 1 2 3 4 5 6 
#
# 1 76.3230 51.5894 24.9103 0.0000 0.0000 0.0000
# 2 51.5894 81.6859 34.6398 0.0000 0.0000 0.0000
# 3 24.9103 34.6398 84.7028 0.0000 0.0000 0.0000
# 4 0.0000 0.0000 0.0000 15.8108 0.0000 0.0000
# 5 0.0000 0.0000 0.0000 0.0000 26.3606 0.0000
# 6 0.0000 0.0000 0.0000 0.0000 0.0000 39.3303
#
#
#
# Elastic Compliance Matrix: (Units=1/GPa)
#
#
# Indices 1 2 3 4 5 6 
#
# 1 0.022931 -0.014061 -0.000993 0.000000 0.000000 0.000000
# 2 -0.014061 0.023432 -0.005448 0.000000 0.000000 0.000000
# 3 -0.000993 -0.005448 0.014326 0.000000 0.000000 0.000000
# 4 0.000000 0.000000 0.000000 0.063248 0.000000 0.000000
# 5 0.000000 0.000000 0.000000 0.000000 0.037935 0.000000
# 6 0.000000 0.000000 0.000000 0.000000 0.000000 0.025426
#
#
# Mechanical properties :
#
#
# Convention : Reuss Voigt Hill
#
# Bulk Modulus (GPa) = 50.79950 51.66563 51.23257
# Shear Modulus (GPa) = 21.28897 25.07182 23.18039
#
# Velocity S-wave (km/s) = 3.35689 3.64295 3.50284
# Velocity P-wave (km/s) = 6.47412 6.71137 6.59382
#
# Compressibility (1/GPa) = 0.01968523
#
# Stress axis : x y z
#
# Youngs Moduli (GPa) = 43.60984 42.67605 69.80309
#
# Poissons Ratio (x) = 0.60006 0.06935
# Poissons Ratio (y) = 0.61319 0.38027
# Poissons Ratio (z) = 0.04332 0.23249
#
# Static dielectric constant tensor:
#      x y z
#    x 1.657900 0.000000 0.000000 
#    y 0.000000 1.685430 0.000000 
#    z 0.000000 0.000000 1.732070 
# 
# From -- ./inp_files/25520.got.cif
#   From: 2010.05.17/outbox.cif.g08.bks.cpg/sg47_13_cif.got.tgz:25520.got - 2010.06.03 20:15:42.
