data_PCOD9386076
_publ_section_title
;
Structure prediction by ZEFSAII (Michael W. Deem and Ramdas Pophale) SiO2 
 PCOD9386076
Probable space group: P M M M
;
_chemical_formula_sum "Si O2"
_cell_formula_units_Z 56
_cell_length_a 17.288626
_cell_length_b 20.902923
_cell_length_c 8.742132
_cell_angle_alpha 90.000000
_cell_angle_beta 90.000000
_cell_angle_gamma 90.000000
_cell_volume 3159.256298
_symmetry_space_group_name_H-M "P M M M"
_symmetry_group_IT_number 47
_symmetry_cell_setting 'orthorhombic'
loop_
_space_group_symop_operation_xyz
x,y,z
-x,-y,z
x,-y,-z
-x,y,-z
-x,-y,-z
x,y,-z
-x,y,z
x,-y,z
loop_
_atom_site_type_symbol
_atom_site_label
_atom_site_fract_x
_atom_site_fract_y
_atom_site_fract_z
Si Si1 0.254425 0.428378 0.682108
Si Si2 0.736872 0.185311 0.183132
Si Si3 0.000000 0.731591 0.682022
Si Si4 0.000000 0.874725 0.816985
Si Si5 0.159629 0.926135 0.317063
Si Si6 0.840090 0.310511 0.817320
Si Si7 0.412447 0.613912 0.182697
Si Si8 0.411936 0.755797 0.681086
O O1 0.249852 0.419058 0.500000
O O2 0.226536 0.500000 0.719212
O O3 0.206135 0.373026 0.764335
O O4 0.343436 0.422332 0.734456
O O5 0.778754 0.122984 0.248065
O O6 0.789486 0.247478 0.221643
O O7 0.653224 0.197444 0.255788
O O8 0.731362 0.181871 0.000000
O O9 0.922661 0.695924 0.736369
O O10 0.000000 0.739147 0.500000
O O11 0.000000 0.801509 0.759871
O O12 0.076485 0.908564 0.753336
O O13 0.000000 0.875673 0.000000
O O14 0.155846 0.918004 0.500000
O O15 0.178202 0.000000 0.283488
O O16 0.850461 0.311183 0.000000
O O17 0.500000 0.593459 0.223588
O O18 0.404759 0.688215 0.231350
O O19 0.403710 0.608237 0.000000
O O20 0.400548 0.744481 0.500000
O O21 0.500000 0.778839 0.703632
#
# Coordination Sequence:
#
# PCOD9386076 Si02
#       8
#     8   8   4   4   8   8   8   8
#     4  11  24  40  59  84 115 153 196 242 293 349
#     4  11  22  36  60  89 118 155 196 240 288 342
#     4  12  24  39  64  91 118 152 190 242 292 337
#     4  12  23  37  58  88 123 159 196 235 285 344
#     4  11  24  40  59  86 121 160 199 238 285 344
#     4  11  23  40  62  89 117 150 193 241 290 345
#     4  10  20  34  54  82 116 153 193 237 289 349
#     4  10  20  34  56  86 118 152 192 241 293 342
#
# _framework density 17.72569
#
# number of rings (size 3 to 8) (size 9 to 14) (size 15 to 20)
#    0.000    1.143    2.857    4.071    0.000    6.286 
#    0.000    1.786    0.000    2.571    0.000    3.000 
#    0.000    0.000    0.000    0.000    0.000    0.000 
#
# Total GULP energy -313097.769206 kJ/mol
# GULP energy per Si atom -5591.031593 kJ/mol
# Density = 1.768535 g / cm^3
# Si number density = 17.725690 Si / 1000 Ang^3
#
#
#
# Elastic Constant Matrix: (Units=GPa)
#
#
# Indices 1 2 3 4 5 6 
#
# 1 94.0628 41.8614 30.4978 0.0000 0.0000 0.0000
# 2 41.8614 94.5156 30.9302 0.0000 0.0000 0.0000
# 3 30.4978 30.9302 54.7479 0.0000 0.0000 0.0000
# 4 0.0000 0.0000 0.0000 191.1602 0.0000 0.0000
# 5 0.0000 0.0000 0.0000 0.0000 34.0315 0.0000
# 6 0.0000 0.0000 0.0000 0.0000 0.0000 29.3008
#
#
#
# Elastic Compliance Matrix: (Units=1/GPa)
#
#
# Indices 1 2 3 4 5 6 
#
# 1 0.014451 -0.004620 -0.005440 0.000000 0.000000 0.000000
# 2 -0.004620 0.014457 -0.005594 0.000000 0.000000 0.000000
# 3 -0.005440 -0.005594 0.024456 0.000000 0.000000 0.000000
# 4 0.000000 0.000000 0.000000 0.005231 0.000000 0.000000
# 5 0.000000 0.000000 0.000000 0.000000 0.029385 0.000000
# 6 0.000000 0.000000 0.000000 0.000000 0.000000 0.034129
#
#
# Mechanical properties :
#
#
# Convention : Reuss Voigt Hill
#
# Bulk Modulus (GPa) = 45.33833 49.98944 47.66389
# Shear Modulus (GPa) = 31.10044 60.23428 45.66736
#
# Velocity S-wave (km/s) = 4.19327 5.83568 5.08127
# Velocity P-wave (km/s) = 7.00556 8.58311 7.83415
#
# Compressibility (1/GPa) = 0.02205639
#
# Stress axis : x y z
#
# Youngs Moduli (GPa) = 69.19868 69.16957 40.88942
#
# Poissons Ratio (x) = 0.31958 0.22243
# Poissons Ratio (y) = 0.31972 0.22873
# Poissons Ratio (z) = 0.37643 0.38693
#
# Static dielectric constant tensor:
#      x y z
#    x 1.594500 0.000000 0.000000 
#    y 0.000000 1.586420 0.000000 
#    z 0.000000 0.000000 1.589460 
# 
# From -- ./inp_files/7390.got.cif
#   From: 2010.05.17/outbox.cif.g08.bks.cpg/sg47_4_cif.got.tgz:7390.got - 2010.06.03 20:15:42.
