data_PCOD9386284
_publ_section_title
;
Structure prediction by ZEFSAII (Michael W. Deem and Ramdas Pophale) SiO2 
 PCOD9386284
Probable space group: P M M M
;
_chemical_formula_sum "Si O2"
_cell_formula_units_Z 56
_cell_length_a 7.985411
_cell_length_b 14.998927
_cell_length_c 23.337507
_cell_angle_alpha 90.000000
_cell_angle_beta 90.000000
_cell_angle_gamma 90.000000
_cell_volume 2795.193813
_symmetry_space_group_name_H-M "P M M M"
_symmetry_group_IT_number 47
_symmetry_cell_setting 'orthorhombic'
loop_
_space_group_symop_operation_xyz
x,y,z
-x,-y,z
x,-y,-z
-x,y,-z
-x,-y,-z
x,y,-z
-x,y,z
x,-y,z
loop_
_atom_site_type_symbol
_atom_site_label
_atom_site_fract_x
_atom_site_fract_y
_atom_site_fract_z
Si Si1 0.201768 0.601383 0.177775
Si Si2 0.303770 0.903225 0.083114
Si Si3 0.702703 0.294409 0.062243
Si Si4 0.798002 0.270994 0.720686
Si Si5 0.705008 0.601454 0.500000
Si Si6 0.201144 0.903118 0.213253
Si Si7 0.801260 0.897368 0.500000
Si Si8 0.300813 0.747050 0.410785
O O1 0.264954 0.500000 0.174994
O O2 0.242593 0.654305 0.119319
O O3 0.262015 0.652528 0.235169
O O4 0.000000 0.598653 0.181296
O O5 0.500000 0.904512 0.067453
O O6 0.234388 0.808259 0.063396
O O7 0.286574 0.899907 0.151650
O O8 0.231474 0.000000 0.065538
O O9 0.500000 0.291730 0.064010
O O10 0.751699 0.333723 0.000000
O O11 0.742368 0.177960 0.748473
O O12 0.746529 0.267875 0.654883
O O13 0.000000 0.273989 0.721768
O O14 0.764109 0.500000 0.500000
O O15 0.500000 0.598721 0.500000
O O16 0.760248 0.660787 0.553850
O O17 0.000000 0.895488 0.203828
O O18 0.233261 0.000000 0.239634
O O19 0.755614 0.836720 0.555656
O O20 0.000000 0.904747 0.500000
O O21 0.733421 0.000000 0.500000
O O22 0.500000 0.748467 0.414947
#
# Coordination Sequence:
#
# PCOD9386284 Si02
#       8
#     8   8   8   8   4   8   4   8
#     4  10  22  40  59  79 106 143 188 237 287 339
#     4   9  17  30  50  76 105 136 170 211 262 322
#     4  10  21  36  55  80 109 141 180 229 285 345
#     4  10  20  35  54  78 111 146 181 224 275 333
#     4   8  16  34  56  77 106 141 175 214 264 320
#     4   9  17  30  50  74 100 134 174 214 259 312
#     4  10  21  39  62  85 116 161 203 236 276 324
#     4  10  21  35  56  87 117 147 186 233 278 323
#
# _framework density 20.034388
#
# number of rings (size 3 to 8) (size 9 to 14) (size 15 to 20)
#    0.000    2.429    1.429    1.071    0.000    4.000 
#    0.000    4.286    0.000    7.286    0.000    3.000 
#    0.000    0.000    0.000    0.000    0.000    0.000 
#
# Total GULP energy -312164.308839 kJ/mol
# GULP energy per Si atom -5574.362658 kJ/mol
# Density = 1.998879 g / cm^3
# Si number density = 20.034388 Si / 1000 Ang^3
#
#
#
# Elastic Constant Matrix: (Units=GPa)
#
#
# Indices 1 2 3 4 5 6 
#
# 1 18.1002 19.8700 12.3830 0.0000 0.0000 0.0000
# 2 19.8700 188.0702 107.4417 0.0000 0.0000 0.0000
# 3 12.3830 107.4417 187.7605 0.0000 0.0000 0.0000
# 4 0.0000 0.0000 0.0000 -10.9610 0.0000 0.0000
# 5 0.0000 0.0000 0.0000 0.0000 4.0294 0.0000
# 6 0.0000 0.0000 0.0000 0.0000 0.0000 15.5465
#
#
#
# Elastic Compliance Matrix: (Units=1/GPa)
#
#
# Indices 1 2 3 4 5 6 
#
# 1 0.062530 -0.006315 -0.000510 0.000000 0.000000 0.000000
# 2 -0.006315 0.008537 -0.004469 0.000000 0.000000 0.000000
# 3 -0.000510 -0.004469 0.007917 0.000000 0.000000 0.000000
# 4 0.000000 0.000000 0.000000 -0.091233 0.000000 0.000000
# 5 0.000000 0.000000 0.000000 0.000000 0.248173 0.000000
# 6 0.000000 0.000000 0.000000 0.000000 0.000000 0.064323
#
#
# Mechanical properties :
#
#
# Convention : Reuss Voigt Hill
#
# Bulk Modulus (GPa) = 17.73188 74.81337 46.27262
# Shear Modulus (GPa) = 14.63555 18.67206 16.65381
#
# Velocity S-wave (km/s) = 2.70575 3.05618 2.88629
# Velocity P-wave (km/s) = 4.31641 7.06238 5.85272
#
# Compressibility (1/GPa) = 0.05639561
#
# Stress axis : x y z
#
# Youngs Moduli (GPa) = 15.99244 117.13309 126.31420
#
# Poissons Ratio (x) = 0.73967 0.06447
# Poissons Ratio (y) = 0.10099 0.56447
# Poissons Ratio (z) = 0.00816 0.52344
#
# Static dielectric constant tensor:
#      x y z
#    x 1.730750 0.000000 0.000000 
#    y 0.000000 1.735320 0.000000 
#    z 0.000000 0.000000 1.714910 
# 
# From -- ./inp_files/29782.got.cif
#   From: 2010.05.17/outbox.cif.g08.bks.cpg/sg47_15_cif.got.tgz:29782.got - 2010.06.03 20:15:42.
