data_PCOD9386018
_publ_section_title
;
Structure prediction by ZEFSAII (Michael W. Deem and Ramdas Pophale) SiO2 
 PCOD9386018
Probable space group: P M M M
;
_chemical_formula_sum "Si O2"
_cell_formula_units_Z 56
_cell_length_a 20.884787
_cell_length_b 15.974605
_cell_length_c 7.453280
_cell_angle_alpha 90.000000
_cell_angle_beta 90.000000
_cell_angle_gamma 90.000000
_cell_volume 2486.609654
_symmetry_space_group_name_H-M "P M M M"
_symmetry_group_IT_number 47
_symmetry_cell_setting 'orthorhombic'
loop_
_space_group_symop_operation_xyz
x,y,z
-x,-y,z
x,-y,-z
-x,y,-z
-x,-y,-z
x,y,-z
-x,y,z
x,-y,z
loop_
_atom_site_type_symbol
_atom_site_label
_atom_site_fract_x
_atom_site_fract_y
_atom_site_fract_z
Si Si1 0.207430 0.841400 0.780698
Si Si2 0.931225 0.843127 0.785158
Si Si3 0.427711 0.252505 0.285961
Si Si4 0.651620 0.409959 0.711930
Si Si5 0.792675 0.353899 0.783480
Si Si6 0.342860 0.908708 0.784373
Si Si7 0.931039 0.640516 0.785173
O O1 0.137813 0.873908 0.719285
O O2 0.213168 0.743652 0.729010
O O3 0.270905 0.888359 0.719855
O O4 0.206454 0.843528 0.000000
O O5 0.930185 0.741836 0.761816
O O6 0.000000 0.873574 0.714195
O O7 0.932118 0.857603 0.000000
O O8 0.431924 0.263284 0.500000
O O9 0.500000 0.251160 0.214714
O O10 0.385382 0.329547 0.213307
O O11 0.390473 0.166167 0.258355
O O12 0.638108 0.411975 0.500000
O O13 0.632429 0.500000 0.788302
O O14 0.727854 0.398898 0.730186
O O15 0.861492 0.388373 0.718496
O O16 0.795269 0.355067 0.000000
O O17 0.363811 0.000000 0.719994
O O18 0.339091 0.911367 0.000000
O O19 0.000000 0.610248 0.714545
O O20 0.932010 0.625093 0.000000
#
# Coordination Sequence:
#
# PCOD9386018 Si02
#       7
#     8   8   8   8   8   8   8
#     4   8  13  23  41  66  97 132 168 205 244 287
#     4   7   9  14  28  54  88 125 163 201 242 285
#     4  10  22  40  60  80 102 130 165 206 251 301
#     4  10  21  36  54  77 104 132 163 204 256 310
#     4   9  15  26  48  73  98 132 172 212 252 296
#     4  10  20  34  54  80 110 142 172 204 247 299
#     4   7  10  17  33  62  95 124 161 209 253 290
#
# _framework density 22.520624999999999
#
# number of rings (size 3 to 8) (size 9 to 14) (size 15 to 20)
#    0.000    3.286    1.429    2.571    0.000    1.429 
#    0.000    2.857    0.000    1.286    0.000    8.000 
#    0.000    0.571    0.000    1.286    0.000    1.429 
#
# Total GULP energy -312244.179679 kJ/mol
# GULP energy per Si atom -5575.788923 kJ/mol
# Density = 2.246937 g / cm^3
# Si number density = 22.520625 Si / 1000 Ang^3
#
#
#
# Elastic Constant Matrix: (Units=GPa)
#
#
# Indices 1 2 3 4 5 6 
#
# 1 210.2847 96.4574 5.2534 0.0000 0.0000 0.0000
# 2 96.4574 120.9277 7.3413 0.0000 0.0000 0.0000
# 3 5.2534 7.3413 65.4018 0.0000 0.0000 0.0000
# 4 0.0000 0.0000 0.0000 7.1689 0.0000 0.0000
# 5 0.0000 0.0000 0.0000 0.0000 17.3174 0.0000
# 6 0.0000 0.0000 0.0000 0.0000 0.0000 -13.7924
#
#
#
# Elastic Compliance Matrix: (Units=1/GPa)
#
#
# Indices 1 2 3 4 5 6 
#
# 1 0.007500 -0.005986 0.000070 0.000000 0.000000 0.000000
# 2 -0.005986 0.013104 -0.000990 0.000000 0.000000 0.000000
# 3 0.000070 -0.000990 0.015396 0.000000 0.000000 0.000000
# 4 0.000000 0.000000 0.000000 0.139491 0.000000 0.000000
# 5 0.000000 0.000000 0.000000 0.000000 0.057745 0.000000
# 6 0.000000 0.000000 0.000000 0.000000 0.000000 -0.072504
#
#
# Mechanical properties :
#
#
# Convention : Reuss Voigt Hill
#
# Bulk Modulus (GPa) = 45.07342 68.30206 56.68774
# Shear Modulus (GPa) = 27.48140 21.30960 24.39550
#
# Velocity S-wave (km/s) = 3.49704 3.07942 3.29485
# Velocity P-wave (km/s) = 6.03021 6.56035 6.30086
#
# Compressibility (1/GPa) = 0.02218602
#
# Stress axis : x y z
#
# Youngs Moduli (GPa) = 133.34040 76.31024 64.95344
#
# Poissons Ratio (x) = 0.45681 -0.00452
# Poissons Ratio (y) = 0.79821 0.06431
# Poissons Ratio (z) = -0.00927 0.07556
#
# Static dielectric constant tensor:
#      x y z
#    x 1.851010 0.000000 0.000000 
#    y 0.000000 1.840160 0.000000 
#    z 0.000000 0.000000 1.893010 
# 
# From -- ./inp_files/11203.got.cif
#   From: 2010.05.17/outbox.cif.g08.bks.cpg/sg47_6_cif.got.tgz:11203.got - 2010.06.03 20:15:42.
