data_PCOD9386080
_publ_section_title
;
Structure prediction by ZEFSAII (Michael W. Deem and Ramdas Pophale) SiO2 
 PCOD9386080
Probable space group: P M M M
;
_chemical_formula_sum "Si O2"
_cell_formula_units_Z 48
_cell_length_a 15.648369
_cell_length_b 18.679761
_cell_length_c 9.189022
_cell_angle_alpha 90.000000
_cell_angle_beta 90.000000
_cell_angle_gamma 90.000000
_cell_volume 2686.022740
_symmetry_space_group_name_H-M "P M M M"
_symmetry_group_IT_number 47
_symmetry_cell_setting 'orthorhombic'
loop_
_space_group_symop_operation_xyz
x,y,z
-x,-y,z
x,-y,-z
-x,y,-z
-x,-y,-z
x,y,-z
-x,y,z
x,-y,z
loop_
_atom_site_type_symbol
_atom_site_label
_atom_site_fract_x
_atom_site_fract_y
_atom_site_fract_z
Si Si1 0.400157 0.815073 0.827339
Si Si2 0.661699 0.653540 0.173266
Si Si3 0.500000 0.585478 0.667959
Si Si4 0.824847 0.586093 0.327014
Si Si5 0.094578 0.086959 0.830046
Si Si6 0.266785 0.915061 0.672543
Si Si7 0.000000 0.413110 0.832595
O O1 0.500000 0.812711 0.784209
O O2 0.357717 0.737441 0.804986
O O3 0.345353 0.873233 0.742346
O O4 0.397001 0.830400 0.000000
O O5 0.583122 0.612586 0.247738
O O6 0.747961 0.627114 0.249099
O O7 0.664286 0.639635 0.000000
O O8 0.500000 0.500000 0.665727
O O9 0.500000 0.611041 0.500000
O O10 0.825864 0.599375 0.500000
O O11 0.813630 0.500000 0.306682
O O12 0.914441 0.607498 0.253183
O O13 0.176750 0.110968 0.740360
O O14 0.000000 0.111137 0.780460
O O15 0.093656 0.000000 0.822779
O O16 0.104365 0.106130 0.000000
O O17 0.265241 0.905343 0.500000
O O18 0.274302 0.000000 0.703320
O O19 0.000000 0.500000 0.836075
O O20 0.000000 0.387955 0.000000
#
# Coordination Sequence:
#
# PCOD9386080 Si02
#       7
#     8   8   4   8   8   8   4
#     4  10  22  41  60  78 104 142 187 230 277 332
#     4  11  22  38  58  81 109 144 188 234 278 329
#     4  11  23  37  55  83 116 147 182 225 275 332
#     4  10  20  34  54  83 117 150 185 227 277 332
#     4   8  14  27  50  79 109 142 178 215 260 315
#     4  10  21  35  54  84 116 144 179 225 275 327
#     4   9  17  31  53  81 111 147 190 231 274 323
#
# _framework density 17.870289
#
# number of rings (size 3 to 8) (size 9 to 14) (size 15 to 20)
#    0.000    2.167    0.833    3.000    0.000    8.000 
#    0.000    3.333    1.833    0.000    0.000    0.000 
#    0.000    0.000    0.000    0.000    0.000    0.000 
#
# Total GULP energy -267881.471994 kJ/mol
# GULP energy per Si atom -5580.864000 kJ/mol
# Density = 1.782962 g / cm^3
# Si number density = 17.870289 Si / 1000 Ang^3
#
#
#
# Elastic Constant Matrix: (Units=GPa)
#
#
# Indices 1 2 3 4 5 6 
#
# 1 212.1002 63.7564 109.0741 0.0000 0.0000 0.0000
# 2 63.7564 44.4142 61.5728 0.0000 0.0000 0.0000
# 3 109.0741 61.5728 119.2870 0.0000 0.0000 0.0000
# 4 0.0000 0.0000 0.0000 22.5584 0.0000 0.0000
# 5 0.0000 0.0000 0.0000 0.0000 -79.5909 0.0000
# 6 0.0000 0.0000 0.0000 0.0000 0.0000 65.6216
#
#
#
# Elastic Compliance Matrix: (Units=1/GPa)
#
#
# Indices 1 2 3 4 5 6 
#
# 1 0.009262 -0.005466 -0.005648 0.000000 0.000000 0.000000
# 2 -0.005466 0.082390 -0.037529 0.000000 0.000000 0.000000
# 3 -0.005648 -0.037529 0.032919 0.000000 0.000000 0.000000
# 4 0.000000 0.000000 0.000000 0.044329 0.000000 0.000000
# 5 0.000000 0.000000 0.000000 0.000000 -0.012564 0.000000
# 6 0.000000 0.000000 0.000000 0.000000 0.000000 0.015239
#
#
# Mechanical properties :
#
#
# Convention : Reuss Voigt Hill
#
# Bulk Modulus (GPa) = 36.65048 93.84531 65.24790
# Shear Modulus (GPa) = 17.98838 11.14437 14.56638
#
# Velocity S-wave (km/s) = 3.17615 2.49996 2.85812
# Velocity P-wave (km/s) = 5.83132 7.80780 6.89079
#
# Compressibility (1/GPa) = 0.02728477
#
# Stress axis : x y z
#
# Youngs Moduli (GPa) = 107.96463 12.13734 30.37773
#
# Poissons Ratio (x) = 0.06635 0.17156
# Poissons Ratio (y) = 0.59019 1.14005
# Poissons Ratio (z) = 0.60975 0.45551
#
# Static dielectric constant tensor:
#      x y z
#    x 1.600550 0.000000 0.000000 
#    y 0.000000 1.601370 0.000000 
#    z 0.000000 0.000000 1.594930 
# 
# From -- ./inp_files/6422.got.cif
#   From: 2010.05.17/outbox.cif.g08.bks.cpg/sg47_4_cif.got.tgz:6422.got - 2010.06.03 20:15:42.
