data_PCOD9386413
_publ_section_title
;
Structure prediction by ZEFSAII (Michael W. Deem and Ramdas Pophale) SiO2 
 PCOD9386413
Probable space group: P M M M
;
_chemical_formula_sum "Si O2"
_cell_formula_units_Z 52
_cell_length_a 14.391797
_cell_length_b 21.238788
_cell_length_c 9.067691
_cell_angle_alpha 90.000000
_cell_angle_beta 90.000000
_cell_angle_gamma 90.000000
_cell_volume 2771.669653
_symmetry_space_group_name_H-M "P M M M"
_symmetry_group_IT_number 47
_symmetry_cell_setting 'orthorhombic'
loop_
_space_group_symop_operation_xyz
x,y,z
-x,-y,z
x,-y,-z
-x,y,-z
-x,-y,-z
x,y,-z
-x,y,z
x,-y,z
loop_
_atom_site_type_symbol
_atom_site_label
_atom_site_fract_x
_atom_site_fract_y
_atom_site_fract_z
Si Si1 0.391268 0.000000 0.823311
Si Si2 0.389068 0.751230 0.669589
Si Si3 0.106919 0.817141 0.322800
Si Si4 0.217271 0.429842 0.324244
Si Si5 0.289145 0.882891 0.676364
Si Si6 0.888385 0.684592 0.828686
Si Si7 0.391274 0.621568 0.825283
O O1 0.339382 0.938829 0.760363
O O2 0.500000 0.000000 0.778187
O O3 0.387749 0.000000 0.000000
O O4 0.363728 0.734321 0.500000
O O5 0.500000 0.761147 0.674193
O O6 0.339641 0.816386 0.706766
O O7 0.367687 0.692947 0.775358
O O8 0.111287 0.809028 0.500000
O O9 0.181470 0.870605 0.283803
O O10 0.134237 0.750867 0.249138
O O11 0.000000 0.831398 0.282564
O O12 0.216378 0.422485 0.500000
O O13 0.182128 0.500000 0.287746
O O14 0.158644 0.374347 0.250326
O O15 0.321592 0.422427 0.263207
O O16 0.295436 0.894281 0.500000
O O17 0.000000 0.678019 0.820347
O O18 0.860841 0.686484 0.000000
O O19 0.500000 0.611015 0.790197
O O20 0.378782 0.614191 0.000000
#
# Coordination Sequence:
#
# PCOD9386413 Si02
#       7
#     4   8   8   8   8   8   8
#     4  11  25  41  56  79 112 148 185 227 276 327
#     4   9  17  30  51  79 107 136 176 225 272 322
#     4   9  18  34  58  88 118 146 180 223 269 318
#     4  11  24  39  55  76 104 143 189 232 275 328
#     4  10  20  35  57  82 109 146 187 223 263 314
#     4  10  21  37  59  87 116 145 178 222 278 334
#     4  10  21  36  55  80 109 141 178 225 282 338
#
# _framework density 18.761254000000001
#
# number of rings (size 3 to 8) (size 9 to 14) (size 15 to 20)
#    0.000    2.077    0.000    3.000    0.000    7.385 
#    0.000    5.000    0.000    2.308    0.000    0.000 
#    0.000    0.000    0.000    0.000    0.000    0.000 
#
# Total GULP energy -290455.932864 kJ/mol
# GULP energy per Si atom -5585.691017 kJ/mol
# Density = 1.871855 g / cm^3
# Si number density = 18.761254 Si / 1000 Ang^3
#
#
#
# Elastic Constant Matrix: (Units=GPa)
#
#
# Indices 1 2 3 4 5 6 
#
# 1 88.6167 68.0058 42.3252 0.0000 0.0000 0.0000
# 2 68.0058 94.1410 45.2368 0.0000 0.0000 0.0000
# 3 42.3252 45.2368 51.5570 0.0000 0.0000 0.0000
# 4 0.0000 0.0000 0.0000-3999.9194 0.0000 0.0000
# 5 0.0000 0.0000 0.0000 0.0000 26.4996 0.0000
# 6 0.0000 0.0000 0.0000 0.0000 0.0000 22.9174
#
#
#
# Elastic Compliance Matrix: (Units=1/GPa)
#
#
# Indices 1 2 3 4 5 6 
#
# 1 0.027495 -0.015588 -0.008895 0.000000 0.000000 0.000000
# 2 -0.015588 0.027203 -0.011071 0.000000 0.000000 0.000000
# 3 -0.008895 -0.011071 0.036412 0.000000 0.000000 0.000000
# 4 0.000000 0.000000 0.000000 -0.000250 0.000000 0.000000
# 5 0.000000 0.000000 0.000000 0.000000 0.037736 0.000000
# 6 0.000000 0.000000 0.000000 0.000000 0.000000 0.043635
#
#
# Mechanical properties :
#
#
# Convention : Reuss Voigt Hill
#
# Bulk Modulus (GPa) = 49.99488 60.60558 55.30023
# Shear Modulus (GPa) = 19.99934 -784.85068 -382.42567
#
# Velocity S-wave (km/s) = 3.26849 -20.47545 -14.29267
# Velocity P-wave (km/s) = 6.39921 22.94817 15.58314
#
# Compressibility (1/GPa) = 0.02000205
#
# Stress axis : x y z
#
# Youngs Moduli (GPa) = 36.36969 36.76081 27.46314
#
# Poissons Ratio (x) = 0.57303 0.24428
# Poissons Ratio (y) = 0.56693 0.30406
# Poissons Ratio (z) = 0.32351 0.40699
#
# Static dielectric constant tensor:
#      x y z
#    x 1.682040 0.000000 0.000000 
#    y 0.000000 1.615280 0.000000 
#    z 0.000000 0.000000 1.629450 
# 
# From -- ./inp_files/7090.got.cif
#   From: 2010.05.17/outbox.cif.g08.bks.cpg/sg47_4_cif.got.tgz:7090.got - 2010.06.03 20:15:42.
