data_PCOD9386453
_publ_section_title
;
Structure prediction by ZEFSAII (Michael W. Deem and Ramdas Pophale) SiO2 
 PCOD9386453
Probable space group: P M M M
;
_chemical_formula_sum "Si O2"
_cell_formula_units_Z 48
_cell_length_a 31.835230
_cell_length_b 8.882130
_cell_length_c 9.378808
_cell_angle_alpha 90.000000
_cell_angle_beta 90.000000
_cell_angle_gamma 90.000000
_cell_volume 2651.995375
_symmetry_space_group_name_H-M "P M M M"
_symmetry_group_IT_number 47
_symmetry_cell_setting 'orthorhombic'
loop_
_space_group_symop_operation_xyz
x,y,z
-x,-y,z
x,-y,-z
-x,y,-z
-x,-y,-z
x,y,-z
-x,y,z
x,-y,z
loop_
_atom_site_type_symbol
_atom_site_label
_atom_site_fract_x
_atom_site_fract_y
_atom_site_fract_z
Si Si1 0.500000 0.673458 0.673307
Si Si2 0.834082 0.319436 0.667750
Si Si3 0.082759 0.316266 0.835828
Si Si4 0.744597 0.820394 0.331824
Si Si5 0.666435 0.319910 0.832782
Si Si6 0.587826 0.179674 0.330993
Si Si7 0.000000 0.683968 0.664463
O O1 0.500000 0.500000 0.719229
O O2 0.500000 0.676315 0.500000
O O3 0.542838 0.755333 0.717223
O O4 0.842083 0.289420 0.500000
O O5 0.829138 0.500000 0.683496
O O6 0.874025 0.270146 0.759947
O O7 0.790598 0.240527 0.708632
O O8 0.082487 0.500000 0.834805
O O9 0.041936 0.267665 0.747143
O O10 0.080652 0.268013 0.000000
O O11 0.738458 0.784627 0.500000
O O12 0.708056 0.744749 0.241092
O O13 0.742933 0.000000 0.315927
O O14 0.665879 0.500000 0.818447
O O15 0.625870 0.251631 0.755241
O O16 0.666004 0.281539 0.000000
O O17 0.592868 0.214124 0.500000
O O18 0.588118 0.000000 0.315631
O O19 0.000000 0.500000 0.664536
O O20 0.000000 0.732036 0.500000
#
# Coordination Sequence:
#
# PCOD9386453 Si02
#       7
#     4   8   8   8   8   8   4
#     4   9  17  31  54  83 112 143 180 222 266 311
#     4   9  17  30  48  70  97 129 164 203 249 301
#     4   9  16  25  39  62  93 127 163 204 249 298
#     4  10  21  37  57  80 104 133 172 216 261 311
#     4  11  24  39  55  78 108 141 177 217 262 313
#     4  10  20  35  57  84 112 142 178 220 265 314
#     4   9  15  23  37  59  90 127 164 203 250 302
#
# _framework density 18.099578999999999
#
# number of rings (size 3 to 8) (size 9 to 14) (size 15 to 20)
#    0.000    2.333    0.000    3.000    0.000   10.000 
#    0.000    2.083    0.000    2.500    0.000    0.583 
#    0.000    4.667    0.000    0.000    0.000    0.000 
#
# Total GULP energy -267956.793060 kJ/mol
# GULP energy per Si atom -5582.433189 kJ/mol
# Density = 1.805838 g / cm^3
# Si number density = 18.099579 Si / 1000 Ang^3
#
#
#
# Elastic Constant Matrix: (Units=GPa)
#
#
# Indices 1 2 3 4 5 6 
#
# 1 219.5600 63.8139 122.9560 0.0000 0.0000 0.0000
# 2 63.8139 39.9905 53.5681 0.0000 0.0000 0.0000
# 3 122.9560 53.5681 118.5784 0.0000 0.0000 0.0000
# 4 0.0000 0.0000 0.0000 16.4506 0.0000 0.0000
# 5 0.0000 0.0000 0.0000 0.0000 -12.2017 0.0000
# 6 0.0000 0.0000 0.0000 0.0000 0.0000 -38.3361
#
#
#
# Elastic Compliance Matrix: (Units=1/GPa)
#
#
# Indices 1 2 3 4 5 6 
#
# 1 0.011398 -0.005968 -0.009123 0.000000 0.000000 0.000000
# 2 -0.005968 0.066452 -0.023832 0.000000 0.000000 0.000000
# 3 -0.009123 -0.023832 0.028659 0.000000 0.000000 0.000000
# 4 0.000000 0.000000 0.000000 0.060788 0.000000 0.000000
# 5 0.000000 0.000000 0.000000 0.000000 -0.081956 0.000000
# 6 0.000000 0.000000 0.000000 0.000000 0.000000 -0.026085
#
#
# Mechanical properties :
#
#
# Convention : Reuss Voigt Hill
#
# Bulk Modulus (GPa) = 34.88663 95.42275 65.15469
# Shear Modulus (GPa) = 34.09352 2.36863 18.23107
#
# Velocity S-wave (km/s) = 4.34483 1.14521 3.17719
# Velocity P-wave (km/s) = 6.66984 7.38811 7.03814
#
# Compressibility (1/GPa) = 0.02866428
#
# Stress axis : x y z
#
# Youngs Moduli (GPa) = 87.73562 15.04840 34.89351
#
# Poissons Ratio (x) = 0.08981 0.31832
# Poissons Ratio (y) = 0.52360 0.83157
# Poissons Ratio (z) = 0.80038 0.35863
#
# Static dielectric constant tensor:
#      x y z
#    x 1.591130 0.000000 0.000000 
#    y 0.000000 1.600930 0.000000 
#    z 0.000000 0.000000 1.605200 
# 
# From -- ./inp_files/13956.got.cif
#   From: 2010.05.17/outbox.cif.g08.bks.cpg/sg47_7_cif.got.tgz:13956.got - 2010.06.03 20:15:42.
