data_PCOD9386999
_publ_section_title
;
Structure prediction by ZEFSAII (Michael W. Deem and Ramdas Pophale) SiO2 
 PCOD9386999
Probable space group: P M M M
;
_chemical_formula_sum "Si O2"
_cell_formula_units_Z 64
_cell_length_a 18.049213
_cell_length_b 21.374868
_cell_length_c 7.703217
_cell_angle_alpha 90.000000
_cell_angle_beta 90.000000
_cell_angle_gamma 90.000000
_cell_volume 2971.897617
_symmetry_space_group_name_H-M "P M M M"
_symmetry_group_IT_number 47
_symmetry_cell_setting 'orthorhombic'
loop_
_space_group_symop_operation_xyz
x,y,z
-x,-y,z
x,-y,-z
-x,y,-z
-x,-y,-z
x,y,-z
-x,y,z
x,-y,z
loop_
_atom_site_type_symbol
_atom_site_label
_atom_site_fract_x
_atom_site_fract_y
_atom_site_fract_z
Si Si1 0.119511 0.202814 0.205222
Si Si2 0.378291 0.569572 0.801273
Si Si3 0.112786 0.067439 0.795353
Si Si4 0.286643 0.932982 0.710032
Si Si5 0.079913 0.338248 0.790209
Si Si6 0.580089 0.294224 0.296632
Si Si7 0.707293 0.796151 0.289491
Si Si8 0.211318 0.430529 0.296735
O O1 0.092708 0.135753 0.278236
O O2 0.086867 0.267105 0.275474
O O3 0.208517 0.209164 0.224378
O O4 0.102392 0.200614 0.000000
O O5 0.394033 0.500000 0.727493
O O6 0.410255 0.631212 0.714628
O O7 0.289219 0.577761 0.798254
O O8 0.403772 0.569681 0.000000
O O9 0.202246 0.067377 0.778223
O O10 0.087720 0.000000 0.722197
O O11 0.093783 0.067118 0.000000
O O12 0.282768 0.932976 0.500000
O O13 0.320312 0.866090 0.759712
O O14 0.320262 0.000000 0.763988
O O15 0.149575 0.379209 0.736282
O O16 0.000000 0.364441 0.735592
O O17 0.081237 0.336137 0.000000
O O18 0.578152 0.277604 0.500000
O O19 0.500000 0.277251 0.219750
O O20 0.651051 0.256974 0.225098
O O21 0.712373 0.792558 0.500000
O O22 0.230336 0.429146 0.500000
O O23 0.182417 0.500000 0.252607
#
# Coordination Sequence:
#
# PCOD9386999 Si02
#       8
#     8   8   8   8   8   8   8   8
#     4   9  17  29  46  68  93 122 158 199 241 285
#     4  10  21  37  57  79 101 125 156 196 240 287
#     4   8  13  22  38  61  88 116 148 190 238 283
#     4   8  13  22  38  61  88 116 148 190 238 283
#     4  10  21  35  50  70  99 134 167 200 240 285
#     4  10  21  35  50  70  99 134 167 200 240 285
#     4   9  17  29  46  68  93 122 158 199 241 285
#     4  10  21  37  57  79 101 125 156 196 240 287
#
# _framework density 21.535062
#
# number of rings (size 3 to 8) (size 9 to 14) (size 15 to 20)
#    0.000    2.750    0.000    1.500    0.000    5.500 
#    0.000    2.500    0.000    0.750    0.000    5.250 
#    0.000    0.000    0.000   42.750    0.000   21.500 
#
# Total GULP energy -356792.727492 kJ/mol
# GULP energy per Si atom -5574.886367 kJ/mol
# Density = 2.148605 g / cm^3
# Si number density = 21.535062 Si / 1000 Ang^3
#
#
#
# Elastic Constant Matrix: (Units=GPa)
#
#
# Indices 1 2 3 4 5 6 
#
# 1 63.5810 37.4067 -2.6294 0.0000 0.0000 0.0000
# 2 37.4067 113.8127 2.1406 0.0000 0.0000 0.0000
# 3 -2.6294 2.1406 38.6905 0.0000 0.0000 0.0000
# 4 0.0000 0.0000 0.0000 11.6061 0.0000 0.0000
# 5 0.0000 0.0000 0.0000 0.0000 -10.7350 0.0000
# 6 0.0000 0.0000 0.0000 0.0000 0.0000 41.2260
#
#
#
# Elastic Compliance Matrix: (Units=1/GPa)
#
#
# Indices 1 2 3 4 5 6 
#
# 1 0.019608 -0.006476 0.001691 0.000000 0.000000 0.000000
# 2 -0.006476 0.010935 -0.001045 0.000000 0.000000 0.000000
# 3 0.001691 -0.001045 0.026019 0.000000 0.000000 0.000000
# 4 0.000000 0.000000 0.000000 0.086161 0.000000 0.000000
# 5 0.000000 0.000000 0.000000 0.000000 -0.093154 0.000000
# 6 0.000000 0.000000 0.000000 0.000000 0.000000 0.024257
#
#
# Mechanical properties :
#
#
# Convention : Reuss Voigt Hill
#
# Bulk Modulus (GPa) = 22.27153 32.21334 27.24244
# Shear Modulus (GPa) = 49.77408 20.36386 35.06897
#
# Velocity S-wave (km/s) = 4.81282 3.07842 4.03980
# Velocity P-wave (km/s) = 6.42252 5.25610 5.86836
#
# Compressibility (1/GPa) = 0.04490037
#
# Stress axis : x y z
#
# Youngs Moduli (GPa) = 50.99923 91.45280 38.43367
#
# Poissons Ratio (x) = 0.59228 -0.06499
# Poissons Ratio (y) = 0.33029 0.04017
# Poissons Ratio (z) = -0.08623 0.09558
#
# Static dielectric constant tensor:
#      x y z
#    x 1.757310 0.000000 0.000000 
#    y 0.000000 1.836660 0.000000 
#    z 0.000000 0.000000 1.822390 
# 
# From -- ./inp_files/10001.got.cif
#   From: 2010.05.17/outbox.cif.g08.bks.cpg/sg47_6_cif.got.tgz:10001.got - 2010.06.03 20:15:42.
