data_PCOD9386251
_publ_section_title
;
Structure prediction by ZEFSAII (Michael W. Deem and Ramdas Pophale) SiO2 
 PCOD9386251
Probable space group: P M M M
;
_chemical_formula_sum "Si O2"
_cell_formula_units_Z 48
_cell_length_a 16.666256
_cell_length_b 8.692482
_cell_length_c 19.001903
_cell_angle_alpha 90.000000
_cell_angle_beta 90.000000
_cell_angle_gamma 90.000000
_cell_volume 2752.827165
_symmetry_space_group_name_H-M "P M M M"
_symmetry_group_IT_number 47
_symmetry_cell_setting 'orthorhombic'
loop_
_space_group_symop_operation_xyz
x,y,z
-x,-y,z
x,-y,-z
-x,y,-z
-x,-y,-z
x,y,-z
-x,y,z
x,-y,z
loop_
_atom_site_type_symbol
_atom_site_label
_atom_site_fract_x
_atom_site_fract_y
_atom_site_fract_z
Si Si1 0.669869 0.316522 0.917909
Si Si2 0.500000 0.184858 0.582933
Si Si3 0.173996 0.686607 0.422035
Si Si4 0.248982 0.817418 0.786065
Si Si5 0.090410 0.313680 0.281105
Si Si6 0.660870 0.315082 0.653556
Si Si7 0.500000 0.175125 0.914843
O O1 0.676195 0.500000 0.912721
O O2 0.729566 0.236226 0.864244
O O3 0.580738 0.263286 0.895630
O O4 0.681546 0.273243 0.000000
O O5 0.500000 0.231653 0.500000
O O6 0.579213 0.247122 0.622309
O O7 0.500000 0.000000 0.585455
O O8 0.157066 0.745280 0.500000
O O9 0.172014 0.500000 0.424304
O O10 0.112135 0.732294 0.361319
O O11 0.263581 0.728046 0.396459
O O12 0.161049 0.757195 0.765113
O O13 0.312211 0.744680 0.730353
O O14 0.252827 0.000000 0.779912
O O15 0.095935 0.500000 0.277012
O O16 0.000000 0.268349 0.262577
O O17 0.655255 0.500000 0.655669
O O18 0.500000 0.000000 0.888062
O O19 0.500000 0.168721 0.000000
#
# Coordination Sequence:
#
# PCOD9386251 Si02
#       7
#     8   4   8   8   8   8   4
#     4  10  20  35  56  81 109 141 177 215 257 309
#     4  11  23  36  51  76 110 143 179 227 279 322
#     4   8  14  26  47  75 102 127 162 211 259 300
#     4  11  22  36  55  78 106 138 173 216 268 319
#     4   9  18  33  53  77 105 137 173 212 256 312
#     4  10  20  35  53  73 100 138 185 225 260 309
#     4   9  17  30  49  76 109 139 167 201 242 288
#
# _framework density 17.436619
#
# number of rings (size 3 to 8) (size 9 to 14) (size 15 to 20)
#    0.000    2.333    0.000    4.500    0.000    4.667 
#    0.000    5.000    0.000    5.000    0.000    8.167 
#    0.000    0.000    0.000    0.000    0.000    0.000 
#
# Total GULP energy -267770.570889 kJ/mol
# GULP energy per Si atom -5578.553560 kJ/mol
# Density = 1.739693 g / cm^3
# Si number density = 17.436619 Si / 1000 Ang^3
#
#
#
# Elastic Constant Matrix: (Units=GPa)
#
#
# Indices 1 2 3 4 5 6 
#
# 1 126.9131 44.4241 65.9718 0.0000 0.0000 0.0000
# 2 44.4241 64.4518 38.7363 0.0000 0.0000 0.0000
# 3 65.9718 38.7363 101.1532 0.0000 0.0000 0.0000
# 4 0.0000 0.0000 0.0000 18.1472 0.0000 0.0000
# 5 0.0000 0.0000 0.0000 0.0000 6.8064 0.0000
# 6 0.0000 0.0000 0.0000 0.0000 0.0000 3.7887
#
#
#
# Elastic Compliance Matrix: (Units=1/GPa)
#
#
# Indices 1 2 3 4 5 6 
#
# 1 0.013074 -0.005049 -0.006593 0.000000 0.000000 0.000000
# 2 -0.005049 0.022104 -0.005172 0.000000 0.000000 0.000000
# 3 -0.006593 -0.005172 0.016167 0.000000 0.000000 0.000000
# 4 0.000000 0.000000 0.000000 0.055105 0.000000 0.000000
# 5 0.000000 0.000000 0.000000 0.000000 0.146920 0.000000
# 6 0.000000 0.000000 0.000000 0.000000 0.000000 0.263940
#
#
# Mechanical properties :
#
#
# Convention : Reuss Voigt Hill
#
# Bulk Modulus (GPa) = 56.44436 65.64251 61.04343
# Shear Modulus (GPa) = 8.97920 15.30753 12.14337
#
# Velocity S-wave (km/s) = 2.27174 2.96614 2.64186
# Velocity P-wave (km/s) = 6.27077 7.03269 6.66263
#
# Compressibility (1/GPa) = 0.01771656
#
# Stress axis : x y z
#
# Youngs Moduli (GPa) = 76.48759 45.24137 61.85533
#
# Poissons Ratio (x) = 0.22841 0.40784
# Poissons Ratio (y) = 0.38616 0.31990
# Poissons Ratio (z) = 0.50432 0.23398
#
# Static dielectric constant tensor:
#      x y z
#    x 1.576420 0.000000 0.000000 
#    y 0.000000 1.588070 0.000000 
#    z 0.000000 0.000000 1.599460 
# 
# From -- ./inp_files/27995.got.cif
#   From: 2010.05.17/outbox.cif.g08.bks.cpg/sg47_14_cif.got.tgz:27995.got - 2010.06.03 20:15:42.
