data_PCOD9386837
_publ_section_title
;
Structure prediction by ZEFSAII (Michael W. Deem and Ramdas Pophale) SiO2 
 PCOD9386837
Probable space group: P M M M
;
_chemical_formula_sum "Si O2"
_cell_formula_units_Z 44
_cell_length_a 15.811853
_cell_length_b 9.436125
_cell_length_c 17.511781
_cell_angle_alpha 90.000000
_cell_angle_beta 90.000000
_cell_angle_gamma 90.000000
_cell_volume 2612.803630
_symmetry_space_group_name_H-M "P M M M"
_symmetry_group_IT_number 47
_symmetry_cell_setting 'orthorhombic'
loop_
_space_group_symop_operation_xyz
x,y,z
-x,-y,z
x,-y,-z
-x,y,-z
-x,-y,-z
x,y,-z
-x,y,z
x,-y,z
loop_
_atom_site_type_symbol
_atom_site_label
_atom_site_fract_x
_atom_site_fract_y
_atom_site_fract_z
Si Si1 0.099637 0.345297 0.500000
Si Si2 0.759354 0.829526 0.794576
Si Si3 0.818585 0.840520 0.374934
Si Si4 0.904896 0.827815 0.088835
Si Si5 0.404782 0.331036 0.740986
Si Si6 0.377502 0.163929 0.586140
O O1 0.140169 0.500000 0.500000
O O2 0.127090 0.264214 0.424371
O O3 0.000000 0.355818 0.500000
O O4 0.806937 0.806642 0.713911
O O5 0.824958 0.783329 0.860178
O O6 0.670348 0.747233 0.787154
O O7 0.743359 0.000000 0.800532
O O8 0.724202 0.837539 0.409438
O O9 0.852074 0.000000 0.382060
O O10 0.000000 0.782363 0.113867
O O11 0.905233 0.000000 0.092069
O O12 0.894775 0.787678 0.000000
O O13 0.500000 0.308241 0.772138
O O14 0.389291 0.500000 0.737491
O O15 0.404337 0.264179 0.655509
O O16 0.402743 0.204765 0.500000
O O17 0.403858 0.000000 0.599624
#
# Coordination Sequence:
#
# PCOD9386837 Si02
#       6
#     4   8   8   8   8   8
#     4  11  23  33  41  59  88 123 164 207 249 290
#     4   9  18  32  53  78 101 130 167 204 246 299
#     4   9  17  31  47  64  88 120 161 203 241 287
#     4   8  14  27  51  84 115 134 153 194 252 307
#     4  10  21  34  47  68  99 134 172 211 252 298
#     4   9  17  31  50  69  90 118 158 208 258 303
#
# _framework density 16.840147999999999
#
# number of rings (size 3 to 8) (size 9 to 14) (size 15 to 20)
#    0.000    2.818    0.909    2.455    0.000    6.545 
#    0.000    3.636    0.000    1.636    0.000    5.091 
#    0.000    0.000    0.000    0.000    0.000    0.000 
#
# Total GULP energy -245034.822946 kJ/mol
# GULP energy per Si atom -5568.973249 kJ/mol
# Density = 1.680182 g / cm^3
# Si number density = 16.840148 Si / 1000 Ang^3
#
#
#
# Elastic Constant Matrix: (Units=GPa)
#
#
# Indices 1 2 3 4 5 6 
#
# 1 122.2292 55.5173 65.0359 0.0000 0.0000 0.0000
# 2 55.5173 61.6285 35.1554 0.0000 0.0000 0.0000
# 3 65.0359 35.1554 79.3567 0.0000 0.0000 0.0000
# 4 0.0000 0.0000 0.0000 2.5958 0.0000 0.0000
# 5 0.0000 0.0000 0.0000 0.0000 27.0699 0.0000
# 6 0.0000 0.0000 0.0000 0.0000 0.0000 22.2742
#
#
#
# Elastic Compliance Matrix: (Units=1/GPa)
#
#
# Indices 1 2 3 4 5 6 
#
# 1 0.018711 -0.010850 -0.010528 0.000000 0.000000 0.000000
# 2 -0.010850 0.028005 -0.003514 0.000000 0.000000 0.000000
# 3 -0.010528 -0.003514 0.022786 0.000000 0.000000 0.000000
# 4 0.000000 0.000000 0.000000 0.385235 0.000000 0.000000
# 5 0.000000 0.000000 0.000000 0.000000 0.036941 0.000000
# 6 0.000000 0.000000 0.000000 0.000000 0.000000 0.044895
#
#
# Mechanical properties :
#
#
# Convention : Reuss Voigt Hill
#
# Bulk Modulus (GPa) = 50.71535 63.84793 57.28164
# Shear Modulus (GPa) = 8.43267 17.55505 12.99386
#
# Velocity S-wave (km/s) = 2.24017 3.23221 2.78078
# Velocity P-wave (km/s) = 6.07225 7.20597 6.66327
#
# Compressibility (1/GPa) = 0.01971790
#
# Stress axis : x y z
#
# Youngs Moduli (GPa) = 53.44347 35.70755 43.88623
#
# Poissons Ratio (x) = 0.38744 0.46203
# Poissons Ratio (y) = 0.57988 0.15422
# Poissons Ratio (z) = 0.56265 0.12548
#
# Static dielectric constant tensor:
#      x y z
#    x 1.588160 0.000000 0.000000 
#    y 0.000000 1.572650 0.000000 
#    z 0.000000 0.000000 1.559440 
# 
# From -- ./inp_files/24295.got.cif
#   From: 2010.05.17/outbox.cif.g08.bks.cpg/sg47_13_cif.got.tgz:24295.got - 2010.06.03 20:15:42.
