data_PCOD9386949
_publ_section_title
;
Structure prediction by ZEFSAII (Michael W. Deem and Ramdas Pophale) SiO2 
 PCOD9386949
Probable space group: P M M M
;
_chemical_formula_sum "Si O2"
_cell_formula_units_Z 44
_cell_length_a 10.041880
_cell_length_b 7.675967
_cell_length_c 29.047381
_cell_angle_alpha 90.000000
_cell_angle_beta 90.000000
_cell_angle_gamma 90.000000
_cell_volume 2239.005227
_symmetry_space_group_name_H-M "P M M M"
_symmetry_group_IT_number 47
_symmetry_cell_setting 'orthorhombic'
loop_
_space_group_symop_operation_xyz
x,y,z
-x,-y,z
x,-y,-z
-x,y,-z
-x,-y,-z
x,y,-z
-x,y,z
x,-y,z
loop_
_atom_site_type_symbol
_atom_site_label
_atom_site_fract_x
_atom_site_fract_y
_atom_site_fract_z
Si Si1 0.349771 0.206583 0.767201
Si Si2 0.850506 0.290829 0.685759
Si Si3 0.152744 0.712609 0.581588
Si Si4 0.349091 0.707096 0.869216
Si Si5 0.847092 0.712937 0.051956
Si Si6 0.653826 0.286638 0.500000
O O1 0.500000 0.278406 0.760636
O O2 0.254676 0.247593 0.724827
O O3 0.299378 0.268121 0.817055
O O4 0.359127 0.000000 0.770162
O O5 0.856327 0.500000 0.683287
O O6 0.817104 0.230526 0.633904
O O7 0.000000 0.227658 0.697006
O O8 0.153365 0.500000 0.580924
O O9 0.261601 0.769669 0.544626
O O10 0.000000 0.764410 0.570358
O O11 0.500000 0.778587 0.871628
O O12 0.357924 0.500000 0.876746
O O13 0.251486 0.776682 0.908427
O O14 0.846652 0.500000 0.052740
O O15 0.000000 0.766627 0.059855
O O16 0.808130 0.764607 0.000000
O O17 0.652437 0.500000 0.500000
O O18 0.500000 0.230079 0.500000
#
# Coordination Sequence:
#
# PCOD9386949 Si02
#       6
#     8   8   8   8   8   4
#     4  10  21  35  49  67  94 127 160 195 238 286
#     4   9  18  32  50  72  95 121 158 200 238 279
#     4   8  14  25  40  59  87 121 151 182 225 274
#     4   9  17  29  46  68  92 119 153 191 229 271
#     4   8  14  25  42  66  94 119 144 180 227 274
#     4   9  15  21  33  59  92 121 150 183 220 266
#
# _framework density 19.651585000000001
#
# number of rings (size 3 to 8) (size 9 to 14) (size 15 to 20)
#    0.000    3.182    0.000    2.455    0.000    4.364 
#    0.000    5.455    0.000    0.545    0.000    4.455 
#    0.000    5.091    0.000    0.000    0.000    0.000 
#
# Total GULP energy -245301.016966 kJ/mol
# GULP energy per Si atom -5575.023113 kJ/mol
# Density = 1.960686 g / cm^3
# Si number density = 19.651585 Si / 1000 Ang^3
#
#
#
# Elastic Constant Matrix: (Units=GPa)
#
#
# Indices 1 2 3 4 5 6 
#
# 1 134.6950 4.4279 137.0622 0.0000 0.0000 0.0000
# 2 4.4279 32.7830 2.6047 0.0000 0.0000 0.0000
# 3 137.0622 2.6047 192.1709 0.0000 0.0000 0.0000
# 4 0.0000 0.0000 0.0000 -39.5045 0.0000 0.0000
# 5 0.0000 0.0000 0.0000 0.0000 67.8863 0.0000
# 6 0.0000 0.0000 0.0000 0.0000 0.0000 1.4272
#
#
#
# Elastic Compliance Matrix: (Units=1/GPa)
#
#
# Indices 1 2 3 4 5 6 
#
# 1 0.027221 -0.002136 -0.019386 0.000000 0.000000 0.000000
# 2 -0.002136 0.030704 0.001108 0.000000 0.000000 0.000000
# 3 -0.019386 0.001108 0.019015 0.000000 0.000000 0.000000
# 4 0.000000 0.000000 0.000000 -0.025314 0.000000 0.000000
# 5 0.000000 0.000000 0.000000 0.000000 0.014731 0.000000
# 6 0.000000 0.000000 0.000000 0.000000 0.000000 0.700655
#
#
# Mechanical properties :
#
#
# Convention : Reuss Voigt Hill
#
# Bulk Modulus (GPa) = 27.69239 71.98206 49.83722
# Shear Modulus (GPa) = 6.09846 20.33208 13.21527
#
# Velocity S-wave (km/s) = 1.76353 3.22005 2.59603
# Velocity P-wave (km/s) = 4.27422 7.10870 5.86526
#
# Compressibility (1/GPa) = 0.03611101
#
# Stress axis : x y z
#
# Youngs Moduli (GPa) = 36.73624 32.56890 52.58911
#
# Poissons Ratio (x) = 0.06958 1.01949
# Poissons Ratio (y) = 0.07848 -0.05825
# Poissons Ratio (z) = 0.71217 -0.03607
#
# Static dielectric constant tensor:
#      x y z
#    x 1.588940 0.000000 0.000000 
#    y 0.000000 1.718510 0.000000 
#    z 0.000000 0.000000 1.675880 
# 
# From -- ./inp_files/13599.got.cif
#   From: 2010.05.17/outbox.cif.g08.bks.cpg/sg47_7_cif.got.tgz:13599.got - 2010.06.03 20:15:42.
