data_PCOD9386404
_publ_section_title
;
Structure prediction by ZEFSAII (Michael W. Deem and Ramdas Pophale) SiO2 
 PCOD9386404
Probable space group: P M M M
;
_chemical_formula_sum "Si O2"
_cell_formula_units_Z 36
_cell_length_a 7.758208
_cell_length_b 24.429131
_cell_length_c 9.308942
_cell_angle_alpha 90.000000
_cell_angle_beta 90.000000
_cell_angle_gamma 90.000000
_cell_volume 1764.289144
_symmetry_space_group_name_H-M "P M M M"
_symmetry_group_IT_number 47
_symmetry_cell_setting 'orthorhombic'
loop_
_space_group_symop_operation_xyz
x,y,z
-x,-y,z
x,-y,-z
-x,y,-z
-x,-y,-z
x,y,-z
-x,y,z
x,-y,z
loop_
_atom_site_type_symbol
_atom_site_label
_atom_site_fract_x
_atom_site_fract_y
_atom_site_fract_z
Si Si1 0.205721 0.677787 0.335838
Si Si2 0.707379 0.558911 0.667900
Si Si3 0.788526 0.784136 0.165199
Si Si4 0.294467 0.000000 0.837086
Si Si5 0.206679 0.890995 0.662854
O O1 0.275027 0.679731 0.500000
O O2 0.237958 0.617429 0.271583
O O3 0.269977 0.728278 0.241671
O O4 0.000000 0.684026 0.345761
O O5 0.763343 0.559646 0.500000
O O6 0.500000 0.558384 0.669259
O O7 0.766260 0.500000 0.728988
O O8 0.730056 0.837232 0.253752
O O9 0.000000 0.784165 0.165656
O O10 0.733958 0.787006 0.000000
O O11 0.241908 0.945801 0.751452
O O12 0.500000 0.000000 0.845374
O O13 0.224424 0.000000 0.000000
O O14 0.274071 0.894465 0.500000
O O15 0.000000 0.885497 0.653729
#
# Coordination Sequence:
#
# PCOD9386404 Si02
#       5
#     8   8   8   4   8
#     4   9  16  26  43  68  94 118 150 195 240 280
#     4   8  14  25  41  62  89 120 153 190 234 284
#     4   9  17  30  49  72  98 128 160 196 241 291
#     4  11  24  39  54  76 108 141 170 203 246 294
#     4  10  20  35  57  82 104 130 169 211 248 292
#
# _framework density 20.404817000000001
#
# number of rings (size 3 to 8) (size 9 to 14) (size 15 to 20)
#    0.000    2.778    0.000    2.667    0.000    6.667 
#    0.000    3.333    0.000    5.333    0.000    4.667 
#    0.000    0.000    0.000    0.000    0.000    0.000 
#
# Total GULP energy -200763.510406 kJ/mol
# GULP energy per Si atom -5576.764178 kJ/mol
# Density = 2.035838 g / cm^3
# Si number density = 20.404817 Si / 1000 Ang^3
#
#
#
# Elastic Constant Matrix: (Units=GPa)
#
#
# Indices 1 2 3 4 5 6 
#
# 1 25.6825 3.4651 7.5042 0.0000 0.0000 0.0000
# 2 3.4651 250.7633 115.1141 0.0000 0.0000 0.0000
# 3 7.5042 115.1141 143.8246 0.0000 0.0000 0.0000
# 4 0.0000 0.0000 0.0000 -8.3028 0.0000 0.0000
# 5 0.0000 0.0000 0.0000 0.0000 6.0992 0.0000
# 6 0.0000 0.0000 0.0000 0.0000 0.0000 61.1123
#
#
#
# Elastic Compliance Matrix: (Units=1/GPa)
#
#
# Indices 1 2 3 4 5 6 
#
# 1 0.039604 0.000634 -0.002574 0.000000 0.000000 0.000000
# 2 0.000634 0.006314 -0.005087 0.000000 0.000000 0.000000
# 3 -0.002574 -0.005087 0.011159 0.000000 0.000000 0.000000
# 4 0.000000 0.000000 0.000000 -0.120442 0.000000 0.000000
# 5 0.000000 0.000000 0.000000 0.000000 0.163955 0.000000
# 6 0.000000 0.000000 0.000000 0.000000 0.000000 0.016363
#
#
# Mechanical properties :
#
#
# Convention : Reuss Voigt Hill
#
# Bulk Modulus (GPa) = 23.24325 74.71525 48.97925
# Shear Modulus (GPa) = 34.40047 31.39422 32.89734
#
# Velocity S-wave (km/s) = 4.11042 3.92672 4.01962
# Velocity P-wave (km/s) = 5.82608 7.56669 6.75270
#
# Compressibility (1/GPa) = 0.04302324
#
# Stress axis : x y z
#
# Youngs Moduli (GPa) = 25.25026 158.37310 89.61672
#
# Poissons Ratio (x) = -0.10047 0.23069
# Poissons Ratio (y) = -0.01602 0.45587
# Poissons Ratio (z) = 0.06500 0.80562
#
# Static dielectric constant tensor:
#      x y z
#    x 1.750970 0.000000 0.000000 
#    y 0.000000 1.734070 0.000000 
#    z 0.000000 0.000000 1.706370 
# 
# From -- ./inp_files/1417.got.cif
#   From: 2010.05.17/outbox.cif.g08.bks.cpg/sg47_1_cif.got.tgz:1417.got - 2010.06.03 20:15:42.
