data_PCOD9386610
_publ_section_title
;
Structure prediction by ZEFSAII (Michael W. Deem and Ramdas Pophale) SiO2 
 PCOD9386610
Probable space group: P M M M
;
_chemical_formula_sum "Si O2"
_cell_formula_units_Z 44
_cell_length_a 7.457610
_cell_length_b 15.868542
_cell_length_c 19.240893
_cell_angle_alpha 90.000000
_cell_angle_beta 90.000000
_cell_angle_gamma 90.000000
_cell_volume 2276.994167
_symmetry_space_group_name_H-M "P M M M"
_symmetry_group_IT_number 47
_symmetry_cell_setting 'orthorhombic'
loop_
_space_group_symop_operation_xyz
x,y,z
-x,-y,z
x,-y,-z
-x,y,-z
-x,-y,-z
x,y,-z
-x,y,z
x,-y,z
loop_
_atom_site_type_symbol
_atom_site_label
_atom_site_fract_x
_atom_site_fract_y
_atom_site_fract_z
Si Si1 0.715285 0.907877 0.350757
Si Si2 0.219312 0.270692 0.190846
Si Si3 0.790198 0.910574 0.186258
Si Si4 0.500000 0.402565 0.417071
Si Si5 0.791323 0.719101 0.647324
Si Si6 0.781371 0.596656 0.922290
O O1 0.500000 0.907069 0.351436
O O2 0.778266 0.908632 0.270414
O O3 0.773677 0.816480 0.378970
O O4 0.772296 0.000000 0.380583
O O5 0.283754 0.179447 0.164297
O O6 0.268947 0.281273 0.271530
O O7 0.279553 0.343599 0.139529
O O8 0.000000 0.268992 0.190692
O O9 0.000000 0.911706 0.167493
O O10 0.710319 0.000000 0.163563
O O11 0.500000 0.500000 0.391509
O O12 0.500000 0.405341 0.500000
O O13 0.670131 0.348058 0.391999
O O14 0.000000 0.696325 0.644268
O O15 0.725873 0.500000 0.912370
O O16 0.000000 0.597478 0.921428
O O17 0.727123 0.623750 0.000000
#
# Coordination Sequence:
#
# PCOD9386610 Si02
#       6
#     8   8   8   4   8   8
#     4   9  15  25  47  80 115 145 173 211 260 315
#     4   8  14  24  42  69  97 128 168 213 256 302
#     4   8  13  21  34  57  92 131 168 207 253 303
#     4  11  26  46  63  81 108 140 179 226 273 327
#     4  10  20  36  59  85 112 142 179 225 273 318
#     4   8  13  21  34  56  90 129 166 208 260 315
#
# _framework density 19.323720999999999
#
# number of rings (size 3 to 8) (size 9 to 14) (size 15 to 20)
#    0.000    3.182    0.909    2.182    0.000    2.545 
#    0.000    2.727    0.000    1.636    0.000    5.727 
#    0.000    2.182    0.000   23.091    0.000   21.455 
#
# Total GULP energy -244973.271680 kJ/mol
# GULP energy per Si atom -5567.574356 kJ/mol
# Density = 1.927974 g / cm^3
# Si number density = 19.323721 Si / 1000 Ang^3
#
#
#
# Elastic Constant Matrix: (Units=GPa)
#
#
# Indices 1 2 3 4 5 6 
#
# 1 81.8448 34.1907 17.5852 0.0000 0.0000 0.0000
# 2 34.1907 174.0704 60.5115 0.0000 0.0000 0.0000
# 3 17.5852 60.5115 44.7774 0.0000 0.0000 0.0000
# 4 0.0000 0.0000 0.0000 -18.4205 0.0000 0.0000
# 5 0.0000 0.0000 0.0000 0.0000 13.3812 0.0000
# 6 0.0000 0.0000 0.0000 0.0000 0.0000 8.1307
#
#
#
# Elastic Compliance Matrix: (Units=1/GPa)
#
#
# Indices 1 2 3 4 5 6 
#
# 1 0.013557 -0.001532 -0.003255 0.000000 0.000000 0.000000
# 2 -0.001532 0.011008 -0.014274 0.000000 0.000000 0.000000
# 3 -0.003255 -0.014274 0.042901 0.000000 0.000000 0.000000
# 4 0.000000 0.000000 0.000000 -0.054287 0.000000 0.000000
# 5 0.000000 0.000000 0.000000 0.000000 0.074732 0.000000
# 6 0.000000 0.000000 0.000000 0.000000 0.000000 0.122991
#
#
# Mechanical properties :
#
#
# Convention : Reuss Voigt Hill
#
# Bulk Modulus (GPa) = 34.07715 58.36304 46.22009
# Shear Modulus (GPa) = 19.31966 13.17861 16.24914
#
# Velocity S-wave (km/s) = 3.16538 2.61433 2.90296
# Velocity P-wave (km/s) = 5.57069 6.27545 5.93355
#
# Compressibility (1/GPa) = 0.02934518
#
# Stress axis : x y z
#
# Youngs Moduli (GPa) = 73.76079 90.84548 23.30959
#
# Poissons Ratio (x) = 0.13913 0.07586
# Poissons Ratio (y) = 0.11297 0.33273
# Poissons Ratio (z) = 0.24006 1.29674
#
# Static dielectric constant tensor:
#      x y z
#    x 1.706110 0.000000 0.000000 
#    y 0.000000 1.725050 0.000000 
#    z 0.000000 0.000000 1.631240 
# 
# From -- ./inp_files/26384.got.cif
#   From: 2010.05.17/outbox.cif.g08.bks.cpg/sg47_14_cif.got.tgz:26384.got - 2010.06.03 20:15:42.
