data_PCOD9386785
_publ_section_title
;
Structure prediction by ZEFSAII (Michael W. Deem and Ramdas Pophale) SiO2 
 PCOD9386785
Probable space group: P M M M
;
_chemical_formula_sum "Si O2"
_cell_formula_units_Z 52
_cell_length_a 13.118797
_cell_length_b 7.329572
_cell_length_c 25.354466
_cell_angle_alpha 90.000000
_cell_angle_beta 90.000000
_cell_angle_gamma 90.000000
_cell_volume 2437.962917
_symmetry_space_group_name_H-M "P M M M"
_symmetry_group_IT_number 47
_symmetry_cell_setting 'orthorhombic'
loop_
_space_group_symop_operation_xyz
x,y,z
-x,-y,z
x,-y,-z
-x,y,-z
-x,-y,-z
x,y,-z
-x,y,z
x,-y,z
loop_
_atom_site_type_symbol
_atom_site_label
_atom_site_fract_x
_atom_site_fract_y
_atom_site_fract_z
Si Si1 0.500000 0.710732 0.275198
Si Si2 0.883259 0.277873 0.059455
Si Si3 0.278672 0.718987 0.733309
Si Si4 0.884814 0.216153 0.355318
Si Si5 0.500000 0.711503 0.853308
Si Si6 0.278041 0.276277 0.145840
Si Si7 0.500000 0.211930 0.564320
Si Si8 0.278100 0.776655 0.561053
O O1 0.500000 0.500000 0.293163
O O2 0.611645 0.789340 0.288563
O O3 0.500000 0.713656 0.210867
O O4 0.882365 0.500000 0.059954
O O5 0.807135 0.216679 0.104879
O O6 0.000000 0.221979 0.068901
O O7 0.854134 0.222410 0.000000
O O8 0.289779 0.500000 0.735411
O O9 0.182922 0.760020 0.696859
O O10 0.261555 0.780375 0.793498
O O11 0.814058 0.287363 0.402679
O O12 0.000000 0.288777 0.352059
O O13 0.893494 0.000000 0.364177
O O14 0.500000 0.500000 0.869507
O O15 0.391304 0.787019 0.870204
O O16 0.278797 0.500000 0.146019
O O17 0.500000 0.216636 0.500000
O O18 0.609959 0.287853 0.580191
O O19 0.500000 0.000000 0.580414
O O20 0.264971 0.725241 0.500000
O O21 0.281072 0.000000 0.562309
#
# Coordination Sequence:
#
# PCOD9386785 Si02
#       8
#     4   8   8   8   4   8   4   8
#     4   7  12  25  44  65  85 106 138 179 218 253
#     4   8  13  20  29  44  70 101 131 168 210 242
#     4   9  17  30  48  66  85 113 147 179 213 260
#     4  10  21  33  43  62  93 120 144 181 219 246
#     4   7  10  18  32  50  73  98 125 162 204 245
#     4   8  13  22  37  55  74 100 134 167 202 249
#     4   7  10  19  38  64  87 102 127 173 216 247
#     4   8  14  26  44  63  83 110 141 171 209 257
#
# _framework density 21.329284000000001
#
# number of rings (size 3 to 8) (size 9 to 14) (size 15 to 20)
#    0.000    3.769    0.000    3.231    0.000    1.846 
#    0.000    4.615    0.000    2.769    0.000    1.077 
#    0.000    4.308    0.000    3.385    0.000   11.385 
#
# Total GULP energy -289878.968187 kJ/mol
# GULP energy per Si atom -5574.595542 kJ/mol
# Density = 2.128074 g / cm^3
# Si number density = 21.329284 Si / 1000 Ang^3
#
#
#
# Elastic Constant Matrix: (Units=GPa)
#
#
# Indices 1 2 3 4 5 6 
#
# 1 247.8325 10.0933 120.6102 0.0000 0.0000 0.0000
# 2 10.0933 83.8983 1.4052 0.0000 0.0000 0.0000
# 3 120.6102 1.4052 122.4095 0.0000 0.0000 0.0000
# 4 0.0000 0.0000 0.0000 2.8086 0.0000 0.0000
# 5 0.0000 0.0000 0.0000 0.0000 42.7165 0.0000
# 6 0.0000 0.0000 0.0000 0.0000 0.0000 -5.2640
#
#
#
# Elastic Compliance Matrix: (Units=1/GPa)
#
#
# Indices 1 2 3 4 5 6 
#
# 1 0.007807 -0.000811 -0.007683 0.000000 0.000000 0.000000
# 2 -0.000811 0.012006 0.000661 0.000000 0.000000 0.000000
# 3 -0.007683 0.000661 0.015732 0.000000 0.000000 0.000000
# 4 0.000000 0.000000 0.000000 0.356052 0.000000 0.000000
# 5 0.000000 0.000000 0.000000 0.000000 0.023410 0.000000
# 6 0.000000 0.000000 0.000000 0.000000 0.000000 -0.189970
#
#
# Mechanical properties :
#
#
# Convention : Reuss Voigt Hill
#
# Bulk Modulus (GPa) = 50.30431 79.81752 65.06091
# Shear Modulus (GPa) = 20.21602 29.52098 24.86850
#
# Velocity S-wave (km/s) = 3.08199 3.72433 3.41828
# Velocity P-wave (km/s) = 6.02500 7.48311 6.79329
#
# Compressibility (1/GPa) = 0.01987901
#
# Stress axis : x y z
#
# Youngs Moduli (GPa) = 128.09089 83.29422 63.56595
#
# Poissons Ratio (x) = 0.06751 0.48837
# Poissons Ratio (y) = 0.10382 -0.04200
# Poissons Ratio (z) = 0.98411 -0.05504
#
# Static dielectric constant tensor:
#      x y z
#    x 1.788490 0.000000 0.000000 
#    y 0.000000 1.937070 0.000000 
#    z 0.000000 0.000000 1.738000 
# 
# From -- ./inp_files/33626.got.cif
#   From: 2010.05.17/outbox.cif.g08.bks.cpg/sg47_17_cif.got.tgz:33626.got - 2010.06.03 20:15:42.
