data_PCOD9386289
_publ_section_title
;
Structure prediction by ZEFSAII (Michael W. Deem and Ramdas Pophale) SiO2 
 PCOD9386289
Probable space group: P M M M
;
_chemical_formula_sum "Si O2"
_cell_formula_units_Z 56
_cell_length_a 14.633590
_cell_length_b 20.901829
_cell_length_c 7.790720
_cell_angle_alpha 90.000000
_cell_angle_beta 90.000000
_cell_angle_gamma 90.000000
_cell_volume 2382.938145
_symmetry_space_group_name_H-M "P M M M"
_symmetry_group_IT_number 47
_symmetry_cell_setting 'orthorhombic'
loop_
_space_group_symop_operation_xyz
x,y,z
-x,-y,z
x,-y,-z
-x,y,-z
-x,-y,-z
x,y,-z
-x,y,z
x,-y,z
loop_
_atom_site_type_symbol
_atom_site_label
_atom_site_fract_x
_atom_site_fract_y
_atom_site_fract_z
Si Si1 0.128804 0.930068 0.295126
Si Si2 0.500000 0.075017 0.807480
Si Si3 0.799779 0.423379 0.297107
Si Si4 0.097618 0.780975 0.205774
Si Si5 0.000000 0.576621 0.708489
Si Si6 0.603843 0.373911 0.301207
Si Si7 0.289086 0.739499 0.194304
Si Si8 0.314125 0.875863 0.693101
O O1 0.111796 0.930857 0.500000
O O2 0.100194 0.858461 0.236156
O O3 0.236666 0.926163 0.259703
O O4 0.096877 0.000000 0.228997
O O5 0.588292 0.094622 0.705476
O O6 0.500000 0.000000 0.825446
O O7 0.500000 0.103543 0.000000
O O8 0.797933 0.406106 0.500000
O O9 0.802848 0.500000 0.285032
O O10 0.899483 0.399695 0.228475
O O11 0.699209 0.403488 0.227388
O O12 0.186431 0.742967 0.272388
O O13 0.000000 0.757590 0.272828
O O14 0.100421 0.773536 0.000000
O O15 0.000000 0.500000 0.743251
O O16 0.000000 0.583169 0.500000
O O17 0.599227 0.394831 0.500000
O O18 0.500000 0.384169 0.230366
O O19 0.632833 0.299472 0.291193
O O20 0.311886 0.813955 0.190506
O O21 0.285647 0.714808 0.000000
O O22 0.292326 0.853997 0.500000
#
# Coordination Sequence:
#
# PCOD9386289 Si02
#       8
#     8   4   8   8   4   8   8   8
#     4   9  18  32  50  74 103 132 163 203 257 319
#     4  11  23  35  49  75 107 135 170 215 266 329
#     4   8  14  27  49  78 112 148 183 221 268 319
#     4   9  19  36  55  74  98 131 172 217 266 319
#     4   7  10  20  42  72 107 143 177 217 264 311
#     4  10  21  35  52  78 112 144 180 227 274 324
#     4  10  21  38  57  75 100 137 181 225 270 326
#     4  10  20  35  55  74  97 132 173 221 272 319
#
# _framework density 23.500401
#
# number of rings (size 3 to 8) (size 9 to 14) (size 15 to 20)
#    0.000    2.714    0.000    2.357    1.000    3.714 
#    1.286    2.857    0.000    0.429    0.000    1.000 
#    0.000    1.714    0.000    0.000    0.000    0.000 
#
# Total GULP energy -311814.104082 kJ/mol
# GULP energy per Si atom -5568.109001 kJ/mol
# Density = 2.344691 g / cm^3
# Si number density = 23.500401 Si / 1000 Ang^3
#
#
#
# Elastic Constant Matrix: (Units=GPa)
#
#
# Indices 1 2 3 4 5 6 
#
# 1 245.6951 28.9272 3.4226 0.0000 0.0000 0.0000
# 2 28.9272 40.2831 5.1488 0.0000 0.0000 0.0000
# 3 3.4226 5.1488 39.8348 0.0000 0.0000 0.0000
# 4 0.0000 0.0000 0.0000 2.0818 0.0000 0.0000
# 5 0.0000 0.0000 0.0000 0.0000 4.4239 0.0000
# 6 0.0000 0.0000 0.0000 0.0000 0.0000 100.9405
#
#
#
# Elastic Compliance Matrix: (Units=1/GPa)
#
#
# Indices 1 2 3 4 5 6 
#
# 1 0.004446 -0.003197 0.000031 0.000000 0.000000 0.000000
# 2 -0.003197 0.027540 -0.003285 0.000000 0.000000 0.000000
# 3 0.000031 -0.003285 0.025526 0.000000 0.000000 0.000000
# 4 0.000000 0.000000 0.000000 0.480360 0.000000 0.000000
# 5 0.000000 0.000000 0.000000 0.000000 0.226045 0.000000
# 6 0.000000 0.000000 0.000000 0.000000 0.000000 0.009907
#
#
# Mechanical properties :
#
#
# Convention : Reuss Voigt Hill
#
# Bulk Modulus (GPa) = 22.41631 44.53448 33.47540
# Shear Modulus (GPa) = 6.23757 40.71020 23.47388
#
# Velocity S-wave (km/s) = 1.63095 4.16663 3.16392
# Velocity P-wave (km/s) = 3.62023 6.49149 5.25573
#
# Compressibility (1/GPa) = 0.04461037
#
# Stress axis : x y z
#
# Youngs Moduli (GPa) = 224.92075 36.31129 39.17637
#
# Poissons Ratio (x) = 0.11607 -0.00122
# Poissons Ratio (y) = 0.71899 0.12869
# Poissons Ratio (z) = -0.00701 0.11928
#
# Static dielectric constant tensor:
#      x y z
#    x 1.950880 0.000000 0.000000 
#    y 0.000000 1.904880 0.000000 
#    z 0.000000 0.000000 1.918640 
# 
# From -- ./inp_files/7398.got.cif
#   From: 2010.05.17/outbox.cif.g08.bks.cpg/sg47_4_cif.got.tgz:7398.got - 2010.06.03 20:15:42.
