data_PCOD9386828
_publ_section_title
;
Structure prediction by ZEFSAII (Michael W. Deem and Ramdas Pophale) SiO2 
 PCOD9386828
Probable space group: P M M M
;
_chemical_formula_sum "Si O2"
_cell_formula_units_Z 48
_cell_length_a 25.134303
_cell_length_b 7.771457
_cell_length_c 14.176897
_cell_angle_alpha 90.000000
_cell_angle_beta 90.000000
_cell_angle_gamma 90.000000
_cell_volume 2769.175488
_symmetry_space_group_name_H-M "P M M M"
_symmetry_group_IT_number 47
_symmetry_cell_setting 'orthorhombic'
loop_
_space_group_symop_operation_xyz
x,y,z
-x,-y,z
x,-y,-z
-x,y,-z
-x,-y,-z
x,y,-z
-x,y,z
x,-y,z
loop_
_atom_site_type_symbol
_atom_site_label
_atom_site_fract_x
_atom_site_fract_y
_atom_site_fract_z
Si Si1 0.327497 0.292865 0.392082
Si Si2 0.218335 0.793062 0.293888
Si Si3 0.941022 0.296544 0.799860
Si Si4 0.111315 0.791431 0.605615
Si Si5 0.557253 0.704926 0.385896
Si Si6 0.832415 0.202873 0.104350
O O1 0.319426 0.230610 0.500000
O O2 0.331698 0.500000 0.396666
O O3 0.276449 0.251132 0.330304
O O4 0.384969 0.227531 0.355091
O O5 0.171089 0.735899 0.364411
O O6 0.203161 0.725143 0.189945
O O7 0.214557 0.000000 0.290898
O O8 0.940648 0.500000 0.817880
O O9 0.926761 0.267724 0.689860
O O10 0.893266 0.218611 0.860679
O O11 0.000000 0.228513 0.820332
O O12 0.098198 0.732551 0.500000
O O13 0.110169 0.000000 0.605682
O O14 0.558166 0.720825 0.500000
O O15 0.500000 0.777031 0.353374
O O16 0.556137 0.500000 0.365494
O O17 0.820354 0.000000 0.098521
O O18 0.825498 0.278004 0.000000
#
# Coordination Sequence:
#
# PCOD9386828 Si02
#       6
#     8   8   8   8   8   8
#     4   9  16  24  37  60  87 115 146 174 200 236
#     4   9  17  29  44  62  84 107 133 169 212 252
#     4  10  21  34  47  67  93 114 133 164 209 258
#     4   9  18  32  48  64  84 115 152 181 203 235
#     4   7  10  18  32  50  75 109 147 180 202 223
#     4   9  19  36  54  67  80 104 139 175 210 252
#
# _framework density 17.333677999999999
#
# number of rings (size 3 to 8) (size 9 to 14) (size 15 to 20)
#    0.000    3.167    0.000    3.500    0.000    6.333 
#    0.000    3.333    0.000    0.500    0.000    2.333 
#    0.000    0.667    0.000    8.333    0.000    0.333 
#
# Total GULP energy -267278.565431 kJ/mol
# GULP energy per Si atom -5568.303446 kJ/mol
# Density = 1.729423 g / cm^3
# Si number density = 17.333678 Si / 1000 Ang^3
#
#
#
# Elastic Constant Matrix: (Units=GPa)
#
#
# Indices 1 2 3 4 5 6 
#
# 1 124.3226 -6.7896 26.1041 0.0000 0.0000 0.0000
# 2 -6.7896 20.6224 -0.6616 0.0000 0.0000 0.0000
# 3 26.1041 -0.6616 71.5160 0.0000 0.0000 0.0000
# 4 0.0000 0.0000 0.0000 16.9428 0.0000 0.0000
# 5 0.0000 0.0000 0.0000 0.0000 8.0359 0.0000
# 6 0.0000 0.0000 0.0000 0.0000 0.0000 25.3521
#
#
#
# Elastic Compliance Matrix: (Units=1/GPa)
#
#
# Indices 1 2 3 4 5 6 
#
# 1 0.008872 0.002818 -0.003212 0.000000 0.000000 0.000000
# 2 0.002818 0.049400 -0.000572 0.000000 0.000000 0.000000
# 3 -0.003212 -0.000572 0.015150 0.000000 0.000000 0.000000
# 4 0.000000 0.000000 0.000000 0.059022 0.000000 0.000000
# 5 0.000000 0.000000 0.000000 0.000000 0.124442 0.000000
# 6 0.000000 0.000000 0.000000 0.000000 0.000000 0.039444
#
#
# Mechanical properties :
#
#
# Convention : Reuss Voigt Hill
#
# Bulk Modulus (GPa) = 13.98786 28.19630 21.09208
# Shear Modulus (GPa) = 15.52346 23.25336 19.38841
#
# Velocity S-wave (km/s) = 2.99585 3.66664 3.34809
# Velocity P-wave (km/s) = 4.47818 5.85045 5.20970
#
# Compressibility (1/GPa) = 0.07149059
#
# Stress axis : x y z
#
# Youngs Moduli (GPa) = 112.71453 20.24275 66.00608
#
# Poissons Ratio (x) = -0.05704 0.21203
# Poissons Ratio (y) = -0.31762 0.03773
# Poissons Ratio (z) = 0.36207 0.01157
#
# Static dielectric constant tensor:
#      x y z
#    x 1.623050 0.000000 0.000000 
#    y 0.000000 1.641520 0.000000 
#    z 0.000000 0.000000 1.586920 
# 
# From -- ./inp_files/7526.got.cif
#   From: 2010.05.17/outbox.cif.g08.bks.cpg/sg47_4_cif.got.tgz:7526.got - 2010.06.03 20:15:42.
