data_PCOD9386841
_publ_section_title
;
Structure prediction by ZEFSAII (Michael W. Deem and Ramdas Pophale) SiO2 
 PCOD9386841
Probable space group: P M M M
;
_chemical_formula_sum "Si O2"
_cell_formula_units_Z 64
_cell_length_a 9.726862
_cell_length_b 24.106667
_cell_length_c 14.632115
_cell_angle_alpha 90.000000
_cell_angle_beta 90.000000
_cell_angle_gamma 90.000000
_cell_volume 3430.970855
_symmetry_space_group_name_H-M "P M M M"
_symmetry_group_IT_number 47
_symmetry_cell_setting 'orthorhombic'
loop_
_space_group_symop_operation_xyz
x,y,z
-x,-y,z
x,-y,-z
-x,y,-z
-x,-y,-z
x,y,-z
-x,y,z
x,-y,z
loop_
_atom_site_type_symbol
_atom_site_label
_atom_site_fract_x
_atom_site_fract_y
_atom_site_fract_z
Si Si1 0.651536 0.437713 0.136088
Si Si2 0.661252 0.860379 0.760015
Si Si3 0.839138 0.933192 0.105220
Si Si4 0.155453 0.669360 0.391043
Si Si5 0.346253 0.244631 0.107658
Si Si6 0.165714 0.204219 0.390322
Si Si7 0.656860 0.562212 0.355167
Si Si8 0.849782 0.338868 0.106652
O O1 0.500000 0.418918 0.105723
O O2 0.674352 0.500000 0.102910
O O3 0.649497 0.440151 0.245605
O O4 0.769149 0.395844 0.110627
O O5 0.500000 0.873817 0.739980
O O6 0.743195 0.907638 0.816223
O O7 0.660501 0.809889 0.832358
O O8 0.745384 0.837905 0.671685
O O9 0.000000 0.916947 0.118617
O O10 0.832744 0.000000 0.108551
O O11 0.800972 0.916761 0.000000
O O12 0.146708 0.673998 0.500000
O O13 0.201390 0.731659 0.363272
O O14 0.250541 0.615926 0.374117
O O15 0.000000 0.659490 0.356716
O O16 0.500000 0.268509 0.113608
O O17 0.240991 0.289671 0.145709
O O18 0.321704 0.232357 0.000000
O O19 0.190242 0.197238 0.500000
O O20 0.000000 0.197757 0.375880
O O21 0.500000 0.569835 0.388995
O O22 0.704374 0.500000 0.385573
O O23 0.000000 0.342723 0.147517
O O24 0.862148 0.325198 0.000000
#
# Coordination Sequence:
#
# PCOD9386841 Si02
#       8
#     8   8   8   8   8   8   8   8
#     4   9  19  35  51  66  88 121 160 201 250 315
#     4  11  22  34  56  89 119 152 192 236 286 334
#     4   9  19  37  61  90 126 167 206 239 272 320
#     4   9  19  35  53  74 100 130 167 214 269 329
#     4   9  19  35  51  72 108 147 179 213 260 326
#     4   9  20  39  58  78 110 151 194 240 289 343
#     4   9  19  34  50  70  96 125 161 208 262 326
#     4  10  21  34  48  69  95 123 160 210 262 308
#
# _framework density 18.653611999999999
#
# number of rings (size 3 to 8) (size 9 to 14) (size 15 to 20)
#    0.000    2.625    0.000    3.000    1.750    5.250 
#    0.000    6.875    0.000    0.375    0.000    2.625 
#    0.000    0.000    0.000    0.000    0.000    0.000 
#
# Total GULP energy -356602.902114 kJ/mol
# GULP energy per Si atom -5571.920346 kJ/mol
# Density = 1.861116 g / cm^3
# Si number density = 18.653612 Si / 1000 Ang^3
#
#
#
# Elastic Constant Matrix: (Units=GPa)
#
#
# Indices 1 2 3 4 5 6 
#
# 1 103.0967 55.5920 42.9119 0.0000 0.0000 0.0000
# 2 55.5920 71.0758 30.1591 0.0000 0.0000 0.0000
# 3 42.9119 30.1591 98.8734 0.0000 0.0000 0.0000
# 4 0.0000 0.0000 0.0000 32.2164 0.0000 0.0000
# 5 0.0000 0.0000 0.0000 0.0000 21.9394 0.0000
# 6 0.0000 0.0000 0.0000 0.0000 0.0000 29.5482
#
#
#
# Elastic Compliance Matrix: (Units=1/GPa)
#
#
# Indices 1 2 3 4 5 6 
#
# 1 0.018090 -0.012426 -0.004061 0.000000 0.000000 0.000000
# 2 -0.012426 0.024697 -0.002140 0.000000 0.000000 0.000000
# 3 -0.004061 -0.002140 0.012529 0.000000 0.000000 0.000000
# 4 0.000000 0.000000 0.000000 0.031040 0.000000 0.000000
# 5 0.000000 0.000000 0.000000 0.000000 0.045580 0.000000
# 6 0.000000 0.000000 0.000000 0.000000 0.000000 0.033843
#
#
# Mechanical properties :
#
#
# Convention : Reuss Voigt Hill
#
# Bulk Modulus (GPa) = 55.36584 58.93020 57.14802
# Shear Modulus (GPa) = 23.91713 26.36633 25.14173
#
# Velocity S-wave (km/s) = 3.58463 3.76369 3.67525
# Velocity P-wave (km/s) = 6.84677 7.10968 6.97946
#
# Compressibility (1/GPa) = 0.01806168
#
# Stress axis : x y z
#
# Youngs Moduli (GPa) = 55.27764 40.49108 79.81304
#
# Poissons Ratio (x) = 0.50315 0.32413
# Poissons Ratio (y) = 0.68690 0.17081
# Poissons Ratio (z) = 0.22449 0.08665
#
# Static dielectric constant tensor:
#      x y z
#    x 1.678010 0.000000 0.000000 
#    y 0.000000 1.634660 0.000000 
#    z 0.000000 0.000000 1.680710 
# 
# From -- ./inp_files/21898.got.cif
#   From: 2010.05.17/outbox.cif.g08.bks.cpg/sg47_11_cif.got.tgz:21898.got - 2010.06.03 20:15:42.
