data_PCOD9386194
_publ_section_title
;
Structure prediction by ZEFSAII (Michael W. Deem and Ramdas Pophale) SiO2 
 PCOD9386194
Probable space group: P M M M
;
_chemical_formula_sum "Si O2"
_cell_formula_units_Z 36
_cell_length_a 9.441981
_cell_length_b 7.796525
_cell_length_c 25.584762
_cell_angle_alpha 90.000000
_cell_angle_beta 90.000000
_cell_angle_gamma 90.000000
_cell_volume 1883.413068
_symmetry_space_group_name_H-M "P M M M"
_symmetry_group_IT_number 47
_symmetry_cell_setting 'orthorhombic'
loop_
_space_group_symop_operation_xyz
x,y,z
-x,-y,z
x,-y,-z
-x,y,-z
-x,-y,-z
x,y,-z
-x,y,z
x,-y,z
loop_
_atom_site_type_symbol
_atom_site_label
_atom_site_fract_x
_atom_site_fract_y
_atom_site_fract_z
Si Si1 0.159761 0.794882 0.159492
Si Si2 0.172018 0.000000 0.559484
Si Si3 0.336255 0.208571 0.259569
Si Si4 0.832127 0.696267 0.363435
Si Si5 0.338270 0.293103 0.941257
O O1 0.255685 0.730963 0.207390
O O2 0.233982 0.761672 0.104278
O O3 0.000000 0.725649 0.161295
O O4 0.151560 0.000000 0.165812
O O5 0.212899 0.832384 0.592627
O O6 0.224408 0.000000 0.500000
O O7 0.000000 0.000000 0.557215
O O8 0.500000 0.262130 0.259185
O O9 0.254850 0.272582 0.310690
O O10 0.333269 0.000000 0.260554
O O11 0.814850 0.500000 0.380867
O O12 0.000000 0.724495 0.352675
O O13 0.500000 0.235140 0.930652
O O14 0.340104 0.500000 0.941943
O O15 0.299173 0.235391 0.000000
#
# Coordination Sequence:
#
# PCOD9386194 Si02
#       5
#     8   4   8   8   8
#     4  10  21  35  53  79 109 140 176 222 274 328
#     4   9  18  34  57  85 119 155 188 231 280 323
#     4  10  20  35  56  79 106 143 184 227 279 335
#     4  10  20  34  56  85 115 150 190 231 279 333
#     4   9  19  36  55  74 100 137 180 225 273 326
#
# _framework density 19.114235000000001
#
# number of rings (size 3 to 8) (size 9 to 14) (size 15 to 20)
#    0.000    2.333    1.111    2.000    0.000    5.333 
#    0.000    5.556    0.000    1.333    0.000    1.556 
#    0.000    0.000    0.000    0.000    0.000    0.000 
#
# Total GULP energy -200972.086532 kJ/mol
# GULP energy per Si atom -5582.557959 kJ/mol
# Density = 1.907073 g / cm^3
# Si number density = 19.114235 Si / 1000 Ang^3
#
#
#
# Elastic Constant Matrix: (Units=GPa)
#
#
# Indices 1 2 3 4 5 6 
#
# 1 115.3488 44.8752 97.8340 0.0000 0.0000 0.0000
# 2 44.8752 60.6298 47.9120 0.0000 0.0000 0.0000
# 3 97.8340 47.9120 180.1112 0.0000 0.0000 0.0000
# 4 0.0000 0.0000 0.0000 -257.6509 0.0000 0.0000
# 5 0.0000 0.0000 0.0000 0.0000 154.8503 0.0000
# 6 0.0000 0.0000 0.0000 0.0000 0.0000 19.4158
#
#
#
# Elastic Compliance Matrix: (Units=1/GPa)
#
#
# Indices 1 2 3 4 5 6 
#
# 1 0.018253 -0.007185 -0.008003 0.000000 0.000000 0.000000
# 2 -0.007185 0.023712 -0.002405 0.000000 0.000000 0.000000
# 3 -0.008003 -0.002405 0.010539 0.000000 0.000000 0.000000
# 4 0.000000 0.000000 0.000000 -0.003881 0.000000 0.000000
# 5 0.000000 0.000000 0.000000 0.000000 0.006458 0.000000
# 6 0.000000 0.000000 0.000000 0.000000 0.000000 0.051505
#
#
# Mechanical properties :
#
#
# Convention : Reuss Voigt Hill
#
# Bulk Modulus (GPa) = 57.74586 81.92578 69.83582
# Shear Modulus (GPa) = 33.88815 -5.64573 14.12121
#
# Velocity S-wave (km/s) = 4.21518 -1.72049 2.72100
# Velocity P-wave (km/s) = 7.34621 6.24559 6.81815
#
# Compressibility (1/GPa) = 0.01731726
#
# Stress axis : x y z
#
# Youngs Moduli (GPa) = 54.78623 42.17259 94.88479
#
# Poissons Ratio (x) = 0.30302 0.75939
# Poissons Ratio (y) = 0.39366 0.22818
# Poissons Ratio (z) = 0.43847 0.10142
#
# Static dielectric constant tensor:
#      x y z
#    x 1.652320 0.000000 0.000000 
#    y 0.000000 1.694680 0.000000 
#    z 0.000000 0.000000 1.626940 
# 
# From -- ./inp_files/1447.got.cif
#   From: 2010.05.17/outbox.cif.g08.bks.cpg/sg47_1_cif.got.tgz:1447.got - 2010.06.03 20:15:42.
