data_PCOD9386997
_publ_section_title
;
Structure prediction by ZEFSAII (Michael W. Deem and Ramdas Pophale) SiO2 
 PCOD9386997
Probable space group: P M M M
;
_chemical_formula_sum "Si O2"
_cell_formula_units_Z 48
_cell_length_a 35.665162
_cell_length_b 7.535944
_cell_length_c 9.399916
_cell_angle_alpha 90.000000
_cell_angle_beta 90.000000
_cell_angle_gamma 90.000000
_cell_volume 2526.421661
_symmetry_space_group_name_H-M "P M M M"
_symmetry_group_IT_number 47
_symmetry_cell_setting 'orthorhombic'
loop_
_space_group_symop_operation_xyz
x,y,z
-x,-y,z
x,-y,-z
-x,y,-z
-x,-y,-z
x,y,-z
-x,y,z
x,-y,z
loop_
_atom_site_type_symbol
_atom_site_label
_atom_site_fract_x
_atom_site_fract_y
_atom_site_fract_z
Si Si1 0.040347 0.288568 0.172188
Si Si2 0.409006 0.500000 0.330099
Si Si3 0.731450 0.790839 0.831825
Si Si4 0.878530 0.286646 0.837587
Si Si5 0.455610 0.210268 0.165787
Si Si6 0.669365 0.500000 0.169286
Si Si7 0.804368 0.212253 0.339891
O O1 0.039532 0.500000 0.201916
O O2 0.081037 0.219891 0.219488
O O3 0.000000 0.215571 0.221948
O O4 0.040992 0.270180 0.000000
O O5 0.408001 0.500000 0.500000
O O6 0.431213 0.329971 0.268978
O O7 0.367726 0.500000 0.262401
O O8 0.695371 0.671179 0.801174
O O9 0.767721 0.726272 0.745341
O O10 0.724757 0.000000 0.803002
O O11 0.739682 0.773128 0.000000
O O12 0.881755 0.500000 0.845081
O O13 0.842806 0.246952 0.742642
O O14 0.872934 0.222237 0.000000
O O15 0.500000 0.244099 0.186347
O O16 0.449344 0.000000 0.186116
O O17 0.446958 0.251975 0.000000
O O18 0.660238 0.500000 0.000000
O O19 0.805603 0.283043 0.500000
O O20 0.800586 0.000000 0.347054
#
# Coordination Sequence:
#
# PCOD9386997 Si02
#       7
#     8   4   8   8   8   4   8
#     4   7  10  19  37  62  91 119 148 188 238 287
#     4  12  25  37  54  87 128 164 196 237 295 356
#     4   9  19  37  59  80 102 132 175 228 279 323
#     4   9  17  28  46  73  98 121 155 199 245 294
#     4   9  19  38  64  90 117 157 209 258 300 343
#     4  10  22  39  59  82 108 145 193 235 274 332
#     4  10  21  35  50  70  98 131 163 199 250 310
#
# _framework density 18.999202
#
# number of rings (size 3 to 8) (size 9 to 14) (size 15 to 20)
#    0.000    2.833    0.000    3.500    1.167    4.333 
#    0.000    2.500    0.000    1.000    0.000    5.833 
#    0.000    0.000    0.000    0.000    0.000    0.000 
#
# Total GULP energy -267651.453825 kJ/mol
# GULP energy per Si atom -5576.071955 kJ/mol
# Density = 1.895596 g / cm^3
# Si number density = 18.999202 Si / 1000 Ang^3
#
#
#
# Elastic Constant Matrix: (Units=GPa)
#
#
# Indices 1 2 3 4 5 6 
#
# 1 177.0779 59.5783 110.7246 0.0000 0.0000 0.0000
# 2 59.5783 69.0077 47.6375 0.0000 0.0000 0.0000
# 3 110.7246 47.6375 104.9915 0.0000 0.0000 0.0000
# 4 0.0000 0.0000 0.0000 12.1281 0.0000 0.0000
# 5 0.0000 0.0000 0.0000 0.0000 -11.9963 0.0000
# 6 0.0000 0.0000 0.0000 0.0000 0.0000 112.5299
#
#
#
# Elastic Compliance Matrix: (Units=1/GPa)
#
#
# Indices 1 2 3 4 5 6 
#
# 1 0.017104 -0.003371 -0.016508 0.000000 0.000000 0.000000
# 2 -0.003371 0.021764 -0.006320 0.000000 0.000000 0.000000
# 3 -0.016508 -0.006320 0.029802 0.000000 0.000000 0.000000
# 4 0.000000 0.000000 0.000000 0.082453 0.000000 0.000000
# 5 0.000000 0.000000 0.000000 0.000000 -0.083359 0.000000
# 6 0.000000 0.000000 0.000000 0.000000 0.000000 0.008887
#
#
# Mechanical properties :
#
#
# Convention : Reuss Voigt Hill
#
# Bulk Modulus (GPa) = 61.45746 87.43976 74.44861
# Shear Modulus (GPa) = 37.18208 31.40812 34.29510
#
# Velocity S-wave (km/s) = 4.42864 4.07028 4.25323
# Velocity P-wave (km/s) = 7.65298 8.25908 7.96180
#
# Compressibility (1/GPa) = 0.01627142
#
# Stress axis : x y z
#
# Youngs Moduli (GPa) = 58.46672 45.94683 33.55461
#
# Poissons Ratio (x) = 0.15487 0.55393
# Poissons Ratio (y) = 0.19706 0.21208
# Poissons Ratio (z) = 0.96519 0.29041
#
# Static dielectric constant tensor:
#      x y z
#    x 1.663080 0.000000 0.000000 
#    y 0.000000 1.711130 0.000000 
#    z 0.000000 0.000000 1.636010 
# 
# From -- ./inp_files/13991.got.cif
#   From: 2010.05.17/outbox.cif.g08.bks.cpg/sg47_7_cif.got.tgz:13991.got - 2010.06.03 20:15:42.
