data_PCOD9386440
_publ_section_title
;
Structure prediction by ZEFSAII (Michael W. Deem and Ramdas Pophale) SiO2 
 PCOD9386440
Probable space group: P M M M
;
_chemical_formula_sum "Si O2"
_cell_formula_units_Z 40
_cell_length_a 9.093256
_cell_length_b 29.984021
_cell_length_c 7.914163
_cell_angle_alpha 90.000000
_cell_angle_beta 90.000000
_cell_angle_gamma 90.000000
_cell_volume 2157.815369
_symmetry_space_group_name_H-M "P M M M"
_symmetry_group_IT_number 47
_symmetry_cell_setting 'orthorhombic'
loop_
_space_group_symop_operation_xyz
x,y,z
-x,-y,z
x,-y,-z
-x,y,-z
-x,-y,-z
x,y,-z
-x,y,z
x,-y,z
loop_
_atom_site_type_symbol
_atom_site_label
_atom_site_fract_x
_atom_site_fract_y
_atom_site_fract_z
Si Si1 0.168874 0.298836 0.699777
Si Si2 0.820954 0.051000 0.500000
Si Si3 0.323733 0.612201 0.188015
Si Si4 0.320576 0.551086 0.500000
Si Si5 0.668829 0.208517 0.796105
Si Si6 0.822742 0.884380 0.196824
O O1 0.171128 0.308258 0.500000
O O2 0.250309 0.339724 0.788522
O O3 0.249057 0.252083 0.730196
O O4 0.000000 0.295677 0.756683
O O5 0.777590 0.077965 0.668816
O O6 0.000000 0.050040 0.500000
O O7 0.769126 0.000000 0.500000
O O8 0.500000 0.617826 0.204193
O O9 0.274536 0.578512 0.334262
O O10 0.292713 0.594940 0.000000
O O11 0.270217 0.500000 0.500000
O O12 0.500000 0.550239 0.500000
O O13 0.500000 0.207685 0.738173
O O14 0.750977 0.162662 0.752282
O O15 0.669458 0.211164 0.000000
O O16 0.000000 0.880102 0.203659
O O17 0.783708 0.894056 0.000000
#
# Coordination Sequence:
#
# PCOD9386440 Si02
#       6
#     8   4   8   4   8   8
#     4  11  23  36  53  79 111 147 184 222 267 319
#     4   9  18  32  52  79 106 133 174 225 270 317
#     4  10  20  35  57  83 111 145 183 222 268 321
#     4   9  18  34  56  83 114 143 176 225 276 319
#     4  10  21  36  54  78 108 142 180 221 267 320
#     4   9  18  33  53  77 107 141 176 218 267 316
#
# _framework density 18.537268000000001
#
# number of rings (size 3 to 8) (size 9 to 14) (size 15 to 20)
#    0.000    2.200    1.000    1.800    1.400    6.000 
#    0.000    4.000    0.000    2.400    0.000    4.200 
#    0.000    0.000    0.000    0.000    0.000    0.000 
#
# Total GULP energy -223275.438608 kJ/mol
# GULP energy per Si atom -5581.885965 kJ/mol
# Density = 1.849508 g / cm^3
# Si number density = 18.537268 Si / 1000 Ang^3
#
#
#
# Elastic Constant Matrix: (Units=GPa)
#
#
# Indices 1 2 3 4 5 6 
#
# 1 38.4025 40.7666 40.7021 0.0000 0.0000 0.0000
# 2 40.7666 162.2376 86.6700 0.0000 0.0000 0.0000
# 3 40.7021 86.6700 114.1537 0.0000 0.0000 0.0000
# 4 0.0000 0.0000 0.0000 -1.1862 0.0000 0.0000
# 5 0.0000 0.0000 0.0000 0.0000 9.2843 0.0000
# 6 0.0000 0.0000 0.0000 0.0000 0.0000 21.8372
#
#
#
# Elastic Compliance Matrix: (Units=1/GPa)
#
#
# Indices 1 2 3 4 5 6 
#
# 1 0.043704 -0.004470 -0.012189 0.000000 0.000000 0.000000
# 2 -0.004470 0.010827 -0.006626 0.000000 0.000000 0.000000
# 3 -0.012189 -0.006626 0.018137 0.000000 0.000000 0.000000
# 4 0.000000 0.000000 0.000000 -0.843053 0.000000 0.000000
# 5 0.000000 0.000000 0.000000 0.000000 0.107709 0.000000
# 6 0.000000 0.000000 0.000000 0.000000 0.000000 0.045793
#
#
# Mechanical properties :
#
#
# Convention : Reuss Voigt Hill
#
# Bulk Modulus (GPa) = 38.31829 72.34126 55.32977
# Shear Modulus (GPa) = -8.90295 15.76407 3.43056
#
# Velocity S-wave (km/s) = -2.19389 2.91932 1.36185
# Velocity P-wave (km/s) = 3.78131 7.10442 5.69083
#
# Compressibility (1/GPa) = 0.02609720
#
# Stress axis : x y z
#
# Youngs Moduli (GPa) = 22.88098 92.36146 55.13543
#
# Poissons Ratio (x) = 0.41289 0.67204
# Poissons Ratio (y) = 0.10229 0.36535
# Poissons Ratio (z) = 0.27889 0.61202
#
# Static dielectric constant tensor:
#      x y z
#    x 1.629170 0.000000 0.000000 
#    y 0.000000 1.594450 0.000000 
#    z 0.000000 0.000000 1.665500 
# 
# From -- ./inp_files/1798.got.cif
#   From: 2010.05.17/outbox.cif.g08.bks.cpg/sg47_1_cif.got.tgz:1798.got - 2010.06.03 20:15:42.
