data_PCOD9386475
_publ_section_title
;
Structure prediction by ZEFSAII (Michael W. Deem and Ramdas Pophale) SiO2 
 PCOD9386475
Probable space group: P M M M
;
_chemical_formula_sum "Si O2"
_cell_formula_units_Z 52
_cell_length_a 26.162888
_cell_length_b 8.376716
_cell_length_c 12.243951
_cell_angle_alpha 90.000000
_cell_angle_beta 90.000000
_cell_angle_gamma 90.000000
_cell_volume 2683.373068
_symmetry_space_group_name_H-M "P M M M"
_symmetry_group_IT_number 47
_symmetry_cell_setting 'orthorhombic'
loop_
_space_group_symop_operation_xyz
x,y,z
-x,-y,z
x,-y,-z
-x,y,-z
-x,-y,-z
x,y,-z
-x,y,z
x,-y,z
loop_
_atom_site_type_symbol
_atom_site_label
_atom_site_fract_x
_atom_site_fract_y
_atom_site_fract_z
Si Si1 0.347632 0.192086 0.875397
Si Si2 0.802014 0.815179 0.000000
Si Si3 0.558279 0.808089 0.264387
Si Si4 0.075886 0.184896 0.000000
Si Si5 0.943706 0.806602 0.242016
Si Si6 0.155102 0.693082 0.625227
Si Si7 0.438026 0.683321 0.500000
Si Si8 0.754383 0.311098 0.220995
O O1 0.401239 0.249784 0.825041
O O2 0.301573 0.238204 0.795052
O O3 0.349396 0.000000 0.880242
O O4 0.338825 0.250200 0.000000
O O5 0.862929 0.815423 0.000000
O O6 0.782362 0.728785 0.892595
O O7 0.783763 0.000000 0.000000
O O8 0.500000 0.747836 0.249579
O O9 0.576966 0.763911 0.386143
O O10 0.556231 0.000000 0.257606
O O11 0.059190 0.253458 0.883609
O O12 0.058452 0.000000 0.000000
O O13 0.895389 0.745832 0.309580
O O14 0.000000 0.764351 0.286732
O O15 0.940150 0.000000 0.239065
O O16 0.153018 0.747300 0.500000
O O17 0.156185 0.500000 0.626566
O O18 0.206917 0.749562 0.685634
O O19 0.421514 0.500000 0.500000
O O20 0.500000 0.688862 0.500000
O O21 0.748676 0.500000 0.234558
#
# Coordination Sequence:
#
# PCOD9386475 Si02
#       8
#     8   4   8   4   8   8   4   8
#     4  10  21  36  56  83 115 147 180 222 274 334
#     4  11  19  32  59  85 107 141 182 222 275 329
#     4   9  18  34  56  81 112 150 190 230 273 325
#     4   9  17  31  54  83 113 142 172 214 271 326
#     4  10  20  35  57  85 114 143 179 223 271 325
#     4  10  23  42  59  76 106 147 187 226 271 324
#     4   9  17  31  53  79 107 143 187 231 274 317
#     4  11  22  37  58  82 109 142 184 228 274 327
#
# _framework density 19.378595000000001
#
# number of rings (size 3 to 8) (size 9 to 14) (size 15 to 20)
#    0.000    2.077    2.308    1.154    0.000    4.308 
#    1.385    3.462    0.000    0.923    0.000    3.231 
#    0.000    0.000    0.000    0.000    0.000    0.000 
#
# Total GULP energy -290048.148412 kJ/mol
# GULP energy per Si atom -5577.849008 kJ/mol
# Density = 1.933449 g / cm^3
# Si number density = 19.378595 Si / 1000 Ang^3
#
#
#
# Elastic Constant Matrix: (Units=GPa)
#
#
# Indices 1 2 3 4 5 6 
#
# 1 141.1233 14.6381 72.9895 0.0000 0.0000 0.0000
# 2 14.6381 8.6097 10.5102 0.0000 0.0000 0.0000
# 3 72.9895 10.5102 130.0561 0.0000 0.0000 0.0000
# 4 0.0000 0.0000 0.0000 18.0286 0.0000 0.0000
# 5 0.0000 0.0000 0.0000 0.0000 11.2492 0.0000
# 6 0.0000 0.0000 0.0000 0.0000 0.0000 14.0452
#
#
#
# Elastic Compliance Matrix: (Units=1/GPa)
#
#
# Indices 1 2 3 4 5 6 
#
# 1 0.011072 -0.012469 -0.005206 0.000000 0.000000 0.000000
# 2 -0.012469 0.142903 -0.004551 0.000000 0.000000 0.000000
# 3 -0.005206 -0.004551 0.010978 0.000000 0.000000 0.000000
# 4 0.000000 0.000000 0.000000 0.055468 0.000000 0.000000
# 5 0.000000 0.000000 0.000000 0.000000 0.088895 0.000000
# 6 0.000000 0.000000 0.000000 0.000000 0.000000 0.071199
#
#
# Mechanical properties :
#
#
# Convention : Reuss Voigt Hill
#
# Bulk Modulus (GPa) = 8.29864 52.89608 30.59736
# Shear Modulus (GPa) = 10.74960 20.77466 15.76213
#
# Velocity S-wave (km/s) = 2.35779 3.27776 2.85507
# Velocity P-wave (km/s) = 3.42110 6.45603 5.16644
#
# Compressibility (1/GPa) = 0.12050165
#
# Stress axis : x y z
#
# Youngs Moduli (GPa) = 90.31805 6.99777 91.08726
#
# Poissons Ratio (x) = 0.08726 0.47421
# Poissons Ratio (y) = 1.12618 0.41449
# Poissons Ratio (z) = 0.47021 0.03184
#
# Static dielectric constant tensor:
#      x y z
#    x 1.690380 0.000000 0.000000 
#    y 0.000000 1.681640 0.000000 
#    z 0.000000 0.000000 1.669190 
# 
# From -- ./inp_files/19883.got.cif
#   From: 2010.05.17/outbox.cif.g08.bks.cpg/sg47_10_cif.got.tgz:19883.got - 2010.06.03 20:15:42.
