data_PCOD9386385
_publ_section_title
;
Structure prediction by ZEFSAII (Michael W. Deem and Ramdas Pophale) SiO2 
 PCOD9386385
Probable space group: P M M M
;
_chemical_formula_sum "Si O2"
_cell_formula_units_Z 33
_cell_length_a 9.066499
_cell_length_b 20.793187
_cell_length_c 9.693423
_cell_angle_alpha 90.000000
_cell_angle_beta 90.000000
_cell_angle_gamma 90.000000
_cell_volume 1827.417763
_symmetry_space_group_name_H-M "P M M M"
_symmetry_group_IT_number 47
_symmetry_cell_setting 'orthorhombic'
loop_
_space_group_symop_operation_xyz
x,y,z
-x,-y,z
x,-y,-z
-x,y,-z
-x,-y,-z
x,y,-z
-x,y,z
x,-y,z
loop_
_atom_site_type_symbol
_atom_site_label
_atom_site_fract_x
_atom_site_fract_y
_atom_site_fract_z
Si Si1 0.323702 0.867220 0.655212
Si Si2 0.837473 0.000000 0.715808
Si Si3 0.000000 0.000000 0.000000
Si Si4 0.176409 0.366667 0.663478
Si Si5 0.330656 0.500000 0.332711
Si Si6 0.678060 0.253082 0.838111
O O1 0.290743 0.843393 0.500000
O O2 0.500000 0.875264 0.665941
O O3 0.277459 0.814260 0.767066
O O4 0.248249 0.935675 0.676582
O O5 0.873395 0.000000 0.878114
O O6 0.000000 0.000000 0.650196
O O7 0.209754 0.356785 0.500000
O O8 0.246298 0.434990 0.706970
O O9 0.246106 0.310378 0.754340
O O10 0.000000 0.368505 0.678080
O O11 0.500000 0.500000 0.284254
O O12 0.333026 0.500000 0.500000
O O13 0.500000 0.258850 0.825240
O O14 0.715258 0.254288 0.000000
#
# Coordination Sequence:
#
# PCOD9386385 Si02
#       6
#     8   4   1   8   4   8
#     4  10  21  38  61  87 112 142 185 237 285 332
#     4  10  22  38  58  80 116 148 186 224 277 333
#     4   8  24  40  52  84 120 152 184 226 280 336
#     4  10  20  35  56  84 115 147 185 228 277 332
#     4   9  17  31  56  85 112 145 184 230 280 327
#     4  10  22  38  57  81 111 147 188 229 277 334
#
# _framework density 18.058268999999999
#
# number of rings (size 3 to 8) (size 9 to 14) (size 15 to 20)
#    0.364    1.818    0.000    2.545    1.697    7.273 
#    0.000    1.212    0.000    3.636    0.000    0.000 
#    0.000    0.000    0.000    0.000    0.000    0.000 
#
# Total GULP energy -183852.479683 kJ/mol
# GULP energy per Si atom -5571.287263 kJ/mol
# Density = 1.801717 g / cm^3
# Si number density = 18.058269 Si / 1000 Ang^3
#
#
#
# Elastic Constant Matrix: (Units=GPa)
#
#
# Indices 1 2 3 4 5 6 
#
# 1 54.3552 67.2364 55.9329 0.0000 0.0000 0.0000
# 2 67.2364 180.5615 78.0980 0.0000 0.0000 0.0000
# 3 55.9329 78.0980 122.2426 0.0000 0.0000 0.0000
# 4 0.0000 0.0000 0.0000 4.0347 0.0000 0.0000
# 5 0.0000 0.0000 0.0000 0.0000 27.9360 0.0000
# 6 0.0000 0.0000 0.0000 0.0000 0.0000 -102.7080
#
#
#
# Elastic Compliance Matrix: (Units=1/GPa)
#
#
# Indices 1 2 3 4 5 6 
#
# 1 0.047241 -0.011389 -0.014339 0.000000 0.000000 0.000000
# 2 -0.011389 0.010399 -0.001432 0.000000 0.000000 0.000000
# 3 -0.014339 -0.001432 0.015657 0.000000 0.000000 0.000000
# 4 0.000000 0.000000 0.000000 0.247848 0.000000 0.000000
# 5 0.000000 0.000000 0.000000 0.000000 0.035796 0.000000
# 6 0.000000 0.000000 0.000000 0.000000 0.000000 -0.009736
#
#
# Mechanical properties :
#
#
# Convention : Reuss Voigt Hill
#
# Bulk Modulus (GPa) = 52.70095 84.41045 68.55570
# Shear Modulus (GPa) = 12.25938 -3.75466 4.25236
#
# Velocity S-wave (km/s) = 2.60836 -1.44350 1.53620
# Velocity P-wave (km/s) = 6.19020 6.63827 6.41814
#
# Compressibility (1/GPa) = 0.01897499
#
# Stress axis : x y z
#
# Youngs Moduli (GPa) = 21.16796 96.16394 63.87110
#
# Poissons Ratio (x) = 1.09524 0.91586
# Poissons Ratio (y) = 0.24109 0.09149
# Poissons Ratio (z) = 0.30353 0.13774
#
# Static dielectric constant tensor:
#      x y z
#    x 1.608710 0.000000 0.000000 
#    y 0.000000 1.588260 0.000000 
#    z 0.000000 0.000000 1.614390 
# 
# From -- ./inp_files/1180.got.cif
#   From: 2010.05.17/outbox.cif.g08.bks.cpg/sg47_1_cif.got.tgz:1180.got - 2010.06.03 20:15:42.
