data_PCOD9386852
_publ_section_title
;
Structure prediction by ZEFSAII (Michael W. Deem and Ramdas Pophale) SiO2 
 PCOD9386852
Probable space group: P M M M
;
_chemical_formula_sum "Si O2"
_cell_formula_units_Z 64
_cell_length_a 15.036333
_cell_length_b 24.898205
_cell_length_c 7.441926
_cell_angle_alpha 90.000000
_cell_angle_beta 90.000000
_cell_angle_gamma 90.000000
_cell_volume 2786.091150
_symmetry_space_group_name_H-M "P M M M"
_symmetry_group_IT_number 47
_symmetry_cell_setting 'orthorhombic'
loop_
_space_group_symop_operation_xyz
x,y,z
-x,-y,z
x,-y,-z
-x,y,-z
-x,-y,-z
x,y,-z
-x,y,z
x,-y,z
loop_
_atom_site_type_symbol
_atom_site_label
_atom_site_fract_x
_atom_site_fract_y
_atom_site_fract_z
Si Si1 0.397910 0.226733 0.281740
Si Si2 0.099323 0.718330 0.709970
Si Si3 0.294935 0.440043 0.296718
Si Si4 0.601013 0.894609 0.282913
Si Si5 0.281109 0.673039 0.721548
Si Si6 0.214292 0.941687 0.210657
Si Si7 0.897150 0.159075 0.216857
Si Si8 0.094830 0.435500 0.208685
O O1 0.394194 0.225986 0.500000
O O2 0.500000 0.236777 0.231145
O O3 0.375495 0.166217 0.222841
O O4 0.335553 0.274677 0.220982
O O5 0.092964 0.704878 0.500000
O O6 0.179558 0.682846 0.783547
O O7 0.126744 0.781024 0.720906
O O8 0.000000 0.713521 0.789141
O O9 0.329481 0.443103 0.500000
O O10 0.307444 0.500000 0.215922
O O11 0.324501 0.383193 0.215866
O O12 0.188580 0.428647 0.304202
O O13 0.599725 0.894910 0.500000
O O14 0.500000 0.907084 0.223919
O O15 0.680104 0.932888 0.224582
O O16 0.281711 0.671981 0.500000
O O17 0.164650 0.889124 0.284913
O O18 0.190152 0.000000 0.287648
O O19 0.190821 0.943032 0.000000
O O20 0.000000 0.149551 0.268252
O O21 0.892793 0.160709 0.000000
O O22 0.086647 0.500000 0.209878
O O23 0.000000 0.413776 0.280114
O O24 0.102602 0.419606 0.000000
#
# Coordination Sequence:
#
# PCOD9386852 Si02
#       8
#     8   8   8   8   8   8   8   8
#     4   8  14  26  46  70  90 110 143 185 226 269
#     4   9  17  29  46  67  89 115 149 188 231 278
#     4   9  17  27  39  58  84 113 144 177 214 258
#     4   9  18  33  53  75  96 119 151 192 235 277
#     4   9  16  26  42  63  88 117 145 179 224 269
#     4  10  21  34  48  70  99 130 162 191 222 267
#     4   9  18  33  51  69  92 123 158 197 236 269
#     4   8  14  25  39  53  72 102 140 178 211 244
#
# _framework density 22.971253000000001
#
# number of rings (size 3 to 8) (size 9 to 14) (size 15 to 20)
#    0.000    3.125    0.000    1.875    0.000    3.250 
#    0.000    5.625    0.000    2.625    0.000    5.250 
#    0.000    0.000    0.000    3.125    0.000    3.250 
#
# Total GULP energy -356935.837358 kJ/mol
# GULP energy per Si atom -5577.122459 kJ/mol
# Density = 2.291897 g / cm^3
# Si number density = 22.971253 Si / 1000 Ang^3
#
#
#
# Elastic Constant Matrix: (Units=GPa)
#
#
# Indices 1 2 3 4 5 6 
#
# 1 30.9098 41.4099 -3.8818 0.0000 0.0000 0.0000
# 2 41.4099 141.0805 -1.3500 0.0000 0.0000 0.0000
# 3 -3.8818 -1.3500 70.7790 0.0000 0.0000 0.0000
# 4 0.0000 0.0000 0.0000 11.2876 0.0000 0.0000
# 5 0.0000 0.0000 0.0000 0.0000 5.5858 0.0000
# 6 0.0000 0.0000 0.0000 0.0000 0.0000 2.5345
#
#
#
# Elastic Compliance Matrix: (Units=1/GPa)
#
#
# Indices 1 2 3 4 5 6 
#
# 1 0.053811 -0.015769 0.002650 0.000000 0.000000 0.000000
# 2 -0.015769 0.011711 -0.000641 0.000000 0.000000 0.000000
# 3 0.002650 -0.000641 0.014262 0.000000 0.000000 0.000000
# 4 0.000000 0.000000 0.000000 0.088593 0.000000 0.000000
# 5 0.000000 0.000000 0.000000 0.000000 0.179025 0.000000
# 6 0.000000 0.000000 0.000000 0.000000 0.000000 0.394562
#
#
# Mechanical properties :
#
#
# Convention : Reuss Voigt Hill
#
# Bulk Modulus (GPa) = 19.13409 35.01395 27.07402
# Shear Modulus (GPa) = 6.35402 17.65432 12.00417
#
# Velocity S-wave (km/s) = 1.66496 2.77526 2.28847
# Velocity P-wave (km/s) = 3.47041 5.05421 4.33525
#
# Compressibility (1/GPa) = 0.05226274
#
# Stress axis : x y z
#
# Youngs Moduli (GPa) = 18.58354 85.39271 70.11826
#
# Poissons Ratio (x) = 1.34658 -0.18585
# Poissons Ratio (y) = 0.29305 0.04498
# Poissons Ratio (z) = -0.04926 0.05478
#
# Static dielectric constant tensor:
#      x y z
#    x 1.864810 0.000000 0.000000 
#    y 0.000000 1.896210 0.000000 
#    z 0.000000 0.000000 1.913990 
# 
# From -- ./inp_files/7804.got.cif
#   From: 2010.05.17/outbox.cif.g08.bks.cpg/sg47_4_cif.got.tgz:7804.got - 2010.06.03 20:15:42.
