data_PCOD9386296
_publ_section_title
;
Structure prediction by ZEFSAII (Michael W. Deem and Ramdas Pophale) SiO2 
 PCOD9386296
Probable space group: P M M M
;
_chemical_formula_sum "Si O2"
_cell_formula_units_Z 40
_cell_length_a 20.766414
_cell_length_b 8.301203
_cell_length_c 12.964075
_cell_angle_alpha 90.000000
_cell_angle_beta 90.000000
_cell_angle_gamma 90.000000
_cell_volume 2234.827862
_symmetry_space_group_name_H-M "P M M M"
_symmetry_group_IT_number 47
_symmetry_cell_setting 'orthorhombic'
loop_
_space_group_symop_operation_xyz
x,y,z
-x,-y,z
x,-y,-z
-x,y,-z
-x,-y,-z
x,y,-z
-x,y,z
x,-y,z
loop_
_atom_site_type_symbol
_atom_site_label
_atom_site_fract_x
_atom_site_fract_y
_atom_site_fract_z
Si Si1 0.247238 0.193601 0.273282
Si Si2 0.394216 0.692935 0.275078
Si Si3 0.500000 0.807658 0.117497
Si Si4 0.862357 0.805634 0.881104
Si Si5 0.741974 0.806720 0.500000
Si Si6 0.598019 0.311975 0.500000
Si Si7 0.000000 0.307766 0.120237
O O1 0.319820 0.257528 0.261371
O O2 0.196289 0.253609 0.189477
O O3 0.225199 0.229340 0.390892
O O4 0.250794 0.000000 0.263536
O O5 0.397575 0.500000 0.279515
O O6 0.438109 0.752513 0.182327
O O7 0.419659 0.755920 0.387284
O O8 0.500000 0.000000 0.113592
O O9 0.500000 0.745448 0.000000
O O10 0.932131 0.755044 0.837849
O O11 0.860421 0.000000 0.882880
O O12 0.856458 0.748384 0.000000
O O13 0.675410 0.708420 0.500000
O O14 0.726891 0.000000 0.500000
O O15 0.579570 0.500000 0.500000
O O16 0.000000 0.500000 0.123255
O O17 0.000000 0.253348 0.000000
#
# Coordination Sequence:
#
# PCOD9386296 Si02
#       7
#     8   8   4   8   4   4   4
#     4   9  17  30  49  73  99 127 160 196 235 280
#     4  10  20  35  55  77 101 128 161 201 244 291
#     4  11  25  42  55  68  94 133 170 203 244 293
#     4   9  17  29  46  68  94 124 156 191 235 285
#     4   8  14  26  45  68  95 126 159 194 229 272
#     4   8  16  31  51  76 102 125 151 192 246 293
#     4   9  17  29  45  66  93 122 154 195 238 279
#
# _framework density 17.898472000000002
#
# number of rings (size 3 to 8) (size 9 to 14) (size 15 to 20)
#    0.000    2.800    0.000    1.200    0.000    4.800 
#    0.000    4.000    0.000    0.600    0.000    4.200 
#    0.000    0.000    0.000    0.000    0.000    0.000 
#
# Total GULP energy -222778.380899 kJ/mol
# GULP energy per Si atom -5569.459522 kJ/mol
# Density = 1.785773 g / cm^3
# Si number density = 17.898472 Si / 1000 Ang^3
#
#
#
# Elastic Constant Matrix: (Units=GPa)
#
#
# Indices 1 2 3 4 5 6 
#
# 1 121.3736 16.1929 85.9079 0.0000 0.0000 0.0000
# 2 16.1929 13.0191 21.6430 0.0000 0.0000 0.0000
# 3 85.9079 21.6430 150.9611 0.0000 0.0000 0.0000
# 4 0.0000 0.0000 0.0000 15.0335 0.0000 0.0000
# 5 0.0000 0.0000 0.0000 0.0000 -48.6809 0.0000
# 6 0.0000 0.0000 0.0000 0.0000 0.0000 75.5744
#
#
#
# Elastic Compliance Matrix: (Units=1/GPa)
#
#
# Indices 1 2 3 4 5 6 
#
# 1 0.014090 -0.005508 -0.007229 0.000000 0.000000 0.000000
# 2 -0.005508 0.102999 -0.011632 0.000000 0.000000 0.000000
# 3 -0.007229 -0.011632 0.012406 0.000000 0.000000 0.000000
# 4 0.000000 0.000000 0.000000 0.066518 0.000000 0.000000
# 5 0.000000 0.000000 0.000000 0.000000 -0.020542 0.000000
# 6 0.000000 0.000000 0.000000 0.000000 0.000000 0.013232
#
#
# Mechanical properties :
#
#
# Convention : Reuss Voigt Hill
#
# Bulk Modulus (GPa) = 12.38289 59.20459 35.79374
# Shear Modulus (GPa) = 18.91357 19.15938 19.03647
#
# Velocity S-wave (km/s) = 3.25424 3.27532 3.26480
# Velocity P-wave (km/s) = 4.58841 6.88865 5.85265
#
# Compressibility (1/GPa) = 0.08075658
#
# Stress axis : x y z
#
# Youngs Moduli (GPa) = 70.97031 9.70884 80.60868
#
# Poissons Ratio (x) = 0.05348 0.58270
# Poissons Ratio (y) = 0.39092 0.93766
# Poissons Ratio (z) = 0.51303 0.11294
#
# Static dielectric constant tensor:
#      x y z
#    x 1.599030 0.000000 0.000000 
#    y 0.000000 1.616390 0.000000 
#    z 0.000000 0.000000 1.653970 
# 
# From -- ./inp_files/4149.got.cif
#   From: 2010.05.17/outbox.cif.g08.bks.cpg/sg47_3_cif.got.tgz:4149.got - 2010.06.03 20:15:42.
