data_PCOD9386685
_publ_section_title
;
Structure prediction by ZEFSAII (Michael W. Deem and Ramdas Pophale) SiO2 
 PCOD9386685
Probable space group: P M M M
;
_chemical_formula_sum "Si O2"
_cell_formula_units_Z 38
_cell_length_a 25.643835
_cell_length_b 7.481196
_cell_length_c 9.965337
_cell_angle_alpha 90.000000
_cell_angle_beta 90.000000
_cell_angle_gamma 90.000000
_cell_volume 1911.815581
_symmetry_space_group_name_H-M "P M M M"
_symmetry_group_IT_number 47
_symmetry_cell_setting 'orthorhombic'
loop_
_space_group_symop_operation_xyz
x,y,z
-x,-y,z
x,-y,-z
-x,y,-z
-x,-y,-z
x,y,-z
-x,y,z
x,-y,z
loop_
_atom_site_type_symbol
_atom_site_label
_atom_site_fract_x
_atom_site_fract_y
_atom_site_fract_z
Si Si1 0.240149 0.717193 0.844496
Si Si2 0.500000 0.500000 0.000000
Si Si3 0.581094 0.500000 0.252444
Si Si4 0.060071 0.784501 0.000000
Si Si5 0.128298 0.705976 0.254156
Si Si6 0.500000 0.500000 0.500000
Si Si7 0.661491 0.792955 0.657981
Si Si8 0.060314 0.719980 0.500000
O O1 0.239524 0.500000 0.847262
O O2 0.184258 0.781812 0.788494
O O3 0.285412 0.773861 0.742698
O O4 0.247667 0.774682 0.000000
O O5 0.545954 0.500000 0.880823
O O6 0.544674 0.500000 0.382446
O O7 0.618798 0.328967 0.268653
O O8 0.090864 0.713744 0.872879
O O9 0.000000 0.729399 0.000000
O O10 0.062147 0.000000 0.000000
O O11 0.138932 0.500000 0.291741
O O12 0.093853 0.783037 0.373438
O O13 0.667797 0.740362 0.500000
O O14 0.645294 0.000000 0.659260
O O15 0.058428 0.500000 0.500000
O O16 0.000000 0.777778 0.500000
#
# Coordination Sequence:
#
# PCOD9386685 Si02
#       8
#     8   1   4   4   8   1   8   4
#     4  10  21  37  60  90 123 161 206 257 321 387
#     4  10  28  42  78 102 140 180 228 250 316 370
#     4  11  22  48  68 104 136 176 213 270 306 364
#     4  11  23  37  54  77 109 153 200 248 310 382
#     4  10  20  37  59  84 112 147 196 252 312 375
#     4  10  20  42  78  90 128 184 208 250 336 330
#     4  11  24  41  67  99 131 173 220 261 316 378
#     4   9  18  32  54  85 111 140 190 253 311 370
#
# _framework density 19.876394999999999
#
# number of rings (size 3 to 8) (size 9 to 14) (size 15 to 20)
#    0.000    1.684    3.158    0.947    2.947    2.947 
#    0.000    3.684    0.000    1.895    0.000    0.000 
#    0.000    0.000    0.000    0.000    0.000    0.000 
#
# Total GULP energy -211611.456885 kJ/mol
# GULP energy per Si atom -5568.722550 kJ/mol
# Density = 1.983116 g / cm^3
# Si number density = 19.876395 Si / 1000 Ang^3
#
#
#
# Elastic Constant Matrix: (Units=GPa)
#
#
# Indices 1 2 3 4 5 6 
#
# 1 196.1051 31.2770 102.7154 0.0000 0.0000 0.0000
# 2 31.2770 77.0298 18.4820 0.0000 0.0000 0.0000
# 3 102.7154 18.4820 208.6941 0.0000 0.0000 0.0000
# 4 0.0000 0.0000 0.0000 8.8327 0.0000 0.0000
# 5 0.0000 0.0000 0.0000 0.0000 15.0613 0.0000
# 6 0.0000 0.0000 0.0000 0.0000 0.0000 -23.7421
#
#
#
# Elastic Compliance Matrix: (Units=1/GPa)
#
#
# Indices 1 2 3 4 5 6 
#
# 1 0.007193 -0.002116 -0.003353 0.000000 0.000000 0.000000
# 2 -0.002116 0.013886 -0.000188 0.000000 0.000000 0.000000
# 3 -0.003353 -0.000188 0.006459 0.000000 0.000000 0.000000
# 4 0.000000 0.000000 0.000000 0.113216 0.000000 0.000000
# 5 0.000000 0.000000 0.000000 0.000000 0.066395 0.000000
# 6 0.000000 0.000000 0.000000 0.000000 0.000000 -0.042119
#
#
# Mechanical properties :
#
#
# Convention : Reuss Voigt Hill
#
# Bulk Modulus (GPa) = 61.63917 87.41976 74.52946
# Shear Modulus (GPa) = 27.51001 21.98735 24.74868
#
# Velocity S-wave (km/s) = 3.72432 3.32957 3.53247
# Velocity P-wave (km/s) = 7.04079 7.67193 7.36313
#
# Compressibility (1/GPa) = 0.01622345
#
# Stress axis : x y z
#
# Youngs Moduli (GPa) = 139.02501 72.01292 154.83285
#
# Poissons Ratio (x) = 0.15239 0.51913
# Poissons Ratio (y) = 0.29420 0.02915
# Poissons Ratio (z) = 0.46613 0.01356
#
# Static dielectric constant tensor:
#      x y z
#    x 1.669960 0.000000 0.000000 
#    y 0.000000 1.772920 0.000000 
#    z 0.000000 0.000000 1.635450 
# 
# From -- ./inp_files/12231.got.cif
#   From: 2010.05.17/outbox.cif.g08.bks.cpg/sg47_7_cif.got.tgz:12231.got - 2010.06.03 20:15:42.
