data_PCOD9386502
_publ_section_title
;
Structure prediction by ZEFSAII (Michael W. Deem and Ramdas Pophale) SiO2 
 PCOD9386502
Probable space group: P M M M
;
_chemical_formula_sum "Si O2"
_cell_formula_units_Z 64
_cell_length_a 16.131121
_cell_length_b 24.334086
_cell_length_c 7.811772
_cell_angle_alpha 90.000000
_cell_angle_beta 90.000000
_cell_angle_gamma 90.000000
_cell_volume 3066.402403
_symmetry_space_group_name_H-M "P M M M"
_symmetry_group_IT_number 47
_symmetry_cell_setting 'orthorhombic'
loop_
_space_group_symop_operation_xyz
x,y,z
-x,-y,z
x,-y,-z
-x,y,-z
-x,-y,-z
x,y,-z
-x,y,z
x,-y,z
loop_
_atom_site_type_symbol
_atom_site_label
_atom_site_fract_x
_atom_site_fract_y
_atom_site_fract_z
Si Si1 0.249550 0.760690 0.801706
Si Si2 0.248613 0.635955 0.701926
Si Si3 0.588964 0.179752 0.797718
Si Si4 0.358238 0.939342 0.706713
Si Si5 0.836971 0.060139 0.291474
Si Si6 0.093683 0.436513 0.708872
Si Si7 0.090212 0.173930 0.703995
Si Si8 0.593484 0.436348 0.207076
O O1 0.256587 0.695607 0.783973
O O2 0.329893 0.790836 0.722489
O O3 0.163531 0.783247 0.730904
O O4 0.247844 0.776226 0.000000
O O5 0.236281 0.644645 0.500000
O O6 0.168522 0.602129 0.767780
O O7 0.332016 0.600957 0.728165
O O8 0.500000 0.196941 0.723798
O O9 0.598297 0.114302 0.778406
O O10 0.587150 0.192819 0.000000
O O11 0.364963 0.937394 0.500000
O O12 0.260529 0.935266 0.750799
O O13 0.387687 0.000000 0.761866
O O14 0.841338 0.060085 0.500000
O O15 0.883863 0.113870 0.227221
O O16 0.867049 0.000000 0.233906
O O17 0.094849 0.436136 0.500000
O O18 0.107143 0.500000 0.761199
O O19 0.000000 0.420225 0.760935
O O20 0.083955 0.167528 0.500000
O O21 0.000000 0.190958 0.770435
O O22 0.500000 0.419776 0.260830
O O23 0.605852 0.500000 0.259096
O O24 0.595005 0.434780 0.000000
#
# Coordination Sequence:
#
# PCOD9386502 Si02
#       8
#     8   8   8   8   8   8   8   8
#     4  11  24  41  57  75 106 149 192 235 282 334
#     4  11  22  35  57  87 115 145 188 240 286 329
#     4  10  22  39  57  76 100 137 185 232 277 327
#     4   9  17  31  54  82 110 138 169 213 272 335
#     4   8  14  27  50  80 111 138 167 212 272 335
#     4   8  15  30  53  82 115 146 174 210 263 323
#     4  10  20  35  58  84 109 141 183 231 280 331
#     4   9  19  37  60  86 119 158 193 225 271 334
#
# _framework density 20.871364
#
# number of rings (size 3 to 8) (size 9 to 14) (size 15 to 20)
#    0.000    2.500    1.250    2.625    0.000    3.750 
#    0.000    5.625    0.000    1.500    0.000    5.250 
#    0.000    0.000    0.000    0.000    0.000    0.000 
#
# Total GULP energy -357172.035854 kJ/mol
# GULP energy per Si atom -5580.813060 kJ/mol
# Density = 2.082386 g / cm^3
# Si number density = 20.871364 Si / 1000 Ang^3
#
#
#
# Elastic Constant Matrix: (Units=GPa)
#
#
# Indices 1 2 3 4 5 6 
#
# 1 161.3102 73.7184 0.0700 0.0000 0.0000 0.0000
# 2 73.7184 90.1158 -12.8037 0.0000 0.0000 0.0000
# 3 0.0700 -12.8037 21.2602 0.0000 0.0000 0.0000
# 4 0.0000 0.0000 0.0000 9.6436 0.0000 0.0000
# 5 0.0000 0.0000 0.0000 0.0000 21.1915 0.0000
# 6 0.0000 0.0000 0.0000 0.0000 0.0000 -15.7146
#
#
#
# Elastic Compliance Matrix: (Units=1/GPa)
#
#
# Indices 1 2 3 4 5 6 
#
# 1 0.010495 -0.009394 -0.005692 0.000000 0.000000 0.000000
# 2 -0.009394 0.020544 0.012403 0.000000 0.000000 0.000000
# 3 -0.005692 0.012403 0.054525 0.000000 0.000000 0.000000
# 4 0.000000 0.000000 0.000000 0.103695 0.000000 0.000000
# 5 0.000000 0.000000 0.000000 0.000000 0.047189 0.000000
# 6 0.000000 0.000000 0.000000 0.000000 0.000000 -0.063635
#
#
# Mechanical properties :
#
#
# Convention : Reuss Voigt Hill
#
# Bulk Modulus (GPa) = 12.46916 43.85061 28.15989
# Shear Modulus (GPa) = 24.40100 17.13753 20.76926
#
# Velocity S-wave (km/s) = 3.42294 2.86860 3.15796
# Velocity P-wave (km/s) = 4.64858 5.65927 5.17864
#
# Compressibility (1/GPa) = 0.08019787
#
# Stress axis : x y z
#
# Youngs Moduli (GPa) = 95.28689 48.67711 18.34031
#
# Poissons Ratio (x) = 0.45726 0.10439
# Poissons Ratio (y) = 0.89510 -0.22748
# Poissons Ratio (z) = 0.54236 -0.60375
#
# Static dielectric constant tensor:
#      x y z
#    x 1.777110 0.000000 0.000000 
#    y 0.000000 1.711490 0.000000 
#    z 0.000000 0.000000 1.780470 
# 
# From -- ./inp_files/7825.got.cif
#   From: 2010.05.17/outbox.cif.g08.bks.cpg/sg47_4_cif.got.tgz:7825.got - 2010.06.03 20:15:42.
