data_PCOD9386726
_publ_section_title
;
Structure prediction by ZEFSAII (Michael W. Deem and Ramdas Pophale) SiO2 
 PCOD9386726
Probable space group: P M M M
;
_chemical_formula_sum "Si O2"
_cell_formula_units_Z 49
_cell_length_a 31.993284
_cell_length_b 9.737556
_cell_length_c 7.669194
_cell_angle_alpha 90.000000
_cell_angle_beta 90.000000
_cell_angle_gamma 90.000000
_cell_volume 2389.233048
_symmetry_space_group_name_H-M "P M M M"
_symmetry_group_IT_number 47
_symmetry_cell_setting 'orthorhombic'
loop_
_space_group_symop_operation_xyz
x,y,z
-x,-y,z
x,-y,-z
-x,y,-z
-x,-y,-z
x,y,-z
-x,y,z
x,-y,z
loop_
_atom_site_type_symbol
_atom_site_label
_atom_site_fract_x
_atom_site_fract_y
_atom_site_fract_z
Si Si1 0.259619 0.343019 0.707635
Si Si2 0.000000 0.158484 0.285912
Si Si3 0.077221 0.657459 0.707497
Si Si4 0.168548 0.343314 0.207573
Si Si5 0.587606 0.346762 0.288998
Si Si6 0.500000 0.000000 0.500000
Si Si7 0.500000 0.228897 0.806380
Si Si8 0.336224 0.842510 0.286272
O O1 0.265401 0.353126 0.500000
O O2 0.261351 0.500000 0.778121
O O3 0.213129 0.283789 0.737622
O O4 0.296419 0.245899 0.773876
O O5 0.959165 0.243153 0.227329
O O6 0.000000 0.157139 0.500000
O O7 0.000000 0.000000 0.229992
O O8 0.071465 0.647024 0.500000
O O9 0.074885 0.500000 0.777778
O O10 0.123839 0.715234 0.737978
O O11 0.168593 0.500000 0.279431
O O12 0.168603 0.348959 0.000000
O O13 0.584838 0.339762 0.500000
O O14 0.602136 0.500000 0.243086
O O15 0.541974 0.317409 0.215620
O O16 0.621323 0.233912 0.232884
O O17 0.500000 0.881491 0.652812
O O18 0.500000 0.168080 0.000000
O O19 0.335859 0.843125 0.500000
O O20 0.334772 0.000000 0.229284
#
# Coordination Sequence:
#
# PCOD9386726 Si02
#       8
#     8   4   8   8   8   1   4   8
#     4   9  16  29  50  76 102 132 176 225 270 323
#     4   9  17  29  46  69  96 122 154 195 244 294
#     4   9  16  28  48  72  94 120 156 200 244 293
#     4   9  17  29  47  71  97 126 163 208 259 310
#     4  10  20  37  62  90 123 162 201 248 302 351
#     4  12  26  48  66  94 136 168 200 256 308 362
#     4  12  26  42  68  97 126 167 211 250 301 363
#     4   9  18  31  53  81 112 149 192 234 282 342
#
# _framework density 20.508673000000002
#
# number of rings (size 3 to 8) (size 9 to 14) (size 15 to 20)
#    0.000    2.531    0.816    1.592    1.143    6.204 
#    0.000    2.041    0.000   11.265    0.000    0.000 
#    0.000    0.000    0.000    0.000    0.000    0.000 
#
# Total GULP energy -273113.056269 kJ/mol
# GULP energy per Si atom -5573.735842 kJ/mol
# Density = 2.046199 g / cm^3
# Si number density = 20.508673 Si / 1000 Ang^3
#
#
#
# Elastic Constant Matrix: (Units=GPa)
#
#
# Indices 1 2 3 4 5 6 
#
# 1 203.9781 91.5776 0.5862 0.0000 0.0000 0.0000
# 2 91.5776 122.7388 16.8899 0.0000 0.0000 0.0000
# 3 0.5862 16.8899 59.3709 0.0000 0.0000 0.0000
# 4 0.0000 0.0000 0.0000 -11.6714 0.0000 0.0000
# 5 0.0000 0.0000 0.0000 0.0000 -107.4130 0.0000
# 6 0.0000 0.0000 0.0000 0.0000 0.0000 56.2708
#
#
#
# Elastic Compliance Matrix: (Units=1/GPa)
#
#
# Indices 1 2 3 4 5 6 
#
# 1 0.007512 -0.005823 0.001582 0.000000 0.000000 0.000000
# 2 -0.005823 0.012992 -0.003639 0.000000 0.000000 0.000000
# 3 0.001582 -0.003639 0.017863 0.000000 0.000000 0.000000
# 4 0.000000 0.000000 0.000000 -0.085679 0.000000 0.000000
# 5 0.000000 0.000000 0.000000 0.000000 -0.009310 0.000000
# 6 0.000000 0.000000 0.000000 0.000000 0.000000 0.017771
#
#
# Mechanical properties :
#
#
# Convention : Reuss Voigt Hill
#
# Bulk Modulus (GPa) = 44.22956 67.13280 55.68118
# Shear Modulus (GPa) = -321.41214 5.90621 -157.75296
#
# Velocity S-wave (km/s) = -12.53237 1.69886 -8.77993
# Velocity P-wave (km/s) = 13.70404 6.05418 8.69332
#
# Compressibility (1/GPa) = 0.02260931
#
# Stress axis : x y z
#
# Youngs Moduli (GPa) = 133.11955 76.96789 55.98241
#
# Poissons Ratio (x) = 0.44815 -0.08858
# Poissons Ratio (y) = 0.77510 0.20370
# Poissons Ratio (z) = -0.21063 0.28006
#
# Static dielectric constant tensor:
#      x y z
#    x 1.734080 0.000000 0.000000 
#    y 0.000000 1.710540 0.000000 
#    z 0.000000 0.000000 1.737510 
# 
# From -- ./inp_files/14049.got.cif
#   From: 2010.05.17/outbox.cif.g08.bks.cpg/sg47_8_cif.got.tgz:14049.got - 2010.06.03 20:15:42.
