data_PCOD9386520
_publ_section_title
;
Structure prediction by ZEFSAII (Michael W. Deem and Ramdas Pophale) SiO2 
 PCOD9386520
Probable space group: P M M M
;
_chemical_formula_sum "Si O2"
_cell_formula_units_Z 40
_cell_length_a 7.996114
_cell_length_b 27.976812
_cell_length_c 9.470520
_cell_angle_alpha 90.000000
_cell_angle_beta 90.000000
_cell_angle_gamma 90.000000
_cell_volume 2118.610046
_symmetry_space_group_name_H-M "P M M M"
_symmetry_group_IT_number 47
_symmetry_cell_setting 'orthorhombic'
loop_
_space_group_symop_operation_xyz
x,y,z
-x,-y,z
x,-y,-z
-x,y,-z
-x,-y,-z
x,y,-z
-x,y,z
x,-y,z
loop_
_atom_site_type_symbol
_atom_site_label
_atom_site_fract_x
_atom_site_fract_y
_atom_site_fract_z
Si Si1 0.312061 0.379999 0.331655
Si Si2 0.699021 0.801720 0.662901
Si Si3 0.197044 0.710841 0.162825
Si Si4 0.000000 0.445411 0.671689
Si Si5 0.202174 0.907999 0.662587
Si Si6 0.204838 0.000000 0.161970
O O1 0.292339 0.371115 0.500000
O O2 0.500000 0.398784 0.309121
O O3 0.289439 0.330495 0.249338
O O4 0.166383 0.416439 0.286824
O O5 0.759367 0.796906 0.500000
O O6 0.500000 0.795144 0.662719
O O7 0.776368 0.761492 0.761527
O O8 0.739112 0.855699 0.709698
O O9 0.000000 0.699466 0.165915
O O10 0.252310 0.712608 0.000000
O O11 0.000000 0.500000 0.722215
O O12 0.000000 0.446788 0.500000
O O13 0.257001 0.914667 0.500000
O O14 0.000000 0.907852 0.663629
O O15 0.259528 0.952153 0.757334
O O16 0.000000 0.000000 0.164314
O O17 0.258049 0.000000 0.000000
#
# Coordination Sequence:
#
# PCOD9386520 Si02
#       6
#     8   8   8   4   8   4
#     4  10  20  35  58  86 115 151 192 233 282 338
#     4  10  21  36  54  78 107 139 177 222 274 331
#     4  11  23  37  55  80 110 146 186 228 277 333
#     4   9  18  34  57  87 121 153 189 238 287 328
#     4   9  17  31  51  73  97 129 169 213 263 320
#     4   9  17  29  48  73  98 126 166 217 266 315
#
# _framework density 18.880303000000001
#
# number of rings (size 3 to 8) (size 9 to 14) (size 15 to 20)
#    0.000    2.200    1.000    2.100    0.000    7.600 
#    0.000    4.500    0.000    4.200    0.000    1.400 
#    0.000    0.000    0.000    0.000    0.000    0.000 
#
# Total GULP energy -223316.503377 kJ/mol
# GULP energy per Si atom -5582.912584 kJ/mol
# Density = 1.883733 g / cm^3
# Si number density = 18.880303 Si / 1000 Ang^3
#
#
#
# Elastic Constant Matrix: (Units=GPa)
#
#
# Indices 1 2 3 4 5 6 
#
# 1 73.2771 45.3706 35.0382 0.0000 0.0000 0.0000
# 2 45.3706 145.4609 68.4954 0.0000 0.0000 0.0000
# 3 35.0382 68.4954 67.5397 0.0000 0.0000 0.0000
# 4 0.0000 0.0000 0.0000 -9.0840 0.0000 0.0000
# 5 0.0000 0.0000 0.0000 0.0000 11.9831 0.0000
# 6 0.0000 0.0000 0.0000 0.0000 0.0000 -0.8501
#
#
#
# Elastic Compliance Matrix: (Units=1/GPa)
#
#
# Indices 1 2 3 4 5 6 
#
# 1 0.018578 -0.002405 -0.007199 0.000000 0.000000 0.000000
# 2 -0.002405 0.013470 -0.012413 0.000000 0.000000 0.000000
# 3 -0.007199 -0.012413 0.031129 0.000000 0.000000 0.000000
# 4 0.000000 0.000000 0.000000 -0.110083 0.000000 0.000000
# 5 0.000000 0.000000 0.000000 0.000000 0.083451 0.000000
# 6 0.000000 0.000000 0.000000 0.000000 0.000000 -1.176302
#
#
# Mechanical properties :
#
#
# Convention : Reuss Voigt Hill
#
# Bulk Modulus (GPa) = 52.23641 64.89846 58.56744
# Shear Modulus (GPa) = -4.58993 9.56801 2.48904
#
# Velocity S-wave (km/s) = -1.56088 2.25360 1.14943
# Velocity P-wave (km/s) = 4.94760 6.42027 5.73143
#
# Compressibility (1/GPa) = 0.01914373
#
# Stress axis : x y z
#
# Youngs Moduli (GPa) = 53.82674 74.24037 32.12393
#
# Poissons Ratio (x) = 0.17852 0.23127
# Poissons Ratio (y) = 0.12944 0.39875
# Poissons Ratio (z) = 0.38751 0.92154
#
# Static dielectric constant tensor:
#      x y z
#    x 1.677510 0.000000 0.000000 
#    y 0.000000 1.618500 0.000000 
#    z 0.000000 0.000000 1.634660 
# 
# From -- ./inp_files/1871.got.cif
#   From: 2010.05.17/outbox.cif.g08.bks.cpg/sg47_1_cif.got.tgz:1871.got - 2010.06.03 20:15:42.
