data_PCOD9386482
_publ_section_title
;
Structure prediction by ZEFSAII (Michael W. Deem and Ramdas Pophale) SiO2 
 PCOD9386482
Probable space group: P M M M
;
_chemical_formula_sum "Si O2"
_cell_formula_units_Z 48
_cell_length_a 17.327943
_cell_length_b 8.004086
_cell_length_c 18.954016
_cell_angle_alpha 90.000000
_cell_angle_beta 90.000000
_cell_angle_gamma 90.000000
_cell_volume 2628.814853
_symmetry_space_group_name_H-M "P M M M"
_symmetry_group_IT_number 47
_symmetry_cell_setting 'orthorhombic'
loop_
_space_group_symop_operation_xyz
x,y,z
-x,-y,z
x,-y,-z
-x,y,-z
-x,-y,-z
x,y,-z
-x,y,z
x,-y,z
loop_
_atom_site_type_symbol
_atom_site_label
_atom_site_fract_x
_atom_site_fract_y
_atom_site_fract_z
Si Si1 0.813549 0.805570 0.419500
Si Si2 0.343229 0.695473 0.915358
Si Si3 0.908849 0.314782 0.710459
Si Si4 0.500000 0.194672 0.671754
Si Si5 0.091696 0.000000 0.810561
Si Si6 0.500000 0.700068 0.167326
Si Si7 0.642636 0.303702 0.579953
Si Si8 0.229902 0.000000 0.915604
O O1 0.825610 0.745664 0.500000
O O2 0.860876 0.708673 0.360823
O O3 0.722213 0.790555 0.405013
O O4 0.836152 0.000000 0.416144
O O5 0.323975 0.500000 0.898775
O O6 0.422744 0.740998 0.876120
O O7 0.278754 0.832988 0.896711
O O8 0.355074 0.704094 0.000000
O O9 0.893845 0.500000 0.740319
O O10 0.891291 0.164385 0.763758
O O11 0.000000 0.302916 0.694289
O O12 0.500000 0.221932 0.755319
O O13 0.575697 0.270582 0.635408
O O14 0.500000 0.000000 0.655635
O O15 0.148337 0.000000 0.876679
O O16 0.000000 0.000000 0.827504
O O17 0.500000 0.500000 0.176414
O O18 0.616946 0.259108 0.500000
O O19 0.661017 0.500000 0.580369
O O20 0.220307 0.000000 0.000000
#
# Coordination Sequence:
#
# PCOD9386482 Si02
#       8
#     8   8   8   4   4   4   8   4
#     4  10  20  35  57  85 115 147 188 239 290 339
#     4   9  19  37  61  88 118 152 189 228 274 334
#     4  10  21  38  60  85 115 154 193 229 281 344
#     4  12  25  36  51  76 108 143 187 241 287 334
#     4  10  22  41  60  83 118 152 191 238 285 347
#     4  10  21  37  56  81 115 152 186 225 276 330
#     4  10  21  38  57  74  99 141 191 239 288 340
#     4  10  22  38  62  91 116 148 189 236 288 341
#
# _framework density 18.259179
#
# number of rings (size 3 to 8) (size 9 to 14) (size 15 to 20)
#    0.000    2.000    0.833    2.250    1.167    6.500 
#    0.000    4.583    0.000    0.000    0.000    4.667 
#    0.000    0.000    0.000    0.000    0.000    0.000 
#
# Total GULP energy -267929.135038 kJ/mol
# GULP energy per Si atom -5581.856980 kJ/mol
# Density = 1.821762 g / cm^3
# Si number density = 18.259179 Si / 1000 Ang^3
#
#
#
# Elastic Constant Matrix: (Units=GPa)
#
#
# Indices 1 2 3 4 5 6 
#
# 1 68.2510 46.3419 49.9945 0.0000 0.0000 0.0000
# 2 46.3419 100.4635 39.8448 0.0000 0.0000 0.0000
# 3 49.9945 39.8448 56.3004 0.0000 0.0000 0.0000
# 4 0.0000 0.0000 0.0000 16.6051 0.0000 0.0000
# 5 0.0000 0.0000 0.0000 0.0000 41.9106 0.0000
# 6 0.0000 0.0000 0.0000 0.0000 0.0000 27.0474
#
#
#
# Elastic Compliance Matrix: (Units=1/GPa)
#
#
# Indices 1 2 3 4 5 6 
#
# 1 0.045058 -0.006834 -0.035175 0.000000 0.000000 0.000000
# 2 -0.006834 0.014874 -0.004459 0.000000 0.000000 0.000000
# 3 -0.035175 -0.004459 0.052152 0.000000 0.000000 0.000000
# 4 0.000000 0.000000 0.000000 0.060222 0.000000 0.000000
# 5 0.000000 0.000000 0.000000 0.000000 0.023860 0.000000
# 6 0.000000 0.000000 0.000000 0.000000 0.000000 0.036972
#
#
# Mechanical properties :
#
#
# Convention : Reuss Voigt Hill
#
# Bulk Modulus (GPa) = 52.21826 55.26415 53.74121
# Shear Modulus (GPa) = 15.03956 23.03487 19.03721
#
# Velocity S-wave (km/s) = 2.87308 3.55568 3.23245
# Velocity P-wave (km/s) = 6.29814 6.86945 6.58999
#
# Compressibility (1/GPa) = 0.01915039
#
# Stress axis : x y z
#
# Youngs Moduli (GPa) = 22.19384 67.22955 19.17458
#
# Poissons Ratio (x) = 0.45942 0.67446
# Poissons Ratio (y) = 0.15166 0.08549
# Poissons Ratio (z) = 0.78066 0.29976
#
# Static dielectric constant tensor:
#      x y z
#    x 1.626270 0.000000 0.000000 
#    y 0.000000 1.658170 0.000000 
#    z 0.000000 0.000000 1.601370 
# 
# From -- ./inp_files/28067.got.cif
#   From: 2010.05.17/outbox.cif.g08.bks.cpg/sg47_15_cif.got.tgz:28067.got - 2010.06.03 20:15:42.
