data_PCOD9386787
_publ_section_title
;
Structure prediction by ZEFSAII (Michael W. Deem and Ramdas Pophale) SiO2 
 PCOD9386787
Probable space group: P M M M
;
_chemical_formula_sum "Si O2"
_cell_formula_units_Z 56
_cell_length_a 13.777130
_cell_length_b 16.086418
_cell_length_c 15.006080
_cell_angle_alpha 90.000000
_cell_angle_beta 90.000000
_cell_angle_gamma 90.000000
_cell_volume 3325.717558
_symmetry_space_group_name_H-M "P M M M"
_symmetry_group_IT_number 47
_symmetry_cell_setting 'orthorhombic'
loop_
_space_group_symop_operation_xyz
x,y,z
-x,-y,z
x,-y,-z
-x,y,-z
-x,-y,-z
x,y,-z
-x,y,z
x,-y,z
loop_
_atom_site_type_symbol
_atom_site_label
_atom_site_fract_x
_atom_site_fract_y
_atom_site_fract_z
Si Si1 0.386007 0.690334 0.102912
Si Si2 0.310961 0.750203 0.713561
Si Si3 0.117452 0.091361 0.898294
Si Si4 0.616832 0.406993 0.396766
Si Si5 0.382996 0.906395 0.396274
Si Si6 0.193265 0.592868 0.104512
Si Si7 0.887327 0.254942 0.214393
O O1 0.500000 0.668957 0.114332
O O2 0.351959 0.748794 0.184624
O O3 0.307959 0.615599 0.111061
O O4 0.375139 0.721897 0.000000
O O5 0.350748 0.667831 0.665502
O O6 0.343155 0.833200 0.664149
O O7 0.194664 0.742606 0.711028
O O8 0.139569 0.171746 0.840792
O O9 0.000000 0.088768 0.901395
O O10 0.150085 0.000000 0.865583
O O11 0.151785 0.101725 0.000000
O O12 0.646611 0.393463 0.500000
O O13 0.500000 0.407766 0.395931
O O14 0.649752 0.500000 0.369352
O O15 0.355996 0.893548 0.500000
O O16 0.500000 0.903844 0.392303
O O17 0.352356 0.000000 0.370237
O O18 0.175270 0.500000 0.138314
O O19 0.133553 0.663937 0.154530
O O20 0.168484 0.595850 0.000000
O O21 0.000000 0.251279 0.240050
#
# Coordination Sequence:
#
# PCOD9386787 Si02
#       7
#     8   8   8   8   8   8   8
#     4   9  18  31  46  68 101 138 172 205 241 287
#     4  11  20  31  52  74  98 136 174 203 241 294
#     4   8  14  27  48  68  83 107 151 209 266 302
#     4   9  18  33  55  83 106 119 143 195 260 315
#     4   9  18  33  55  84 111 129 152 194 248 305
#     4   9  18  31  46  65  89 123 170 216 256 298
#     4  10  21  33  44  64  95 129 167 212 252 284
#
# _framework density 16.838471999999999
#
# number of rings (size 3 to 8) (size 9 to 14) (size 15 to 20)
#    0.000    2.714    0.000    3.429    0.000    6.000 
#    0.000    2.143    0.000    2.143    0.000    4.000 
#    0.000    0.000    0.000    0.000    0.000    0.286 
#
# Total GULP energy -311766.665433 kJ/mol
# GULP energy per Si atom -5567.261883 kJ/mol
# Density = 1.680015 g / cm^3
# Si number density = 16.838472 Si / 1000 Ang^3
#
#
#
# Elastic Constant Matrix: (Units=GPa)
#
#
# Indices 1 2 3 4 5 6 
#
# 1 59.6331 26.8615 23.0736 0.0000 0.0000 0.0000
# 2 26.8615 133.9200 60.9955 0.0000 0.0000 0.0000
# 3 23.0736 60.9955 65.5762 0.0000 0.0000 0.0000
# 4 0.0000 0.0000 0.0000 -2.4349 0.0000 0.0000
# 5 0.0000 0.0000 0.0000 0.0000 7.3842 0.0000
# 6 0.0000 0.0000 0.0000 0.0000 0.0000 12.7587
#
#
#
# Elastic Compliance Matrix: (Units=1/GPa)
#
#
# Indices 1 2 3 4 5 6 
#
# 1 0.019555 -0.001368 -0.005608 0.000000 0.000000 0.000000
# 2 -0.001368 0.013052 -0.011659 0.000000 0.000000 0.000000
# 3 -0.005608 -0.011659 0.028067 0.000000 0.000000 0.000000
# 4 0.000000 0.000000 0.000000 -0.410688 0.000000 0.000000
# 5 0.000000 0.000000 0.000000 0.000000 0.135425 0.000000
# 6 0.000000 0.000000 0.000000 0.000000 0.000000 0.078378
#
#
# Mechanical properties :
#
#
# Convention : Reuss Voigt Hill
#
# Bulk Modulus (GPa) = 42.72736 53.44340 48.08538
# Shear Modulus (GPa) = -54.86051 13.42149 -20.71951
#
# Velocity S-wave (km/s) = -5.71412 2.82631 -3.51163
# Velocity P-wave (km/s) = 4.25500 6.51602 3.48952
#
# Compressibility (1/GPa) = 0.02340421
#
# Stress axis : x y z
#
# Youngs Moduli (GPa) = 51.13671 76.61918 35.62919
#
# Poissons Ratio (x) = 0.10482 0.19982
# Poissons Ratio (y) = 0.06996 0.41538
# Poissons Ratio (z) = 0.28679 0.89327
#
# Static dielectric constant tensor:
#      x y z
#    x 1.573450 0.000000 0.000000 
#    y 0.000000 1.584050 0.000000 
#    z 0.000000 0.000000 1.581470 
# 
# From -- ./inp_files/23861.got.cif
#   From: 2010.05.17/outbox.cif.g08.bks.cpg/sg47_12_cif.got.tgz:23861.got - 2010.06.03 20:15:42.
