data_PCOD9386481
_publ_section_title
;
Structure prediction by ZEFSAII (Michael W. Deem and Ramdas Pophale) SiO2 
 PCOD9386481
Probable space group: P M M M
;
_chemical_formula_sum "Si O2"
_cell_formula_units_Z 48
_cell_length_a 31.795094
_cell_length_b 9.302217
_cell_length_c 8.578817
_cell_angle_alpha 90.000000
_cell_angle_beta 90.000000
_cell_angle_gamma 90.000000
_cell_volume 2537.312643
_symmetry_space_group_name_H-M "P M M M"
_symmetry_group_IT_number 47
_symmetry_cell_setting 'orthorhombic'
loop_
_space_group_symop_operation_xyz
x,y,z
-x,-y,z
x,-y,-z
-x,y,-z
-x,-y,-z
x,y,-z
-x,y,z
x,-y,z
loop_
_atom_site_type_symbol
_atom_site_label
_atom_site_fract_x
_atom_site_fract_y
_atom_site_fract_z
Si Si1 0.415953 0.666706 0.811300
Si Si2 0.500000 0.165955 0.809819
Si Si3 0.665131 0.166280 0.686843
Si Si4 0.825840 0.831828 0.313846
Si Si5 0.000000 0.665232 0.190373
Si Si6 0.083437 0.168789 0.812569
Si Si7 0.254176 0.666367 0.813417
O O1 0.416619 0.500000 0.761927
O O2 0.458060 0.750100 0.760424
O O3 0.374923 0.747775 0.750554
O O4 0.415082 0.668606 0.000000
O O5 0.500000 0.000000 0.758592
O O6 0.500000 0.165442 0.000000
O O7 0.664200 0.167911 0.500000
O O8 0.707520 0.242934 0.743363
O O9 0.663999 0.000000 0.739479
O O10 0.822228 0.824632 0.500000
O O11 0.872489 0.785515 0.262220
O O12 0.789616 0.736902 0.238091
O O13 0.820867 0.000000 0.266645
O O14 0.957409 0.744291 0.240902
O O15 0.000000 0.500000 0.238279
O O16 0.000000 0.670377 0.000000
O O17 0.077202 0.000000 0.777796
O O18 0.087055 0.183434 0.000000
O O19 0.256637 0.500000 0.762520
O O20 0.257349 0.670030 0.000000
#
# Coordination Sequence:
#
# PCOD9386481 Si02
#       7
#     8   4   8   8   4   8   8
#     4  10  20  35  57  85 115 147 186 231 277 326
#     4   9  17  31  54  83 114 149 188 230 276 323
#     4  11  24  40  58  82 112 146 184 226 273 326
#     4  10  21  37  57  82 111 143 180 222 270 324
#     4   9  17  29  48  75 104 134 174 225 272 313
#     4   9  17  31  52  76 103 138 179 221 267 319
#     4  11  24  40  59  84 111 141 180 224 270 323
#
# _framework density 18.917653000000001
#
# number of rings (size 3 to 8) (size 9 to 14) (size 15 to 20)
#    0.000    2.000    0.000    3.500    0.000   11.333 
#    0.000    2.500    0.000    5.000    0.000    0.000 
#    0.000    0.000    0.000    0.000    0.000    0.000 
#
# Total GULP energy -268177.691948 kJ/mol
# GULP energy per Si atom -5587.035249 kJ/mol
# Density = 1.887460 g / cm^3
# Si number density = 18.917653 Si / 1000 Ang^3
#
#
#
# Elastic Constant Matrix: (Units=GPa)
#
#
# Indices 1 2 3 4 5 6 
#
# 1 176.8936 112.2497 27.0363 0.0000 0.0000 0.0000
# 2 112.2497 166.6535 33.1789 0.0000 0.0000 0.0000
# 3 27.0363 33.1789 16.3582 0.0000 0.0000 0.0000
# 4 0.0000 0.0000 0.0000 19.6351 0.0000 0.0000
# 5 0.0000 0.0000 0.0000 0.0000 -104.2770 0.0000
# 6 0.0000 0.0000 0.0000 0.0000 0.0000 -621.4048
#
#
#
# Elastic Compliance Matrix: (Units=1/GPa)
#
#
# Indices 1 2 3 4 5 6 
#
# 1 0.010098 -0.005835 -0.004854 0.000000 0.000000 0.000000
# 2 -0.005835 0.013436 -0.017609 0.000000 0.000000 0.000000
# 3 -0.004854 -0.017609 0.104870 0.000000 0.000000 0.000000
# 4 0.000000 0.000000 0.000000 0.050929 0.000000 0.000000
# 5 0.000000 0.000000 0.000000 0.000000 -0.009590 0.000000
# 6 0.000000 0.000000 0.000000 0.000000 0.000000 -0.001609
#
#
# Mechanical properties :
#
#
# Convention : Reuss Voigt Hill
#
# Bulk Modulus (GPa) = 13.92608 78.31501 46.12054
# Shear Modulus (GPa) = 20.10734 -128.71330 -54.30298
#
# Velocity S-wave (km/s) = 3.26373 -8.25751 -5.36351
# Velocity P-wave (km/s) = 4.64543 7.03047 3.73146
#
# Compressibility (1/GPa) = 0.07180773
#
# Stress axis : x y z
#
# Youngs Moduli (GPa) = 99.03361 74.42591 9.53563
#
# Poissons Ratio (x) = 0.43426 0.04629
# Poissons Ratio (y) = 0.57784 0.16791
# Poissons Ratio (z) = 0.48076 1.31054
#
# Static dielectric constant tensor:
#      x y z
#    x 1.616790 0.000000 0.000000 
#    y 0.000000 1.643570 0.000000 
#    z 0.000000 0.000000 1.641350 
# 
# From -- ./inp_files/2547.got.cif
#   From: 2010.05.17/outbox.cif.g08.bks.cpg/sg47_2_cif.got.tgz:2547.got - 2010.06.03 20:15:42.
