data_PCOD9386505
_publ_section_title
;
Structure prediction by ZEFSAII (Michael W. Deem and Ramdas Pophale) SiO2 
 PCOD9386505
Probable space group: P M M M
;
_chemical_formula_sum "Si O2"
_cell_formula_units_Z 40
_cell_length_a 20.985774
_cell_length_b 12.276694
_cell_length_c 8.379256
_cell_angle_alpha 90.000000
_cell_angle_beta 90.000000
_cell_angle_gamma 90.000000
_cell_volume 2158.797377
_symmetry_space_group_name_H-M "P M M M"
_symmetry_group_IT_number 47
_symmetry_cell_setting 'orthorhombic'
loop_
_space_group_symop_operation_xyz
x,y,z
-x,-y,z
x,-y,-z
-x,y,-z
-x,-y,-z
x,y,-z
-x,y,z
x,-y,z
loop_
_atom_site_type_symbol
_atom_site_label
_atom_site_fract_x
_atom_site_fract_y
_atom_site_fract_z
Si Si1 0.094305 0.500000 0.689292
Si Si2 0.930365 0.742237 0.306753
Si Si3 0.573501 0.374924 0.807519
Si Si4 0.696630 0.725001 0.308966
Si Si5 0.245476 0.500000 0.310023
Si Si6 0.192487 0.124326 0.190749
O O1 0.078390 0.500000 0.500000
O O2 0.071702 0.616612 0.751928
O O3 0.170126 0.500000 0.706515
O O4 0.926765 0.739533 0.500000
O O5 0.868614 0.807004 0.249025
O O6 0.000000 0.788883 0.262486
O O7 0.500000 0.354288 0.762580
O O8 0.588999 0.500000 0.754610
O O9 0.623129 0.287732 0.739964
O O10 0.577095 0.374026 0.000000
O O11 0.701388 0.727505 0.500000
O O12 0.726624 0.611621 0.244164
O O13 0.741405 0.820314 0.244595
O O14 0.259598 0.500000 0.500000
O O15 0.188231 0.000000 0.249646
O O16 0.191170 0.123757 0.000000
#
# Coordination Sequence:
#
# PCOD9386505 Si02
#       6
#     4   8   8   8   4   8
#     4   9  15  30  53  81 115 141 167 209 268 332
#     4  10  20  35  58  85 111 141 178 222 274 332
#     4   9  18  32  51  81 122 160 187 213 256 319
#     4  11  20  34  57  84 113 143 183 231 277 324
#     4   9  16  27  49  81 111 139 170 215 272 325
#     4  11  25  42  57  75 103 143 190 235 282 334
#
# _framework density 18.528835999999998
#
# number of rings (size 3 to 8) (size 9 to 14) (size 15 to 20)
#    0.000    2.000    3.000    2.100    0.000    4.000 
#    0.000    4.500    0.000    1.800    0.000    4.200 
#    0.000    0.000    0.000    0.000    0.000    0.000 
#
# Total GULP energy -223076.847241 kJ/mol
# GULP energy per Si atom -5576.921181 kJ/mol
# Density = 1.848666 g / cm^3
# Si number density = 18.528836 Si / 1000 Ang^3
#
#
#
# Elastic Constant Matrix: (Units=GPa)
#
#
# Indices 1 2 3 4 5 6 
#
# 1 123.3307 84.4486 24.9147 0.0000 0.0000 0.0000
# 2 84.4486 109.3839 20.7706 0.0000 0.0000 0.0000
# 3 24.9147 20.7706 25.8033 0.0000 0.0000 0.0000
# 4 0.0000 0.0000 0.0000 17.4912 0.0000 0.0000
# 5 0.0000 0.0000 0.0000 0.0000 23.1714 0.0000
# 6 0.0000 0.0000 0.0000 0.0000 0.0000 -7.1342
#
#
#
# Elastic Compliance Matrix: (Units=1/GPa)
#
#
# Indices 1 2 3 4 5 6 
#
# 1 0.018340 -0.012744 -0.007449 0.000000 0.000000 0.000000
# 2 -0.012744 0.019648 -0.003510 0.000000 0.000000 0.000000
# 3 -0.007449 -0.003510 0.048773 0.000000 0.000000 0.000000
# 4 0.000000 0.000000 0.000000 0.057172 0.000000 0.000000
# 5 0.000000 0.000000 0.000000 0.000000 0.043157 0.000000
# 6 0.000000 0.000000 0.000000 0.000000 0.000000 -0.140169
#
#
# Mechanical properties :
#
#
# Convention : Reuss Voigt Hill
#
# Bulk Modulus (GPa) = 25.41123 57.64285 41.52704
# Shear Modulus (GPa) = 46.53538 15.26462 30.90000
#
# Velocity S-wave (km/s) = 5.01693 2.87336 4.08814
# Velocity P-wave (km/s) = 6.87777 6.49504 6.68914
#
# Compressibility (1/GPa) = 0.03935269
#
# Stress axis : x y z
#
# Youngs Moduli (GPa) = 54.52655 50.89627 20.50310
#
# Poissons Ratio (x) = 0.64864 0.15274
# Poissons Ratio (y) = 0.69491 0.07197
# Poissons Ratio (z) = 0.40619 0.17865
#
# Static dielectric constant tensor:
#      x y z
#    x 1.649480 0.000000 0.000000 
#    y 0.000000 1.644790 0.000000 
#    z 0.000000 0.000000 1.647330 
# 
# From -- ./inp_files/10681.got.cif
#   From: 2010.05.17/outbox.cif.g08.bks.cpg/sg47_6_cif.got.tgz:10681.got - 2010.06.03 20:15:42.
