data_PCOD9386944
_publ_section_title
;
Structure prediction by ZEFSAII (Michael W. Deem and Ramdas Pophale) SiO2 
 PCOD9386944
Probable space group: P M M M
;
_chemical_formula_sum "Si O2"
_cell_formula_units_Z 64
_cell_length_a 29.227858
_cell_length_b 14.682506
_cell_length_c 7.841678
_cell_angle_alpha 90.000000
_cell_angle_beta 90.000000
_cell_angle_gamma 90.000000
_cell_volume 3365.163585
_symmetry_space_group_name_H-M "P M M M"
_symmetry_group_IT_number 47
_symmetry_cell_setting 'orthorhombic'
loop_
_space_group_symop_operation_xyz
x,y,z
-x,-y,z
x,-y,-z
-x,y,-z
-x,-y,-z
x,y,-z
-x,y,z
x,-y,z
loop_
_atom_site_type_symbol
_atom_site_label
_atom_site_fract_x
_atom_site_fract_y
_atom_site_fract_z
Si Si1 0.631548 0.735113 0.706535
Si Si2 0.552877 0.602595 0.707955
Si Si3 0.710441 0.399033 0.299020
Si Si4 0.876150 0.244748 0.701774
Si Si5 0.304992 0.104164 0.204366
Si Si6 0.948881 0.605950 0.794120
Si Si7 0.771912 0.245066 0.199630
Si Si8 0.050125 0.895095 0.291860
O O1 0.631177 0.736164 0.500000
O O2 0.584409 0.687127 0.763244
O O3 0.670223 0.664486 0.770936
O O4 0.649968 0.834509 0.758961
O O5 0.553758 0.602332 0.500000
O O6 0.500000 0.612205 0.760372
O O7 0.568885 0.500000 0.759266
O O8 0.700878 0.407407 0.500000
O O9 0.712768 0.500000 0.225481
O O10 0.755948 0.340157 0.279778
O O11 0.870566 0.233022 0.500000
O O12 0.906180 0.335357 0.731023
O O13 0.825805 0.236396 0.776898
O O14 0.909006 0.165930 0.772252
O O15 0.260920 0.163378 0.267810
O O16 0.306558 0.000000 0.270144
O O17 0.300788 0.098092 0.000000
O O18 0.944260 0.500000 0.745460
O O19 0.000000 0.636771 0.735602
O O20 0.948870 0.610409 0.000000
O O21 0.761856 0.251321 0.000000
O O22 0.050367 0.891481 0.500000
O O23 0.000000 0.862872 0.235493
O O24 0.055168 0.000000 0.243603
#
# Coordination Sequence:
#
# PCOD9386944 Si02
#       8
#     8   8   8   8   8   8   8   8
#     4   9  16  27  47  75 100 123 159 203 241 280
#     4   8  13  22  40  70 107 141 167 193 233 287
#     4   9  17  30  48  69  94 122 152 191 235 275
#     4  11  21  32  50  75  99 123 152 188 231 277
#     4   9  19  36  54  69  89 122 163 205 249 295
#     4   9  19  36  55  73  95 126 162 196 231 273
#     4  10  21  35  49  67  92 122 155 191 234 284
#     4   8  15  29  48  70  95 119 142 171 212 264
#
# _framework density 19.018391999999999
#
# number of rings (size 3 to 8) (size 9 to 14) (size 15 to 20)
#    0.000    2.875    0.000    2.625    0.000    4.500 
#    0.000    0.625    0.000    3.000    0.000    7.875 
#    0.000    0.000    0.000    0.000    0.000    0.000 
#
# Total GULP energy -356561.020495 kJ/mol
# GULP energy per Si atom -5571.265945 kJ/mol
# Density = 1.897511 g / cm^3
# Si number density = 19.018392 Si / 1000 Ang^3
#
#
#
# Elastic Constant Matrix: (Units=GPa)
#
#
# Indices 1 2 3 4 5 6 
#
# 1 99.0495 56.4670 -4.8643 0.0000 0.0000 0.0000
# 2 56.4670 138.3981 2.1025 0.0000 0.0000 0.0000
# 3 -4.8643 2.1025 22.4967 0.0000 0.0000 0.0000
# 4 0.0000 0.0000 0.0000 5.0247 0.0000 0.0000
# 5 0.0000 0.0000 0.0000 0.0000 -12.7901 0.0000
# 6 0.0000 0.0000 0.0000 0.0000 0.0000 25.5083
#
#
#
# Elastic Compliance Matrix: (Units=1/GPa)
#
#
# Indices 1 2 3 4 5 6 
#
# 1 0.013413 -0.005525 0.003417 0.000000 0.000000 0.000000
# 2 -0.005525 0.009511 -0.002083 0.000000 0.000000 0.000000
# 3 0.003417 -0.002083 0.045384 0.000000 0.000000 0.000000
# 4 0.000000 0.000000 0.000000 0.199019 0.000000 0.000000
# 5 0.000000 0.000000 0.000000 0.000000 -0.078185 0.000000
# 6 0.000000 0.000000 0.000000 0.000000 0.000000 0.039203
#
#
# Mechanical properties :
#
#
# Convention : Reuss Voigt Hill
#
# Bulk Modulus (GPa) = 16.68725 40.81721 28.75223
# Shear Modulus (GPa) = 19.47772 17.29783 18.38778
#
# Velocity S-wave (km/s) = 3.20371 3.01912 3.11278
# Velocity P-wave (km/s) = 4.74113 5.80189 5.29813
#
# Compressibility (1/GPa) = 0.05992598
#
# Stress axis : x y z
#
# Youngs Moduli (GPa) = 74.55320 105.13886 22.03400
#
# Poissons Ratio (x) = 0.58085 -0.07528
# Poissons Ratio (y) = 0.41187 0.04591
# Poissons Ratio (z) = -0.25472 0.21905
#
# Static dielectric constant tensor:
#      x y z
#    x 1.666250 0.000000 0.000000 
#    y 0.000000 1.677600 0.000000 
#    z 0.000000 0.000000 1.699020 
# 
# From -- ./inp_files/14382.got.cif
#   From: 2010.05.17/outbox.cif.g08.bks.cpg/sg47_8_cif.got.tgz:14382.got - 2010.06.03 20:15:42.
