data_PCOD9386344
_publ_section_title
;
Structure prediction by ZEFSAII (Michael W. Deem and Ramdas Pophale) SiO2 
 PCOD9386344
Probable space group: P M M M
;
_chemical_formula_sum "Si O2"
_cell_formula_units_Z 40
_cell_length_a 8.083088
_cell_length_b 30.021503
_cell_length_c 8.482994
_cell_angle_alpha 90.000000
_cell_angle_beta 90.000000
_cell_angle_gamma 90.000000
_cell_volume 2058.538045
_symmetry_space_group_name_H-M "P M M M"
_symmetry_group_IT_number 47
_symmetry_cell_setting 'orthorhombic'
loop_
_space_group_symop_operation_xyz
x,y,z
-x,-y,z
x,-y,-z
-x,y,-z
-x,-y,-z
x,y,-z
-x,y,z
x,-y,z
loop_
_atom_site_type_symbol
_atom_site_label
_atom_site_fract_x
_atom_site_fract_y
_atom_site_fract_z
Si Si1 0.307745 0.141174 0.816310
Si Si2 0.192704 0.951650 0.310759
Si Si3 0.500000 0.390872 0.692882
Si Si4 0.813621 0.448452 0.307915
Si Si5 0.816818 0.765548 0.191047
Si Si6 0.500000 0.711845 0.311043
O O1 0.500000 0.153736 0.803617
O O2 0.280444 0.093126 0.741803
O O3 0.206338 0.183246 0.752734
O O4 0.264853 0.136260 0.000000
O O5 0.197043 0.952612 0.500000
O O6 0.000000 0.948734 0.262375
O O7 0.257977 0.000000 0.254528
O O8 0.500000 0.391635 0.500000
O O9 0.334776 0.416820 0.745278
O O10 0.500000 0.339555 0.742196
O O11 0.813136 0.447658 0.500000
O O12 0.784888 0.500000 0.262151
O O13 0.000000 0.435584 0.257757
O O14 0.664928 0.736519 0.252068
O O15 0.000000 0.749395 0.236484
O O16 0.807467 0.766348 0.000000
O O17 0.500000 0.712755 0.500000
#
# Coordination Sequence:
#
# PCOD9386344 Si02
#       6
#     8   8   4   8   8   4
#     4  10  20  35  56  79 102 129 169 222 269 312
#     4   9  19  35  52  73 105 141 172 204 250 313
#     4   9  17  27  40  63 100 141 173 210 265 322
#     4   8  13  22  38  60  89 132 182 220 252 303
#     4  10  21  40  63  80 102 142 188 232 277 326
#     4  11  23  36  53  82 117 147 178 224 281 337
#
# _framework density 19.431266999999998
#
# number of rings (size 3 to 8) (size 9 to 14) (size 15 to 20)
#    0.000    2.600    1.000    2.400    0.000    5.600 
#    0.000    5.000    0.000    0.000    0.000    0.000 
#    0.000    6.400    0.000   17.600    0.000   14.400 
#
# Total GULP energy -223040.797465 kJ/mol
# GULP energy per Si atom -5576.019937 kJ/mol
# Density = 1.938704 g / cm^3
# Si number density = 19.431267 Si / 1000 Ang^3
#
#
#
# Elastic Constant Matrix: (Units=GPa)
#
#
# Indices 1 2 3 4 5 6 
#
# 1 121.7927 104.5420 26.8290 0.0000 0.0000 0.0000
# 2 104.5420 145.8034 15.8519 0.0000 0.0000 0.0000
# 3 26.8290 15.8519 5.6466 0.0000 0.0000 0.0000
# 4 0.0000 0.0000 0.0000 42.8271 0.0000 0.0000
# 5 0.0000 0.0000 0.0000 0.0000 12.3172 0.0000
# 6 0.0000 0.0000 0.0000 0.0000 0.0000 7.0361
#
#
#
# Elastic Compliance Matrix: (Units=1/GPa)
#
#
# Indices 1 2 3 4 5 6 
#
# 1 -0.070862 0.020443 0.279300 0.000000 0.000000 0.000000
# 2 0.020443 0.003974 -0.108287 0.000000 0.000000 0.000000
# 3 0.279300 -0.108287 -0.845954 0.000000 0.000000 0.000000
# 4 0.000000 0.000000 0.000000 0.023350 0.000000 0.000000
# 5 0.000000 0.000000 0.000000 0.000000 0.081187 0.000000
# 6 0.000000 0.000000 0.000000 0.000000 0.000000 0.142125
#
#
# Mechanical properties :
#
#
# Convention : Reuss Voigt Hill
#
# Bulk Modulus (GPa) = -1.88704 63.07650 30.59473
# Shear Modulus (GPa) = -4.07918 20.83740 8.37911
#
# Velocity S-wave (km/s) = -1.45046 3.27825 2.07883
# Velocity P-wave (km/s) = 1.94380 6.84551 4.64126
#
# Compressibility (1/GPa) = -0.52993114
#
# Stress axis : x y z
#
# Youngs Moduli (GPa) = -14.11192 251.64159 -1.18210
#
# Poissons Ratio (x) = -5.14428 0.33016
# Poissons Ratio (y) = 0.28849 -0.12801
# Poissons Ratio (z) = 3.94146 27.24951
#
# Static dielectric constant tensor:
#      x y z
#    x 1.688040 0.000000 0.000000 
#    y 0.000000 1.687780 0.000000 
#    z 0.000000 0.000000 1.679750 
# 
# From -- ./inp_files/1724.got.cif
#   From: 2010.05.17/outbox.cif.g08.bks.cpg/sg47_1_cif.got.tgz:1724.got - 2010.06.03 20:15:42.
