data_PCOD9386668
_publ_section_title
;
Structure prediction by ZEFSAII (Michael W. Deem and Ramdas Pophale) SiO2 
 PCOD9386668
Probable space group: P M M M
;
_chemical_formula_sum "Si O2"
_cell_formula_units_Z 44
_cell_length_a 14.300992
_cell_length_b 14.313474
_cell_length_c 11.971913
_cell_angle_alpha 90.000000
_cell_angle_beta 90.000000
_cell_angle_gamma 90.000000
_cell_volume 2450.613205
_symmetry_space_group_name_H-M "P M M M"
_symmetry_group_IT_number 47
_symmetry_cell_setting 'orthorhombic'
loop_
_space_group_symop_operation_xyz
x,y,z
-x,-y,z
x,-y,-z
-x,y,-z
-x,-y,-z
x,y,-z
-x,y,z
x,-y,z
loop_
_atom_site_type_symbol
_atom_site_label
_atom_site_fract_x
_atom_site_fract_y
_atom_site_fract_z
Si Si1 0.891920 0.861496 0.500000
Si Si2 0.726553 0.393168 0.676692
Si Si3 0.813069 0.714168 0.867227
Si Si4 0.775493 0.893912 0.726044
Si Si5 0.110254 0.362516 0.500000
Si Si6 0.000000 0.395269 0.865727
Si Si7 0.393543 0.785513 0.627921
O O1 0.836942 0.890121 0.612158
O O2 0.892301 0.749324 0.500000
O O3 0.000000 0.892856 0.500000
O O4 0.694223 0.500000 0.673943
O O5 0.742278 0.353485 0.801332
O O6 0.824250 0.389691 0.606014
O O7 0.655565 0.316377 0.628089
O O8 0.811908 0.816961 0.813558
O O9 0.910616 0.665189 0.838362
O O10 0.799215 0.716393 0.000000
O O11 0.672554 0.855974 0.694941
O O12 0.775130 0.000000 0.767082
O O13 0.000000 0.393197 0.500000
O O14 0.000000 0.500000 0.817491
O O15 0.000000 0.404920 0.000000
O O16 0.394202 0.818159 0.500000
O O17 0.500000 0.780212 0.668654
#
# Coordination Sequence:
#
# PCOD9386668 Si02
#       7
#     4   8   8   8   4   4   8
#     4  11  21  37  57  81 115 152 188 226 275 335
#     4  11  21  35  56  84 116 151 192 232 278 337
#     4  10  22  38  54  79 114 152 194 239 277 321
#     4  11  22  38  60  85 112 146 189 234 284 342
#     4  11  21  35  55  81 119 158 191 229 276 330
#     4   9  18  34  55  78 107 148 197 236 269 314
#     4  10  20  37  57  83 118 148 178 227 288 345
#
# _framework density 17.954689999999999
#
# number of rings (size 3 to 8) (size 9 to 14) (size 15 to 20)
#    0.000    1.545    5.455    1.091    2.545    3.636 
#    0.000    1.818    0.000   10.364    0.000   10.182 
#    0.000    0.000    0.000    0.000    0.000    0.000 
#
# Total GULP energy -245317.846837 kJ/mol
# GULP energy per Si atom -5575.405610 kJ/mol
# Density = 1.791382 g / cm^3
# Si number density = 17.954690 Si / 1000 Ang^3
#
#
#
# Elastic Constant Matrix: (Units=GPa)
#
#
# Indices 1 2 3 4 5 6 
#
# 1 109.3641 31.7186 25.6956 0.0000 0.0000 0.0000
# 2 31.7186 139.7337 22.0277 0.0000 0.0000 0.0000
# 3 25.6956 22.0277 94.1391 0.0000 0.0000 0.0000
# 4 0.0000 0.0000 0.0000 13.6693 0.0000 0.0000
# 5 0.0000 0.0000 0.0000 0.0000 17.9617 0.0000
# 6 0.0000 0.0000 0.0000 0.0000 0.0000 0.0951
#
#
#
# Elastic Compliance Matrix: (Units=1/GPa)
#
#
# Indices 1 2 3 4 5 6 
#
# 1 0.010263 -0.001960 -0.002343 0.000000 0.000000 0.000000
# 2 -0.001960 0.007805 -0.001291 0.000000 0.000000 0.000000
# 3 -0.002343 -0.001291 0.011564 0.000000 0.000000 0.000000
# 4 0.000000 0.000000 0.000000 0.073157 0.000000 0.000000
# 5 0.000000 0.000000 0.000000 0.000000 0.055674 0.000000
# 6 0.000000 0.000000 0.000000 0.000000 0.000000 10.510630
#
#
# Mechanical properties :
#
#
# Convention : Reuss Voigt Hill
#
# Bulk Modulus (GPa) = 54.21909 55.79117 55.00513
# Shear Modulus (GPa) = 0.46788 23.93156 12.19972
#
# Velocity S-wave (km/s) = 0.51104 3.65483 2.60950
# Velocity P-wave (km/s) = 5.53277 6.99651 6.30724
#
# Compressibility (1/GPa) = 0.01844369
#
# Stress axis : x y z
#
# Youngs Moduli (GPa) = 97.44027 128.12312 86.47437
#
# Poissons Ratio (x) = 0.25116 0.20257
# Poissons Ratio (y) = 0.19101 0.11166
# Poissons Ratio (z) = 0.22826 0.16544
#
# Static dielectric constant tensor:
#      x y z
#    x 1.638900 0.000000 0.000000 
#    y 0.000000 1.612450 0.000000 
#    z 0.000000 0.000000 1.629800 
# 
# From -- ./inp_files/17460.got.cif
#   From: 2010.05.17/outbox.cif.g08.bks.cpg/sg47_9_cif.got.tgz:17460.got - 2010.06.03 20:15:42.
