data_PCOD9386305
_publ_section_title
;
Structure prediction by ZEFSAII (Michael W. Deem and Ramdas Pophale) SiO2 
 PCOD9386305
Probable space group: P M M M
;
_chemical_formula_sum "Si O2"
_cell_formula_units_Z 52
_cell_length_a 8.400383
_cell_length_b 19.774666
_cell_length_c 16.427132
_cell_angle_alpha 90.000000
_cell_angle_beta 90.000000
_cell_angle_gamma 90.000000
_cell_volume 2728.789223
_symmetry_space_group_name_H-M "P M M M"
_symmetry_group_IT_number 47
_symmetry_cell_setting 'orthorhombic'
loop_
_space_group_symop_operation_xyz
x,y,z
-x,-y,z
x,-y,-z
-x,y,-z
-x,-y,-z
x,y,-z
-x,y,z
x,-y,z
loop_
_atom_site_type_symbol
_atom_site_label
_atom_site_fract_x
_atom_site_fract_y
_atom_site_fract_z
Si Si1 0.192797 0.846253 0.337323
Si Si2 0.188750 0.708886 0.592058
Si Si3 0.685459 0.425386 0.341691
Si Si4 0.192074 0.921430 0.826249
Si Si5 0.310007 0.079044 0.000000
Si Si6 0.309109 0.921419 0.500000
Si Si7 0.173917 0.579606 0.165290
Si Si8 0.500000 0.421337 0.096580
O O1 0.243848 0.768207 0.347968
O O2 0.246867 0.880358 0.253196
O O3 0.247569 0.886530 0.417406
O O4 0.000000 0.846520 0.337830
O O5 0.210680 0.734209 0.500000
O O6 0.276417 0.638240 0.603119
O O7 0.000000 0.697433 0.604061
O O8 0.500000 0.423060 0.316498
O O9 0.713190 0.500000 0.378328
O O10 0.794317 0.419077 0.261706
O O11 0.248379 0.893416 0.913682
O O12 0.000000 0.921336 0.826269
O O13 0.245285 0.000000 0.819004
O O14 0.500000 0.081277 0.000000
O O15 0.256927 0.000000 0.000000
O O16 0.500000 0.917750 0.500000
O O17 0.259806 0.000000 0.500000
O O18 0.168654 0.500000 0.140827
O O19 0.333301 0.609704 0.125925
O O20 0.000000 0.608945 0.145824
O O21 0.500000 0.500000 0.127377
O O22 0.500000 0.423135 0.000000
#
# Coordination Sequence:
#
# PCOD9386305 Si02
#       8
#     8   8   8   8   4   4   8   4
#     4  10  20  37  57  78 108 148 191 233 277 331
#     4  10  21  37  55  78 108 140 179 229 281 335
#     4  10  20  35  55  78 104 136 179 228 278 340
#     4   9  17  30  52  81 109 142 188 234 274 322
#     4   9  17  29  47  75 113 149 178 223 282 329
#     4  11  23  35  51  79 114 151 190 233 275 320
#     4   9  16  28  47  71 101 135 171 214 264 319
#     4   9  16  26  42  70 107 139 169 209 260 325
#
# _framework density 19.056070999999999
#
# number of rings (size 3 to 8) (size 9 to 14) (size 15 to 20)
#    0.000    2.385    1.538    1.385    0.000    5.231 
#    0.000    4.615    0.000    0.000    2.000    0.000 
#    0.000    0.000    0.000    0.000    0.000    0.000 
#
# Total GULP energy -289834.120769 kJ/mol
# GULP energy per Si atom -5573.733092 kJ/mol
# Density = 1.901270 g / cm^3
# Si number density = 19.056071 Si / 1000 Ang^3
#
#
#
# Elastic Constant Matrix: (Units=GPa)
#
#
# Indices 1 2 3 4 5 6 
#
# 1 72.5785 19.7123 28.6407 0.0000 0.0000 0.0000
# 2 19.7123 86.0469 49.9200 0.0000 0.0000 0.0000
# 3 28.6407 49.9200 117.1576 0.0000 0.0000 0.0000
# 4 0.0000 0.0000 0.0000 14.6871 0.0000 0.0000
# 5 0.0000 0.0000 0.0000 0.0000 14.3042 0.0000
# 6 0.0000 0.0000 0.0000 0.0000 0.0000 13.1424
#
#
#
# Elastic Compliance Matrix: (Units=1/GPa)
#
#
# Indices 1 2 3 4 5 6 
#
# 1 0.015454 -0.001791 -0.003015 0.000000 0.000000 0.000000
# 2 -0.001791 0.015645 -0.006228 0.000000 0.000000 0.000000
# 3 -0.003015 -0.006228 0.011926 0.000000 0.000000 0.000000
# 4 0.000000 0.000000 0.000000 0.068087 0.000000 0.000000
# 5 0.000000 0.000000 0.000000 0.000000 0.069909 0.000000
# 6 0.000000 0.000000 0.000000 0.000000 0.000000 0.076089
#
#
# Mechanical properties :
#
#
# Convention : Reuss Voigt Hill
#
# Bulk Modulus (GPa) = 47.71674 52.48098 50.09886
# Shear Modulus (GPa) = 17.47232 20.26075 18.86653
#
# Velocity S-wave (km/s) = 3.03130 3.26424 3.14993
# Velocity P-wave (km/s) = 6.11116 6.46584 6.29100
#
# Compressibility (1/GPa) = 0.02095701
#
# Stress axis : x y z
#
# Youngs Moduli (GPa) = 64.70649 63.91654 83.84761
#
# Poissons Ratio (x) = 0.11450 0.25278
# Poissons Ratio (y) = 0.11592 0.52224
# Poissons Ratio (z) = 0.19507 0.39810
#
# Static dielectric constant tensor:
#      x y z
#    x 1.685860 0.000000 0.000000 
#    y 0.000000 1.659770 0.000000 
#    z 0.000000 0.000000 1.669440 
# 
# From -- ./inp_files/21555.got.cif
#   From: 2010.05.17/outbox.cif.g08.bks.cpg/sg47_11_cif.got.tgz:21555.got - 2010.06.03 20:15:42.
