data_PCOD9386026
_publ_section_title
;
Structure prediction by ZEFSAII (Michael W. Deem and Ramdas Pophale) SiO2 
 PCOD9386026
Probable space group: P M M M
;
_chemical_formula_sum "Si O2"
_cell_formula_units_Z 52
_cell_length_a 19.723745
_cell_length_b 8.799565
_cell_length_c 16.041645
_cell_angle_alpha 90.000000
_cell_angle_beta 90.000000
_cell_angle_gamma 90.000000
_cell_volume 2784.193941
_symmetry_space_group_name_H-M "P M M M"
_symmetry_group_IT_number 47
_symmetry_cell_setting 'orthorhombic'
loop_
_space_group_symop_operation_xyz
x,y,z
-x,-y,z
x,-y,-z
-x,y,-z
-x,-y,-z
x,y,-z
-x,y,z
x,-y,z
loop_
_atom_site_type_symbol
_atom_site_label
_atom_site_fract_x
_atom_site_fract_y
_atom_site_fract_z
Si Si1 0.215835 0.182768 0.406402
Si Si2 0.294040 0.680437 0.250317
Si Si3 0.924380 0.819873 0.324564
Si Si4 0.922996 0.319313 0.858116
Si Si5 0.579309 0.818881 0.176209
Si Si6 0.784131 0.181482 0.908083
Si Si7 0.417615 0.673354 0.000000
O O1 0.232985 0.232437 0.500000
O O2 0.259622 0.257329 0.333802
O O3 0.137014 0.215658 0.385874
O O4 0.224026 0.000000 0.401904
O O5 0.292112 0.500000 0.248944
O O6 0.370476 0.740570 0.240662
O O7 0.253472 0.742964 0.169799
O O8 0.917854 0.724798 0.239625
O O9 0.000000 0.795130 0.359100
O O10 0.919005 0.000000 0.302782
O O11 0.913632 0.500000 0.868812
O O12 0.862798 0.230053 0.902332
O O13 0.000000 0.280632 0.884758
O O14 0.500000 0.781233 0.188764
O O15 0.586705 0.000000 0.179246
O O16 0.600271 0.760343 0.084394
O O17 0.778014 0.000000 0.900344
O O18 0.758083 0.227169 0.000000
O O19 0.392337 0.500000 0.000000
O O20 0.500000 0.667512 0.000000
#
# Coordination Sequence:
#
# PCOD9386026 Si02
#       7
#     8   8   8   8   8   8   4
#     4  10  21  38  61  88 119 155 196 242 292 352
#     4  12  25  40  61  87 120 157 193 241 296 351
#     4   9  17  31  54  82 113 150 190 235 288 346
#     4  10  20  34  54  80 112 150 192 242 299 352
#     4  10  21  38  61  87 118 157 197 238 286 344
#     4  11  24  40  58  81 112 153 202 249 293 348
#     4   9  17  31  53  85 123 157 192 233 276 329
#
# _framework density 18.676860000000001
#
# number of rings (size 3 to 8) (size 9 to 14) (size 15 to 20)
#    0.000    1.769    1.538    3.000    1.077    4.923 
#    0.000    3.077    0.000    0.462    0.000    6.462 
#    0.000    0.000    0.000    0.000    0.000    0.000 
#
# Total GULP energy -290537.577179 kJ/mol
# GULP energy per Si atom -5587.261100 kJ/mol
# Density = 1.863435 g / cm^3
# Si number density = 18.676860 Si / 1000 Ang^3
#
#
#
# Elastic Constant Matrix: (Units=GPa)
#
#
# Indices 1 2 3 4 5 6 
#
# 1 105.4543 48.3700 73.1665 0.0000 0.0000 0.0000
# 2 48.3700 67.2306 55.3938 0.0000 0.0000 0.0000
# 3 73.1665 55.3938 134.6994 0.0000 0.0000 0.0000
# 4 0.0000 0.0000 0.0000 -376.8340 0.0000 0.0000
# 5 0.0000 0.0000 0.0000 0.0000 12.4953 0.0000
# 6 0.0000 0.0000 0.0000 0.0000 0.0000 26.4424
#
#
#
# Elastic Compliance Matrix: (Units=1/GPa)
#
#
# Indices 1 2 3 4 5 6 
#
# 1 0.017184 -0.007067 -0.006428 0.000000 0.000000 0.000000
# 2 -0.007067 0.025404 -0.006608 0.000000 0.000000 0.000000
# 3 -0.006428 -0.006608 0.013633 0.000000 0.000000 0.000000
# 4 0.000000 0.000000 0.000000 -0.002654 0.000000 0.000000
# 5 0.000000 0.000000 0.000000 0.000000 0.080030 0.000000
# 6 0.000000 0.000000 0.000000 0.000000 0.000000 0.037818
#
#
# Mechanical properties :
#
#
# Convention : Reuss Voigt Hill
#
# Bulk Modulus (GPa) = 62.44454 73.47166 67.95810
# Shear Modulus (GPa) = 23.04576 -58.88234 -17.91829
#
# Velocity S-wave (km/s) = 3.51653 -5.62097 -3.10075
# Velocity P-wave (km/s) = 7.07070 1.64420 4.86268
#
# Compressibility (1/GPa) = 0.01601421
#
# Stress axis : x y z
#
# Youngs Moduli (GPa) = 58.19310 39.36460 73.35178
#
# Poissons Ratio (x) = 0.27820 0.47149
# Poissons Ratio (y) = 0.41127 0.48472
# Poissons Ratio (z) = 0.37405 0.26013
#
# Static dielectric constant tensor:
#      x y z
#    x 1.677460 0.000000 0.000000 
#    y 0.000000 1.622090 0.000000 
#    z 0.000000 0.000000 1.627540 
# 
# From -- ./inp_files/24966.got.cif
#   From: 2010.05.17/outbox.cif.g08.bks.cpg/sg47_13_cif.got.tgz:24966.got - 2010.06.03 20:15:42.
