data_PCOD9386449
_publ_section_title
;
Structure prediction by ZEFSAII (Michael W. Deem and Ramdas Pophale) SiO2 
 PCOD9386449
Probable space group: P M M M
;
_chemical_formula_sum "Si O2"
_cell_formula_units_Z 40
_cell_length_a 8.371236
_cell_length_b 26.798464
_cell_length_c 9.251758
_cell_angle_alpha 90.000000
_cell_angle_beta 90.000000
_cell_angle_gamma 90.000000
_cell_volume 2075.504849
_symmetry_space_group_name_H-M "P M M M"
_symmetry_group_IT_number 47
_symmetry_cell_setting 'orthorhombic'
loop_
_space_group_symop_operation_xyz
x,y,z
-x,-y,z
x,-y,-z
-x,y,-z
-x,-y,-z
x,y,-z
-x,y,z
x,-y,z
loop_
_atom_site_type_symbol
_atom_site_label
_atom_site_fract_x
_atom_site_fract_y
_atom_site_fract_z
Si Si1 0.693368 0.804387 0.833461
Si Si2 0.809559 0.500000 0.168738
Si Si3 0.308526 0.000000 0.833590
Si Si4 0.304740 0.295172 0.666292
Si Si5 0.307413 0.394181 0.167452
Si Si6 0.191438 0.902200 0.333615
O O1 0.500000 0.804500 0.833479
O O2 0.746400 0.753415 0.755782
O O3 0.750499 0.852481 0.746267
O O4 0.746817 0.806149 0.000000
O O5 0.747483 0.552439 0.228992
O O6 0.000000 0.500000 0.172217
O O7 0.755111 0.500000 0.000000
O O8 0.250707 0.950802 0.751087
O O9 0.500000 0.000000 0.835154
O O10 0.251669 0.000000 0.000000
O O11 0.253551 0.292230 0.500000
O O12 0.500000 0.295378 0.667513
O O13 0.252477 0.346461 0.741901
O O14 0.500000 0.393905 0.165815
O O15 0.252587 0.389836 0.000000
O O16 0.248157 0.902968 0.500000
O O17 0.000000 0.902723 0.334416
#
# Coordination Sequence:
#
# PCOD9386449 Si02
#       6
#     8   4   4   8   8   8
#     4  10  20  35  57  84 111 141 180 223 266 316
#     4   9  17  29  46  69  96 126 162 205 254 308
#     4  11  24  41  62  88 114 143 184 229 270 316
#     4   9  17  30  50  76 104 134 170 214 262 309
#     4   9  16  28  48  72  96 125 165 211 255 302
#     4  11  24  40  58  83 115 149 184 222 267 319
#
# _framework density 19.272421000000001
#
# number of rings (size 3 to 8) (size 9 to 14) (size 15 to 20)
#    0.000    2.200    0.000    3.300    0.000   10.800 
#    0.000    1.500    0.000    7.200    0.000    0.000 
#    0.000    0.000    0.000    0.000    0.000    0.000 
#
# Total GULP energy -223354.221466 kJ/mol
# GULP energy per Si atom -5583.855537 kJ/mol
# Density = 1.922856 g / cm^3
# Si number density = 19.272421 Si / 1000 Ang^3
#
#
#
# Elastic Constant Matrix: (Units=GPa)
#
#
# Indices 1 2 3 4 5 6 
#
# 1 11.4694 24.7643 23.1628 0.0000 0.0000 0.0000
# 2 24.7643 235.9414 122.4245 0.0000 0.0000 0.0000
# 3 23.1628 122.4245 174.4573 0.0000 0.0000 0.0000
# 4 0.0000 0.0000 0.0000 -0.1852 0.0000 0.0000
# 5 0.0000 0.0000 0.0000 0.0000 15.6634 0.0000
# 6 0.0000 0.0000 0.0000 0.0000 0.0000 -57.6993
#
#
#
# Elastic Compliance Matrix: (Units=1/GPa)
#
#
# Indices 1 2 3 4 5 6 
#
# 1 0.126401 -0.007170 -0.011751 0.000000 0.000000 0.000000
# 2 -0.007170 0.007072 -0.004011 0.000000 0.000000 0.000000
# 3 -0.011751 -0.004011 0.010107 0.000000 0.000000 0.000000
# 4 0.000000 0.000000 0.000000 -5.398409 0.000000 0.000000
# 5 0.000000 0.000000 0.000000 0.000000 0.063843 0.000000
# 6 0.000000 0.000000 0.000000 0.000000 0.000000 -0.017331
#
#
# Mechanical properties :
#
#
# Convention : Reuss Voigt Hill
#
# Bulk Modulus (GPa) = 10.23366 84.73012 47.48189
# Shear Modulus (GPa) = -0.97468 8.32352 3.67442
#
# Velocity S-wave (km/s) = -0.71192 2.08045 1.38228
# Velocity P-wave (km/s) = 2.15540 7.05910 5.21903
#
# Compressibility (1/GPa) = 0.09771679
#
# Stress axis : x y z
#
# Youngs Moduli (GPa) = 7.91133 141.40313 98.94306
#
# Poissons Ratio (x) = 1.01381 1.16269
# Poissons Ratio (y) = 0.05672 0.39684
# Poissons Ratio (z) = 0.09297 0.56714
#
# Static dielectric constant tensor:
#      x y z
#    x 1.663320 0.000000 0.000000 
#    y 0.000000 1.645720 0.000000 
#    z 0.000000 0.000000 1.663180 
# 
# From -- ./inp_files/1685.got.cif
#   From: 2010.05.17/outbox.cif.g08.bks.cpg/sg47_1_cif.got.tgz:1685.got - 2010.06.03 20:15:42.
