data_PCOD9386320
_publ_section_title
;
Structure prediction by ZEFSAII (Michael W. Deem and Ramdas Pophale) SiO2 
 PCOD9386320
Probable space group: P M M M
;
_chemical_formula_sum "Si O2"
_cell_formula_units_Z 56
_cell_length_a 17.484420
_cell_length_b 8.058153
_cell_length_c 21.400210
_cell_angle_alpha 90.000000
_cell_angle_beta 90.000000
_cell_angle_gamma 90.000000
_cell_volume 3015.121201
_symmetry_space_group_name_H-M "P M M M"
_symmetry_group_IT_number 47
_symmetry_cell_setting 'orthorhombic'
loop_
_space_group_symop_operation_xyz
x,y,z
-x,-y,z
x,-y,-z
-x,y,-z
-x,-y,-z
x,y,-z
-x,y,z
x,-y,z
loop_
_atom_site_type_symbol
_atom_site_label
_atom_site_fract_x
_atom_site_fract_y
_atom_site_fract_z
Si Si1 0.585245 0.299795 0.261698
Si Si2 0.159014 0.300951 0.430057
Si Si3 0.414462 0.299380 0.116006
Si Si4 0.256030 0.803541 0.313846
Si Si5 0.000000 0.698749 0.774558
Si Si6 0.253568 0.198187 0.932011
Si Si7 0.000000 0.703105 0.629953
Si Si8 0.832884 0.199695 0.809124
O O1 0.500000 0.245773 0.281256
O O2 0.586667 0.500000 0.262995
O O3 0.595485 0.250222 0.188933
O O4 0.655442 0.235303 0.301823
O O5 0.174535 0.237726 0.500000
O O6 0.153164 0.500000 0.433663
O O7 0.222335 0.262532 0.378343
O O8 0.076975 0.240222 0.404368
O O9 0.500000 0.247792 0.096116
O O10 0.412052 0.500000 0.113215
O O11 0.343422 0.230314 0.078190
O O12 0.208447 0.735576 0.253934
O O13 0.245392 0.000000 0.314581
O O14 0.922113 0.758998 0.806180
O O15 0.000000 0.500000 0.774215
O O16 0.000000 0.756583 0.702158
O O17 0.208359 0.264768 0.871647
O O18 0.241585 0.000000 0.932853
O O19 0.230101 0.265021 0.000000
O O20 0.000000 0.500000 0.629662
O O21 0.824222 0.000000 0.808810
#
# Coordination Sequence:
#
# PCOD9386320 Si02
#       8
#     8   8   8   8   4   8   4   8
#     4   9  18  33  54  80 108 139 178 222 266 315
#     4  10  20  35  55  79 111 148 181 215 259 315
#     4   9  18  32  51  77 109 142 174 216 271 323
#     4  11  21  33  54  81 110 143 179 220 265 312
#     4  11  21  34  58  84 104 134 175 223 269 310
#     4  10  21  37  55  75 103 142 185 224 265 318
#     4   9  17  31  52  80 108 136 174 213 254 306
#     4  10  21  37  54  77 107 139 176 221 269 317
#
# _framework density 18.573051
#
# number of rings (size 3 to 8) (size 9 to 14) (size 15 to 20)
#    0.000    2.143    2.857    1.714    0.000    3.429 
#    0.000    3.571    0.000    3.429    0.000    3.000 
#    0.000    0.000    0.000    0.000    0.000    0.000 
#
# Total GULP energy -312541.766278 kJ/mol
# GULP energy per Si atom -5581.102969 kJ/mol
# Density = 1.853078 g / cm^3
# Si number density = 18.573051 Si / 1000 Ang^3
#
#
#
# Elastic Constant Matrix: (Units=GPa)
#
#
# Indices 1 2 3 4 5 6 
#
# 1 113.8161 -5.7663 73.0860 0.0000 0.0000 0.0000
# 2 -5.7663 7.5203 10.6721 0.0000 0.0000 0.0000
# 3 73.0860 10.6721 144.4421 0.0000 0.0000 0.0000
# 4 0.0000 0.0000 0.0000 14.9851 0.0000 0.0000
# 5 0.0000 0.0000 0.0000 0.0000 12.1870 0.0000
# 6 0.0000 0.0000 0.0000 0.0000 0.0000 16.7460
#
#
#
# Elastic Compliance Matrix: (Units=1/GPa)
#
#
# Indices 1 2 3 4 5 6 
#
# 1 0.017149 0.028445 -0.010779 0.000000 0.000000 0.000000
# 2 0.028445 0.195730 -0.028854 0.000000 0.000000 0.000000
# 3 -0.010779 -0.028854 0.014509 0.000000 0.000000 0.000000
# 4 0.000000 0.000000 0.000000 0.066733 0.000000 0.000000
# 5 0.000000 0.000000 0.000000 0.000000 0.082055 0.000000
# 6 0.000000 0.000000 0.000000 0.000000 0.000000 0.059716
#
#
# Mechanical properties :
#
#
# Convention : Reuss Voigt Hill
#
# Bulk Modulus (GPa) = 4.87777 46.86246 25.87011
# Shear Modulus (GPa) = 9.49479 21.30273 15.39876
#
# Velocity S-wave (km/s) = 2.26346 3.39037 2.88252
# Velocity P-wave (km/s) = 3.07619 6.37278 5.00376
#
# Compressibility (1/GPa) = 0.20501163
#
# Stress axis : x y z
#
# Youngs Moduli (GPa) = 58.31379 5.10907 68.92309
#
# Poissons Ratio (x) = -0.14533 0.74290
# Poissons Ratio (y) = -1.65872 1.98872
# Poissons Ratio (z) = 0.62854 0.14742
#
# Static dielectric constant tensor:
#      x y z
#    x 1.622330 0.000000 0.000000 
#    y 0.000000 1.662260 0.000000 
#    z 0.000000 0.000000 1.651440 
# 
# From -- ./inp_files/31044.got.cif
#   From: 2010.05.17/outbox.cif.g08.bks.cpg/sg47_16_cif.got.tgz:31044.got - 2010.06.03 20:15:42.
