data_PCOD9386735
_publ_section_title
;
Structure prediction by ZEFSAII (Michael W. Deem and Ramdas Pophale) SiO2 
 PCOD9386735
Probable space group: P M M M
;
_chemical_formula_sum "Si O2"
_cell_formula_units_Z 36
_cell_length_a 25.960405
_cell_length_b 7.740985
_cell_length_c 9.359600
_cell_angle_alpha 90.000000
_cell_angle_beta 90.000000
_cell_angle_gamma 90.000000
_cell_volume 1880.896846
_symmetry_space_group_name_H-M "P M M M"
_symmetry_group_IT_number 47
_symmetry_cell_setting 'orthorhombic'
loop_
_space_group_symop_operation_xyz
x,y,z
-x,-y,z
x,-y,-z
-x,y,-z
-x,-y,-z
x,y,-z
-x,y,z
x,-y,z
loop_
_atom_site_type_symbol
_atom_site_label
_atom_site_fract_x
_atom_site_fract_y
_atom_site_fract_z
Si Si1 0.879827 0.303257 0.670987
Si Si2 0.767904 0.794810 0.665380
Si Si3 0.656308 0.291672 0.336353
Si Si4 0.938569 0.000000 0.169076
Si Si5 0.443288 0.710813 0.833983
O O1 0.880192 0.263301 0.500000
O O2 0.897412 0.500000 0.689202
O O3 0.820304 0.287640 0.722004
O O4 0.913828 0.166601 0.755208
O O5 0.763961 0.734090 0.500000
O O6 0.711874 0.755951 0.729220
O O7 0.775761 0.000000 0.666171
O O8 0.654434 0.227615 0.500000
O O9 0.654224 0.500000 0.339722
O O10 0.606276 0.228214 0.252415
O O11 0.000000 0.000000 0.187525
O O12 0.927102 0.000000 0.000000
O O13 0.500000 0.765231 0.780586
O O14 0.442816 0.500000 0.829350
O O15 0.439189 0.759998 0.000000
#
# Coordination Sequence:
#
# PCOD9386735 Si02
#       5
#     8   8   8   4   8
#     4  10  20  37  64  93 118 150 196 245 289 336
#     4   9  16  29  51  77 106 138 171 215 275 334
#     4   9  16  25  41  68  96 121 157 206 259 319
#     4  11  25  43  61  85 123 165 198 233 282 339
#     4   8  14  25  40  58  84 120 160 204 257 314
#
# _framework density 19.139806
#
# number of rings (size 3 to 8) (size 9 to 14) (size 15 to 20)
#    0.000    2.778    1.111    1.667    0.000    4.889 
#    0.000    5.556    0.000    3.333    0.000    4.667 
#    0.000    0.000    0.000    0.000    0.000    0.000 
#
# Total GULP energy -200675.468386 kJ/mol
# GULP energy per Si atom -5574.318566 kJ/mol
# Density = 1.909624 g / cm^3
# Si number density = 19.139806 Si / 1000 Ang^3
#
#
#
# Elastic Constant Matrix: (Units=GPa)
#
#
# Indices 1 2 3 4 5 6 
#
# 1 155.8024 55.4412 69.7835 0.0000 0.0000 0.0000
# 2 55.4412 73.1008 37.9266 0.0000 0.0000 0.0000
# 3 69.7835 37.9266 56.1258 0.0000 0.0000 0.0000
# 4 0.0000 0.0000 0.0000 6.4322 0.0000 0.0000
# 5 0.0000 0.0000 0.0000 0.0000 223.1843 0.0000
# 6 0.0000 0.0000 0.0000 0.0000 0.0000 23.8735
#
#
#
# Elastic Compliance Matrix: (Units=1/GPa)
#
#
# Indices 1 2 3 4 5 6 
#
# 1 0.014795 -0.002582 -0.016650 0.000000 0.000000 0.000000
# 2 -0.002582 0.021516 -0.011329 0.000000 0.000000 0.000000
# 3 -0.016650 -0.011329 0.046174 0.000000 0.000000 0.000000
# 4 0.000000 0.000000 0.000000 0.155468 0.000000 0.000000
# 5 0.000000 0.000000 0.000000 0.000000 0.004481 0.000000
# 6 0.000000 0.000000 0.000000 0.000000 0.000000 0.041888
#
#
# Mechanical properties :
#
#
# Convention : Reuss Voigt Hill
#
# Bulk Modulus (GPa) = 46.81012 67.92576 57.36794
# Shear Modulus (GPa) = 14.18184 58.82317 36.50251
#
# Velocity S-wave (km/s) = 2.72501 5.54979 4.37183
# Velocity P-wave (km/s) = 5.86609 8.75404 7.45131
#
# Compressibility (1/GPa) = 0.02136290
#
# Stress axis : x y z
#
# Youngs Moduli (GPa) = 67.59155 46.47775 21.65719
#
# Poissons Ratio (x) = 0.12001 0.36059
# Poissons Ratio (y) = 0.17453 0.24534
# Poissons Ratio (z) = 1.12540 0.52653
#
# Static dielectric constant tensor:
#      x y z
#    x 1.689570 0.000000 0.000000 
#    y 0.000000 1.687220 0.000000 
#    z 0.000000 0.000000 1.647750 
# 
# From -- ./inp_files/12077.got.cif
#   From: 2010.05.17/outbox.cif.g08.bks.cpg/sg47_7_cif.got.tgz:12077.got - 2010.06.03 20:15:42.
