data_PCOD9386159
_publ_section_title
;
Structure prediction by ZEFSAII (Michael W. Deem and Ramdas Pophale) SiO2 
 PCOD9386159
Probable space group: P M M M
;
_chemical_formula_sum "Si O2"
_cell_formula_units_Z 48
_cell_length_a 9.898790
_cell_length_b 29.884980
_cell_length_c 8.936251
_cell_angle_alpha 90.000000
_cell_angle_beta 90.000000
_cell_angle_gamma 90.000000
_cell_volume 2643.567714
_symmetry_space_group_name_H-M "P M M M"
_symmetry_group_IT_number 47
_symmetry_cell_setting 'orthorhombic'
loop_
_space_group_symop_operation_xyz
x,y,z
-x,-y,z
x,-y,-z
-x,y,-z
-x,-y,-z
x,y,-z
-x,y,z
x,-y,z
loop_
_atom_site_type_symbol
_atom_site_label
_atom_site_fract_x
_atom_site_fract_y
_atom_site_fract_z
Si Si1 0.500000 0.052357 0.179199
Si Si2 0.340817 0.280256 0.179839
Si Si3 0.841251 0.202619 0.319843
Si Si4 0.836357 0.450437 0.173367
Si Si5 0.247268 0.101128 0.321711
Si Si6 0.840558 0.357641 0.321509
Si Si7 0.000000 0.053196 0.172235
O O1 0.374570 0.080179 0.240271
O O2 0.500000 0.000000 0.228876
O O3 0.500000 0.051837 0.000000
O O4 0.500000 0.279761 0.224352
O O5 0.257517 0.237915 0.242359
O O6 0.259203 0.322881 0.242876
O O7 0.335954 0.280454 0.000000
O O8 0.835756 0.208921 0.500000
O O9 0.788994 0.152603 0.286363
O O10 0.000000 0.207378 0.276325
O O11 0.789528 0.500000 0.222077
O O12 0.800301 0.407865 0.272544
O O13 0.000000 0.451817 0.174387
O O14 0.795313 0.443697 0.000000
O O15 0.263175 0.097970 0.500000
O O16 0.125970 0.071383 0.262230
O O17 0.832634 0.352616 0.500000
O O18 0.000000 0.350463 0.279070
O O19 0.000000 0.000000 0.168293
O O20 0.000000 0.069457 0.000000
#
# Coordination Sequence:
#
# PCOD9386159 Si02
#       7
#     4   8   8   8   8   8   4
#     4  11  25  43  61  87 125 163 199 243 292 343
#     4  11  25  41  58  84 114 148 192 238 286 344
#     4  10  22  42  64  88 117 147 184 233 289 345
#     4   8  14  26  47  77 113 152 192 235 284 337
#     4  11  23  41  64  91 120 156 199 242 289 347
#     4  10  20  34  55  84 116 152 193 238 289 342
#     4  11  23  39  61  91 125 159 195 239 292 343
#
# _framework density 18.15728
#
# number of rings (size 3 to 8) (size 9 to 14) (size 15 to 20)
#    0.000    1.833    0.833    3.500    1.167    9.667 
#    0.000    1.667    0.000    0.500    0.000    3.500 
#    0.000    0.000    0.000    0.000    0.000    0.000 
#
# Total GULP energy -267867.668514 kJ/mol
# GULP energy per Si atom -5580.576427 kJ/mol
# Density = 1.811595 g / cm^3
# Si number density = 18.157280 Si / 1000 Ang^3
#
#
#
# Elastic Constant Matrix: (Units=GPa)
#
#
# Indices 1 2 3 4 5 6 
#
# 1 155.0989 84.7434 51.9878 0.0000 0.0000 0.0000
# 2 84.7434 144.7007 64.3170 0.0000 0.0000 0.0000
# 3 51.9878 64.3170 55.8165 0.0000 0.0000 0.0000
# 4 0.0000 0.0000 0.0000 37.8023 0.0000 0.0000
# 5 0.0000 0.0000 0.0000 0.0000 33.6024 0.0000
# 6 0.0000 0.0000 0.0000 0.0000 0.0000 17.7462
#
#
#
# Elastic Compliance Matrix: (Units=1/GPa)
#
#
# Indices 1 2 3 4 5 6 
#
# 1 0.010211 -0.003593 -0.005370 0.000000 0.000000 0.000000
# 2 -0.003593 0.015431 -0.014434 0.000000 0.000000 0.000000
# 3 -0.005370 -0.014434 0.039550 0.000000 0.000000 0.000000
# 4 0.000000 0.000000 0.000000 0.026453 0.000000 0.000000
# 5 0.000000 0.000000 0.000000 0.000000 0.029760 0.000000
# 6 0.000000 0.000000 0.000000 0.000000 0.000000 0.056350
#
#
# Mechanical properties :
#
#
# Convention : Reuss Voigt Hill
#
# Bulk Modulus (GPa) = 54.35715 84.19026 69.27371
# Shear Modulus (GPa) = 21.67482 28.13471 24.90477
#
# Velocity S-wave (km/s) = 3.45878 3.94064 3.70755
# Velocity P-wave (km/s) = 6.77884 8.19590 7.52082
#
# Compressibility (1/GPa) = 0.01839684
#
# Stress axis : x y z
#
# Youngs Moduli (GPa) = 97.93729 64.80543 25.28420
#
# Poissons Ratio (x) = 0.23284 0.13578
# Poissons Ratio (y) = 0.35187 0.36496
# Poissons Ratio (z) = 0.52594 0.93543
#
# Static dielectric constant tensor:
#      x y z
#    x 1.697220 0.000000 0.000000 
#    y 0.000000 1.626100 0.000000 
#    z 0.000000 0.000000 1.608450 
# 
# From -- ./inp_files/2806.got.cif
#   From: 2010.05.17/outbox.cif.g08.bks.cpg/sg47_2_cif.got.tgz:2806.got - 2010.06.03 20:15:42.
