data_PCOD9386799
_publ_section_title
;
Structure prediction by ZEFSAII (Michael W. Deem and Ramdas Pophale) SiO2 
 PCOD9386799
Probable space group: P M M M
;
_chemical_formula_sum "Si O2"
_cell_formula_units_Z 60
_cell_length_a 13.491853
_cell_length_b 13.212114
_cell_length_c 18.456924
_cell_angle_alpha 90.000000
_cell_angle_beta 90.000000
_cell_angle_gamma 90.000000
_cell_volume 3290.055597
_symmetry_space_group_name_H-M "P M M M"
_symmetry_group_IT_number 47
_symmetry_cell_setting 'orthorhombic'
loop_
_space_group_symop_operation_xyz
x,y,z
-x,-y,z
x,-y,-z
-x,y,-z
-x,-y,-z
x,y,-z
-x,y,z
x,-y,z
loop_
_atom_site_type_symbol
_atom_site_label
_atom_site_fract_x
_atom_site_fract_y
_atom_site_fract_z
Si Si1 0.612209 0.883537 0.215845
Si Si2 0.185401 0.804787 0.174060
Si Si3 0.175312 0.613985 0.587532
Si Si4 0.676825 0.888933 0.383220
Si Si5 0.888613 0.815891 0.660711
Si Si6 0.880486 0.614444 0.083543
Si Si7 0.881333 0.000000 0.083079
Si Si8 0.608296 0.669996 0.582557
O O1 0.500000 0.851497 0.202510
O O2 0.696717 0.814541 0.182771
O O3 0.633755 0.886204 0.301713
O O4 0.624394 0.000000 0.190338
O O5 0.136244 0.814263 0.253663
O O6 0.157231 0.700522 0.136439
O O7 0.151465 0.899753 0.125687
O O8 0.172828 0.631573 0.500000
O O9 0.139741 0.500000 0.600678
O O10 0.117871 0.702486 0.628287
O O11 0.290467 0.623531 0.613215
O O12 0.795980 0.873489 0.376713
O O13 0.629365 0.790524 0.419202
O O14 0.655122 0.000000 0.413741
O O15 0.000000 0.855973 0.649166
O O16 0.849348 0.500000 0.102615
O O17 0.000000 0.616681 0.085227
O O18 0.850957 0.634538 0.000000
O O19 0.000000 0.000000 0.081082
O O20 0.844646 0.000000 0.000000
O O21 0.603548 0.632756 0.500000
O O22 0.500000 0.650896 0.616427
#
# Coordination Sequence:
#
# PCOD9386799 Si02
#       8
#     8   8   8   8   8   8   4   8
#     4   9  17  31  50  71  99 135 173 212 257 310
#     4  11  20  34  53  81 109 138 174 220 266 309
#     4   9  19  36  54  72  99 135 176 221 266 315
#     4   9  18  31  46  67  94 130 169 201 246 306
#     4  10  21  33  49  75 103 132 168 213 260 307
#     4   9  18  33  53  76 104 140 175 206 252 315
#     4  11  22  34  53  83 116 146 175 212 265 325
#     4   9  17  29  47  72  98 123 158 209 265 315
#
# _framework density 18.236774
#
# number of rings (size 3 to 8) (size 9 to 14) (size 15 to 20)
#    0.000    2.467    0.667    2.400    0.933    3.733 
#    0.000    2.667    0.000    2.400    0.000    4.667 
#    0.000    0.000    0.000    0.000    0.000    0.000 
#
# Total GULP energy -334522.859756 kJ/mol
# GULP energy per Si atom -5575.380996 kJ/mol
# Density = 1.819527 g / cm^3
# Si number density = 18.236774 Si / 1000 Ang^3
#
#
#
# Elastic Constant Matrix: (Units=GPa)
#
#
# Indices 1 2 3 4 5 6 
#
# 1 89.6761 -2.9537 6.1823 0.0000 0.0000 0.0000
# 2 -2.9537 71.1514 24.8021 0.0000 0.0000 0.0000
# 3 6.1823 24.8021 50.4574 0.0000 0.0000 0.0000
# 4 0.0000 0.0000 0.0000 25.9274 0.0000 0.0000
# 5 0.0000 0.0000 0.0000 0.0000 17.7835 0.0000
# 6 0.0000 0.0000 0.0000 0.0000 0.0000 7.8142
#
#
#
# Elastic Compliance Matrix: (Units=1/GPa)
#
#
# Indices 1 2 3 4 5 6 
#
# 1 0.011324 0.001151 -0.001953 0.000000 0.000000 0.000000
# 2 0.001151 0.017078 -0.008535 0.000000 0.000000 0.000000
# 3 -0.001953 -0.008535 0.024254 0.000000 0.000000 0.000000
# 4 0.000000 0.000000 0.000000 0.038569 0.000000 0.000000
# 5 0.000000 0.000000 0.000000 0.000000 0.056232 0.000000
# 6 0.000000 0.000000 0.000000 0.000000 0.000000 0.127972
#
#
# Mechanical properties :
#
#
# Convention : Reuss Voigt Hill
#
# Bulk Modulus (GPa) = 29.42941 29.70512 29.56727
# Shear Modulus (GPa) = 16.37035 22.52198 19.44617
#
# Velocity S-wave (km/s) = 2.99934 3.51804 3.26899
# Velocity P-wave (km/s) = 5.30727 5.72940 5.52237
#
# Compressibility (1/GPa) = 0.03397962
#
# Stress axis : x y z
#
# Youngs Moduli (GPa) = 88.30950 58.55628 41.23113
#
# Poissons Ratio (x) = -0.06739 0.08053
# Poissons Ratio (y) = -0.10164 0.35192
# Poissons Ratio (z) = 0.17248 0.49980
#
# Static dielectric constant tensor:
#      x y z
#    x 1.653740 0.000000 0.000000 
#    y 0.000000 1.634090 0.000000 
#    z 0.000000 0.000000 1.619980 
# 
# From -- ./inp_files/30546.got.cif
#   From: 2010.05.17/outbox.cif.g08.bks.cpg/sg47_16_cif.got.tgz:30546.got - 2010.06.03 20:15:42.
