data_PCOD9386911
_publ_section_title
;
Structure prediction by ZEFSAII (Michael W. Deem and Ramdas Pophale) SiO2 
 PCOD9386911
Probable space group: P M M M
;
_chemical_formula_sum "Si O2"
_cell_formula_units_Z 32
_cell_length_a 11.010883
_cell_length_b 17.952571
_cell_length_c 7.476446
_cell_angle_alpha 90.000000
_cell_angle_beta 90.000000
_cell_angle_gamma 90.000000
_cell_volume 1477.896436
_symmetry_space_group_name_H-M "P M M M"
_symmetry_group_IT_number 47
_symmetry_cell_setting 'orthorhombic'
loop_
_space_group_symop_operation_xyz
x,y,z
-x,-y,z
x,-y,-z
-x,y,-z
-x,-y,-z
x,y,-z
-x,y,z
x,-y,z
loop_
_atom_site_type_symbol
_atom_site_label
_atom_site_fract_x
_atom_site_fract_y
_atom_site_fract_z
Si Si1 0.754917 0.347266 0.719095
Si Si2 0.857915 0.500000 0.298891
Si Si3 0.137050 0.808662 0.713499
Si Si4 0.500000 0.412389 0.716842
Si Si5 0.634517 0.914444 0.214744
O O1 0.761264 0.344329 0.500000
O O2 0.821360 0.421927 0.782815
O O3 0.815582 0.271274 0.782980
O O4 0.617031 0.364838 0.770206
O O5 0.800366 0.500000 0.500000
O O6 0.000000 0.500000 0.316744
O O7 0.126160 0.802057 0.500000
O O8 0.246348 0.866881 0.741930
O O9 0.000000 0.826862 0.780227
O O10 0.500000 0.500000 0.776551
O O11 0.500000 0.416364 0.500000
O O12 0.500000 0.886726 0.276618
O O13 0.647474 0.000000 0.277163
O O14 0.629092 0.916053 0.000000
#
# Coordination Sequence:
#
# PCOD9386911 Si02
#       5
#     8   4   8   4   8
#     4   9  16  25  38  61  97 135 171 211 254 301
#     4   9  14  21  35  53  84 134 176 204 243 294
#     4  10  21  34  50  79 115 144 173 213 261 313
#     4   9  14  22  36  58  88 129 178 220 255 295
#     4   9  20  40  62  81 102 132 173 217 260 313
#
# _framework density 21.652396
#
# number of rings (size 3 to 8) (size 9 to 14) (size 15 to 20)
#    0.000    2.750    1.250    1.500    1.750    5.000 
#    0.000    3.750    0.000    0.000    0.000    0.875 
#    0.000    6.000    0.000    0.000    0.000    0.000 
#
# Total GULP energy -178359.424626 kJ/mol
# GULP energy per Si atom -5573.732020 kJ/mol
# Density = 2.160311 g / cm^3
# Si number density = 21.652396 Si / 1000 Ang^3
#
#
#
# Elastic Constant Matrix: (Units=GPa)
#
#
# Indices 1 2 3 4 5 6 
#
# 1 233.3012 117.9100 10.0502 0.0000 0.0000 0.0000
# 2 117.9100 140.0085 5.3200 0.0000 0.0000 0.0000
# 3 10.0502 5.3200 61.1290 0.0000 0.0000 0.0000
# 4 0.0000 0.0000 0.0000 28.8846 0.0000 0.0000
# 5 0.0000 0.0000 0.0000 0.0000 3.7833 0.0000
# 6 0.0000 0.0000 0.0000 0.0000 0.0000 -287.5775
#
#
#
# Elastic Compliance Matrix: (Units=1/GPa)
#
#
# Indices 1 2 3 4 5 6 
#
# 1 0.007491 -0.006283 -0.000685 0.000000 0.000000 0.000000
# 2 -0.006283 0.012435 -0.000049 0.000000 0.000000 0.000000
# 3 -0.000685 -0.000049 0.016476 0.000000 0.000000 0.000000
# 4 0.000000 0.000000 0.000000 0.034620 0.000000 0.000000
# 5 0.000000 0.000000 0.000000 0.000000 0.264322 0.000000
# 6 0.000000 0.000000 0.000000 0.000000 0.000000 -0.003477
#
#
# Mechanical properties :
#
#
# Convention : Reuss Voigt Hill
#
# Bulk Modulus (GPa) = 44.70570 77.88879 61.29725
# Shear Modulus (GPa) = 14.14999 -30.90468 -8.37735
#
# Velocity S-wave (km/s) = 2.55915 -3.78207 -1.96912
# Velocity P-wave (km/s) = 5.42440 4.12048 4.81677
#
# Compressibility (1/GPa) = 0.02236851
#
# Stress axis : x y z
#
# Youngs Moduli (GPa) = 133.49250 80.41601 60.69536
#
# Poissons Ratio (x) = 0.50523 0.04157
# Poissons Ratio (y) = 0.83869 0.00299
# Poissons Ratio (z) = 0.09142 0.00396
#
# Static dielectric constant tensor:
#      x y z
#    x 1.848280 0.000000 0.000000 
#    y 0.000000 1.778750 0.000000 
#    z 0.000000 0.000000 1.874810 
# 
# From -- ./inp_files/3406.got.cif
#   From: 2010.05.17/outbox.cif.g08.bks.cpg/sg47_2_cif.got.tgz:3406.got - 2010.06.03 20:15:42.
