data_PCOD9386038
_publ_section_title
;
Structure prediction by ZEFSAII (Michael W. Deem and Ramdas Pophale) SiO2 
 PCOD9386038
Probable space group: P M M M
;
_chemical_formula_sum "Si O2"
_cell_formula_units_Z 48
_cell_length_a 28.730676
_cell_length_b 7.712432
_cell_length_c 9.892990
_cell_angle_alpha 90.000000
_cell_angle_beta 90.000000
_cell_angle_gamma 90.000000
_cell_volume 2192.122212
_symmetry_space_group_name_H-M "P M M M"
_symmetry_group_IT_number 47
_symmetry_cell_setting 'orthorhombic'
loop_
_space_group_symop_operation_xyz
x,y,z
-x,-y,z
x,-y,-z
-x,y,-z
-x,-y,-z
x,y,-z
-x,y,z
x,-y,z
loop_
_atom_site_type_symbol
_atom_site_label
_atom_site_fract_x
_atom_site_fract_y
_atom_site_fract_z
Si Si1 0.947919 0.799834 0.203043
Si Si2 0.944508 0.306779 0.500000
Si Si3 0.397865 0.786772 0.343313
Si Si4 0.500000 0.199175 0.335994
Si Si5 0.848015 0.789920 0.144732
Si Si6 0.685209 0.794529 0.846771
Si Si7 0.230258 0.296080 0.346933
O O1 0.936115 0.792449 0.362216
O O2 0.901047 0.722486 0.143066
O O3 0.000000 0.724209 0.180633
O O4 0.950835 0.000000 0.160277
O O5 0.923161 0.500000 0.500000
O O6 0.000000 0.328390 0.500000
O O7 0.388775 0.736659 0.500000
O O8 0.449594 0.725678 0.300699
O O9 0.358107 0.725810 0.241332
O O10 0.398773 0.000000 0.343424
O O11 0.500000 0.194083 0.500000
O O12 0.500000 0.000000 0.286845
O O13 0.819004 0.731082 0.273288
O O14 0.849816 0.000000 0.150281
O O15 0.825677 0.741990 0.000000
O O16 0.731061 0.774813 0.755441
O O17 0.677281 0.000000 0.859487
O O18 0.689453 0.724551 0.000000
O O19 0.231955 0.223689 0.500000
O O20 0.238661 0.500000 0.356458
#
# Coordination Sequence:
#
# PCOD9386038 Si02
#       7
#     8   4   8   4   8   8   8
#     4   9  18  33  54  80 110 142 175 211 254 306
#     4   9  17  29  47  73 105 139 175 215 253 290
#     4   8  13  23  42  69 103 143 184 223 263 308
#     4   7  10  18  35  63 100 141 182 221 260 304
#     4  10  22  39  59  84 112 142 175 212 260 317
#     4  10  20  34  54  81 111 142 178 220 269 325
#     4  11  25  42  59  80 104 134 177 225 271 321
#
# _framework density 21.896588999999999
#
# number of rings (size 3 to 8) (size 9 to 14) (size 15 to 20)
#    0.000    2.667    0.000    2.750    1.167    6.667 
#    0.000    2.083    0.000    2.500    0.000    4.083 
#    0.000    4.667    0.000    0.000    0.000    0.000 
#
# Total GULP energy -267558.088199 kJ/mol
# GULP energy per Si atom -5574.126837 kJ/mol
# Density = 2.184675 g / cm^3
# Si number density = 21.896589 Si / 1000 Ang^3
#
#
#
# Elastic Constant Matrix: (Units=GPa)
#
#
# Indices 1 2 3 4 5 6 
#
# 1 152.7802 -4.3807 78.3365 0.0000 0.0000 0.0000
# 2 -4.3807 39.6825 6.3911 0.0000 0.0000 0.0000
# 3 78.3365 6.3911 176.6088 0.0000 0.0000 0.0000
# 4 0.0000 0.0000 0.0000 -8.7893 0.0000 0.0000
# 5 0.0000 0.0000 0.0000 0.0000 22.8435 0.0000
# 6 0.0000 0.0000 0.0000 0.0000 0.0000 -59.0870
#
#
#
# Elastic Compliance Matrix: (Units=1/GPa)
#
#
# Indices 1 2 3 4 5 6 
#
# 1 0.008568 0.001567 -0.003857 0.000000 0.000000 0.000000
# 2 0.001567 0.025634 -0.001623 0.000000 0.000000 0.000000
# 3 -0.003857 -0.001623 0.007432 0.000000 0.000000 0.000000
# 4 0.000000 0.000000 0.000000 -0.113775 0.000000 0.000000
# 5 0.000000 0.000000 0.000000 0.000000 0.043776 0.000000
# 6 0.000000 0.000000 0.000000 0.000000 0.000000 -0.016924
#
#
# Mechanical properties :
#
#
# Convention : Reuss Voigt Hill
#
# Bulk Modulus (GPa) = 29.57828 58.86282 44.22055
# Shear Modulus (GPa) = -190.88893 10.24173 -90.32360
#
# Velocity S-wave (km/s) = -9.34702 2.16506 -6.42959
# Velocity P-wave (km/s) = 10.14650 5.76112 5.90597
#
# Compressibility (1/GPa) = 0.03380860
#
# Stress axis : x y z
#
# Youngs Moduli (GPa) = 116.71355 39.01011 134.55655
#
# Poissons Ratio (x) = -0.06113 0.51900
# Poissons Ratio (y) = -0.18290 0.21835
# Poissons Ratio (z) = 0.45018 0.06330
#
# Static dielectric constant tensor:
#      x y z
#    x 1.828690 0.000000 0.000000 
#    y 0.000000 1.833450 0.000000 
#    z 0.000000 0.000000 1.821180 
# 
# From -- ./inp_files/13945.got.cif
#   From: 2010.05.17/outbox.cif.g08.bks.cpg/sg47_7_cif.got.tgz:13945.got - 2010.06.03 20:15:42.
