data_PCOD9386995
_publ_section_title
;
Structure prediction by ZEFSAII (Michael W. Deem and Ramdas Pophale) SiO2 
 PCOD9386995
Probable space group: P M M M
;
_chemical_formula_sum "Si O2"
_cell_formula_units_Z 36
_cell_length_a 24.107883
_cell_length_b 10.076947
_cell_length_c 7.952722
_cell_angle_alpha 90.000000
_cell_angle_beta 90.000000
_cell_angle_gamma 90.000000
_cell_volume 1931.985447
_symmetry_space_group_name_H-M "P M M M"
_symmetry_group_IT_number 47
_symmetry_cell_setting 'orthorhombic'
loop_
_space_group_symop_operation_xyz
x,y,z
-x,-y,z
x,-y,-z
-x,y,-z
-x,-y,-z
x,y,-z
-x,y,z
x,-y,z
loop_
_atom_site_type_symbol
_atom_site_label
_atom_site_fract_x
_atom_site_fract_y
_atom_site_fract_z
Si Si1 0.717622 0.651058 0.798564
Si Si2 0.621308 0.153598 0.206685
Si Si3 0.500000 0.161305 0.194366
Si Si4 0.062340 0.848886 0.797371
Si Si5 0.159459 0.349545 0.299892
O O1 0.712044 0.500000 0.732737
O O2 0.670387 0.750537 0.735784
O O3 0.780233 0.696909 0.762295
O O4 0.711492 0.645249 0.000000
O O5 0.559986 0.198488 0.266553
O O6 0.630295 0.000000 0.255356
O O7 0.619866 0.154730 0.000000
O O8 0.500000 0.000000 0.192271
O O9 0.500000 0.206606 0.000000
O O10 0.109630 0.747188 0.746320
O O11 0.000000 0.811966 0.739740
O O12 0.073642 0.000000 0.739663
O O13 0.061177 0.851648 0.000000
O O14 0.162310 0.356373 0.500000
O O15 0.150638 0.500000 0.233583
#
# Coordination Sequence:
#
# PCOD9386995 Si02
#       5
#     8   8   4   8   8
#     4   9  17  29  44  63  89 119 151 190 234 275
#     4   8  13  22  38  60  85 114 147 182 224 276
#     4   7  10  18  33  55  84 113 140 176 224 275
#     4   9  19  36  56  77 100 125 154 190 233 280
#     4  10  21  35  50  70  97 129 163 197 234 277
#
# _framework density 18.633682
#
# number of rings (size 3 to 8) (size 9 to 14) (size 15 to 20)
#    0.000    3.222    0.000    2.667    0.000    3.556 
#    0.000    6.111    0.000    3.333    0.000    0.778 
#    0.000    6.222    0.000    0.000    0.000    0.000 
#
# Total GULP energy -200528.163830 kJ/mol
# GULP energy per Si atom -5570.226773 kJ/mol
# Density = 1.859127 g / cm^3
# Si number density = 18.633682 Si / 1000 Ang^3
#
#
#
# Elastic Constant Matrix: (Units=GPa)
#
#
# Indices 1 2 3 4 5 6 
#
# 1 213.3846 113.8091 6.6047 0.0000 0.0000 0.0000
# 2 113.8091 84.5807 6.3097 0.0000 0.0000 0.0000
# 3 6.6047 6.3097 14.5303 0.0000 0.0000 0.0000
# 4 0.0000 0.0000 0.0000 8.2533 0.0000 0.0000
# 5 0.0000 0.0000 0.0000 0.0000 -31.3101 0.0000
# 6 0.0000 0.0000 0.0000 0.0000 0.0000 191.0363
#
#
#
# Elastic Compliance Matrix: (Units=1/GPa)
#
#
# Indices 1 2 3 4 5 6 
#
# 1 0.016668 -0.022595 0.002235 0.000000 0.000000 0.000000
# 2 -0.022595 0.042848 -0.008336 0.000000 0.000000 0.000000
# 3 0.002235 -0.008336 0.071425 0.000000 0.000000 0.000000
# 4 0.000000 0.000000 0.000000 0.121163 0.000000 0.000000
# 5 0.000000 0.000000 0.000000 0.000000 -0.031939 0.000000
# 6 0.000000 0.000000 0.000000 0.000000 0.000000 0.005235
#
#
# Mechanical properties :
#
#
# Convention : Reuss Voigt Hill
#
# Bulk Modulus (GPa) = 13.59618 62.88252 38.23935
# Shear Modulus (GPa) = 16.27023 45.98071 31.12547
#
# Velocity S-wave (km/s) = 2.95814 4.97290 4.09147
# Velocity P-wave (km/s) = 4.35659 8.17269 6.54877
#
# Compressibility (1/GPa) = 0.07355006
#
# Stress axis : x y z
#
# Youngs Moduli (GPa) = 59.99393 23.33821 14.00064
#
# Poissons Ratio (x) = 0.52733 -0.03129
# Poissons Ratio (y) = 1.35557 0.11671
# Poissons Ratio (z) = -0.13410 0.19455
#
# Static dielectric constant tensor:
#      x y z
#    x 1.649460 0.000000 0.000000 
#    y 0.000000 1.638440 0.000000 
#    z 0.000000 0.000000 1.663600 
# 
# From -- ./inp_files/1450.got.cif
#   From: 2010.05.17/outbox.cif.g08.bks.cpg/sg47_1_cif.got.tgz:1450.got - 2010.06.03 20:15:42.
