data_PCOD9386534
_publ_section_title
;
Structure prediction by ZEFSAII (Michael W. Deem and Ramdas Pophale) SiO2 
 PCOD9386534
Probable space group: P M M M
;
_chemical_formula_sum "Si O2"
_cell_formula_units_Z 40
_cell_length_a 9.235608
_cell_length_b 28.214899
_cell_length_c 8.038830
_cell_angle_alpha 90.000000
_cell_angle_beta 90.000000
_cell_angle_gamma 90.000000
_cell_volume 2094.772365
_symmetry_space_group_name_H-M "P M M M"
_symmetry_group_IT_number 47
_symmetry_cell_setting 'orthorhombic'
loop_
_space_group_symop_operation_xyz
x,y,z
-x,-y,z
x,-y,-z
-x,y,-z
-x,-y,-z
x,y,-z
-x,y,z
x,-y,z
loop_
_atom_site_type_symbol
_atom_site_label
_atom_site_fract_x
_atom_site_fract_y
_atom_site_fract_z
Si Si1 0.668100 0.603258 0.201989
Si Si2 0.823578 0.945678 0.000000
Si Si3 0.667270 0.790186 0.196254
Si Si4 0.834266 0.302790 0.301715
Si Si5 0.323729 0.500000 0.193312
Si Si6 0.173779 0.882538 0.685887
O O1 0.500000 0.610303 0.251936
O O2 0.764127 0.646667 0.260624
O O3 0.718368 0.551211 0.264281
O O4 0.669972 0.601934 0.000000
O O5 0.779068 0.917407 0.165864
O O6 0.000000 0.946388 0.000000
O O7 0.773961 0.000000 0.000000
O O8 0.500000 0.788346 0.249137
O O9 0.741654 0.739656 0.224840
O O10 0.752053 0.831770 0.289189
O O11 0.672505 0.801092 0.000000
O O12 0.833574 0.296350 0.500000
O O13 0.000000 0.300747 0.242164
O O14 0.500000 0.500000 0.193286
O O15 0.277168 0.500000 0.000000
O O16 0.205059 0.900769 0.500000
O O17 0.000000 0.876528 0.699652
#
# Coordination Sequence:
#
# PCOD9386534 Si02
#       6
#     8   4   8   8   4   8
#     4   9  17  32  55  80 103 131 172 220 270 324
#     4   9  18  34  57  87 123 159 195 238 283 326
#     4  11  23  38  58  83 109 141 183 230 282 339
#     4  11  24  38  51  73 107 144 180 220 271 330
#     4   7  12  26  50  77 102 128 164 215 268 319
#     4  10  20  35  58  87 118 154 194 235 283 336
#
# _framework density 19.095153
#
# number of rings (size 3 to 8) (size 9 to 14) (size 15 to 20)
#    0.000    2.200    1.000    3.600    0.000    8.800 
#    0.000    3.000    0.000    6.000    0.000    1.400 
#    0.000    0.000    0.000    0.000    0.000    0.000 
#
# Total GULP energy -223240.599686 kJ/mol
# GULP energy per Si atom -5581.014992 kJ/mol
# Density = 1.905169 g / cm^3
# Si number density = 19.095153 Si / 1000 Ang^3
#
#
#
# Elastic Constant Matrix: (Units=GPa)
#
#
# Indices 1 2 3 4 5 6 
#
# 1 54.9429 41.7424 33.4428 0.0000 0.0000 0.0000
# 2 41.7424 143.5675 46.2185 0.0000 0.0000 0.0000
# 3 33.4428 46.2185 78.8793 0.0000 0.0000 0.0000
# 4 0.0000 0.0000 0.0000 -2.7723 0.0000 0.0000
# 5 0.0000 0.0000 0.0000 0.0000 64.7383 0.0000
# 6 0.0000 0.0000 0.0000 0.0000 0.0000 27.4584
#
#
#
# Elastic Compliance Matrix: (Units=1/GPa)
#
#
# Indices 1 2 3 4 5 6 
#
# 1 0.027357 -0.005201 -0.008551 0.000000 0.000000 0.000000
# 2 -0.005201 0.009574 -0.003404 0.000000 0.000000 0.000000
# 3 -0.008551 -0.003404 0.018298 0.000000 0.000000 0.000000
# 4 0.000000 0.000000 0.000000 -0.360717 0.000000 0.000000
# 5 0.000000 0.000000 0.000000 0.000000 0.015447 0.000000
# 6 0.000000 0.000000 0.000000 0.000000 0.000000 0.036419
#
#
# Mechanical properties :
#
#
# Convention : Reuss Voigt Hill
#
# Bulk Modulus (GPa) = 47.81227 57.79967 52.80597
# Shear Modulus (GPa) = -23.54739 28.28395 2.36828
#
# Velocity S-wave (km/s) = -3.51545 3.85283 1.11487
# Velocity P-wave (km/s) = 2.93521 7.08007 5.41954
#
# Compressibility (1/GPa) = 0.02091514
#
# Stress axis : x y z
#
# Youngs Moduli (GPa) = 36.55333 104.45395 54.65135
#
# Poissons Ratio (x) = 0.54330 0.46733
# Poissons Ratio (y) = 0.19012 0.18605
# Poissons Ratio (z) = 0.31257 0.35560
#
# Static dielectric constant tensor:
#      x y z
#    x 1.642740 0.000000 0.000000 
#    y 0.000000 1.645350 0.000000 
#    z 0.000000 0.000000 1.689670 
# 
# From -- ./inp_files/1845.got.cif
#   From: 2010.05.17/outbox.cif.g08.bks.cpg/sg47_1_cif.got.tgz:1845.got - 2010.06.03 20:15:42.
