data_PCOD9386750
_publ_section_title
;
Structure prediction by ZEFSAII (Michael W. Deem and Ramdas Pophale) SiO2 
 PCOD9386750
Probable space group: P M M M
;
_chemical_formula_sum "Si O2"
_cell_formula_units_Z 48
_cell_length_a 10.020050
_cell_length_b 9.700911
_cell_length_c 27.535187
_cell_angle_alpha 90.000000
_cell_angle_beta 90.000000
_cell_angle_gamma 90.000000
_cell_volume 2676.519668
_symmetry_space_group_name_H-M "P M M M"
_symmetry_group_IT_number 47
_symmetry_cell_setting 'orthorhombic'
loop_
_space_group_symop_operation_xyz
x,y,z
-x,-y,z
x,-y,-z
-x,y,-z
-x,-y,-z
x,y,-z
-x,y,z
x,-y,z
loop_
_atom_site_type_symbol
_atom_site_label
_atom_site_fract_x
_atom_site_fract_y
_atom_site_fract_z
Si Si1 0.843205 0.780770 0.392302
Si Si2 0.840386 0.500000 0.445147
Si Si3 0.342286 0.660624 0.208818
Si Si4 0.846174 0.164664 0.722035
Si Si5 0.253085 0.335446 0.097459
Si Si6 0.344428 0.000000 0.558152
Si Si7 0.000000 0.834706 0.941175
Si Si8 0.500000 0.839907 0.942158
O O1 0.810806 0.631545 0.412894
O O2 0.829580 0.796507 0.334564
O O3 0.738290 0.874939 0.419721
O O4 0.000000 0.814075 0.403574
O O5 0.783076 0.500000 0.500000
O O6 0.000000 0.500000 0.450889
O O7 0.500000 0.696414 0.206257
O O8 0.333317 0.500000 0.223802
O O9 0.259427 0.755460 0.245213
O O10 0.278114 0.671018 0.155283
O O11 0.000000 0.198974 0.735729
O O12 0.830140 0.000000 0.726567
O O13 0.248394 0.500000 0.084411
O O14 0.125077 0.249318 0.080280
O O15 0.374674 0.251014 0.074149
O O16 0.500000 0.000000 0.572253
O O17 0.337347 0.000000 0.500000
O O18 0.000000 0.000000 0.929016
O O19 0.000000 0.826348 0.000000
O O20 0.500000 0.000000 0.923528
O O21 0.500000 0.849615 0.000000
#
# Coordination Sequence:
#
# PCOD9386750 Si02
#       8
#     8   4   8   8   8   4   4   4
#     4  10  20  38  61  86 118 156 201 250 302 362
#     4   9  18  32  57  91 119 147 195 249 298 357
#     4  10  23  43  63  88 121 159 203 251 305 367
#     4  10  22  39  60  90 120 153 202 254 304 364
#     4  11  23  42  65  91 124 163 212 261 308 371
#     4  11  23  37  57  87 123 161 201 245 298 357
#     4  11  25  43  63  93 133 169 205 255 316 375
#     4  11  23  39  63  95 129 165 205 251 308 369
#
# _framework density 17.933737000000001
#
# number of rings (size 3 to 8) (size 9 to 14) (size 15 to 20)
#    0.000    1.667    1.667    2.250    2.333    7.333 
#    0.000    0.417    0.000    1.500    0.000    0.000 
#    0.000    0.000    0.000    0.000    0.000    0.000 
#
# Total GULP energy -267747.512898 kJ/mol
# GULP energy per Si atom -5578.073185 kJ/mol
# Density = 1.789292 g / cm^3
# Si number density = 17.933737 Si / 1000 Ang^3
#
#
#
# Elastic Constant Matrix: (Units=GPa)
#
#
# Indices 1 2 3 4 5 6 
#
# 1 165.0691 104.3019 73.0763 0.0000 0.0000 0.0000
# 2 104.3019 176.0439 72.1302 0.0000 0.0000 0.0000
# 3 73.0763 72.1302 87.1784 0.0000 0.0000 0.0000
# 4 0.0000 0.0000 0.0000 36.1090 0.0000 0.0000
# 5 0.0000 0.0000 0.0000 0.0000 39.0728 0.0000
# 6 0.0000 0.0000 0.0000 0.0000 0.0000 19.8339
#
#
#
# Elastic Compliance Matrix: (Units=1/GPa)
#
#
# Indices 1 2 3 4 5 6 
#
# 1 0.011455 -0.004316 -0.006031 0.000000 0.000000 0.000000
# 2 -0.004316 0.010220 -0.004838 0.000000 0.000000 0.000000
# 3 -0.006031 -0.004838 0.020529 0.000000 0.000000 0.000000
# 4 0.000000 0.000000 0.000000 0.027694 0.000000 0.000000
# 5 0.000000 0.000000 0.000000 0.000000 0.025593 0.000000
# 6 0.000000 0.000000 0.000000 0.000000 0.000000 0.050419
#
#
# Mechanical properties :
#
#
# Convention : Reuss Voigt Hill
#
# Bulk Modulus (GPa) = 84.50248 103.03423 93.76836
# Shear Modulus (GPa) = 27.74314 30.92200 29.33257
#
# Velocity S-wave (km/s) = 3.93743 4.15690 4.04865
# Velocity P-wave (km/s) = 8.23971 8.97871 8.61713
#
# Compressibility (1/GPa) = 0.01183397
#
# Stress axis : x y z
#
# Youngs Moduli (GPa) = 87.29734 97.85134 48.71060
#
# Poissons Ratio (x) = 0.42229 0.29379
# Poissons Ratio (y) = 0.37674 0.23566
# Poissons Ratio (z) = 0.52653 0.47341
#
# Static dielectric constant tensor:
#      x y z
#    x 1.621000 0.000000 0.000000 
#    y 0.000000 1.479640 0.000000 
#    z 0.000000 0.000000 1.592980 
# 
# From -- ./inp_files/34226.got.cif
#   From: 2010.05.17/outbox.cif.g08.bks.cpg/sg47_18_cif.got.tgz:34226.got - 2010.06.03 20:15:42.
