data_PCOD9386030
_publ_section_title
;
Structure prediction by ZEFSAII (Michael W. Deem and Ramdas Pophale) SiO2 
 PCOD9386030
Probable space group: P M M M
;
_chemical_formula_sum "Si O2"
_cell_formula_units_Z 52
_cell_length_a 14.926013
_cell_length_b 8.714602
_cell_length_c 21.029183
_cell_angle_alpha 90.000000
_cell_angle_beta 90.000000
_cell_angle_gamma 90.000000
_cell_volume 2735.355475
_symmetry_space_group_name_H-M "P M M M"
_symmetry_group_IT_number 47
_symmetry_cell_setting 'orthorhombic'
loop_
_space_group_symop_operation_xyz
x,y,z
-x,-y,z
x,-y,-z
-x,y,-z
-x,-y,-z
x,y,-z
-x,y,z
x,-y,z
loop_
_atom_site_type_symbol
_atom_site_label
_atom_site_fract_x
_atom_site_fract_y
_atom_site_fract_z
Si Si1 0.191549 0.317119 0.572691
Si Si2 0.901055 0.320982 0.097300
Si Si3 0.100326 0.678628 0.749315
Si Si4 0.000000 0.824667 0.577348
Si Si5 0.396518 0.187617 0.193685
Si Si6 0.288940 0.184357 0.930884
Si Si7 0.273963 0.180748 0.309129
O O1 0.206851 0.263745 0.500000
O O2 0.189078 0.500000 0.572627
O O3 0.093179 0.257613 0.593878
O O4 0.265098 0.259334 0.622427
O O5 0.893828 0.500000 0.078831
O O6 0.898787 0.316206 0.174112
O O7 0.814789 0.231509 0.073754
O O8 0.000000 0.264978 0.077526
O O9 0.115899 0.500000 0.730630
O O10 0.178829 0.784164 0.724078
O O11 0.000000 0.722679 0.728643
O O12 0.000000 0.826578 0.500000
O O13 0.000000 0.000000 0.600135
O O14 0.500000 0.233544 0.191076
O O15 0.342362 0.241276 0.131163
O O16 0.347921 0.237614 0.258750
O O17 0.393428 0.000000 0.193529
O O18 0.294769 0.000000 0.929593
O O19 0.324116 0.236925 0.000000
O O20 0.285795 0.000000 0.318067
#
# Coordination Sequence:
#
# PCOD9386030 Si02
#       7
#     8   8   8   4   8   8   8
#     4  10  21  36  53  75 109 151 187 219 262 318
#     4   9  18  33  52  74 105 147 187 220 259 313
#     4   9  18  32  50  73 104 142 181 220 263 317
#     4   9  17  31  51  77 111 149 190 229 260 301
#     4   9  19  37  58  81 108 136 173 224 282 338
#     4  10  20  34  54  81 110 140 178 224 272 321
#     4  11  21  33  55  82 107 139 179 227 275 319
#
# _framework density 19.010325999999999
#
# number of rings (size 3 to 8) (size 9 to 14) (size 15 to 20)
#    0.000    2.385    1.538    2.077    1.077    3.385 
#    0.000    4.615    0.000    4.615    0.000    4.308 
#    0.000    0.000    0.000    0.000    0.000    0.000 
#
# Total GULP energy -290163.430154 kJ/mol
# GULP energy per Si atom -5580.065964 kJ/mol
# Density = 1.896706 g / cm^3
# Si number density = 19.010326 Si / 1000 Ang^3
#
#
#
# Elastic Constant Matrix: (Units=GPa)
#
#
# Indices 1 2 3 4 5 6 
#
# 1 107.6923 12.8154 67.2879 0.0000 0.0000 0.0000
# 2 12.8154 22.1734 21.1880 0.0000 0.0000 0.0000
# 3 67.2879 21.1880 141.4541 0.0000 0.0000 0.0000
# 4 0.0000 0.0000 0.0000 16.5019 0.0000 0.0000
# 5 0.0000 0.0000 0.0000 0.0000 -2.5172 0.0000
# 6 0.0000 0.0000 0.0000 0.0000 0.0000 168.8940
#
#
#
# Elastic Compliance Matrix: (Units=1/GPa)
#
#
# Indices 1 2 3 4 5 6 
#
# 1 0.013282 -0.001913 -0.006032 0.000000 0.000000 0.000000
# 2 -0.001913 0.052908 -0.007015 0.000000 0.000000 0.000000
# 3 -0.006032 -0.007015 0.010989 0.000000 0.000000 0.000000
# 4 0.000000 0.000000 0.000000 0.060599 0.000000 0.000000
# 5 0.000000 0.000000 0.000000 0.000000 -0.397269 0.000000
# 6 0.000000 0.000000 0.000000 0.000000 0.000000 0.005921
#
#
# Mechanical properties :
#
#
# Convention : Reuss Voigt Hill
#
# Bulk Modulus (GPa) = 21.15945 52.65585 36.90765
# Shear Modulus (GPa) = -24.05026 47.91097 11.93036
#
# Velocity S-wave (km/s) = -3.56071 5.02567 2.50786
# Velocity P-wave (km/s) = 2.39795 7.83805 5.27660
#
# Compressibility (1/GPa) = 0.04726021
#
# Stress axis : x y z
#
# Youngs Moduli (GPa) = 75.29012 18.90077 90.99770
#
# Poissons Ratio (x) = 0.03616 0.54885
# Poissons Ratio (y) = 0.14403 0.63834
# Poissons Ratio (z) = 0.45411 0.13259
#
# Static dielectric constant tensor:
#      x y z
#    x 1.629770 0.000000 0.000000 
#    y 0.000000 1.648390 0.000000 
#    z 0.000000 0.000000 1.731830 
# 
# From -- ./inp_files/30872.got.cif
#   From: 2010.05.17/outbox.cif.g08.bks.cpg/sg47_16_cif.got.tgz:30872.got - 2010.06.03 20:15:42.
