data_PCOD9386378
_publ_section_title
;
Structure prediction by ZEFSAII (Michael W. Deem and Ramdas Pophale) SiO2 
 PCOD9386378
Probable space group: P M M M
;
_chemical_formula_sum "Si O2"
_cell_formula_units_Z 60
_cell_length_a 18.518152
_cell_length_b 7.756315
_cell_length_c 20.161939
_cell_angle_alpha 90.000000
_cell_angle_beta 90.000000
_cell_angle_gamma 90.000000
_cell_volume 2895.912125
_symmetry_space_group_name_H-M "P M M M"
_symmetry_group_IT_number 47
_symmetry_cell_setting 'orthorhombic'
loop_
_space_group_symop_operation_xyz
x,y,z
-x,-y,z
x,-y,-z
-x,y,-z
-x,-y,-z
x,y,-z
-x,y,z
x,-y,z
loop_
_atom_site_type_symbol
_atom_site_label
_atom_site_fract_x
_atom_site_fract_y
_atom_site_fract_z
Si Si1 0.418056 0.292960 0.314236
Si Si2 0.692111 0.291105 0.425600
Si Si3 0.418408 0.794570 0.163891
Si Si4 0.080601 0.207884 0.711405
Si Si5 0.140449 0.795814 0.426881
Si Si6 0.283866 0.293902 0.074963
Si Si7 0.000000 0.710956 0.922948
Si Si8 0.144026 0.706786 0.847343
O O1 0.500000 0.226820 0.323651
O O2 0.420643 0.500000 0.321250
O O3 0.361689 0.228042 0.368665
O O4 0.396336 0.254655 0.238734
O O5 0.667620 0.243281 0.500000
O O6 0.694965 0.500000 0.422693
O O7 0.773694 0.226263 0.417507
O O8 0.500000 0.726014 0.152777
O O9 0.359374 0.736035 0.111464
O O10 0.421779 0.000000 0.160729
O O11 0.101950 0.274499 0.638610
O O12 0.135320 0.254918 0.769737
O O13 0.000000 0.268903 0.729455
O O14 0.079280 0.000000 0.708229
O O15 0.121819 0.723620 0.500000
O O16 0.124395 0.000000 0.429253
O O17 0.274409 0.500000 0.070686
O O18 0.216983 0.226130 0.118741
O O19 0.282955 0.224869 0.000000
O O20 0.927690 0.770436 0.885463
O O21 0.000000 0.500000 0.921552
O O22 0.000000 0.761951 0.000000
O O23 0.144133 0.500000 0.854002
#
# Coordination Sequence:
#
# PCOD9386378 Si02
#       8
#     8   8   8   8   8   8   4   8
#     4   9  18  33  53  77 106 141 180 220 263 314
#     4   9  18  32  51  77 107 138 174 219 269 318
#     4  10  22  39  58  81 110 145 184 225 271 324
#     4  10  21  36  54  78 108 141 179 225 271 316
#     4   9  19  35  53  74 102 140 183 223 265 314
#     4  10  22  39  59  85 113 141 179 225 272 325
#     4   9  16  30  55  81 106 139 176 214 257 309
#     4  10  20  35  56  83 111 142 180 221 265 321
#
# _framework density 20.718858999999998
#
# number of rings (size 3 to 8) (size 9 to 14) (size 15 to 20)
#    0.000    2.467    0.667    0.800    1.867    5.067 
#    0.000    4.000    0.000    1.600    0.000    6.533 
#    0.000    0.000    0.000    0.000    0.000    0.000 
#
# Total GULP energy -334925.169738 kJ/mol
# GULP energy per Si atom -5582.086162 kJ/mol
# Density = 2.067170 g / cm^3
# Si number density = 20.718859 Si / 1000 Ang^3
#
#
#
# Elastic Constant Matrix: (Units=GPa)
#
#
# Indices 1 2 3 4 5 6 
#
# 1 91.4414 0.5674 81.9371 0.0000 0.0000 0.0000
# 2 0.5674 29.6227 0.4994 0.0000 0.0000 0.0000
# 3 81.9371 0.4994 162.0838 0.0000 0.0000 0.0000
# 4 0.0000 0.0000 0.0000 27.7844 0.0000 0.0000
# 5 0.0000 0.0000 0.0000 0.0000 34.4228 0.0000
# 6 0.0000 0.0000 0.0000 0.0000 0.0000 13.5089
#
#
#
# Elastic Compliance Matrix: (Units=1/GPa)
#
#
# Indices 1 2 3 4 5 6 
#
# 1 0.019993 -0.000213 -0.010106 0.000000 0.000000 0.000000
# 2 -0.000213 0.033762 0.000003 0.000000 0.000000 0.000000
# 3 -0.010106 0.000003 0.011279 0.000000 0.000000 0.000000
# 4 0.000000 0.000000 0.000000 0.035991 0.000000 0.000000
# 5 0.000000 0.000000 0.000000 0.000000 0.029051 0.000000
# 6 0.000000 0.000000 0.000000 0.000000 0.000000 0.074025
#
#
# Mechanical properties :
#
#
# Convention : Reuss Voigt Hill
#
# Bulk Modulus (GPa) = 22.52110 49.90617 36.21363
# Shear Modulus (GPa) = 20.87396 28.48615 24.68005
#
# Velocity S-wave (km/s) = 3.17754 3.71197 3.45510
# Velocity P-wave (km/s) = 4.93516 6.52007 5.78217
#
# Compressibility (1/GPa) = 0.04440281
#
# Stress axis : x y z
#
# Youngs Moduli (GPa) = 50.01692 29.61914 88.66311
#
# Poissons Ratio (x) = 0.00630 0.89606
# Poissons Ratio (y) = 0.01063 -0.00030
# Poissons Ratio (z) = 0.50549 -0.00010
#
# Static dielectric constant tensor:
#      x y z
#    x 1.691860 0.000000 0.000000 
#    y 0.000000 1.771860 0.000000 
#    z 0.000000 0.000000 1.732480 
# 
# From -- ./inp_files/28764.got.cif
#   From: 2010.05.17/outbox.cif.g08.bks.cpg/sg47_15_cif.got.tgz:28764.got - 2010.06.03 20:15:42.
