data_PCOD9386126
_publ_section_title
;
Structure prediction by ZEFSAII (Michael W. Deem and Ramdas Pophale) SiO2 
 PCOD9386126
Probable space group: P M M M
;
_chemical_formula_sum "Si O2"
_cell_formula_units_Z 52
_cell_length_a 16.241224
_cell_length_b 8.399537
_cell_length_c 19.996521
_cell_angle_alpha 90.000000
_cell_angle_beta 90.000000
_cell_angle_gamma 90.000000
_cell_volume 2727.900637
_symmetry_space_group_name_H-M "P M M M"
_symmetry_group_IT_number 47
_symmetry_cell_setting 'orthorhombic'
loop_
_space_group_symop_operation_xyz
x,y,z
-x,-y,z
x,-y,-z
-x,y,-z
-x,-y,-z
x,y,-z
-x,y,z
x,-y,z
loop_
_atom_site_type_symbol
_atom_site_label
_atom_site_fract_x
_atom_site_fract_y
_atom_site_fract_z
Si Si1 0.409112 0.693255 0.220258
Si Si2 0.639207 0.310909 0.926078
Si Si3 0.240039 0.182867 0.715233
Si Si4 0.589880 0.500000 0.419665
Si Si5 0.309774 0.180472 0.578065
Si Si6 0.822659 0.813130 0.074371
Si Si7 0.091098 0.687906 0.201989
O O1 0.500000 0.740789 0.245748
O O2 0.404472 0.500000 0.222115
O O3 0.402087 0.746460 0.142351
O O4 0.329029 0.757770 0.258507
O O5 0.623883 0.500000 0.928370
O O6 0.736789 0.280387 0.917420
O O7 0.615918 0.245783 0.000000
O O8 0.240408 0.189570 0.634733
O O9 0.164524 0.275648 0.747009
O O10 0.231894 0.000000 0.736593
O O11 0.500000 0.500000 0.388260
O O12 0.583303 0.500000 0.500000
O O13 0.633752 0.332754 0.405126
O O14 0.285136 0.195464 0.500000
O O15 0.346484 0.000000 0.584948
O O16 0.884881 0.769984 0.132501
O O17 0.802486 0.000000 0.077830
O O18 0.855024 0.778209 0.000000
O O19 0.089917 0.500000 0.190372
O O20 0.000000 0.738904 0.224768
#
# Coordination Sequence:
#
# PCOD9386126 Si02
#       7
#     8   8   8   4   8   8   8
#     4  10  21  35  53  80 114 153 194 237 284 335
#     4   9  17  31  52  75 103 144 191 236 281 330
#     4  11  23  39  61  85 114 152 189 237 294 345
#     4   9  18  32  54  86 119 155 196 239 293 349
#     4   9  20  38  59  85 115 153 201 245 292 353
#     4  10  20  34  55  82 112 147 187 234 288 342
#     4  11  24  40  60  86 115 149 189 233 287 353
#
# _framework density 19.062277000000002
#
# number of rings (size 3 to 8) (size 9 to 14) (size 15 to 20)
#    0.000    2.077    1.538    1.385    2.154    4.000 
#    0.000    6.154    0.000    0.462    0.000    6.462 
#    0.000    0.000    0.000    0.000    0.000    0.000 
#
# Total GULP energy -289907.710675 kJ/mol
# GULP energy per Si atom -5575.148282 kJ/mol
# Density = 1.901889 g / cm^3
# Si number density = 19.062277 Si / 1000 Ang^3
#
#
#
# Elastic Constant Matrix: (Units=GPa)
#
#
# Indices 1 2 3 4 5 6 
#
# 1 72.3532 1.0645 32.1895 0.0000 0.0000 0.0000
# 2 1.0645 41.0174 15.5582 0.0000 0.0000 0.0000
# 3 32.1895 15.5582 91.8658 0.0000 0.0000 0.0000
# 4 0.0000 0.0000 0.0000 20.4865 0.0000 0.0000
# 5 0.0000 0.0000 0.0000 0.0000 4.9006 0.0000
# 6 0.0000 0.0000 0.0000 0.0000 0.0000 -64.6955
#
#
#
# Elastic Compliance Matrix: (Units=1/GPa)
#
#
# Indices 1 2 3 4 5 6 
#
# 1 0.016509 0.001887 -0.006104 0.000000 0.000000 0.000000
# 2 0.001887 0.026269 -0.005110 0.000000 0.000000 0.000000
# 3 -0.006104 -0.005110 0.013890 0.000000 0.000000 0.000000
# 4 0.000000 0.000000 0.000000 0.048813 0.000000 0.000000
# 5 0.000000 0.000000 0.000000 0.000000 0.204058 0.000000
# 6 0.000000 0.000000 0.000000 0.000000 0.000000 -0.015457
#
#
# Mechanical properties :
#
#
# Convention : Reuss Voigt Hill
#
# Bulk Modulus (GPa) = 26.30659 33.65119 29.97889
# Shear Modulus (GPa) = 15.36532 2.56658 8.96595
#
# Velocity S-wave (km/s) = 2.84220 1.16161 2.17111
# Velocity P-wave (km/s) = 4.95995 4.41483 4.69531
#
# Compressibility (1/GPa) = 0.03801328
#
# Stress axis : x y z
#
# Youngs Moduli (GPa) = 60.57266 38.06732 71.99518
#
# Poissons Ratio (x) = -0.07183 0.43948
# Poissons Ratio (y) = -0.11430 0.36790
# Poissons Ratio (z) = 0.36975 0.19453
#
# Static dielectric constant tensor:
#      x y z
#    x 1.649260 0.000000 0.000000 
#    y 0.000000 1.696030 0.000000 
#    z 0.000000 0.000000 1.695070 
# 
# From -- ./inp_files/30870.got.cif
#   From: 2010.05.17/outbox.cif.g08.bks.cpg/sg47_16_cif.got.tgz:30870.got - 2010.06.03 20:15:42.
