data_PCOD9386379
_publ_section_title
;
Structure prediction by ZEFSAII (Michael W. Deem and Ramdas Pophale) SiO2 
 PCOD9386379
Probable space group: P M M M
;
_chemical_formula_sum "Si O2"
_cell_formula_units_Z 40
_cell_length_a 7.878921
_cell_length_b 13.971240
_cell_length_c 17.558476
_cell_angle_alpha 90.000000
_cell_angle_beta 90.000000
_cell_angle_gamma 90.000000
_cell_volume 1932.807123
_symmetry_space_group_name_H-M "P M M M"
_symmetry_group_IT_number 47
_symmetry_cell_setting 'orthorhombic'
loop_
_space_group_symop_operation_xyz
x,y,z
-x,-y,z
x,-y,-z
-x,y,-z
-x,-y,-z
x,y,-z
-x,y,z
x,-y,z
loop_
_atom_site_type_symbol
_atom_site_label
_atom_site_fract_x
_atom_site_fract_y
_atom_site_fract_z
Si Si1 0.191835 0.385304 0.310364
Si Si2 0.699904 0.391783 0.000000
Si Si3 0.796829 0.287173 0.845193
Si Si4 0.201460 0.116113 0.417387
Si Si5 0.791936 0.890321 0.248239
Si Si6 0.500000 0.616913 0.586359
O O1 0.184844 0.500000 0.314201
O O2 0.246358 0.355766 0.225743
O O3 0.329838 0.352273 0.370842
O O4 0.000000 0.348505 0.324070
O O5 0.742756 0.331977 0.075462
O O6 0.776551 0.500000 0.000000
O O7 0.500000 0.403159 0.000000
O O8 0.735353 0.182923 0.817183
O O9 0.000000 0.281879 0.848498
O O10 0.271846 0.148730 0.500000
O O11 0.265235 0.143130 0.332906
O O12 0.000000 0.138131 0.418344
O O13 0.215429 0.000000 0.417197
O O14 0.000000 0.889973 0.249799
O O15 0.739195 0.000000 0.235925
O O16 0.500000 0.500000 0.587791
O O17 0.500000 0.647620 0.500000
#
# Coordination Sequence:
#
# PCOD9386379 Si02
#       6
#     8   4   8   8   8   4
#     4   9  18  32  52  79 110 145 187 235 286 343
#     4  11  25  41  60  85 106 132 175 227 284 351
#     4  10  20  35  56  83 113 143 175 222 286 343
#     4   7   9  15  31  58  94 135 175 214 253 291
#     4   8  14  26  46  74 109 148 187 222 262 321
#     4   9  18  32  52  77 108 152 195 231 282 342
#
# _framework density 20.695287
#
# number of rings (size 3 to 8) (size 9 to 14) (size 15 to 20)
#    0.000    3.200    0.000    2.700    1.400    2.000 
#    0.000    3.500    0.000    7.200    0.000    0.000 
#    0.000    0.800    0.000    0.000    0.000    0.000 
#
# Total GULP energy -223012.609451 kJ/mol
# GULP energy per Si atom -5575.315236 kJ/mol
# Density = 2.064818 g / cm^3
# Si number density = 20.695287 Si / 1000 Ang^3
#
#
#
# Elastic Constant Matrix: (Units=GPa)
#
#
# Indices 1 2 3 4 5 6 
#
# 1 49.2535 21.9825 57.0781 0.0000 0.0000 0.0000
# 2 21.9825 119.2294 78.2804 0.0000 0.0000 0.0000
# 3 57.0781 78.2804 222.6541 0.0000 0.0000 0.0000
# 4 0.0000 0.0000 0.0000 6.1963 0.0000 0.0000
# 5 0.0000 0.0000 0.0000 0.0000 18.9457 0.0000
# 6 0.0000 0.0000 0.0000 0.0000 0.0000 3.6230
#
#
#
# Elastic Compliance Matrix: (Units=1/GPa)
#
#
# Indices 1 2 3 4 5 6 
#
# 1 0.028917 -0.000604 -0.007201 0.000000 0.000000 0.000000
# 2 -0.000604 0.010917 -0.003683 0.000000 0.000000 0.000000
# 3 -0.007201 -0.003683 0.007632 0.000000 0.000000 0.000000
# 4 0.000000 0.000000 0.000000 0.161387 0.000000 0.000000
# 5 0.000000 0.000000 0.000000 0.000000 0.052783 0.000000
# 6 0.000000 0.000000 0.000000 0.000000 0.000000 0.276016
#
#
# Mechanical properties :
#
#
# Convention : Reuss Voigt Hill
#
# Bulk Modulus (GPa) = 40.83218 78.42434 59.62826
# Shear Modulus (GPa) = 8.79057 21.33938 15.06498
#
# Velocity S-wave (km/s) = 2.06321 3.21459 2.70097
# Velocity P-wave (km/s) = 5.04468 7.19411 6.21305
#
# Compressibility (1/GPa) = 0.02449049
#
# Stress axis : x y z
#
# Youngs Moduli (GPa) = 34.58135 91.60173 131.02406
#
# Poissons Ratio (x) = 0.05531 0.94347
# Poissons Ratio (y) = 0.02088 0.48260
# Poissons Ratio (z) = 0.24901 0.33740
#
# Static dielectric constant tensor:
#      x y z
#    x 1.786980 0.000000 0.000000 
#    y 0.000000 1.786300 0.000000 
#    z 0.000000 0.000000 1.737090 
# 
# From -- ./inp_files/20698.got.cif
#   From: 2010.05.17/outbox.cif.g08.bks.cpg/sg47_11_cif.got.tgz:20698.got - 2010.06.03 20:15:42.
