data_PCOD9386920
_publ_section_title
;
Structure prediction by ZEFSAII (Michael W. Deem and Ramdas Pophale) SiO2 
 PCOD9386920
Probable space group: P M M M
;
_chemical_formula_sum "Si O2"
_cell_formula_units_Z 37
_cell_length_a 9.850753
_cell_length_b 23.111957
_cell_length_c 7.358087
_cell_angle_alpha 90.000000
_cell_angle_beta 90.000000
_cell_angle_gamma 90.000000
_cell_volume 1675.216990
_symmetry_space_group_name_H-M "P M M M"
_symmetry_group_IT_number 47
_symmetry_cell_setting 'orthorhombic'
loop_
_space_group_symop_operation_xyz
x,y,z
-x,-y,z
x,-y,-z
-x,y,-z
-x,-y,-z
x,y,-z
-x,y,z
x,-y,z
loop_
_atom_site_type_symbol
_atom_site_label
_atom_site_fract_x
_atom_site_fract_y
_atom_site_fract_z
Si Si1 0.154101 0.066093 0.778968
Si Si2 0.655842 0.829502 0.222401
Si Si3 0.647243 0.374019 0.282425
Si Si4 0.847438 0.273347 0.787566
Si Si5 0.000000 0.500000 0.000000
Si Si6 0.749276 0.500000 0.280858
O O1 0.265291 0.112414 0.721217
O O2 0.000000 0.082104 0.724064
O O3 0.180418 0.000000 0.721707
O O4 0.154444 0.066142 0.000000
O O5 0.500000 0.826953 0.282071
O O6 0.745348 0.775104 0.286401
O O7 0.653267 0.828880 0.000000
O O8 0.645090 0.369680 0.500000
O O9 0.500000 0.353360 0.213868
O O10 0.772468 0.334791 0.222482
O O11 0.669144 0.441092 0.238199
O O12 0.000000 0.274071 0.711000
O O13 0.861163 0.259170 0.000000
O O14 0.882361 0.500000 0.840718
O O15 0.776133 0.500000 0.500000
#
# Coordination Sequence:
#
# PCOD9386920 Si02
#       6
#     8   8   8   8   1   4
#     4   8  13  21  34  53  82 123 169 214 265 328
#     4   9  16  26  40  61  92 130 171 219 274 327
#     4  10  22  41  62  83 112 149 186 229 287 344
#     4  10  21  34  52  77 107 140 180 228 277 334
#     4  12  26  40  66  98 128 160 204 240 290 362
#     4  10  24  43  65  91 126 161 196 248 296 346
#
# _framework density 22.086691999999999
#
# number of rings (size 3 to 8) (size 9 to 14) (size 15 to 20)
#    0.000    2.595    0.000    2.432    3.027    6.054 
#    0.000    2.703    0.000    0.000    0.000    0.000 
#    0.000    0.865    0.000    9.081    0.000   12.541 
#
# Total GULP energy -206393.099461 kJ/mol
# GULP energy per Si atom -5578.191877 kJ/mol
# Density = 2.203642 g / cm^3
# Si number density = 22.086692 Si / 1000 Ang^3
#
#
#
# Elastic Constant Matrix: (Units=GPa)
#
#
# Indices 1 2 3 4 5 6 
#
# 1 230.0279 108.2876 16.9291 0.0000 0.0000 0.0000
# 2 108.2876 140.0200 -1.1000 0.0000 0.0000 0.0000
# 3 16.9291 -1.1000 79.6890 0.0000 0.0000 0.0000
# 4 0.0000 0.0000 0.0000 22.8227 0.0000 0.0000
# 5 0.0000 0.0000 0.0000 0.0000 3.2485 0.0000
# 6 0.0000 0.0000 0.0000 0.0000 0.0000 305.0794
#
#
#
# Elastic Compliance Matrix: (Units=1/GPa)
#
#
# Indices 1 2 3 4 5 6 
#
# 1 0.007027 -0.005447 -0.001568 0.000000 0.000000 0.000000
# 2 -0.005447 0.011364 0.001314 0.000000 0.000000 0.000000
# 3 -0.001568 0.001314 0.012900 0.000000 0.000000 0.000000
# 4 0.000000 0.000000 0.000000 0.043816 0.000000 0.000000
# 5 0.000000 0.000000 0.000000 0.000000 0.307834 0.000000
# 6 0.000000 0.000000 0.000000 0.000000 0.000000 0.003278
#
#
# Mechanical properties :
#
#
# Convention : Reuss Voigt Hill
#
# Bulk Modulus (GPa) = 50.27659 77.55225 63.91442
# Shear Modulus (GPa) = 12.36859 87.93812 50.15335
#
# Velocity S-wave (km/s) = 2.36900 6.31676 4.77041
# Velocity P-wave (km/s) = 5.50414 9.40164 7.70345
#
# Compressibility (1/GPa) = 0.01988997
#
# Stress axis : x y z
#
# Youngs Moduli (GPa) = 142.31387 87.99407 77.51929
#
# Poissons Ratio (x) = 0.47927 0.12155
# Poissons Ratio (y) = 0.77513 -0.10186
# Poissons Ratio (z) = 0.22314 -0.11562
#
# Static dielectric constant tensor:
#      x y z
#    x 1.778720 0.000000 0.000000 
#    y 0.000000 1.781090 0.000000 
#    z 0.000000 0.000000 1.889610 
# 
# From -- ./inp_files/1535.got.cif
#   From: 2010.05.17/outbox.cif.g08.bks.cpg/sg47_1_cif.got.tgz:1535.got - 2010.06.03 20:15:42.
