data_PCOD9386140
_publ_section_title
;
Structure prediction by ZEFSAII (Michael W. Deem and Ramdas Pophale) SiO2 
 PCOD9386140
Probable space group: P M M M
;
_chemical_formula_sum "Si O2"
_cell_formula_units_Z 48
_cell_length_a 33.366742
_cell_length_b 7.960696
_cell_length_c 9.778669
_cell_angle_alpha 90.000000
_cell_angle_beta 90.000000
_cell_angle_gamma 90.000000
_cell_volume 2597.434404
_symmetry_space_group_name_H-M "P M M M"
_symmetry_group_IT_number 47
_symmetry_cell_setting 'orthorhombic'
loop_
_space_group_symop_operation_xyz
x,y,z
-x,-y,z
x,-y,-z
-x,y,-z
-x,-y,-z
x,y,-z
-x,y,z
x,-y,z
loop_
_atom_site_type_symbol
_atom_site_label
_atom_site_fract_x
_atom_site_fract_y
_atom_site_fract_z
Si Si1 0.762032 0.199407 0.844438
Si Si2 0.325776 0.697782 0.841078
Si Si3 0.925885 0.704997 0.657766
Si Si4 0.545725 0.500000 0.333836
Si Si5 0.835790 0.297248 0.343262
Si Si6 0.398699 0.811025 0.662475
Si Si7 0.000000 0.705882 0.842550
O O1 0.720056 0.276066 0.794677
O O2 0.800262 0.238748 0.752972
O O3 0.756379 0.000000 0.847932
O O4 0.768712 0.260738 0.000000
O O5 0.334846 0.500000 0.837220
O O6 0.357876 0.789071 0.746741
O O7 0.327963 0.754681 0.000000
O O8 0.933463 0.755375 0.500000
O O9 0.926243 0.500000 0.658365
O O10 0.880784 0.758006 0.696840
O O11 0.960542 0.760980 0.759901
O O12 0.500000 0.500000 0.284298
O O13 0.544370 0.500000 0.500000
O O14 0.570256 0.666524 0.293861
O O15 0.829134 0.242739 0.500000
O O16 0.835941 0.500000 0.342096
O O17 0.390821 0.788613 0.500000
O O18 0.414501 0.000000 0.681933
O O19 0.000000 0.500000 0.842128
O O20 0.000000 0.759690 0.000000
#
# Coordination Sequence:
#
# PCOD9386140 Si02
#       7
#     8   8   8   4   8   8   4
#     4  10  21  35  50  71  99 131 168 208 252 306
#     4  10  20  35  56  79 104 139 179 218 265 318
#     4   8  14  25  40  58  85 120 154 190 238 295
#     4   9  18  34  55  81 115 149 183 229 279 326
#     4   9  18  32  49  70  95 126 165 206 249 299
#     4  10  20  34  55  83 112 144 183 226 274 325
#     4   9  15  21  33  59  90 117 150 193 240 290
#
# _framework density 18.479773999999999
#
# number of rings (size 3 to 8) (size 9 to 14) (size 15 to 20)
#    0.000    2.667    0.833    2.250    0.000    5.000 
#    0.000    3.333    0.000    1.000    0.000    1.750 
#    0.000    4.667    0.000    0.000    0.000    0.000 
#
# Total GULP energy -267710.937621 kJ/mol
# GULP energy per Si atom -5577.311200 kJ/mol
# Density = 1.843771 g / cm^3
# Si number density = 18.479774 Si / 1000 Ang^3
#
#
#
# Elastic Constant Matrix: (Units=GPa)
#
#
# Indices 1 2 3 4 5 6 
#
# 1 154.8033 41.4722 74.4976 0.0000 0.0000 0.0000
# 2 41.4722 59.4273 27.3582 0.0000 0.0000 0.0000
# 3 74.4976 27.3582 61.6938 0.0000 0.0000 0.0000
# 4 0.0000 0.0000 0.0000 14.2967 0.0000 0.0000
# 5 0.0000 0.0000 0.0000 0.0000 -62.2506 0.0000
# 6 0.0000 0.0000 0.0000 0.0000 0.0000 -5.3907
#
#
#
# Elastic Compliance Matrix: (Units=1/GPa)
#
#
# Indices 1 2 3 4 5 6 
#
# 1 0.015788 -0.002816 -0.017816 0.000000 0.000000 0.000000
# 2 -0.002816 0.021646 -0.006198 0.000000 0.000000 0.000000
# 3 -0.017816 -0.006198 0.040471 0.000000 0.000000 0.000000
# 4 0.000000 0.000000 0.000000 0.069946 0.000000 0.000000
# 5 0.000000 0.000000 0.000000 0.000000 -0.016064 0.000000
# 6 0.000000 0.000000 0.000000 0.000000 0.000000 -0.185504
#
#
# Mechanical properties :
#
#
# Convention : Reuss Voigt Hill
#
# Bulk Modulus (GPa) = 41.24656 62.50893 51.87774
# Shear Modulus (GPa) = 623.07050 -1.82917 310.62067
#
# Velocity S-wave (km/s) = 18.38193 -0.99598 12.97890
# Velocity P-wave (km/s) = 21.74616 5.70757 15.89767
#
# Compressibility (1/GPa) = 0.02424445
#
# Stress axis : x y z
#
# Youngs Moduli (GPa) = 63.33995 46.19775 24.70923
#
# Poissons Ratio (x) = 0.13010 0.44021
# Poissons Ratio (y) = 0.17837 0.15316
# Poissons Ratio (z) = 1.12844 0.28635
#
# Static dielectric constant tensor:
#      x y z
#    x 1.614760 0.000000 0.000000 
#    y 0.000000 1.668460 0.000000 
#    z 0.000000 0.000000 1.620580 
# 
# From -- ./inp_files/13973.got.cif
#   From: 2010.05.17/outbox.cif.g08.bks.cpg/sg47_7_cif.got.tgz:13973.got - 2010.06.03 20:15:42.
