data_PCOD9386765
_publ_section_title
;
Structure prediction by ZEFSAII (Michael W. Deem and Ramdas Pophale) SiO2 
 PCOD9386765
Probable space group: P M M M
;
_chemical_formula_sum "Si O2"
_cell_formula_units_Z 40
_cell_length_a 7.896067
_cell_length_b 14.620290
_cell_length_c 16.288398
_cell_angle_alpha 90.000000
_cell_angle_beta 90.000000
_cell_angle_gamma 90.000000
_cell_volume 1880.378100
_symmetry_space_group_name_H-M "P M M M"
_symmetry_group_IT_number 47
_symmetry_cell_setting 'orthorhombic'
loop_
_space_group_symop_operation_xyz
x,y,z
-x,-y,z
x,-y,-z
-x,y,-z
-x,-y,-z
x,y,-z
-x,y,z
x,-y,z
loop_
_atom_site_type_symbol
_atom_site_label
_atom_site_fract_x
_atom_site_fract_y
_atom_site_fract_z
Si Si1 0.296294 0.500000 0.402358
Si Si2 0.796348 0.899994 0.121476
Si Si3 0.797230 0.345650 0.270137
Si Si4 0.794265 0.309534 0.088925
Si Si5 0.000000 0.107851 0.586634
Si Si6 0.687069 0.853525 0.698572
O O1 0.500000 0.500000 0.404962
O O2 0.239988 0.500000 0.500000
O O3 0.238019 0.584067 0.343806
O O4 0.738718 0.798420 0.092889
O O5 0.748160 0.898158 0.216888
O O6 0.000000 0.899491 0.110983
O O7 0.736612 0.000000 0.089567
O O8 0.752115 0.363625 0.173378
O O9 0.693365 0.254695 0.287798
O O10 0.000000 0.326313 0.270716
O O11 0.000000 0.307543 0.087953
O O12 0.737664 0.346368 0.000000
O O13 0.170470 0.129658 0.632891
O O14 0.000000 0.157036 0.500000
O O15 0.000000 0.000000 0.578438
O O16 0.500000 0.884571 0.676475
#
# Coordination Sequence:
#
# PCOD9386765 Si02
#       6
#     4   8   8   8   4   8
#     4  11  25  43  64  93 122 148 191 252 312 377
#     4   9  16  28  49  78 114 156 204 256 304 349
#     4  10  20  39  64  90 122 160 197 243 306 370
#     4   8  15  29  52  84 120 160 207 252 296 355
#     4  11  24  40  56  79 114 152 199 259 312 366
#     4  11  21  37  60  83 113 158 205 250 305 369
#
# _framework density 21.272317000000001
#
# number of rings (size 3 to 8) (size 9 to 14) (size 15 to 20)
#    0.000    2.200    2.000    2.700    0.000    4.000 
#    0.000    3.500    0.000   18.000    0.000    5.600 
#    0.000    0.000    0.000    0.000    0.000    0.000 
#
# Total GULP energy -222702.567147 kJ/mol
# GULP energy per Si atom -5567.564179 kJ/mol
# Density = 2.122390 g / cm^3
# Si number density = 21.272317 Si / 1000 Ang^3
#
#
#
# Elastic Constant Matrix: (Units=GPa)
#
#
# Indices 1 2 3 4 5 6 
#
# 1 48.5249 -11.2933 43.9430 0.0000 0.0000 0.0000
# 2 -11.2933 67.1379 40.5053 0.0000 0.0000 0.0000
# 3 43.9430 40.5053 206.4953 0.0000 0.0000 0.0000
# 4 0.0000 0.0000 0.0000 22.7165 0.0000 0.0000
# 5 0.0000 0.0000 0.0000 0.0000 38.1690 0.0000
# 6 0.0000 0.0000 0.0000 0.0000 0.0000 50.7950
#
#
#
# Elastic Compliance Matrix: (Units=1/GPa)
#
#
# Indices 1 2 3 4 5 6 
#
# 1 0.030793 0.010359 -0.008585 0.000000 0.000000 0.000000
# 2 0.010359 0.020379 -0.006202 0.000000 0.000000 0.000000
# 3 -0.008585 -0.006202 0.007886 0.000000 0.000000 0.000000
# 4 0.000000 0.000000 0.000000 0.044021 0.000000 0.000000
# 5 0.000000 0.000000 0.000000 0.000000 0.026199 0.000000
# 6 0.000000 0.000000 0.000000 0.000000 0.000000 0.019687
#
#
# Mechanical properties :
#
#
# Convention : Reuss Voigt Hill
#
# Bulk Modulus (GPa) = 19.91912 52.05199 35.98556
# Shear Modulus (GPa) = 28.64425 38.93632 33.79028
#
# Velocity S-wave (km/s) = 3.67352 4.28293 3.98988
# Velocity P-wave (km/s) = 5.23232 6.99860 6.17890
#
# Compressibility (1/GPa) = 0.05020303
#
# Stress axis : x y z
#
# Youngs Moduli (GPa) = 32.47466 49.07017 126.80407
#
# Poissons Ratio (x) = -0.50833 1.08861
# Poissons Ratio (y) = -0.33641 0.78643
# Poissons Ratio (z) = 0.27879 0.30433
#
# Static dielectric constant tensor:
#      x y z
#    x -8.384210 0.000000 0.000000 
#    y 0.000000 1.759790 0.000000 
#    z 0.000000 0.000000 2.007380 
# 
# From -- ./inp_files/20688.got.cif
#   From: 2010.05.17/outbox.cif.g08.bks.cpg/sg47_11_cif.got.tgz:20688.got - 2010.06.03 20:15:42.
