data_PCOD9386569
_publ_section_title
;
Structure prediction by ZEFSAII (Michael W. Deem and Ramdas Pophale) SiO2 
 PCOD9386569
Probable space group: P M M M
;
_chemical_formula_sum "Si O2"
_cell_formula_units_Z 56
_cell_length_a 7.588290
_cell_length_b 23.066452
_cell_length_c 15.490068
_cell_angle_alpha 90.000000
_cell_angle_beta 90.000000
_cell_angle_gamma 90.000000
_cell_volume 2711.302922
_symmetry_space_group_name_H-M "P M M M"
_symmetry_group_IT_number 47
_symmetry_cell_setting 'orthorhombic'
loop_
_space_group_symop_operation_xyz
x,y,z
-x,-y,z
x,-y,-z
-x,y,-z
-x,-y,-z
x,y,-z
-x,y,z
x,-y,z
loop_
_atom_site_type_symbol
_atom_site_label
_atom_site_fract_x
_atom_site_fract_y
_atom_site_fract_z
Si Si1 0.296140 0.936414 0.645625
Si Si2 0.206565 0.119898 0.181525
Si Si3 0.792379 0.625575 0.780001
Si Si4 0.713694 0.810044 0.405257
Si Si5 0.500000 0.430760 0.899717
Si Si6 0.288634 0.065939 0.000000
Si Si7 0.797622 0.756185 0.770635
Si Si8 0.713146 0.567900 0.597279
O O1 0.500000 0.938925 0.617854
O O2 0.290437 0.922888 0.748059
O O3 0.223542 0.876816 0.605816
O O4 0.217922 0.000000 0.627593
O O5 0.282335 0.185062 0.189459
O O6 0.000000 0.122408 0.204914
O O7 0.226385 0.097003 0.086057
O O8 0.670014 0.589885 0.845153
O O9 0.726743 0.692299 0.785847
O O10 0.774845 0.603271 0.680986
O O11 0.000000 0.622325 0.802252
O O12 0.757921 0.789060 0.500000
O O13 0.500000 0.810590 0.395785
O O14 0.789644 0.770397 0.330761
O O15 0.500000 0.500000 0.901282
O O16 0.500000 0.410133 0.000000
O O17 0.500000 0.065811 0.000000
O O18 0.225116 0.000000 0.000000
O O19 0.000000 0.754075 0.800350
O O20 0.769282 0.586631 0.500000
O O21 0.500000 0.570206 0.598254
O O22 0.763683 0.500000 0.607094
#
# Coordination Sequence:
#
# PCOD9386569 Si02
#       8
#     8   8   8   8   4   4   8   8
#     4   9  17  30  48  70 101 139 180 232 289 343
#     4  10  20  36  54  74 102 138 180 229 283 340
#     4  11  23  41  66  96 130 170 213 259 312 373
#     4   9  18  31  50  77 107 146 193 237 285 341
#     4  11  26  48  71  99 131 163 208 261 311 369
#     4  11  23  37  53  79 111 137 173 226 285 354
#     4   9  21  39  56  79 113 149 189 236 287 343
#     4   9  18  34  58  91 131 169 206 252 305 365
#
# _framework density 20.654275999999999
#
# number of rings (size 3 to 8) (size 9 to 14) (size 15 to 20)
#    0.000    2.286    0.714    1.929    1.000    6.000 
#    1.286    5.714    0.000    0.000    0.000    4.000 
#    0.000    0.000    0.000    0.000    0.000    0.000 
#
# Total GULP energy -312445.691033 kJ/mol
# GULP energy per Si atom -5579.387340 kJ/mol
# Density = 2.060727 g / cm^3
# Si number density = 20.654276 Si / 1000 Ang^3
#
#
#
# Elastic Constant Matrix: (Units=GPa)
#
#
# Indices 1 2 3 4 5 6 
#
# 1 76.2538 18.9327 14.0328 0.0000 0.0000 0.0000
# 2 18.9327 101.4066 31.9590 0.0000 0.0000 0.0000
# 3 14.0328 31.9590 109.3450 0.0000 0.0000 0.0000
# 4 0.0000 0.0000 0.0000 -15.2484 0.0000 0.0000
# 5 0.0000 0.0000 0.0000 0.0000 22.2765 0.0000
# 6 0.0000 0.0000 0.0000 0.0000 0.0000 14.7653
#
#
#
# Elastic Compliance Matrix: (Units=1/GPa)
#
#
# Indices 1 2 3 4 5 6 
#
# 1 0.013877 -0.002235 -0.001127 0.000000 0.000000 0.000000
# 2 -0.002235 0.011222 -0.002993 0.000000 0.000000 0.000000
# 3 -0.001127 -0.002993 0.010165 0.000000 0.000000 0.000000
# 4 0.000000 0.000000 0.000000 -0.065581 0.000000 0.000000
# 5 0.000000 0.000000 0.000000 0.000000 0.044890 0.000000
# 6 0.000000 0.000000 0.000000 0.000000 0.000000 0.067726
#
#
# Mechanical properties :
#
#
# Convention : Reuss Voigt Hill
#
# Bulk Modulus (GPa) = 44.34299 46.31717 45.33008
# Shear Modulus (GPa) = 48.76710 19.16409 33.96559
#
# Velocity S-wave (km/s) = 4.86440 3.04937 4.05962
# Velocity P-wave (km/s) = 7.28462 5.90524 6.63089
#
# Compressibility (1/GPa) = 0.02255148
#
# Stress axis : x y z
#
# Youngs Moduli (GPa) = 72.06369 89.11131 98.37815
#
# Poissons Ratio (x) = 0.19920 0.11092
# Poissons Ratio (y) = 0.16109 0.29445
# Poissons Ratio (z) = 0.08125 0.26671
#
# Static dielectric constant tensor:
#      x y z
#    x 1.791590 0.000000 0.000000 
#    y 0.000000 1.745450 0.000000 
#    z 0.000000 0.000000 1.714080 
# 
# From -- ./inp_files/21666.got.cif
#   From: 2010.05.17/outbox.cif.g08.bks.cpg/sg47_11_cif.got.tgz:21666.got - 2010.06.03 20:15:42.
