data_PCOD9386712
_publ_section_title
;
Structure prediction by ZEFSAII (Michael W. Deem and Ramdas Pophale) SiO2 
 PCOD9386712
Probable space group: P M M M
;
_chemical_formula_sum "Si O2"
_cell_formula_units_Z 40
_cell_length_a 10.038245
_cell_length_b 13.883713
_cell_length_c 14.304971
_cell_angle_alpha 90.000000
_cell_angle_beta 90.000000
_cell_angle_gamma 90.000000
_cell_volume 1993.656809
_symmetry_space_group_name_H-M "P M M M"
_symmetry_group_IT_number 47
_symmetry_cell_setting 'orthorhombic'
loop_
_space_group_symop_operation_xyz
x,y,z
-x,-y,z
x,-y,-z
-x,y,-z
-x,-y,-z
x,y,-z
-x,y,z
x,-y,z
loop_
_atom_site_type_symbol
_atom_site_label
_atom_site_fract_x
_atom_site_fract_y
_atom_site_fract_z
Si Si1 0.000000 0.617002 0.892006
Si Si2 0.347290 0.117311 0.106412
Si Si3 0.500000 0.383118 0.895719
Si Si4 0.658096 0.244502 0.610407
Si Si5 0.745963 0.384437 0.231255
Si Si6 0.844991 0.884253 0.725031
O O1 0.875402 0.642658 0.827593
O O2 0.000000 0.500000 0.899679
O O3 0.000000 0.652754 0.000000
O O4 0.500000 0.145864 0.130800
O O5 0.235524 0.145574 0.181118
O O6 0.347657 0.000000 0.105856
O O7 0.318533 0.148415 0.000000
O O8 0.500000 0.500000 0.901061
O O9 0.372490 0.356003 0.837626
O O10 0.500000 0.345482 0.000000
O O11 0.668398 0.261277 0.500000
O O12 0.500000 0.230163 0.631944
O O13 0.717196 0.332085 0.671583
O O14 0.752311 0.156655 0.642464
O O15 0.745950 0.500000 0.244676
O O16 0.000000 0.852078 0.722455
O O17 0.846472 0.000000 0.721979
#
# Coordination Sequence:
#
# PCOD9386712 Si02
#       6
#     4   8   4   8   8   8
#     4   9  18  34  59  91 128 167 201 239 293 357
#     4   8  14  28  54  86 118 153 190 231 286 354
#     4   9  16  30  57  89 122 161 201 241 287 345
#     4  11  25  43  63  87 118 159 208 261 311 360
#     4  10  20  37  61  92 127 162 201 243 294 359
#     4  10  22  40  63  89 118 154 199 255 315 370
#
# _framework density 20.063634
#
# number of rings (size 3 to 8) (size 9 to 14) (size 15 to 20)
#    0.000    2.400    1.000    1.800    1.400    5.200 
#    0.000    7.000    0.000    1.800    0.000    0.000 
#    0.000    0.000    0.000    0.000    0.000    0.000 
#
# Total GULP energy -223321.834135 kJ/mol
# GULP energy per Si atom -5583.045853 kJ/mol
# Density = 2.001797 g / cm^3
# Si number density = 20.063634 Si / 1000 Ang^3
#
#
#
# Elastic Constant Matrix: (Units=GPa)
#
#
# Indices 1 2 3 4 5 6 
#
# 1 203.0124 41.3601 100.2520 0.0000 0.0000 0.0000
# 2 41.3601 76.0028 35.7055 0.0000 0.0000 0.0000
# 3 100.2520 35.7055 165.5087 0.0000 0.0000 0.0000
# 4 0.0000 0.0000 0.0000 36.8615 0.0000 0.0000
# 5 0.0000 0.0000 0.0000 0.0000 2.0121 0.0000
# 6 0.0000 0.0000 0.0000 0.0000 0.0000 24.7464
#
#
#
# Elastic Compliance Matrix: (Units=1/GPa)
#
#
# Indices 1 2 3 4 5 6 
#
# 1 0.007321 -0.002115 -0.003978 0.000000 0.000000 0.000000
# 2 -0.002115 0.015252 -0.002009 0.000000 0.000000 0.000000
# 3 -0.003978 -0.002009 0.008885 0.000000 0.000000 0.000000
# 4 0.000000 0.000000 0.000000 0.027129 0.000000 0.000000
# 5 0.000000 0.000000 0.000000 0.000000 0.496987 0.000000
# 6 0.000000 0.000000 0.000000 0.000000 0.000000 0.040410
#
#
# Mechanical properties :
#
#
# Convention : Reuss Voigt Hill
#
# Bulk Modulus (GPa) = 65.55919 88.79546 77.17733
# Shear Modulus (GPa) = 8.10013 30.53776 19.31894
#
# Velocity S-wave (km/s) = 2.01146 3.90557 3.10640
# Velocity P-wave (km/s) = 6.17586 8.04307 7.17050
#
# Compressibility (1/GPa) = 0.01525339
#
# Stress axis : x y z
#
# Youngs Moduli (GPa) = 136.58675 65.56344 112.54663
#
# Poissons Ratio (x) = 0.13868 0.44775
# Poissons Ratio (y) = 0.28891 0.22613
# Poissons Ratio (z) = 0.54339 0.13173
#
# Static dielectric constant tensor:
#      x y z
#    x 1.696970 0.000000 0.000000 
#    y 0.000000 1.780920 0.000000 
#    z 0.000000 0.000000 1.671000 
# 
# From -- ./inp_files/20716.got.cif
#   From: 2010.05.17/outbox.cif.g08.bks.cpg/sg47_11_cif.got.tgz:20716.got - 2010.06.03 20:15:42.
