data_PCOD9386100
_publ_section_title
;
Structure prediction by ZEFSAII (Michael W. Deem and Ramdas Pophale) SiO2 
 PCOD9386100
Probable space group: P M M M
;
_chemical_formula_sum "Si O2"
_cell_formula_units_Z 48
_cell_length_a 7.531573
_cell_length_b 17.696341
_cell_length_c 16.119199
_cell_angle_alpha 90.000000
_cell_angle_beta 90.000000
_cell_angle_gamma 90.000000
_cell_volume 2148.387541
_symmetry_space_group_name_H-M "P M M M"
_symmetry_group_IT_number 47
_symmetry_cell_setting 'orthorhombic'
loop_
_space_group_symop_operation_xyz
x,y,z
-x,-y,z
x,-y,-z
-x,y,-z
-x,-y,-z
x,y,-z
-x,y,z
x,-y,z
loop_
_atom_site_type_symbol
_atom_site_label
_atom_site_fract_x
_atom_site_fract_y
_atom_site_fract_z
Si Si1 0.205854 0.787456 0.726415
Si Si2 0.714858 0.913051 0.593834
Si Si3 0.293740 0.500000 0.385105
Si Si4 0.707956 0.637015 0.091575
Si Si5 0.289144 0.500000 0.190674
Si Si6 0.201166 0.192411 0.092010
Si Si7 0.208540 0.673626 0.409951
O O1 0.214579 0.855492 0.661274
O O2 0.283093 0.816365 0.815211
O O3 0.281638 0.715739 0.672923
O O4 0.000000 0.769044 0.745630
O O5 0.771329 0.893606 0.500000
O O6 0.500000 0.909619 0.595873
O O7 0.766070 0.000000 0.609852
O O8 0.500000 0.500000 0.408000
O O9 0.274464 0.500000 0.287226
O O10 0.221835 0.582399 0.409627
O O11 0.500000 0.653259 0.110329
O O12 0.784766 0.576895 0.154221
O O13 0.802007 0.716637 0.089544
O O14 0.714805 0.602396 0.000000
O O15 0.500000 0.500000 0.167334
O O16 0.000000 0.161422 0.093193
O O17 0.278374 0.170441 0.000000
O O18 0.283773 0.699068 0.500000
O O19 0.000000 0.692737 0.410230
#
# Coordination Sequence:
#
# PCOD9386100 Si02
#       7
#     8   8   4   8   4   8   8
#     4  10  20  34  55  81 105 135 177 216 251 302
#     4   9  19  36  57  83 115 144 166 198 253 311
#     4  11  22  33  47  67  92 127 171 213 253 303
#     4   9  16  27  44  63  84 116 159 204 252 306
#     4   9  17  28  41  60  86 113 148 201 257 302
#     4   9  18  32  48  69 100 132 162 204 255 298
#     4  10  21  36  51  68  95 130 167 211 261 305
#
# _framework density 22.342337000000001
#
# number of rings (size 3 to 8) (size 9 to 14) (size 15 to 20)
#    0.000    2.500    0.000    2.750    0.000    5.000 
#    0.000    2.083    0.000    2.500    0.000    3.500 
#    0.000    0.000    0.000    0.000    0.000    0.000 
#
# Total GULP energy -267438.399558 kJ/mol
# GULP energy per Si atom -5571.633324 kJ/mol
# Density = 2.229149 g / cm^3
# Si number density = 22.342337 Si / 1000 Ang^3
#
#
#
# Elastic Constant Matrix: (Units=GPa)
#
#
# Indices 1 2 3 4 5 6 
#
# 1 57.5841 -6.2505 17.3839 0.0000 0.0000 0.0000
# 2 -6.2505 69.0038 53.2027 0.0000 0.0000 0.0000
# 3 17.3839 53.2027 163.8567 0.0000 0.0000 0.0000
# 4 0.0000 0.0000 0.0000 29.9573 0.0000 0.0000
# 5 0.0000 0.0000 0.0000 0.0000 7.7666 0.0000
# 6 0.0000 0.0000 0.0000 0.0000 0.0000 14.6124
#
#
#
# Elastic Compliance Matrix: (Units=1/GPa)
#
#
# Indices 1 2 3 4 5 6 
#
# 1 0.018866 0.004338 -0.003410 0.000000 0.000000 0.000000
# 2 0.004338 0.020329 -0.007061 0.000000 0.000000 0.000000
# 3 -0.003410 -0.007061 0.008757 0.000000 0.000000 0.000000
# 4 0.000000 0.000000 0.000000 0.033381 0.000000 0.000000
# 5 0.000000 0.000000 0.000000 0.000000 0.128757 0.000000
# 6 0.000000 0.000000 0.000000 0.000000 0.000000 0.068435
#
#
# Mechanical properties :
#
#
# Convention : Reuss Voigt Hill
#
# Bulk Modulus (GPa) = 28.02150 46.56855 37.29502
# Shear Modulus (GPa) = 16.51876 25.54116 21.02996
#
# Velocity S-wave (km/s) = 2.72204 3.38475 3.07133
# Velocity P-wave (km/s) = 4.73798 6.01364 5.41352
#
# Compressibility (1/GPa) = 0.03568689
#
# Stress axis : x y z
#
# Youngs Moduli (GPa) = 53.00465 49.19101 114.19072
#
# Poissons Ratio (x) = -0.21340 0.38941
# Poissons Ratio (y) = -0.22995 0.80628
# Poissons Ratio (z) = 0.18075 0.34733
#
# Static dielectric constant tensor:
#      x y z
#    x 1.851390 0.000000 0.000000 
#    y 0.000000 1.778470 0.000000 
#    z 0.000000 0.000000 1.921220 
# 
# From -- ./inp_files/21103.got.cif
#   From: 2010.05.17/outbox.cif.g08.bks.cpg/sg47_11_cif.got.tgz:21103.got - 2010.06.03 20:15:42.
