data_PCOD9386730
_publ_section_title
;
Structure prediction by ZEFSAII (Michael W. Deem and Ramdas Pophale) SiO2 
 PCOD9386730
Probable space group: P M M M
;
_chemical_formula_sum "Si O2"
_cell_formula_units_Z 44
_cell_length_a 7.970391
_cell_length_b 8.995112
_cell_length_c 32.157791
_cell_angle_alpha 90.000000
_cell_angle_beta 90.000000
_cell_angle_gamma 90.000000
_cell_volume 2305.538668
_symmetry_space_group_name_H-M "P M M M"
_symmetry_group_IT_number 47
_symmetry_cell_setting 'orthorhombic'
loop_
_space_group_symop_operation_xyz
x,y,z
-x,-y,z
x,-y,-z
-x,y,-z
-x,-y,-z
x,y,-z
-x,y,z
x,-y,z
loop_
_atom_site_type_symbol
_atom_site_label
_atom_site_fract_x
_atom_site_fract_y
_atom_site_fract_z
Si Si1 0.500000 0.680913 0.224631
Si Si2 0.500000 0.678924 0.678959
Si Si3 0.186216 0.320935 0.169355
Si Si4 0.702439 0.324870 0.452689
Si Si5 0.810198 0.822856 0.369409
Si Si6 0.300544 0.172085 0.914575
Si Si7 0.798532 0.329075 0.000000
O O1 0.500000 0.500000 0.224063
O O2 0.500000 0.724585 0.272675
O O3 0.665535 0.730411 0.199780
O O4 0.500000 0.500000 0.675931
O O5 0.334424 0.741648 0.656603
O O6 0.196773 0.500000 0.166227
O O7 0.213105 0.254381 0.123670
O O8 0.000000 0.282320 0.184707
O O9 0.749875 0.285397 0.500000
O O10 0.500000 0.309384 0.449283
O O11 0.740494 0.500000 0.446467
O O12 0.786695 0.228765 0.417052
O O13 0.000000 0.785085 0.355837
O O14 0.788183 0.000000 0.366383
O O15 0.500000 0.179004 0.907255
O O16 0.248708 0.000000 0.916016
O O17 0.262474 0.248160 0.958473
O O18 0.740896 0.500000 0.000000
O O19 0.000000 0.327424 0.000000
#
# Coordination Sequence:
#
# PCOD9386730 Si02
#       7
#     4   4   8   8   8   8   4
#     4   9  20  39  63  91 119 147 187 245 301 348
#     4  11  23  41  66  92 118 154 201 254 308 360
#     4  10  20  37  63  91 118 151 191 235 289 351
#     4   9  18  34  58  88 120 156 200 249 300 352
#     4  11  24  40  59  87 124 164 203 245 299 362
#     4  11  23  38  57  84 118 156 196 237 286 342
#     4  11  24  39  56  82 114 153 200 244 289 339
#
# _framework density 19.084477
#
# number of rings (size 3 to 8) (size 9 to 14) (size 15 to 20)
#    0.000    1.727    1.818    3.000    0.000    8.364 
#    0.000    6.364    0.000    0.000    0.000    0.000 
#    0.000    0.000    0.000    0.000    0.000    0.000 
#
# Total GULP energy -245864.557638 kJ/mol
# GULP energy per Si atom -5587.830855 kJ/mol
# Density = 1.904104 g / cm^3
# Si number density = 19.084477 Si / 1000 Ang^3
#
#
#
# Elastic Constant Matrix: (Units=GPa)
#
#
# Indices 1 2 3 4 5 6 
#
# 1 137.6746 57.7998 77.4245 0.0000 0.0000 0.0000
# 2 57.7998 55.9362 43.3186 0.0000 0.0000 0.0000
# 3 77.4245 43.3186 135.4750 0.0000 0.0000 0.0000
# 4 0.0000 0.0000 0.0000 -238.6643 0.0000 0.0000
# 5 0.0000 0.0000 0.0000 0.0000 -1.4064 0.0000
# 6 0.0000 0.0000 0.0000 0.0000 0.0000 13.1133
#
#
#
# Elastic Compliance Matrix: (Units=1/GPa)
#
#
# Indices 1 2 3 4 5 6 
#
# 1 0.014819 -0.011635 -0.004749 0.000000 0.000000 0.000000
# 2 -0.011635 0.032897 -0.003869 0.000000 0.000000 0.000000
# 3 -0.004749 -0.003869 0.011333 0.000000 0.000000 0.000000
# 4 0.000000 0.000000 0.000000 -0.004190 0.000000 0.000000
# 5 0.000000 0.000000 0.000000 0.000000 -0.711047 0.000000
# 6 0.000000 0.000000 0.000000 0.000000 0.000000 0.076258
#
#
# Mechanical properties :
#
#
# Convention : Reuss Voigt Hill
#
# Bulk Modulus (GPa) = 53.93173 76.24131 65.08652
# Shear Modulus (GPa) = -9.37658 -35.35527 -22.36593
#
# Velocity S-wave (km/s) = -2.21898 -4.30882 -3.42708
# Velocity P-wave (km/s) = 4.66430 3.90917 4.30333
#
# Compressibility (1/GPa) = 0.01854196
#
# Stress axis : x y z
#
# Youngs Moduli (GPa) = 67.48237 30.39823 88.24138
#
# Poissons Ratio (x) = 0.35368 0.41903
# Poissons Ratio (y) = 0.78515 0.34144
# Poissons Ratio (z) = 0.32045 0.11762
#
# Static dielectric constant tensor:
#      x y z
#    x 1.680030 0.000000 0.000000 
#    y 0.000000 1.637390 0.000000 
#    z 0.000000 0.000000 1.628920 
# 
# From -- ./inp_files/33968.got.cif
#   From: 2010.05.17/outbox.cif.g08.bks.cpg/sg47_17_cif.got.tgz:33968.got - 2010.06.03 20:15:42.
