data_PCOD9386328
_publ_section_title
;
Structure prediction by ZEFSAII (Michael W. Deem and Ramdas Pophale) SiO2 
 PCOD9386328
Probable space group: P M M M
;
_chemical_formula_sum "Si O2"
_cell_formula_units_Z 33
_cell_length_a 10.418975
_cell_length_b 20.930557
_cell_length_c 8.217854
_cell_angle_alpha 90.000000
_cell_angle_beta 90.000000
_cell_angle_gamma 90.000000
_cell_volume 1792.108101
_symmetry_space_group_name_H-M "P M M M"
_symmetry_group_IT_number 47
_symmetry_cell_setting 'orthorhombic'
loop_
_space_group_symop_operation_xyz
x,y,z
-x,-y,z
x,-y,-z
-x,y,-z
-x,-y,-z
x,y,-z
-x,y,z
x,-y,z
loop_
_atom_site_type_symbol
_atom_site_label
_atom_site_fract_x
_atom_site_fract_y
_atom_site_fract_z
Si Si1 0.651566 0.116124 0.190900
Si Si2 0.844795 0.500000 0.685977
Si Si3 0.647661 0.743329 0.693692
Si Si4 0.807937 0.000000 0.315102
Si Si5 0.000000 0.000000 0.000000
Si Si6 0.851813 0.360682 0.806839
O O1 0.500000 0.111211 0.223071
O O2 0.688180 0.189216 0.228467
O O3 0.724581 0.064223 0.296486
O O4 0.673230 0.103342 0.000000
O O5 0.799903 0.500000 0.500000
O O6 0.809112 0.433297 0.768675
O O7 0.000000 0.500000 0.686851
O O8 0.644748 0.751612 0.500000
O O9 0.500000 0.728748 0.747286
O O10 0.749921 0.688829 0.735587
O O11 0.862219 0.000000 0.500000
O O12 0.892448 0.000000 0.149703
O O13 0.000000 0.352247 0.745772
O O14 0.855182 0.352158 0.000000
#
# Coordination Sequence:
#
# PCOD9386328 Si02
#       6
#     8   4   8   4   1   8
#     4  10  20  38  64  91 117 149 193 248 300 350
#     4   9  17  31  54  79 108 143 184 234 282 335
#     4  10  21  37  57  84 117 151 192 242 294 347
#     4  12  24  42  66  89 119 162 202 244 299 353
#     4  12  26  48  58  86 128 164 198 248 292 362
#     4  10  20  35  55  82 111 147 189 234 286 347
#
# _framework density 18.414068
#
# number of rings (size 3 to 8) (size 9 to 14) (size 15 to 20)
#    0.000    1.818    1.212    3.091    0.000    7.273 
#    2.182    0.606    0.000    3.636    0.000    0.000 
#    0.000    0.000    0.000    0.000    0.000    0.000 
#
# Total GULP energy -183757.393765 kJ/mol
# GULP energy per Si atom -5568.405872 kJ/mol
# Density = 1.837216 g / cm^3
# Si number density = 18.414068 Si / 1000 Ang^3
#
#
#
# Elastic Constant Matrix: (Units=GPa)
#
#
# Indices 1 2 3 4 5 6 
#
# 1 69.8984 69.6981 27.9994 0.0000 0.0000 0.0000
# 2 69.6981 120.6984 20.9039 0.0000 0.0000 0.0000
# 3 27.9994 20.9039 79.2041 0.0000 0.0000 0.0000
# 4 0.0000 0.0000 0.0000 27.8983 0.0000 0.0000
# 5 0.0000 0.0000 0.0000 0.0000 16.8568 0.0000
# 6 0.0000 0.0000 0.0000 0.0000 0.0000 8.4953
#
#
#
# Elastic Compliance Matrix: (Units=1/GPa)
#
#
# Indices 1 2 3 4 5 6 
#
# 1 0.038031 -0.020573 -0.008015 0.000000 0.000000 0.000000
# 2 -0.020573 0.019811 0.002044 0.000000 0.000000 0.000000
# 3 -0.008015 0.002044 0.014919 0.000000 0.000000 0.000000
# 4 0.000000 0.000000 0.000000 0.035845 0.000000 0.000000
# 5 0.000000 0.000000 0.000000 0.000000 0.059323 0.000000
# 6 0.000000 0.000000 0.000000 0.000000 0.000000 0.117712
#
#
# Mechanical properties :
#
#
# Convention : Reuss Voigt Hill
#
# Bulk Modulus (GPa) = 50.82753 56.33374 53.58063
# Shear Modulus (GPa) = 14.48069 20.73004 17.60537
#
# Velocity S-wave (km/s) = 2.80731 3.35889 3.09541
# Velocity P-wave (km/s) = 6.17823 6.76033 6.47582
#
# Compressibility (1/GPa) = 0.01967438
#
# Stress axis : x y z
#
# Youngs Moduli (GPa) = 26.29417 50.47630 67.02713
#
# Poissons Ratio (x) = 1.03847 0.53719
# Poissons Ratio (y) = 0.54096 -0.13702
# Poissons Ratio (z) = 0.21074 -0.10318
#
# Static dielectric constant tensor:
#      x y z
#    x 1.635350 0.000000 0.000000 
#    y 0.000000 1.622930 0.000000 
#    z 0.000000 0.000000 1.642120 
# 
# From -- ./inp_files/1177.got.cif
#   From: 2010.05.17/outbox.cif.g08.bks.cpg/sg47_1_cif.got.tgz:1177.got - 2010.06.03 20:15:42.
