data_PCOD9386496
_publ_section_title
;
Structure prediction by ZEFSAII (Michael W. Deem and Ramdas Pophale) SiO2 
 PCOD9386496
Probable space group: P M M M
;
_chemical_formula_sum "Si O2"
_cell_formula_units_Z 45
_cell_length_a 18.576180
_cell_length_b 8.699943
_cell_length_c 14.939877
_cell_angle_alpha 90.000000
_cell_angle_beta 90.000000
_cell_angle_gamma 90.000000
_cell_volume 2414.459027
_symmetry_space_group_name_H-M "P M M M"
_symmetry_group_IT_number 47
_symmetry_cell_setting 'orthorhombic'
loop_
_space_group_symop_operation_xyz
x,y,z
-x,-y,z
x,-y,-z
-x,y,-z
-x,-y,-z
x,y,-z
-x,y,z
x,-y,z
loop_
_atom_site_type_symbol
_atom_site_label
_atom_site_fract_x
_atom_site_fract_y
_atom_site_fract_z
Si Si1 0.385823 0.817191 0.899951
Si Si2 0.227452 0.319590 0.899433
Si Si3 0.000000 0.330195 0.316416
Si Si4 0.000000 0.500000 0.500000
Si Si5 0.715552 0.814480 0.603464
Si Si6 0.848250 0.815867 0.270059
Si Si7 0.579018 0.683494 0.710069
O O1 0.301185 0.776702 0.895262
O O2 0.418255 0.735598 0.813605
O O3 0.396816 0.000000 0.892524
O O4 0.410450 0.768958 0.000000
O O5 0.244626 0.500000 0.885206
O O6 0.175781 0.258714 0.823114
O O7 0.197884 0.303489 0.000000
O O8 0.072504 0.240838 0.293659
O O9 0.000000 0.500000 0.270892
O O10 0.000000 0.369203 0.421098
O O11 0.716025 0.762561 0.500000
O O12 0.788172 0.767765 0.656150
O O13 0.645631 0.755226 0.656433
O O14 0.713361 0.000000 0.603969
O O15 0.846048 0.000000 0.263639
O O16 0.500000 0.728363 0.673659
O O17 0.585400 0.500000 0.706125
#
# Coordination Sequence:
#
# PCOD9386496 Si02
#       7
#     8   8   4   1   8   8   8
#     4  10  20  35  57  86 118 155 200 247 298 357
#     4  10  20  35  59  91 125 162 202 245 294 354
#     4  10  23  41  62  90 126 162 203 249 300 354
#     4   8  24  44  62  92 126 168 212 244 308 372
#     4  10  23  41  62  88 116 153 200 249 302 362
#     4  11  22  39  64  94 126 160 203 249 301 360
#     4  11  24  40  58  84 118 156 200 251 307 363
#
# _framework density 18.637715
#
# number of rings (size 3 to 8) (size 9 to 14) (size 15 to 20)
#    0.267    1.422    1.778    2.400    1.244    5.333 
#    0.000    4.444    0.000    2.667    0.000    0.000 
#    0.000    0.000    0.000    0.000    0.000    0.000 
#
# Total GULP energy -250936.720231 kJ/mol
# GULP energy per Si atom -5576.371561 kJ/mol
# Density = 1.859529 g / cm^3
# Si number density = 18.637715 Si / 1000 Ang^3
#
#
#
# Elastic Constant Matrix: (Units=GPa)
#
#
# Indices 1 2 3 4 5 6 
#
# 1 141.1054 21.9231 66.9839 0.0000 0.0000 0.0000
# 2 21.9231 32.0711 23.4805 0.0000 0.0000 0.0000
# 3 66.9839 23.4805 118.5927 0.0000 0.0000 0.0000
# 4 0.0000 0.0000 0.0000 26.2682 0.0000 0.0000
# 5 0.0000 0.0000 0.0000 0.0000 -10.0184 0.0000
# 6 0.0000 0.0000 0.0000 0.0000 0.0000 21.7964
#
#
#
# Elastic Compliance Matrix: (Units=1/GPa)
#
#
# Indices 1 2 3 4 5 6 
#
# 1 0.009947 -0.003141 -0.004996 0.000000 0.000000 0.000000
# 2 -0.003141 0.037459 -0.005642 0.000000 0.000000 0.000000
# 3 -0.004996 -0.005642 0.012371 0.000000 0.000000 0.000000
# 4 0.000000 0.000000 0.000000 0.038069 0.000000 0.000000
# 5 0.000000 0.000000 0.000000 0.000000 -0.099816 0.000000
# 6 0.000000 0.000000 0.000000 0.000000 0.000000 0.045879
#
#
# Mechanical properties :
#
#
# Convention : Reuss Voigt Hill
#
# Bulk Modulus (GPa) = 31.03921 57.39381 44.21651
# Shear Modulus (GPa) = 60.82163 19.56803 40.19483
#
# Velocity S-wave (km/s) = 5.71878 3.24376 4.64900
# Velocity P-wave (km/s) = 7.76506 6.70004 7.25213
#
# Compressibility (1/GPa) = 0.03221732
#
# Stress axis : x y z
#
# Youngs Moduli (GPa) = 100.53601 26.69582 80.83248
#
# Poissons Ratio (x) = 0.08386 0.40385
# Poissons Ratio (y) = 0.31583 0.45608
# Poissons Ratio (z) = 0.50229 0.15062
#
# Static dielectric constant tensor:
#      x y z
#    x 1.634140 0.000000 0.000000 
#    y 0.000000 1.634590 0.000000 
#    z 0.000000 0.000000 1.639120 
# 
# From -- ./inp_files/24940.got.cif
#   From: 2010.05.17/outbox.cif.g08.bks.cpg/sg47_13_cif.got.tgz:24940.got - 2010.06.03 20:15:42.
