data_PCOD9386070
_publ_section_title
;
Structure prediction by ZEFSAII (Michael W. Deem and Ramdas Pophale) SiO2 
 PCOD9386070
Probable space group: P M M M
;
_chemical_formula_sum "Si O2"
_cell_formula_units_Z 52
_cell_length_a 15.146114
_cell_length_b 8.496816
_cell_length_c 21.060082
_cell_angle_alpha 90.000000
_cell_angle_beta 90.000000
_cell_angle_gamma 90.000000
_cell_volume 2710.300797
_symmetry_space_group_name_H-M "P M M M"
_symmetry_group_IT_number 47
_symmetry_cell_setting 'orthorhombic'
loop_
_space_group_symop_operation_xyz
x,y,z
-x,-y,z
x,-y,-z
-x,y,-z
-x,-y,-z
x,y,-z
-x,y,z
x,-y,z
loop_
_atom_site_type_symbol
_atom_site_label
_atom_site_fract_x
_atom_site_fract_y
_atom_site_fract_z
Si Si1 0.241016 0.816163 0.297572
Si Si2 0.103968 0.309122 0.196799
Si Si3 0.597898 0.183394 0.908531
Si Si4 0.208250 0.311084 0.069099
Si Si5 0.000000 0.821812 0.423931
Si Si6 0.188507 0.314229 0.573819
Si Si7 0.596425 0.320588 0.773108
O O1 0.155193 0.759437 0.257825
O O2 0.237586 0.783055 0.372465
O O3 0.322723 0.718098 0.270970
O O4 0.253102 0.000000 0.285416
O O5 0.109440 0.500000 0.199839
O O6 0.155677 0.256619 0.132194
O O7 0.000000 0.266889 0.195113
O O8 0.500000 0.243490 0.928656
O O9 0.688303 0.265444 0.929199
O O10 0.598906 0.205404 0.832762
O O11 0.602508 0.000000 0.925375
O O12 0.202298 0.500000 0.070318
O O13 0.172820 0.256604 0.000000
O O14 0.086860 0.723926 0.409763
O O15 0.000000 0.839140 0.500000
O O16 0.000000 0.000000 0.396715
O O17 0.204061 0.269704 0.500000
O O18 0.205318 0.500000 0.580073
O O19 0.500000 0.306963 0.742074
O O20 0.604709 0.500000 0.797663
#
# Coordination Sequence:
#
# PCOD9386070 Si02
#       7
#     8   8   8   8   4   8   8
#     4  12  24  37  59  88 120 154 190 237 289 344
#     4  10  22  40  60  82 112 151 197 245 290 341
#     4  10  20  34  54  82 115 149 185 229 287 349
#     4  10  21  37  58  83 112 150 195 241 290 344
#     4   9  17  31  51  77 111 147 186 233 284 337
#     4  10  21  37  57  81 113 155 199 239 284 343
#     4  10  20  36  60  87 115 148 188 235 286 343
#
# _framework density 19.186060999999999
#
# number of rings (size 3 to 8) (size 9 to 14) (size 15 to 20)
#    0.000    1.769    1.538    3.000    1.077    4.923 
#    0.000    3.077    0.000    0.462    0.000    5.385 
#    0.000    0.000    0.000    0.000    0.000    0.000 
#
# Total GULP energy -290022.210585 kJ/mol
# GULP energy per Si atom -5577.350204 kJ/mol
# Density = 1.914239 g / cm^3
# Si number density = 19.186061 Si / 1000 Ang^3
#
#
#
# Elastic Constant Matrix: (Units=GPa)
#
#
# Indices 1 2 3 4 5 6 
#
# 1 87.6724 9.4014 34.8398 0.0000 0.0000 0.0000
# 2 9.4014 37.8374 10.2360 0.0000 0.0000 0.0000
# 3 34.8398 10.2360 93.4385 0.0000 0.0000 0.0000
# 4 0.0000 0.0000 0.0000 -61.0807 0.0000 0.0000
# 5 0.0000 0.0000 0.0000 0.0000 -7.3346 0.0000
# 6 0.0000 0.0000 0.0000 0.0000 0.0000 3.9318
#
#
#
# Elastic Compliance Matrix: (Units=1/GPa)
#
#
# Indices 1 2 3 4 5 6 
#
# 1 0.013544 -0.002060 -0.004824 0.000000 0.000000 0.000000
# 2 -0.002060 0.027549 -0.002250 0.000000 0.000000 0.000000
# 3 -0.004824 -0.002250 0.012748 0.000000 0.000000 0.000000
# 4 0.000000 0.000000 0.000000 -0.016372 0.000000 0.000000
# 5 0.000000 0.000000 0.000000 0.000000 -0.136339 0.000000
# 6 0.000000 0.000000 0.000000 0.000000 0.000000 0.254337
#
#
# Mechanical properties :
#
#
# Convention : Reuss Voigt Hill
#
# Bulk Modulus (GPa) = 28.11179 36.43364 32.27271
# Shear Modulus (GPa) = 26.94064 -1.93197 12.50434
#
# Velocity S-wave (km/s) = 3.75130 -1.00457 2.55569
# Velocity P-wave (km/s) = 5.78334 4.20539 5.05630
#
# Compressibility (1/GPa) = 0.03557227
#
# Stress axis : x y z
#
# Youngs Moduli (GPa) = 73.83249 36.29839 78.44646
#
# Poissons Ratio (x) = 0.07478 0.37846
# Poissons Ratio (y) = 0.15211 0.17649
# Poissons Ratio (z) = 0.35620 0.08167
#
# Static dielectric constant tensor:
#      x y z
#    x 0.797020 0.000000 0.000000 
#    y 0.000000 1.661400 0.000000 
#    z 0.000000 0.000000 1.695420 
# 
# From -- ./inp_files/21388.got.cif
#   From: 2010.05.17/outbox.cif.g08.bks.cpg/sg47_11_cif.got.tgz:21388.got - 2010.06.03 20:15:42.
