data_PCOD9386614
_publ_section_title
;
Structure prediction by ZEFSAII (Michael W. Deem and Ramdas Pophale) SiO2 
 PCOD9386614
Probable space group: P M M M
;
_chemical_formula_sum "Si O2"
_cell_formula_units_Z 56
_cell_length_a 16.468272
_cell_length_b 7.545136
_cell_length_c 20.330678
_cell_angle_alpha 90.000000
_cell_angle_beta 90.000000
_cell_angle_gamma 90.000000
_cell_volume 2526.195550
_symmetry_space_group_name_H-M "P M M M"
_symmetry_group_IT_number 47
_symmetry_cell_setting 'orthorhombic'
loop_
_space_group_symop_operation_xyz
x,y,z
-x,-y,z
x,-y,-z
-x,y,-z
-x,-y,-z
x,y,-z
-x,y,z
x,-y,z
loop_
_atom_site_type_symbol
_atom_site_label
_atom_site_fract_x
_atom_site_fract_y
_atom_site_fract_z
Si Si1 0.500000 0.709505 0.424268
Si Si2 0.234657 0.217072 0.220102
Si Si3 0.587200 0.714361 0.097081
Si Si4 0.164153 0.788700 0.349230
Si Si5 0.411824 0.206310 0.250970
Si Si6 0.677749 0.211864 0.574674
Si Si7 0.766662 0.795542 0.071004
Si Si8 0.000000 0.709878 0.426178
O O1 0.500000 0.500000 0.428730
O O2 0.500000 0.784903 0.500000
O O3 0.588122 0.757922 0.394718
O O4 0.167216 0.269651 0.273269
O O5 0.319428 0.276603 0.255802
O O6 0.219362 0.280205 0.145152
O O7 0.240810 0.000000 0.215231
O O8 0.500000 0.761213 0.068220
O O9 0.593843 0.500000 0.096552
O O10 0.584308 0.781812 0.171650
O O11 0.668906 0.789915 0.067970
O O12 0.242693 0.718279 0.388800
O O13 0.081175 0.756984 0.387010
O O14 0.175262 0.000000 0.346423
O O15 0.500000 0.284656 0.272459
O O16 0.411088 0.000000 0.271265
O O17 0.675349 0.282550 0.500000
O O18 0.685882 0.000000 0.571025
O O19 0.794328 0.000000 0.072536
O O20 0.795380 0.718994 0.000000
O O21 0.000000 0.500000 0.432125
O O22 0.000000 0.787087 0.500000
#
# Coordination Sequence:
#
# PCOD9386614 Si02
#       8
#     4   8   8   8   8   8   8   4
#     4   9  17  29  47  71 101 141 184 221 256 298
#     4   8  15  29  48  74 103 131 171 219 265 313
#     4   9  16  24  35  54  81 115 161 219 274 315
#     4  10  20  36  59  86 113 142 176 220 272 324
#     4   8  13  24  42  62  90 130 172 212 256 310
#     4   9  17  30  49  75 106 138 175 217 259 306
#     4   9  17  29  45  64  89 125 168 212 259 314
#     4  11  25  43  63  89 118 145 174 210 257 319
#
# _framework density 22.167721
#
# number of rings (size 3 to 8) (size 9 to 14) (size 15 to 20)
#    0.000    3.000    0.000    2.143    0.000    4.000 
#    1.286    5.714    0.000    0.000    0.000    0.500 
#    0.000    4.000    0.000    0.000    0.000    0.000 
#
# Total GULP energy -311911.479768 kJ/mol
# GULP energy per Si atom -5569.847853 kJ/mol
# Density = 2.211727 g / cm^3
# Si number density = 22.167721 Si / 1000 Ang^3
#
#
#
# Elastic Constant Matrix: (Units=GPa)
#
#
# Indices 1 2 3 4 5 6 
#
# 1 111.5386 -4.3552 90.4789 0.0000 0.0000 0.0000
# 2 -4.3552 60.1005 4.4390 0.0000 0.0000 0.0000
# 3 90.4789 4.4390 168.9469 0.0000 0.0000 0.0000
# 4 0.0000 0.0000 0.0000 157.4435 0.0000 0.0000
# 5 0.0000 0.0000 0.0000 0.0000 -14.9985 0.0000
# 6 0.0000 0.0000 0.0000 0.0000 0.0000 43.6485
#
#
#
# Elastic Compliance Matrix: (Units=1/GPa)
#
#
# Indices 1 2 3 4 5 6 
#
# 1 0.016044 0.001801 -0.008640 0.000000 0.000000 0.000000
# 2 0.001801 0.016873 -0.001408 0.000000 0.000000 0.000000
# 3 -0.008640 -0.001408 0.010583 0.000000 0.000000 0.000000
# 4 0.000000 0.000000 0.000000 0.006351 0.000000 0.000000
# 5 0.000000 0.000000 0.000000 0.000000 -0.066673 0.000000
# 6 0.000000 0.000000 0.000000 0.000000 0.000000 0.022910
#
#
# Mechanical properties :
#
#
# Convention : Reuss Voigt Hill
#
# Bulk Modulus (GPa) = 37.02729 57.96795 47.49762
# Shear Modulus (GPa) = 158.30240 53.88692 106.09466
#
# Velocity S-wave (km/s) = 8.45968 4.93574 6.92560
# Velocity P-wave (km/s) = 10.59062 7.66084 9.24256
#
# Compressibility (1/GPa) = 0.02700711
#
# Stress axis : x y z
#
# Youngs Moduli (GPa) = 62.32726 59.26534 94.49095
#
# Poissons Ratio (x) = -0.10672 0.81638
# Poissons Ratio (y) = -0.11224 0.13302
# Poissons Ratio (z) = 0.53850 0.08343
#
# Static dielectric constant tensor:
#      x y z
#    x 1.851760 0.000000 0.000000 
#    y 0.000000 1.822220 0.000000 
#    z 0.000000 0.000000 1.939800 
# 
# From -- ./inp_files/31052.got.cif
#   From: 2010.05.17/outbox.cif.g08.bks.cpg/sg47_16_cif.got.tgz:31052.got - 2010.06.03 20:15:42.
