data_PCOD9386504
_publ_section_title
;
Structure prediction by ZEFSAII (Michael W. Deem and Ramdas Pophale) SiO2 
 PCOD9386504
Probable space group: P M M M
;
_chemical_formula_sum "Si O2"
_cell_formula_units_Z 44
_cell_length_a 9.181328
_cell_length_b 7.837781
_cell_length_c 32.938808
_cell_angle_alpha 90.000000
_cell_angle_beta 90.000000
_cell_angle_gamma 90.000000
_cell_volume 2370.317407
_symmetry_space_group_name_H-M "P M M M"
_symmetry_group_IT_number 47
_symmetry_cell_setting 'orthorhombic'
loop_
_space_group_symop_operation_xyz
x,y,z
-x,-y,z
x,-y,-z
-x,y,-z
-x,-y,-z
x,y,-z
-x,y,z
x,-y,z
loop_
_atom_site_type_symbol
_atom_site_label
_atom_site_fract_x
_atom_site_fract_y
_atom_site_fract_z
Si Si1 0.330846 0.792476 0.544722
Si Si2 0.667252 0.297331 0.082150
Si Si3 0.824621 0.198427 0.627125
Si Si4 0.822392 0.500000 0.686641
Si Si5 0.833331 0.204669 0.000000
Si Si6 0.173447 0.191061 0.163060
Si Si7 0.822535 0.500000 0.220483
O O1 0.279803 0.734593 0.500000
O O2 0.500000 0.742335 0.549257
O O3 0.239152 0.742051 0.583872
O O4 0.327055 0.000000 0.544082
O O5 0.500000 0.239689 0.078772
O O6 0.668299 0.500000 0.089461
O O7 0.750760 0.262903 0.040368
O O8 0.746384 0.212726 0.120301
O O9 0.778175 0.330493 0.661963
O O10 0.000000 0.201087 0.624962
O O11 0.780877 0.000000 0.634360
O O12 0.771653 0.500000 0.733128
O O13 0.000000 0.500000 0.687337
O O14 0.000000 0.267049 0.000000
O O15 0.835618 0.000000 0.000000
O O16 0.222066 0.333748 0.194991
O O17 0.000000 0.214054 0.156076
O O18 0.196391 0.000000 0.178846
O O19 0.000000 0.500000 0.221627
#
# Coordination Sequence:
#
# PCOD9386504 Si02
#       7
#     8   8   8   4   4   8   4
#     4   8  14  26  45  68  95 129 167 206 250 300
#     4  11  23  38  57  82 113 149 186 222 267 320
#     4   9  17  29  47  71  98 130 168 208 251 302
#     4   9  18  32  50  74 104 133 164 208 262 310
#     4  11  24  39  56  82 114 149 190 230 267 311
#     4  10  20  35  58  85 109 139 180 221 267 320
#     4   9  18  34  55  79 107 135 168 218 267 312
#
# _framework density 18.562913999999999
#
# number of rings (size 3 to 8) (size 9 to 14) (size 15 to 20)
#    0.000    2.455    0.909    2.182    0.000    6.545 
#    0.000    6.364    0.000    4.909    0.000    2.545 
#    0.000    0.000    0.000    0.000    0.000    0.000 
#
# Total GULP energy -245465.349090 kJ/mol
# GULP energy per Si atom -5578.757934 kJ/mol
# Density = 1.852066 g / cm^3
# Si number density = 18.562914 Si / 1000 Ang^3
#
#
#
# Elastic Constant Matrix: (Units=GPa)
#
#
# Indices 1 2 3 4 5 6 
#
# 1 43.4040 36.9022 47.3509 0.0000 0.0000 0.0000
# 2 36.9022 96.9963 72.2272 0.0000 0.0000 0.0000
# 3 47.3509 72.2272 178.2281 0.0000 0.0000 0.0000
# 4 0.0000 0.0000 0.0000 9.1376 0.0000 0.0000
# 5 0.0000 0.0000 0.0000 0.0000 -13.7799 0.0000
# 6 0.0000 0.0000 0.0000 0.0000 0.0000 12.1322
#
#
#
# Elastic Compliance Matrix: (Units=1/GPa)
#
#
# Indices 1 2 3 4 5 6 
#
# 1 0.038181 -0.009986 -0.006097 0.000000 0.000000 0.000000
# 2 -0.009986 0.017377 -0.004389 0.000000 0.000000 0.000000
# 3 -0.006097 -0.004389 0.009009 0.000000 0.000000 0.000000
# 4 0.000000 0.000000 0.000000 0.109438 0.000000 0.000000
# 5 0.000000 0.000000 0.000000 0.000000 -0.072569 0.000000
# 6 0.000000 0.000000 0.000000 0.000000 0.000000 0.082425
#
#
# Mechanical properties :
#
#
# Convention : Reuss Voigt Hill
#
# Bulk Modulus (GPa) = 42.33100 70.17658 56.25379
# Shear Modulus (GPa) = 21.48887 12.30786 16.89836
#
# Velocity S-wave (km/s) = 3.40608 2.57774 3.02044
# Velocity P-wave (km/s) = 6.19048 6.83714 6.52183
#
# Compressibility (1/GPa) = 0.02362335
#
# Stress axis : x y z
#
# Youngs Moduli (GPa) = 26.19125 57.54717 110.99678
#
# Poissons Ratio (x) = 0.57466 0.67674
# Poissons Ratio (y) = 0.26154 0.48717
# Poissons Ratio (z) = 0.15969 0.25258
#
# Static dielectric constant tensor:
#      x y z
#    x 1.624160 0.000000 0.000000 
#    y 0.000000 1.669630 0.000000 
#    z 0.000000 0.000000 1.613280 
# 
# From -- ./inp_files/33992.got.cif
#   From: 2010.05.17/outbox.cif.g08.bks.cpg/sg47_17_cif.got.tgz:33992.got - 2010.06.03 20:15:42.
