data_PCOD9386529
_publ_section_title
;
Structure prediction by ZEFSAII (Michael W. Deem and Ramdas Pophale) SiO2 
 PCOD9386529
Probable space group: P M M M
;
_chemical_formula_sum "Si O2"
_cell_formula_units_Z 48
_cell_length_a 19.514357
_cell_length_b 8.681443
_cell_length_c 15.514932
_cell_angle_alpha 90.000000
_cell_angle_beta 90.000000
_cell_angle_gamma 90.000000
_cell_volume 2628.427730
_symmetry_space_group_name_H-M "P M M M"
_symmetry_group_IT_number 47
_symmetry_cell_setting 'orthorhombic'
loop_
_space_group_symop_operation_xyz
x,y,z
-x,-y,z
x,-y,-z
-x,y,-z
-x,-y,-z
x,y,-z
-x,y,z
x,-y,z
loop_
_atom_site_type_symbol
_atom_site_label
_atom_site_fract_x
_atom_site_fract_y
_atom_site_fract_z
Si Si1 0.179024 0.813899 0.598625
Si Si2 0.579008 0.184451 0.000000
Si Si3 0.672729 0.315208 0.650825
Si Si4 0.078655 0.813913 0.248495
Si Si5 0.672013 0.314173 0.151302
Si Si6 0.420497 0.815342 0.500000
Si Si7 0.826775 0.314066 0.901022
O O1 0.162893 0.771201 0.500000
O O2 0.251890 0.743680 0.625166
O O3 0.121364 0.765399 0.666926
O O4 0.184750 0.000000 0.602184
O O5 0.619107 0.244575 0.916232
O O6 0.500000 0.236544 0.000000
O O7 0.580199 0.000000 0.000000
O O8 0.671981 0.500000 0.645628
O O9 0.658399 0.270014 0.749771
O O10 0.618608 0.247536 0.583778
O O11 0.118846 0.754349 0.165076
O O12 0.000000 0.761202 0.250531
O O13 0.078605 0.000000 0.246977
O O14 0.668879 0.500000 0.144884
O O15 0.749675 0.267974 0.126379
O O16 0.500000 0.769026 0.500000
O O17 0.416355 0.000000 0.500000
O O18 0.829741 0.500000 0.896521
O O19 0.838931 0.267861 0.000000
#
# Coordination Sequence:
#
# PCOD9386529 Si02
#       7
#     8   4   8   8   8   4   8
#     4  10  20  35  58  86 116 154 197 238 288 350
#     4  11  25  41  59  89 124 155 192 241 293 348
#     4  11  22  37  62  91 118 151 196 247 291 343
#     4  10  22  38  56  84 121 156 193 240 291 345
#     4  10  21  39  62  88 117 154 197 242 292 349
#     4  11  25  43  61  85 122 161 194 237 293 350
#     4  10  20  37  60  84 112 148 195 242 288 347
#
# _framework density 18.261866999999999
#
# number of rings (size 3 to 8) (size 9 to 14) (size 15 to 20)
#    0.000    1.667    3.333    1.000    0.000    5.333 
#    0.000    6.667    0.000    0.000    0.000    2.333 
#    0.000    0.000    0.000    0.000    0.000    0.000 
#
# Total GULP energy -268159.724310 kJ/mol
# GULP energy per Si atom -5586.660923 kJ/mol
# Density = 1.822030 g / cm^3
# Si number density = 18.261867 Si / 1000 Ang^3
#
#
#
# Elastic Constant Matrix: (Units=GPa)
#
#
# Indices 1 2 3 4 5 6 
#
# 1 196.7790 39.6747 125.1331 0.0000 0.0000 0.0000
# 2 39.6747 17.4797 44.6109 0.0000 0.0000 0.0000
# 3 125.1331 44.6109 219.8002 0.0000 0.0000 0.0000
# 4 0.0000 0.0000 0.0000 28.7497 0.0000 0.0000
# 5 0.0000 0.0000 0.0000 0.0000 32.3382 0.0000
# 6 0.0000 0.0000 0.0000 0.0000 0.0000 7.3718
#
#
#
# Elastic Compliance Matrix: (Units=1/GPa)
#
#
# Indices 1 2 3 4 5 6 
#
# 1 0.009867 -0.016721 -0.002224 0.000000 0.000000 0.000000
# 2 -0.016721 0.147023 -0.020321 0.000000 0.000000 0.000000
# 3 -0.002224 -0.020321 0.009940 0.000000 0.000000 0.000000
# 4 0.000000 0.000000 0.000000 0.034783 0.000000 0.000000
# 5 0.000000 0.000000 0.000000 0.000000 0.030923 0.000000
# 6 0.000000 0.000000 0.000000 0.000000 0.000000 0.135653
#
#
# Mechanical properties :
#
#
# Convention : Reuss Voigt Hill
#
# Bulk Modulus (GPa) = 11.32506 94.76625 53.04565
# Shear Modulus (GPa) = 10.50081 28.66793 19.58437
#
# Velocity S-wave (km/s) = 2.40054 3.96640 3.27833
# Velocity P-wave (km/s) = 3.72806 8.54295 6.59092
#
# Compressibility (1/GPa) = 0.08829979
#
# Stress axis : x y z
#
# Youngs Moduli (GPa) = 101.34572 6.80164 100.60444
#
# Poissons Ratio (x) = 0.11373 0.22372
# Poissons Ratio (y) = 1.69458 2.04436
# Poissons Ratio (z) = 0.22537 0.13821
#
# Static dielectric constant tensor:
#      x y z
#    x 1.594590 0.000000 0.000000 
#    y 0.000000 1.622230 0.000000 
#    z 0.000000 0.000000 1.613620 
# 
# From -- ./inp_files/6471.got.cif
#   From: 2010.05.17/outbox.cif.g08.bks.cpg/sg47_4_cif.got.tgz:6471.got - 2010.06.03 20:15:42.
