data_PCOD9386851
_publ_section_title
;
Structure prediction by ZEFSAII (Michael W. Deem and Ramdas Pophale) SiO2 
 PCOD9386851
Probable space group: P M M M
;
_chemical_formula_sum "Si O2"
_cell_formula_units_Z 56
_cell_length_a 9.036915
_cell_length_b 23.479418
_cell_length_c 14.861401
_cell_angle_alpha 90.000000
_cell_angle_beta 90.000000
_cell_angle_gamma 90.000000
_cell_volume 3153.314426
_symmetry_space_group_name_H-M "P M M M"
_symmetry_group_IT_number 47
_symmetry_cell_setting 'orthorhombic'
loop_
_space_group_symop_operation_xyz
x,y,z
-x,-y,z
x,-y,-z
-x,y,-z
-x,-y,-z
x,y,-z
-x,y,z
x,-y,z
loop_
_atom_site_type_symbol
_atom_site_label
_atom_site_fract_x
_atom_site_fract_y
_atom_site_fract_z
Si Si1 0.324412 0.340040 0.773097
Si Si2 0.175948 0.567604 0.896496
Si Si3 0.325526 0.829579 0.393391
Si Si4 0.175061 0.754879 0.105924
Si Si5 0.822817 0.888866 0.897015
Si Si6 0.321714 0.062898 0.275858
Si Si7 0.176467 0.290835 0.395050
O O1 0.500000 0.340515 0.766757
O O2 0.264665 0.394877 0.826152
O O3 0.269441 0.285981 0.831611
O O4 0.252706 0.333119 0.674857
O O5 0.199152 0.500000 0.885041
O O6 0.000000 0.578659 0.886738
O O7 0.215840 0.582252 0.000000
O O8 0.312925 0.840583 0.500000
O O9 0.500000 0.819246 0.373741
O O10 0.273789 0.884663 0.338557
O O11 0.234558 0.772702 0.372710
O O12 0.208410 0.821717 0.119339
O O13 0.000000 0.746188 0.124392
O O14 0.198658 0.742293 0.000000
O O15 0.740408 0.925626 0.823186
O O16 0.000000 0.896129 0.889382
O O17 0.781050 0.902056 0.000000
O O18 0.500000 0.064048 0.274216
O O19 0.275589 0.000000 0.307646
O O20 0.213970 0.301622 0.500000
O O21 0.000000 0.292896 0.385355
#
# Coordination Sequence:
#
# PCOD9386851 Si02
#       7
#     8   8   8   8   8   8   8
#     4  12  23  32  50  81 114 144 173 212 262 311
#     4   9  19  37  59  81 109 149 192 226 255 293
#     4   9  18  34  55  77 102 130 160 201 256 313
#     4   9  18  33  52  74 102 135 171 212 257 308
#     4   9  19  35  52  69  91 124 166 210 256 302
#     4  10  21  34  48  70  98 128 164 203 246 302
#     4  10  21  37  57  79 103 134 173 216 261 311
#
# _framework density 17.759091000000002
#
# number of rings (size 3 to 8) (size 9 to 14) (size 15 to 20)
#    0.000    2.286    0.000    4.286    0.000    8.000 
#    0.000    5.000    0.000    0.429    0.000    6.000 
#    0.000    0.000    0.000    0.000    0.000    0.000 
#
# Total GULP energy -312690.473531 kJ/mol
# GULP energy per Si atom -5583.758456 kJ/mol
# Density = 1.771867 g / cm^3
# Si number density = 17.759091 Si / 1000 Ang^3
#
#
#
# Elastic Constant Matrix: (Units=GPa)
#
#
# Indices 1 2 3 4 5 6 
#
# 1 56.7973 44.1712 52.7844 0.0000 0.0000 0.0000
# 2 44.1712 65.3216 62.6243 0.0000 0.0000 0.0000
# 3 52.7844 62.6243 91.5461 0.0000 0.0000 0.0000
# 4 0.0000 0.0000 0.0000 20.1295 0.0000 0.0000
# 5 0.0000 0.0000 0.0000 0.0000 25.5772 0.0000
# 6 0.0000 0.0000 0.0000 0.0000 0.0000 29.1004
#
#
#
# Elastic Compliance Matrix: (Units=1/GPa)
#
#
# Indices 1 2 3 4 5 6 
#
# 1 0.042606 -0.015280 -0.014113 0.000000 0.000000 0.000000
# 2 -0.015280 0.049960 -0.025366 0.000000 0.000000 0.000000
# 3 -0.014113 -0.025366 0.036414 0.000000 0.000000 0.000000
# 4 0.000000 0.000000 0.000000 0.049678 0.000000 0.000000
# 5 0.000000 0.000000 0.000000 0.000000 0.039097 0.000000
# 6 0.000000 0.000000 0.000000 0.000000 0.000000 0.034364
#
#
# Mechanical properties :
#
#
# Convention : Reuss Voigt Hill
#
# Bulk Modulus (GPa) = 51.38660 59.20278 55.29469
# Shear Modulus (GPa) = 13.58233 18.56710 16.07471
#
# Velocity S-wave (km/s) = 2.76852 3.23692 3.01184
# Velocity P-wave (km/s) = 6.26241 6.88326 6.58016
#
# Compressibility (1/GPa) = 0.01946033
#
# Stress axis : x y z
#
# Youngs Moduli (GPa) = 23.47087 20.01592 27.46233
#
# Poissons Ratio (x) = 0.30584 0.38759
# Poissons Ratio (y) = 0.35863 0.69662
# Poissons Ratio (z) = 0.33126 0.50773
#
# Static dielectric constant tensor:
#      x y z
#    x 1.589160 0.000000 0.000000 
#    y 0.000000 1.602260 0.000000 
#    z 0.000000 0.000000 1.606090 
# 
# From -- ./inp_files/7311.got.cif
#   From: 2010.05.17/outbox.cif.g08.bks.cpg/sg47_4_cif.got.tgz:7311.got - 2010.06.03 20:15:42.
