data_PCOD9386670
_publ_section_title
;
Structure prediction by ZEFSAII (Michael W. Deem and Ramdas Pophale) SiO2 
 PCOD9386670
Probable space group: P M M M
;
_chemical_formula_sum "Si O2"
_cell_formula_units_Z 52
_cell_length_a 22.060302
_cell_length_b 14.892931
_cell_length_c 9.436822
_cell_angle_alpha 90.000000
_cell_angle_beta 90.000000
_cell_angle_gamma 90.000000
_cell_volume 3100.397616
_symmetry_space_group_name_H-M "P M M M"
_symmetry_group_IT_number 47
_symmetry_cell_setting 'orthorhombic'
loop_
_space_group_symop_operation_xyz
x,y,z
-x,-y,z
x,-y,-z
-x,y,-z
-x,-y,-z
x,y,-z
-x,y,z
x,-y,z
loop_
_atom_site_type_symbol
_atom_site_label
_atom_site_fract_x
_atom_site_fract_y
_atom_site_fract_z
Si Si1 0.072702 0.604170 0.668606
Si Si2 0.117184 0.221895 0.171255
Si Si3 0.569718 0.000000 0.168701
Si Si4 0.783759 0.106162 0.331865
Si Si5 0.357718 0.854042 0.335985
Si Si6 0.429676 0.672791 0.335243
Si Si7 0.573538 0.500000 0.840722
Si Si8 0.000000 0.102826 0.828716
O O1 0.083727 0.617420 0.500000
O O2 0.088545 0.500000 0.702603
O O3 0.106205 0.680212 0.759709
O O4 0.000000 0.613386 0.691262
O O5 0.174187 0.170010 0.237995
O O6 0.059261 0.159582 0.210545
O O7 0.120883 0.227875 0.000000
O O8 0.604258 0.084625 0.231801
O O9 0.500000 0.000000 0.215171
O O10 0.571714 0.000000 0.000000
O O11 0.797401 0.117152 0.500000
O O12 0.713495 0.132749 0.310958
O O13 0.791541 0.000000 0.297581
O O14 0.368986 0.881230 0.500000
O O15 0.383699 0.754495 0.319245
O O16 0.430223 0.645666 0.500000
O O17 0.500000 0.698158 0.299735
O O18 0.409601 0.589564 0.241354
O O19 0.500000 0.500000 0.843338
O O20 0.596393 0.500000 0.000000
O O21 0.000000 0.000000 0.774912
O O22 0.000000 0.097747 0.000000
#
# Coordination Sequence:
#
# PCOD9386670 Si02
#       8
#     8   8   4   8   8   8   4   4
#     4   9  18  34  57  84 114 146 179 222 276 329
#     4  11  21  34  55  82 112 146 182 225 274 325
#     4  11  23  35  51  81 117 146 177 224 277 327
#     4  10  21  38  57  78 106 143 187 229 268 320
#     4  10  20  37  58  78 104 142 187 228 266 319
#     4   9  17  30  52  80 104 130 170 219 265 311
#     4   9  17  29  47  73 107 141 167 202 261 326
#     4   9  18  32  48  73 110 144 177 219 264 315
#
# _framework density 16.772041999999999
#
# number of rings (size 3 to 8) (size 9 to 14) (size 15 to 20)
#    0.000    2.231    1.538    2.308    0.000    4.615 
#    0.000    2.308    1.692    1.846    0.000    0.000 
#    0.000    0.000    0.000    0.000    0.000    0.000 
#
# Total GULP energy -289983.083202 kJ/mol
# GULP energy per Si atom -5576.597754 kJ/mol
# Density = 1.673387 g / cm^3
# Si number density = 16.772042 Si / 1000 Ang^3
#
#
#
# Elastic Constant Matrix: (Units=GPa)
#
#
# Indices 1 2 3 4 5 6 
#
# 1 83.5575 58.0676 58.9840 0.0000 0.0000 0.0000
# 2 58.0676 140.0821 82.7581 0.0000 0.0000 0.0000
# 3 58.9840 82.7581 80.5192 0.0000 0.0000 0.0000
# 4 0.0000 0.0000 0.0000 58.9590 0.0000 0.0000
# 5 0.0000 0.0000 0.0000 0.0000 22.6855 0.0000
# 6 0.0000 0.0000 0.0000 0.0000 0.0000 -166.1922
#
#
#
# Elastic Compliance Matrix: (Units=1/GPa)
#
#
# Indices 1 2 3 4 5 6 
#
# 1 0.024857 0.001155 -0.019396 0.000000 0.000000 0.000000
# 2 0.001155 0.018228 -0.019581 0.000000 0.000000 0.000000
# 3 -0.019396 -0.019581 0.046753 0.000000 0.000000 0.000000
# 4 0.000000 0.000000 0.000000 0.016961 0.000000 0.000000
# 5 0.000000 0.000000 0.000000 0.000000 0.044081 0.000000
# 6 0.000000 0.000000 0.000000 0.000000 0.000000 -0.006017
#
#
# Mechanical properties :
#
#
# Convention : Reuss Voigt Hill
#
# Bulk Modulus (GPa) = 70.45042 78.19756 74.32399
# Shear Modulus (GPa) = 22.19876 -9.95293 6.12292
#
# Velocity S-wave (km/s) = 3.64202 -2.43867 1.91274
# Velocity P-wave (km/s) = 7.73186 6.22860 7.02058
#
# Compressibility (1/GPa) = 0.01419438
#
# Stress axis : x y z
#
# Youngs Moduli (GPa) = 40.23024 54.86081 21.38897
#
# Poissons Ratio (x) = -0.06336 0.41486
# Poissons Ratio (y) = -0.04646 0.41881
# Poissons Ratio (z) = 0.78030 1.07422
#
# Static dielectric constant tensor:
#      x y z
#    x 1.549500 0.000000 0.000000 
#    y 0.000000 1.581000 0.000000 
#    z 0.000000 0.000000 1.558730 
# 
# From -- ./inp_files/11161.got.cif
#   From: 2010.05.17/outbox.cif.g08.bks.cpg/sg47_6_cif.got.tgz:11161.got - 2010.06.03 20:15:42.
