data_PCOD9386292
_publ_section_title
;
Structure prediction by ZEFSAII (Michael W. Deem and Ramdas Pophale) SiO2 
 PCOD9386292
Probable space group: P M M M
;
_chemical_formula_sum "Si O2"
_cell_formula_units_Z 56
_cell_length_a 7.381592
_cell_length_b 15.392630
_cell_length_c 21.062607
_cell_angle_alpha 90.000000
_cell_angle_beta 90.000000
_cell_angle_gamma 90.000000
_cell_volume 2393.177944
_symmetry_space_group_name_H-M "P M M M"
_symmetry_group_IT_number 47
_symmetry_cell_setting 'orthorhombic'
loop_
_space_group_symop_operation_xyz
x,y,z
-x,-y,z
x,-y,-z
-x,y,-z
-x,-y,-z
x,y,-z
-x,y,z
x,-y,z
loop_
_atom_site_type_symbol
_atom_site_label
_atom_site_fract_x
_atom_site_fract_y
_atom_site_fract_z
Si Si1 0.781355 0.402902 0.732562
Si Si2 0.280593 0.096283 0.225703
Si Si3 0.778143 0.284852 0.381594
Si Si4 0.220876 0.598754 0.500000
Si Si5 0.790798 0.905286 0.625640
Si Si6 0.287399 0.780281 0.882190
Si Si7 0.783448 0.901887 0.000000
Si Si8 0.708060 0.594642 0.118986
O O1 0.736058 0.500000 0.707579
O O2 0.720347 0.327156 0.685285
O O3 0.710187 0.397837 0.804118
O O4 0.000000 0.398606 0.736640
O O5 0.500000 0.099741 0.227762
O O6 0.213512 0.100952 0.297615
O O7 0.212915 0.173302 0.180837
O O8 0.231386 0.000000 0.200273
O O9 0.724457 0.349336 0.437466
O O10 0.712940 0.187145 0.394994
O O11 0.000000 0.281575 0.379836
O O12 0.282959 0.500000 0.500000
O O13 0.000000 0.597366 0.500000
O O14 0.000000 0.907261 0.604599
O O15 0.711000 0.000000 0.608873
O O16 0.500000 0.764629 0.869583
O O17 0.274131 0.848962 0.938296
O O18 0.209741 0.686576 0.901587
O O19 0.000000 0.904957 0.000000
O O20 0.713600 0.000000 0.000000
O O21 0.500000 0.591453 0.096391
O O22 0.789388 0.500000 0.103368
#
# Coordination Sequence:
#
# PCOD9386292 Si02
#       8
#     8   8   8   4   8   8   4   8
#     4   9  16  26  43  68  95 122 153 192 240 288
#     4   9  17  29  47  72  97 121 155 196 233 275
#     4   9  16  26  40  60  88 120 154 193 234 276
#     4   9  16  26  41  61  86 117 153 193 234 274
#     4   9  17  28  42  63  92 122 149 182 231 286
#     4  10  20  35  55  75  98 132 167 197 234 280
#     4  11  25  41  56  77 102 126 157 199 242 283
#     4   9  18  32  50  75 104 130 160 198 237 280
#
# _framework density 23.399850000000001
#
# number of rings (size 3 to 8) (size 9 to 14) (size 15 to 20)
#    0.000    2.714    0.000    1.929    0.000    4.000 
#    0.000    2.143    0.000    4.286    0.000    2.000 
#    0.000    6.857    0.000    0.000    0.000    0.000 
#
# Total GULP energy -312683.931376 kJ/mol
# GULP energy per Si atom -5583.641632 kJ/mol
# Density = 2.334659 g / cm^3
# Si number density = 23.399850 Si / 1000 Ang^3
#
#
#
# Elastic Constant Matrix: (Units=GPa)
#
#
# Indices 1 2 3 4 5 6 
#
# 1 86.3531 8.0951 -13.7628 0.0000 0.0000 0.0000
# 2 8.0951 236.6366 29.9487 0.0000 0.0000 0.0000
# 3 -13.7628 29.9487 21.5618 0.0000 0.0000 0.0000
# 4 0.0000 0.0000 0.0000 34.3135 0.0000 0.0000
# 5 0.0000 0.0000 0.0000 0.0000 12.5635 0.0000
# 6 0.0000 0.0000 0.0000 0.0000 0.0000 -33.0746
#
#
#
# Elastic Compliance Matrix: (Units=1/GPa)
#
#
# Indices 1 2 3 4 5 6 
#
# 1 0.013555 -0.001891 0.011279 0.000000 0.000000 0.000000
# 2 -0.001891 0.005391 -0.008695 0.000000 0.000000 0.000000
# 3 0.011279 -0.008695 0.065655 0.000000 0.000000 0.000000
# 4 0.000000 0.000000 0.000000 0.029143 0.000000 0.000000
# 5 0.000000 0.000000 0.000000 0.000000 0.079596 0.000000
# 6 0.000000 0.000000 0.000000 0.000000 0.000000 -0.030235
#
#
# Mechanical properties :
#
#
# Convention : Reuss Voigt Hill
#
# Bulk Modulus (GPa) = 11.62968 43.67930 27.65449
# Shear Modulus (GPa) = 26.26291 24.11183 25.18737
#
# Velocity S-wave (km/s) = 3.35379 3.21351 3.28440
# Velocity P-wave (km/s) = 4.46967 5.69876 5.12122
#
# Compressibility (1/GPa) = 0.08598686
#
# Stress axis : x y z
#
# Youngs Moduli (GPa) = 73.77202 185.49285 15.23111
#
# Poissons Ratio (x) = 0.35080 -0.17179
# Poissons Ratio (y) = 0.13952 0.13244
# Poissons Ratio (z) = -0.83208 1.61289
#
# Static dielectric constant tensor:
#      x y z
#    x 1.886930 0.000000 0.000000 
#    y 0.000000 1.935510 0.000000 
#    z 0.000000 0.000000 1.814400 
# 
# From -- ./inp_files/29791.got.cif
#   From: 2010.05.17/outbox.cif.g08.bks.cpg/sg47_15_cif.got.tgz:29791.got - 2010.06.03 20:15:42.
