data_PCOD9386607
_publ_section_title
;
Structure prediction by ZEFSAII (Michael W. Deem and Ramdas Pophale) SiO2 
 PCOD9386607
Probable space group: P M M M
;
_chemical_formula_sum "Si O2"
_cell_formula_units_Z 48
_cell_length_a 15.891129
_cell_length_b 18.381280
_cell_length_c 8.521087
_cell_angle_alpha 90.000000
_cell_angle_beta 90.000000
_cell_angle_gamma 90.000000
_cell_volume 2489.003477
_symmetry_space_group_name_H-M "P M M M"
_symmetry_group_IT_number 47
_symmetry_cell_setting 'orthorhombic'
loop_
_space_group_symop_operation_xyz
x,y,z
-x,-y,z
x,-y,-z
-x,y,-z
-x,-y,-z
x,y,-z
-x,y,z
x,-y,z
loop_
_atom_site_type_symbol
_atom_site_label
_atom_site_fract_x
_atom_site_fract_y
_atom_site_fract_z
Si Si1 0.165239 0.415726 0.689827
Si Si2 0.335370 0.333942 0.689802
Si Si3 0.500000 0.415988 0.811952
Si Si4 0.830581 0.915589 0.809973
Si Si5 0.334754 0.165417 0.688275
Si Si6 0.000000 0.665374 0.188174
Si Si7 0.500000 0.084323 0.811683
Si Si8 0.000000 0.833268 0.808653
O O1 0.162823 0.414365 0.500000
O O2 0.166578 0.500000 0.739701
O O3 0.250061 0.374491 0.740614
O O4 0.082940 0.375385 0.752085
O O5 0.337822 0.335457 0.500000
O O6 0.417147 0.375152 0.751749
O O7 0.334818 0.249728 0.739940
O O8 0.500000 0.500000 0.758060
O O9 0.500000 0.415227 0.000000
O O10 0.748699 0.874745 0.747382
O O11 0.915693 0.874953 0.758228
O O12 0.831108 0.000000 0.761386
O O13 0.828397 0.913950 0.000000
O O14 0.336177 0.164154 0.500000
O O15 0.417071 0.124699 0.750914
O O16 0.000000 0.749405 0.242337
O O17 0.000000 0.665037 0.000000
O O18 0.500000 0.000000 0.760376
O O19 0.500000 0.085700 0.000000
O O20 0.000000 0.833817 0.000000
#
# Coordination Sequence:
#
# PCOD9386607 Si02
#       8
#     8   8   4   8   8   4   4   4
#     4  10  21  38  59  81 108 146 189 229 270 323
#     4  10  22  40  61  84 111 149 193 230 272 333
#     4  11  24  39  58  88 120 147 180 229 286 334
#     4  10  20  36  59  84 111 148 192 232 274 332
#     4  11  23  38  58  86 117 146 182 233 287 333
#     4  11  22  35  55  83 114 147 182 228 286 335
#     4  11  24  41  60  82 110 149 194 231 270 332
#     4   9  19  36  57  82 112 147 188 232 276 325
#
# _framework density 19.284825000000001
#
# number of rings (size 3 to 8) (size 9 to 14) (size 15 to 20)
#    0.000    1.667    0.000    4.250    0.000   10.667 
#    0.000    1.250    0.000    1.000    0.000    0.000 
#    0.000    0.000    0.000    0.000    0.000    0.000 
#
# Total GULP energy -268388.235028 kJ/mol
# GULP energy per Si atom -5591.421563 kJ/mol
# Density = 1.924093 g / cm^3
# Si number density = 19.284825 Si / 1000 Ang^3
#
#
#
# Elastic Constant Matrix: (Units=GPa)
#
#
# Indices 1 2 3 4 5 6 
#
# 1 245.0674 151.8417 34.3458 0.0000 0.0000 0.0000
# 2 151.8417 247.0764 41.1455 0.0000 0.0000 0.0000
# 3 34.3458 41.1455 16.7262 0.0000 0.0000 0.0000
# 4 0.0000 0.0000 0.0000 26.3891 0.0000 0.0000
# 5 0.0000 0.0000 0.0000 0.0000 -54.5665 0.0000
# 6 0.0000 0.0000 0.0000 0.0000 0.0000 46.7340
#
#
#
# Elastic Compliance Matrix: (Units=1/GPa)
#
#
# Indices 1 2 3 4 5 6 
#
# 1 0.006972 -0.003219 -0.006396 0.000000 0.000000 0.000000
# 2 -0.003219 0.008342 -0.013911 0.000000 0.000000 0.000000
# 3 -0.006396 -0.013911 0.107142 0.000000 0.000000 0.000000
# 4 0.000000 0.000000 0.000000 0.037894 0.000000 0.000000
# 5 0.000000 0.000000 0.000000 0.000000 -0.018326 0.000000
# 6 0.000000 0.000000 0.000000 0.000000 0.000000 0.021398
#
#
# Mechanical properties :
#
#
# Convention : Reuss Voigt Hill
#
# Bulk Modulus (GPa) = 13.26225 107.05958 60.16091
# Shear Modulus (GPa) = 21.22151 22.48044 21.85097
#
# Velocity S-wave (km/s) = 3.32086 3.41795 3.36976
# Velocity P-wave (km/s) = 4.64717 8.43872 6.81205
#
# Compressibility (1/GPa) = 0.07540201
#
# Stress axis : x y z
#
# Youngs Moduli (GPa) = 143.44018 119.87015 9.33339
#
# Poissons Ratio (x) = 0.38589 0.05970
# Poissons Ratio (y) = 0.46176 0.12984
# Poissons Ratio (z) = 0.91751 1.66756
#
# Static dielectric constant tensor:
#      x y z
#    x 1.617120 0.000000 0.000000 
#    y 0.000000 1.657460 0.000000 
#    z 0.000000 0.000000 1.663460 
# 
# From -- ./inp_files/6573.got.cif
#   From: 2010.05.17/outbox.cif.g08.bks.cpg/sg47_4_cif.got.tgz:6573.got - 2010.06.03 20:15:42.
