data_PCOD9386955
_publ_section_title
;
Structure prediction by ZEFSAII (Michael W. Deem and Ramdas Pophale) SiO2 
 PCOD9386955
Probable space group: P M M M
;
_chemical_formula_sum "Si O2"
_cell_formula_units_Z 40
_cell_length_a 7.728298
_cell_length_b 9.525861
_cell_length_c 27.050440
_cell_angle_alpha 90.000000
_cell_angle_beta 90.000000
_cell_angle_gamma 90.000000
_cell_volume 1991.418025
_symmetry_space_group_name_H-M "P M M M"
_symmetry_group_IT_number 47
_symmetry_cell_setting 'orthorhombic'
loop_
_space_group_symop_operation_xyz
x,y,z
-x,-y,z
x,-y,-z
-x,y,-z
-x,-y,-z
x,y,-z
-x,y,z
x,-y,z
loop_
_atom_site_type_symbol
_atom_site_label
_atom_site_fract_x
_atom_site_fract_y
_atom_site_fract_z
Si Si1 0.208112 0.659351 0.893350
Si Si2 0.212007 0.661727 0.596136
Si Si3 0.206293 0.160400 0.689415
Si Si4 0.211396 0.162058 0.500000
Si Si5 0.294160 0.841473 0.201602
Si Si6 0.201214 0.328562 0.000000
O O1 0.271672 0.500000 0.885976
O O2 0.245752 0.751713 0.845866
O O3 0.000000 0.652402 0.898340
O O4 0.276066 0.713525 0.946677
O O5 0.268040 0.500000 0.593106
O O6 0.271436 0.738913 0.646153
O O7 0.265263 0.753344 0.548821
O O8 0.000000 0.660076 0.596278
O O9 0.237212 0.214645 0.744900
O O10 0.000000 0.151060 0.682657
O O11 0.275561 0.000000 0.686199
O O12 0.000000 0.159874 0.500000
O O13 0.268423 0.000000 0.500000
O O14 0.500000 0.849195 0.203007
O O15 0.222604 0.000000 0.197208
O O16 0.203443 0.500000 0.000000
O O17 0.000000 0.283564 0.000000
#
# Coordination Sequence:
#
# PCOD9386955 Si02
#       6
#     8   8   8   4   8   4
#     4   9  17  31  53  77  98 123 158 199 241 286
#     4   9  16  25  39  62  91 119 149 189 234 277
#     4   9  17  30  47  65  87 119 158 196 234 279
#     4   9  15  23  37  59  90 125 154 181 222 278
#     4  10  21  35  49  68  97 131 164 199 241 288
#     4   7  12  26  48  73  98 122 152 193 238 283
#
# _framework density 20.086189999999998
#
# number of rings (size 3 to 8) (size 9 to 14) (size 15 to 20)
#    0.000    3.000    0.000    2.700    0.000    6.000 
#    0.000    3.000    0.000    4.800    0.000    0.700 
#    0.000    5.600    0.000    0.000    0.000    0.000 
#
# Total GULP energy -223005.102618 kJ/mol
# GULP energy per Si atom -5575.127565 kJ/mol
# Density = 2.004047 g / cm^3
# Si number density = 20.086190 Si / 1000 Ang^3
#
#
#
# Elastic Constant Matrix: (Units=GPa)
#
#
# Indices 1 2 3 4 5 6 
#
# 1 30.0915 5.1431 3.1247 0.0000 0.0000 0.0000
# 2 5.1431 114.7504 120.1619 0.0000 0.0000 0.0000
# 3 3.1247 120.1619 246.6228 0.0000 0.0000 0.0000
# 4 0.0000 0.0000 0.0000 38.3885 0.0000 0.0000
# 5 0.0000 0.0000 0.0000 0.0000 -43.7850 0.0000
# 6 0.0000 0.0000 0.0000 0.0000 0.0000 13.4262
#
#
#
# Elastic Compliance Matrix: (Units=1/GPa)
#
#
# Indices 1 2 3 4 5 6 
#
# 1 0.033536 -0.002160 0.000628 0.000000 0.000000 0.000000
# 2 -0.002160 0.017932 -0.008709 0.000000 0.000000 0.000000
# 3 0.000628 -0.008709 0.008290 0.000000 0.000000 0.000000
# 4 0.000000 0.000000 0.000000 0.026049 0.000000 0.000000
# 5 0.000000 0.000000 0.000000 0.000000 -0.022839 0.000000
# 6 0.000000 0.000000 0.000000 0.000000 0.000000 0.074481
#
#
# Mechanical properties :
#
#
# Convention : Reuss Voigt Hill
#
# Bulk Modulus (GPa) = 25.46231 72.03602 48.74917
# Shear Modulus (GPa) = 29.23547 19.14160 24.18854
#
# Velocity S-wave (km/s) = 3.81924 3.09038 3.47398
# Velocity P-wave (km/s) = 5.67035 6.97676 6.35720
#
# Compressibility (1/GPa) = 0.03927373
#
# Stress axis : x y z
#
# Youngs Moduli (GPa) = 29.81866 55.76778 120.62297
#
# Poissons Ratio (x) = 0.12048 -0.07571
# Poissons Ratio (y) = 0.06442 1.05055
# Poissons Ratio (z) = -0.01872 0.48570
#
# Static dielectric constant tensor:
#      x y z
#    x 1.729640 0.000000 0.000000 
#    y 0.000000 1.727750 0.000000 
#    z 0.000000 0.000000 1.719860 
# 
# From -- ./inp_files/1825.got.cif
#   From: 2010.05.17/outbox.cif.g08.bks.cpg/sg47_1_cif.got.tgz:1825.got - 2010.06.03 20:15:42.
