data_PCOD9386673
_publ_section_title
;
Structure prediction by ZEFSAII (Michael W. Deem and Ramdas Pophale) SiO2 
 PCOD9386673
Probable space group: P M M M
;
_chemical_formula_sum "Si O2"
_cell_formula_units_Z 48
_cell_length_a 8.830289
_cell_length_b 29.613542
_cell_length_c 10.333813
_cell_angle_alpha 90.000000
_cell_angle_beta 90.000000
_cell_angle_gamma 90.000000
_cell_volume 2702.252151
_symmetry_space_group_name_H-M "P M M M"
_symmetry_group_IT_number 47
_symmetry_cell_setting 'orthorhombic'
loop_
_space_group_symop_operation_xyz
x,y,z
-x,-y,z
x,-y,-z
-x,y,-z
-x,-y,-z
x,y,-z
-x,y,z
x,-y,z
loop_
_atom_site_type_symbol
_atom_site_label
_atom_site_fract_x
_atom_site_fract_y
_atom_site_fract_z
Si Si1 0.182544 0.948220 0.648688
Si Si2 0.183093 0.703335 0.348434
Si Si3 0.817300 0.396271 0.741076
Si Si4 0.676089 0.553706 0.500000
Si Si5 0.317281 0.225730 0.851650
Si Si6 0.184818 0.447437 0.000000
Si Si7 0.682392 0.120814 0.852913
O O1 0.227804 0.938499 0.500000
O O2 0.249349 0.912782 0.748595
O O3 0.000000 0.946511 0.653686
O O4 0.228057 0.000000 0.678335
O O5 0.229959 0.705949 0.500000
O O6 0.230310 0.655212 0.286817
O O7 0.247139 0.742574 0.257468
O O8 0.000000 0.705165 0.346813
O O9 0.756954 0.426230 0.624648
O O10 0.000000 0.396516 0.740262
O O11 0.766388 0.419453 0.874053
O O12 0.686658 0.500000 0.500000
O O13 0.500000 0.566803 0.500000
O O14 0.500000 0.228599 0.846012
O O15 0.275076 0.173211 0.830536
O O16 0.272186 0.237960 0.000000
O O17 0.234231 0.500000 0.000000
O O18 0.000000 0.448372 0.000000
O O19 0.500000 0.118610 0.847365
O O20 0.728626 0.108947 0.000000
#
# Coordination Sequence:
#
# PCOD9386673 Si02
#       7
#     8   8   8   4   8   4   8
#     4   9  19  35  53  76 109 146 182 222 269 320
#     4  10  21  36  54  80 109 137 176 222 266 315
#     4  10  20  37  58  80 108 141 177 219 265 315
#     4  11  23  37  55  81 111 143 179 217 260 313
#     4   9  20  38  57  78 106 142 181 218 265 325
#     4   9  18  32  55  85 107 131 175 221 260 309
#     4   9  19  36  55  77 107 140 179 226 268 315
#
# _framework density 17.762961000000001
#
# number of rings (size 3 to 8) (size 9 to 14) (size 15 to 20)
#    0.000    2.500    0.833    2.250    1.167    5.333 
#    0.000    7.917    0.000    1.500    0.000    0.000 
#    0.000    0.000    0.000    0.000    0.000    0.000 
#
# Total GULP energy -267736.505047 kJ/mol
# GULP energy per Si atom -5577.843855 kJ/mol
# Density = 1.772253 g / cm^3
# Si number density = 17.762961 Si / 1000 Ang^3
#
#
#
# Elastic Constant Matrix: (Units=GPa)
#
#
# Indices 1 2 3 4 5 6 
#
# 1 4.1507 32.4267 33.2161 0.0000 0.0000 0.0000
# 2 32.4267 132.6201 123.8264 0.0000 0.0000 0.0000
# 3 33.2161 123.8264 195.9022 0.0000 0.0000 0.0000
# 4 0.0000 0.0000 0.0000 63.0565 0.0000 0.0000
# 5 0.0000 0.0000 0.0000 0.0000 12.7346 0.0000
# 6 0.0000 0.0000 0.0000 0.0000 0.0000 36.0052
#
#
#
# Elastic Compliance Matrix: (Units=1/GPa)
#
#
# Indices 1 2 3 4 5 6 
#
# 1 -0.257365 0.054130 0.009423 0.000000 0.000000 0.000000
# 2 0.054130 0.007014 -0.013611 0.000000 0.000000 0.000000
# 3 0.009423 -0.013611 0.012110 0.000000 0.000000 0.000000
# 4 0.000000 0.000000 0.000000 0.015859 0.000000 0.000000
# 5 0.000000 0.000000 0.000000 0.000000 0.078526 0.000000
# 6 0.000000 0.000000 0.000000 0.000000 0.000000 0.027774
#
#
# Mechanical properties :
#
#
# Convention : Reuss Voigt Hill
#
# Bulk Modulus (GPa) = -7.22763 79.06795 35.92016
# Shear Modulus (GPa) = -19.07790 31.90618 6.41414
#
# Velocity S-wave (km/s) = -3.28079 4.24278 1.90231
# Velocity P-wave (km/s) = 4.29293 8.28318 5.00908
#
# Compressibility (1/GPa) = -0.13835793
#
# Stress axis : x y z
#
# Youngs Moduli (GPa) = -3.88553 142.57083 82.57364
#
# Poissons Ratio (x) = -7.71731 -0.77809
# Poissons Ratio (y) = 0.21032 1.12394
# Poissons Ratio (z) = 0.03661 1.94059
#
# Static dielectric constant tensor:
#      x y z
#    x 1.600660 0.000000 0.000000 
#    y 0.000000 1.591150 0.000000 
#    z 0.000000 0.000000 1.581460 
# 
# From -- ./inp_files/2715.got.cif
#   From: 2010.05.17/outbox.cif.g08.bks.cpg/sg47_2_cif.got.tgz:2715.got - 2010.06.03 20:15:42.
