data_PCOD9386856
_publ_section_title
;
Structure prediction by ZEFSAII (Michael W. Deem and Ramdas Pophale) SiO2 
 PCOD9386856
Probable space group: P M M M
;
_chemical_formula_sum "Si O2"
_cell_formula_units_Z 40
_cell_length_a 30.750856
_cell_length_b 7.705322
_cell_length_c 9.252626
_cell_angle_alpha 90.000000
_cell_angle_beta 90.000000
_cell_angle_gamma 90.000000
_cell_volume 2192.365755
_symmetry_space_group_name_H-M "P M M M"
_symmetry_group_IT_number 47
_symmetry_cell_setting 'orthorhombic'
loop_
_space_group_symop_operation_xyz
x,y,z
-x,-y,z
x,-y,-z
-x,y,-z
-x,-y,-z
x,y,-z
-x,y,z
x,-y,z
loop_
_atom_site_type_symbol
_atom_site_label
_atom_site_fract_x
_atom_site_fract_y
_atom_site_fract_z
Si Si1 0.385292 0.199572 0.323675
Si Si2 0.203066 0.291765 0.162973
Si Si3 0.289574 0.791685 0.336274
Si Si4 0.883884 0.296586 0.673577
Si Si5 0.549872 0.500000 0.676482
Si Si6 0.049594 0.000000 0.675883
O O1 0.384309 0.197950 0.500000
O O2 0.337076 0.264764 0.280664
O O3 0.423020 0.330237 0.278289
O O4 0.391944 0.000000 0.277030
O O5 0.200140 0.500000 0.157153
O O6 0.248372 0.250407 0.239694
O O7 0.160979 0.235260 0.253563
O O8 0.201989 0.223100 0.000000
O O9 0.282918 0.724950 0.500000
O O10 0.292943 0.000000 0.344802
O O11 0.879020 0.285495 0.500000
O O12 0.891670 0.500000 0.709081
O O13 0.923111 0.170655 0.718108
O O14 0.500000 0.500000 0.724960
O O15 0.549442 0.500000 0.500000
O O16 0.048203 0.000000 0.500000
O O17 0.000000 0.000000 0.728004
#
# Coordination Sequence:
#
# PCOD9386856 Si02
#       6
#     8   8   8   8   4   4
#     4   8  15  27  40  59  89 121 157 200 241 288
#     4  10  21  34  48  71 102 133 166 206 253 301
#     4   9  18  31  48  70  95 128 169 207 246 296
#     4   9  18  33  52  74 102 135 169 205 248 298
#     4   9  16  24  38  62  89 123 163 197 242 297
#     4   9  18  32  53  81 105 127 165 215 256 293
#
# _framework density 18.245132000000002
#
# number of rings (size 3 to 8) (size 9 to 14) (size 15 to 20)
#    0.000    3.000    0.000    1.800    2.800    2.400 
#    0.000    4.000    0.000    1.200    0.000    2.800 
#    0.000    1.600    0.000    4.400    0.000    4.400 
#
# Total GULP energy -222914.311769 kJ/mol
# GULP energy per Si atom -5572.857794 kJ/mol
# Density = 1.820361 g / cm^3
# Si number density = 18.245132 Si / 1000 Ang^3
#
#
#
# Elastic Constant Matrix: (Units=GPa)
#
#
# Indices 1 2 3 4 5 6 
#
# 1 211.2372 80.0770 45.1407 0.0000 0.0000 0.0000
# 2 80.0770 83.2391 24.1649 0.0000 0.0000 0.0000
# 3 45.1407 24.1649 28.1129 0.0000 0.0000 0.0000
# 4 0.0000 0.0000 0.0000 8.0385 0.0000 0.0000
# 5 0.0000 0.0000 0.0000 0.0000 -5.0826 0.0000
# 6 0.0000 0.0000 0.0000 0.0000 0.0000 33.7706
#
#
#
# Elastic Compliance Matrix: (Units=1/GPa)
#
#
# Indices 1 2 3 4 5 6 
#
# 1 0.008970 -0.005927 -0.009309 0.000000 0.000000 0.000000
# 2 -0.005927 0.019924 -0.007610 0.000000 0.000000 0.000000
# 3 -0.009309 -0.007610 0.057058 0.000000 0.000000 0.000000
# 4 0.000000 0.000000 0.000000 0.124401 0.000000 0.000000
# 5 0.000000 0.000000 0.000000 0.000000 -0.196751 0.000000
# 6 0.000000 0.000000 0.000000 0.000000 0.000000 0.029612
#
#
# Mechanical properties :
#
#
# Convention : Reuss Voigt Hill
#
# Bulk Modulus (GPa) = 24.83672 69.03936 46.93804
# Shear Modulus (GPa) = 48.86371 18.89242 33.87806
#
# Velocity S-wave (km/s) = 5.18073 3.22137 4.31377
# Velocity P-wave (km/s) = 7.03057 7.19433 7.11292
#
# Compressibility (1/GPa) = 0.04026296
#
# Stress axis : x y z
#
# Youngs Moduli (GPa) = 111.48221 50.18952 17.52588
#
# Poissons Ratio (x) = 0.29747 0.16314
# Poissons Ratio (y) = 0.66075 0.13336
# Poissons Ratio (z) = 1.03774 0.38192
#
# Static dielectric constant tensor:
#      x y z
#    x 1.621660 0.000000 0.000000 
#    y 0.000000 1.634930 0.000000 
#    z 0.000000 0.000000 1.608120 
# 
# From -- ./inp_files/13013.got.cif
#   From: 2010.05.17/outbox.cif.g08.bks.cpg/sg47_7_cif.got.tgz:13013.got - 2010.06.03 20:15:42.
