data_PCOD9386968
_publ_section_title
;
Structure prediction by ZEFSAII (Michael W. Deem and Ramdas Pophale) SiO2 
 PCOD9386968
Probable space group: P M M M
;
_chemical_formula_sum "Si O2"
_cell_formula_units_Z 52
_cell_length_a 8.672950
_cell_length_b 23.661043
_cell_length_c 14.694445
_cell_angle_alpha 90.000000
_cell_angle_beta 90.000000
_cell_angle_gamma 90.000000
_cell_volume 3015.462383
_symmetry_space_group_name_H-M "P M M M"
_symmetry_group_IT_number 47
_symmetry_cell_setting 'orthorhombic'
loop_
_space_group_symop_operation_xyz
x,y,z
-x,-y,z
x,-y,-z
-x,y,-z
-x,-y,-z
x,y,-z
-x,y,z
x,-y,z
loop_
_atom_site_type_symbol
_atom_site_label
_atom_site_fract_x
_atom_site_fract_y
_atom_site_fract_z
Si Si1 0.685760 0.216479 0.603158
Si Si2 0.687524 0.651863 0.601401
Si Si3 0.184857 0.500000 0.105614
Si Si4 0.813932 0.719829 0.893245
Si Si5 0.815942 0.832143 0.216435
Si Si6 0.685085 0.390506 0.206318
Si Si7 0.314060 0.935437 0.104655
O O1 0.728592 0.200288 0.500000
O O2 0.500000 0.214400 0.609876
O O3 0.731803 0.282403 0.615844
O O4 0.757797 0.178990 0.681755
O O5 0.739403 0.634453 0.500000
O O6 0.500000 0.650951 0.600319
O O7 0.737213 0.615817 0.688327
O O8 0.245364 0.555499 0.156435
O O9 0.000000 0.500000 0.106627
O O10 0.235800 0.500000 0.000000
O O11 0.766218 0.777688 0.843487
O O12 0.737039 0.666227 0.845337
O O13 0.000000 0.714502 0.885512
O O14 0.775219 0.721702 0.000000
O O15 0.751754 0.888829 0.171695
O O16 0.000000 0.833920 0.215087
O O17 0.500000 0.394342 0.204918
O O18 0.500000 0.933508 0.107338
O O19 0.267325 0.000000 0.126118
O O20 0.266706 0.923433 0.000000
#
# Coordination Sequence:
#
# PCOD9386968 Si02
#       7
#     8   8   4   8   8   8   8
#     4   9  17  32  54  78 107 143 180 217 262 319
#     4   8  15  30  53  80 108 135 165 208 263 315
#     4  11  25  43  58  71 100 146 181 209 260 327
#     4  10  21  35  49  71 108 146 173 205 260 321
#     4  11  21  32  51  80 113 144 177 218 267 324
#     4  11  21  35  58  83 103 129 175 227 262 300
#     4   9  19  36  56  77 104 142 187 230 269 314
#
# _framework density 17.244454000000001
#
# number of rings (size 3 to 8) (size 9 to 14) (size 15 to 20)
#    0.000    2.231    1.538    3.462    0.000    4.923 
#    0.000    1.154    0.000    4.615    0.000    3.231 
#    0.000    0.000    0.000    0.000    0.000    0.000 
#
# Total GULP energy -290175.902407 kJ/mol
# GULP energy per Si atom -5580.305816 kJ/mol
# Density = 1.720521 g / cm^3
# Si number density = 17.244454 Si / 1000 Ang^3
#
#
#
# Elastic Constant Matrix: (Units=GPa)
#
#
# Indices 1 2 3 4 5 6 
#
# 1 24.0729 34.5956 40.5780 0.0000 0.0000 0.0000
# 2 34.5956 128.0082 102.0951 0.0000 0.0000 0.0000
# 3 40.5780 102.0951 179.8106 0.0000 0.0000 0.0000
# 4 0.0000 0.0000 0.0000 31.2778 0.0000 0.0000
# 5 0.0000 0.0000 0.0000 0.0000 14.2547 0.0000
# 6 0.0000 0.0000 0.0000 0.0000 0.0000 25.4317
#
#
#
# Elastic Compliance Matrix: (Units=1/GPa)
#
#
# Indices 1 2 3 4 5 6 
#
# 1 0.076869 -0.012683 -0.010146 0.000000 0.000000 0.000000
# 2 -0.012683 0.016370 -0.006433 0.000000 0.000000 0.000000
# 3 -0.010146 -0.006433 0.011504 0.000000 0.000000 0.000000
# 4 0.000000 0.000000 0.000000 0.031972 0.000000 0.000000
# 5 0.000000 0.000000 0.000000 0.000000 0.070152 0.000000
# 6 0.000000 0.000000 0.000000 0.000000 0.000000 0.039321
#
#
# Mechanical properties :
#
#
# Convention : Reuss Voigt Hill
#
# Bulk Modulus (GPa) = 21.63555 76.26990 48.95272
# Shear Modulus (GPa) = 15.61926 24.50104 20.06015
#
# Velocity S-wave (km/s) = 3.01284 3.77345 3.41439
# Velocity P-wave (km/s) = 4.96755 7.95675 6.63274
#
# Compressibility (1/GPa) = 0.04622024
#
# Stress axis : x y z
#
# Youngs Moduli (GPa) = 13.00908 61.08666 86.92959
#
# Poissons Ratio (x) = 0.77474 0.88199
# Poissons Ratio (y) = 0.16499 0.55920
# Poissons Ratio (z) = 0.13199 0.39296
#
# Static dielectric constant tensor:
#      x y z
#    x 1.580530 0.000000 0.000000 
#    y 0.000000 1.553240 0.000000 
#    z 0.000000 0.000000 1.590820 
# 
# From -- ./inp_files/10991.got.cif
#   From: 2010.05.17/outbox.cif.g08.bks.cpg/sg47_6_cif.got.tgz:10991.got - 2010.06.03 20:15:42.
