data_PCOD9386556
_publ_section_title
;
Structure prediction by ZEFSAII (Michael W. Deem and Ramdas Pophale) SiO2 
 PCOD9386556
Probable space group: P M M M
;
_chemical_formula_sum "Si O2"
_cell_formula_units_Z 37
_cell_length_a 11.587926
_cell_length_b 9.654272
_cell_length_c 17.927735
_cell_angle_alpha 90.000000
_cell_angle_beta 90.000000
_cell_angle_gamma 90.000000
_cell_volume 2005.629310
_symmetry_space_group_name_H-M "P M M M"
_symmetry_group_IT_number 47
_symmetry_cell_setting 'orthorhombic'
loop_
_space_group_symop_operation_xyz
x,y,z
-x,-y,z
x,-y,-z
-x,y,-z
-x,-y,-z
x,y,-z
-x,y,z
x,-y,z
loop_
_atom_site_type_symbol
_atom_site_label
_atom_site_fract_x
_atom_site_fract_y
_atom_site_fract_z
Si Si1 0.866501 0.167993 0.500000
Si Si2 0.755732 0.846115 0.086559
Si Si3 0.862082 0.340281 0.211807
Si Si4 0.248343 0.834527 0.344064
Si Si5 0.500000 0.835774 0.717661
Si Si6 0.500000 0.500000 0.000000
Si Si7 0.500000 0.241107 0.884593
O O1 0.798646 0.208133 0.425104
O O2 0.000000 0.216056 0.500000
O O3 0.869768 0.000000 0.500000
O O4 0.810283 0.729610 0.138087
O O5 0.617881 0.836965 0.095214
O O6 0.794009 0.000000 0.110359
O O7 0.785220 0.826366 0.000000
O O8 0.824816 0.500000 0.218183
O O9 0.818077 0.250508 0.281088
O O10 0.000000 0.336141 0.208651
O O11 0.384254 0.811466 0.329567
O O12 0.227669 0.000000 0.335303
O O13 0.500000 0.748389 0.794276
O O14 0.500000 0.000000 0.739472
O O15 0.500000 0.620811 0.065817
#
# Coordination Sequence:
#
# PCOD9386556 Si02
#       7
#     4   8   8   8   4   1   4
#     4   9  18  33  58  92 125 159 204 253 296 354
#     4  11  23  39  62  87 117 155 199 254 307 362
#     4  11  25  41  58  83 117 157 203 253 306 369
#     4  10  20  37  62  90 121 158 199 248 306 368
#     4  10  20  35  59  90 120 155 198 250 306 359
#     4  12  28  36  58  96 126 178 202 252 312 366
#     4  12  22  37  57  89 124 156 203 245 302 364
#
# _framework density 18.448077000000001
#
# number of rings (size 3 to 8) (size 9 to 14) (size 15 to 20)
#    0.000    1.405    3.243    2.270    1.514    4.757 
#    0.000    4.865    0.000    1.946    0.000    1.514 
#    0.000    0.000    0.000    0.000    0.000    0.000 
#
# Total GULP energy -206349.999669 kJ/mol
# GULP energy per Si atom -5577.027018 kJ/mol
# Density = 1.840609 g / cm^3
# Si number density = 18.448077 Si / 1000 Ang^3
#
#
#
# Elastic Constant Matrix: (Units=GPa)
#
#
# Indices 1 2 3 4 5 6 
#
# 1 87.7280 49.0689 64.2839 0.0000 0.0000 0.0000
# 2 49.0689 93.3530 65.8795 0.0000 0.0000 0.0000
# 3 64.2839 65.8795 144.3452 0.0000 0.0000 0.0000
# 4 0.0000 0.0000 0.0000 5.3256 0.0000 0.0000
# 5 0.0000 0.0000 0.0000 0.0000 168.5017 0.0000
# 6 0.0000 0.0000 0.0000 0.0000 0.0000 -3.8892
#
#
#
# Elastic Compliance Matrix: (Units=1/GPa)
#
#
# Indices 1 2 3 4 5 6 
#
# 1 0.018886 -0.005888 -0.005724 0.000000 0.000000 0.000000
# 2 -0.005888 0.017637 -0.005427 0.000000 0.000000 0.000000
# 3 -0.005724 -0.005427 0.011954 0.000000 0.000000 0.000000
# 4 0.000000 0.000000 0.000000 0.187774 0.000000 0.000000
# 5 0.000000 0.000000 0.000000 0.000000 0.005935 0.000000
# 6 0.000000 0.000000 0.000000 0.000000 0.000000 -0.257122
#
#
# Mechanical properties :
#
#
# Convention : Reuss Voigt Hill
#
# Bulk Modulus (GPa) = 69.44830 75.98786 72.71808
# Shear Modulus (GPa) = 208.84152 43.73388 126.28770
#
# Velocity S-wave (km/s) = 10.65133 4.87421 8.28278
# Velocity P-wave (km/s) = 13.74754 8.54147 11.44446
#
# Compressibility (1/GPa) = 0.01439920
#
# Stress axis : x y z
#
# Youngs Moduli (GPa) = 52.94845 56.69897 83.65421
#
# Poissons Ratio (x) = 0.33384 0.47881
# Poissons Ratio (y) = 0.31176 0.45403
# Poissons Ratio (z) = 0.30306 0.30773
#
# Static dielectric constant tensor:
#      x y z
#    x 1.632060 0.000000 0.000000 
#    y 0.000000 1.615660 0.000000 
#    z 0.000000 0.000000 1.620570 
# 
# From -- ./inp_files/14944.got.cif
#   From: 2010.05.17/outbox.cif.g08.bks.cpg/sg47_8_cif.got.tgz:14944.got - 2010.06.03 20:15:42.
