data_PCOD9386682
_publ_section_title
;
Structure prediction by ZEFSAII (Michael W. Deem and Ramdas Pophale) SiO2 
 PCOD9386682
Probable space group: P M M M
;
_chemical_formula_sum "Si O2"
_cell_formula_units_Z 48
_cell_length_a 29.973790
_cell_length_b 10.322943
_cell_length_c 8.320600
_cell_angle_alpha 90.000000
_cell_angle_beta 90.000000
_cell_angle_gamma 90.000000
_cell_volume 2574.541128
_symmetry_space_group_name_H-M "P M M M"
_symmetry_group_IT_number 47
_symmetry_cell_setting 'orthorhombic'
loop_
_space_group_symop_operation_xyz
x,y,z
-x,-y,z
x,-y,-z
-x,y,-z
-x,-y,-z
x,y,-z
-x,y,z
x,-y,z
loop_
_atom_site_type_symbol
_atom_site_label
_atom_site_fract_x
_atom_site_fract_y
_atom_site_fract_z
Si Si1 0.448405 0.500000 0.191710
Si Si2 0.877729 0.354150 0.806330
Si Si3 0.394510 0.749836 0.305607
Si Si4 0.224703 0.352136 0.805805
Si Si5 0.050499 0.852326 0.306253
Si Si6 0.449529 0.000000 0.303913
Si Si7 0.701604 0.150755 0.305998
O O1 0.500000 0.500000 0.253675
O O2 0.419974 0.623627 0.246507
O O3 0.450911 0.500000 0.000000
O O4 0.889755 0.500000 0.752297
O O5 0.826618 0.328740 0.754638
O O6 0.912720 0.248359 0.749862
O O7 0.877494 0.354481 0.000000
O O8 0.393750 0.745276 0.500000
O O9 0.423395 0.873012 0.253441
O O10 0.343949 0.778026 0.251181
O O11 0.237055 0.500000 0.755122
O O12 0.257252 0.240647 0.744377
O O13 0.225770 0.350898 0.000000
O O14 0.050259 0.852882 0.500000
O O15 0.000000 0.818835 0.252806
O O16 0.060003 0.000000 0.252888
O O17 0.500000 0.000000 0.246869
O O18 0.449984 0.000000 0.500000
O O19 0.700157 0.145702 0.500000
O O20 0.703633 0.000000 0.250457
#
# Coordination Sequence:
#
# PCOD9386682 Si02
#       7
#     4   8   8   8   8   4   8
#     4  11  25  41  55  79 115 147 177 217 264 315
#     4   9  19  36  55  77 107 141 181 228 271 316
#     4  10  20  37  59  83 109 139 178 221 264 315
#     4   9  20  38  57  78 107 144 183 221 266 322
#     4   9  19  35  53  76 109 146 182 222 270 324
#     4   9  16  30  57  85 105 133 175 219 262 309
#     4  10  21  37  56  82 113 139 172 222 272 318
#
# _framework density 18.644100999999999
#
# number of rings (size 3 to 8) (size 9 to 14) (size 15 to 20)
#    0.000    2.500    0.833    2.250    1.167    5.333 
#    0.000    7.917    0.000    1.500    0.000    0.000 
#    0.000    0.000    0.000    0.000    0.000    0.000 
#
# Total GULP energy -267727.161429 kJ/mol
# GULP energy per Si atom -5577.649196 kJ/mol
# Density = 1.860167 g / cm^3
# Si number density = 18.644101 Si / 1000 Ang^3
#
#
#
# Elastic Constant Matrix: (Units=GPa)
#
#
# Indices 1 2 3 4 5 6 
#
# 1 172.6142 134.7885 22.8180 0.0000 0.0000 0.0000
# 2 134.7885 194.3231 23.6217 0.0000 0.0000 0.0000
# 3 22.8180 23.6217 9.7840 0.0000 0.0000 0.0000
# 4 0.0000 0.0000 0.0000 62.8153 0.0000 0.0000
# 5 0.0000 0.0000 0.0000 0.0000 35.5073 0.0000
# 6 0.0000 0.0000 0.0000 0.0000 0.0000 41.7676
#
#
#
# Elastic Compliance Matrix: (Units=1/GPa)
#
#
# Indices 1 2 3 4 5 6 
#
# 1 0.013674 -0.007938 -0.012726 0.000000 0.000000 0.000000
# 2 -0.007938 0.011891 -0.010198 0.000000 0.000000 0.000000
# 3 -0.012726 -0.010198 0.156507 0.000000 0.000000 0.000000
# 4 0.000000 0.000000 0.000000 0.015920 0.000000 0.000000
# 5 0.000000 0.000000 0.000000 0.000000 0.028163 0.000000
# 6 0.000000 0.000000 0.000000 0.000000 0.000000 0.023942
#
#
# Mechanical properties :
#
#
# Convention : Reuss Voigt Hill
#
# Bulk Modulus (GPa) = 8.30908 82.13086 45.21997
# Shear Modulus (GPa) = 14.20712 41.05091 27.62901
#
# Velocity S-wave (km/s) = 2.76346 4.69744 3.85374
# Velocity P-wave (km/s) = 3.82735 8.57723 6.64144
#
# Compressibility (1/GPa) = 0.12035023
#
# Stress axis : x y z
#
# Youngs Moduli (GPa) = 73.13357 84.09408 6.38948
#
# Poissons Ratio (x) = 0.66750 0.08131
# Poissons Ratio (y) = 0.58050 0.06516
# Poissons Ratio (z) = 0.93066 0.85759
#
# Static dielectric constant tensor:
#      x y z
#    x 1.636400 0.000000 0.000000 
#    y 0.000000 1.615330 0.000000 
#    z 0.000000 0.000000 1.656590 
# 
# From -- ./inp_files/13876.got.cif
#   From: 2010.05.17/outbox.cif.g08.bks.cpg/sg47_7_cif.got.tgz:13876.got - 2010.06.03 20:15:42.
