data_PCOD9386023
_publ_section_title
;
Structure prediction by ZEFSAII (Michael W. Deem and Ramdas Pophale) SiO2 
 PCOD9386023
Probable space group: P M M M
;
_chemical_formula_sum "Si O2"
_cell_formula_units_Z 56
_cell_length_a 20.280860
_cell_length_b 7.960270
_cell_length_c 16.184433
_cell_angle_alpha 90.000000
_cell_angle_beta 90.000000
_cell_angle_gamma 90.000000
_cell_volume 2612.833013
_symmetry_space_group_name_H-M "P M M M"
_symmetry_group_IT_number 47
_symmetry_cell_setting 'orthorhombic'
loop_
_space_group_symop_operation_xyz
x,y,z
-x,-y,z
x,-y,-z
-x,y,-z
-x,-y,-z
x,y,-z
-x,y,z
x,-y,z
loop_
_atom_site_type_symbol
_atom_site_label
_atom_site_fract_x
_atom_site_fract_y
_atom_site_fract_z
Si Si1 0.426449 0.191745 0.766248
Si Si2 0.926013 0.702053 0.338627
Si Si3 0.208653 0.694339 0.089012
Si Si4 0.073582 0.199562 0.853745
Si Si5 0.785176 0.201518 0.407838
Si Si6 0.420832 0.691990 0.411663
Si Si7 0.711786 0.800773 0.243438
O O1 0.500000 0.267221 0.779227
O O2 0.412246 0.194454 0.667593
O O3 0.357382 0.273097 0.792275
O O4 0.430267 0.000000 0.796364
O O5 0.924325 0.500000 0.338559
O O6 0.919133 0.764378 0.244249
O O7 0.862240 0.763563 0.388442
O O8 0.000000 0.753912 0.367606
O O9 0.228179 0.500000 0.092509
O O10 0.130277 0.708524 0.097102
O O11 0.236326 0.780896 0.170376
O O12 0.229783 0.765281 0.000000
O O13 0.000000 0.251855 0.877291
O O14 0.080159 0.000000 0.866654
O O15 0.768855 0.266352 0.500000
O O16 0.741113 0.266939 0.330386
O O17 0.776763 0.000000 0.408728
O O18 0.395109 0.754164 0.500000
O O19 0.500000 0.681417 0.418393
O O20 0.397739 0.500000 0.397819
O O21 0.701236 0.000000 0.255074
#
# Coordination Sequence:
#
# PCOD9386023 Si02
#       7
#     8   8   8   8   8   8   8
#     4   9  18  32  52  79 107 136 176 227 281 336
#     4  10  20  34  54  80 111 148 192 243 291 329
#     4  11  24  40  60  87 117 149 186 231 283 335
#     4  10  20  35  58  87 118 152 189 229 277 333
#     4  10  21  36  54  78 110 151 198 242 284 333
#     4   8  14  25  41  64  97 135 174 215 259 313
#     4  10  21  38  59  82 112 150 188 230 282 341
#
# _framework density 21.432675
#
# number of rings (size 3 to 8) (size 9 to 14) (size 15 to 20)
#    0.000    2.286    1.429    1.714    0.000    5.143 
#    0.000    5.714    0.000    0.429    0.000    3.000 
#    0.000    0.000    0.000    0.000    0.000    0.000 
#
# Total GULP energy -312107.297769 kJ/mol
# GULP energy per Si atom -5573.344603 kJ/mol
# Density = 2.138389 g / cm^3
# Si number density = 21.432675 Si / 1000 Ang^3
#
#
#
# Elastic Constant Matrix: (Units=GPa)
#
#
# Indices 1 2 3 4 5 6 
#
# 1 134.9288 3.1101 37.3232 0.0000 0.0000 0.0000
# 2 3.1101 28.1188 3.9244 0.0000 0.0000 0.0000
# 3 37.3232 3.9244 74.8308 0.0000 0.0000 0.0000
# 4 0.0000 0.0000 0.0000 2.9647 0.0000 0.0000
# 5 0.0000 0.0000 0.0000 0.0000 15.8213 0.0000
# 6 0.0000 0.0000 0.0000 0.0000 0.0000 2.4727
#
#
#
# Elastic Compliance Matrix: (Units=1/GPa)
#
#
# Indices 1 2 3 4 5 6 
#
# 1 0.008601 -0.000355 -0.004271 0.000000 0.000000 0.000000
# 2 -0.000355 0.035840 -0.001702 0.000000 0.000000 0.000000
# 3 -0.004271 -0.001702 0.015583 0.000000 0.000000 0.000000
# 4 0.000000 0.000000 0.000000 0.337307 0.000000 0.000000
# 5 0.000000 0.000000 0.000000 0.000000 0.063206 0.000000
# 6 0.000000 0.000000 0.000000 0.000000 0.000000 0.404418
#
#
# Mechanical properties :
#
#
# Convention : Reuss Voigt Hill
#
# Bulk Modulus (GPa) = 21.11189 36.28818 28.70004
# Shear Modulus (GPa) = 5.59659 17.15311 11.37485
#
# Velocity S-wave (km/s) = 1.61769 2.83207 2.30625
# Velocity P-wave (km/s) = 3.65526 5.25948 4.52897
#
# Compressibility (1/GPa) = 0.04736668
#
# Stress axis : x y z
#
# Youngs Moduli (GPa) = 116.26553 27.90153 64.17189
#
# Poissons Ratio (x) = 0.00991 0.27410
# Poissons Ratio (y) = 0.04130 0.10925
# Poissons Ratio (z) = 0.49660 0.04750
#
# Static dielectric constant tensor:
#      x y z
#    x 1.856260 0.000000 0.000000 
#    y 0.000000 1.774540 0.000000 
#    z 0.000000 0.000000 1.793810 
# 
# From -- ./inp_files/7193.got.cif
#   From: 2010.05.17/outbox.cif.g08.bks.cpg/sg47_4_cif.got.tgz:7193.got - 2010.06.03 20:15:42.
