data_PCOD9386221
_publ_section_title
;
Structure prediction by ZEFSAII (Michael W. Deem and Ramdas Pophale) SiO2 
 PCOD9386221
Probable space group: P M M M
;
_chemical_formula_sum "Si O2"
_cell_formula_units_Z 48
_cell_length_a 18.240466
_cell_length_b 14.304431
_cell_length_c 9.820406
_cell_angle_alpha 90.000000
_cell_angle_beta 90.000000
_cell_angle_gamma 90.000000
_cell_volume 2562.335299
_symmetry_space_group_name_H-M "P M M M"
_symmetry_group_IT_number 47
_symmetry_cell_setting 'orthorhombic'
loop_
_space_group_symop_operation_xyz
x,y,z
-x,-y,z
x,-y,-z
-x,y,-z
-x,-y,-z
x,y,-z
-x,y,z
x,-y,z
loop_
_atom_site_type_symbol
_atom_site_label
_atom_site_fract_x
_atom_site_fract_y
_atom_site_fract_z
Si Si1 0.000000 0.887070 0.164188
Si Si2 0.826360 0.390559 0.731312
Si Si3 0.415793 0.754731 0.661351
Si Si4 0.080908 0.611183 0.000000
Si Si5 0.868662 0.192838 0.654092
Si Si6 0.661830 0.609829 0.841405
Si Si7 0.286954 0.894605 0.664951
O O1 0.069707 0.840340 0.240231
O O2 0.000000 0.000000 0.186752
O O3 0.000000 0.872983 0.000000
O O4 0.838249 0.500000 0.689248
O O5 0.871281 0.371003 0.868651
O O6 0.855632 0.304554 0.643617
O O7 0.740570 0.379742 0.766696
O O8 0.404449 0.733421 0.500000
O O9 0.500000 0.784421 0.677286
O O10 0.397029 0.666919 0.755550
O O11 0.356915 0.833026 0.703279
O O12 0.071548 0.500000 0.000000
O O13 0.000000 0.654452 0.000000
O O14 0.885468 0.158355 0.500000
O O15 0.790483 0.151404 0.701595
O O16 0.644798 0.500000 0.841229
O O17 0.667500 0.639601 0.000000
O O18 0.287464 0.897452 0.500000
O O19 0.291671 0.000000 0.716747
#
# Coordination Sequence:
#
# PCOD9386221 Si02
#       7
#     4   8   8   4   8   8   8
#     4  11  27  47  66  91 122 158 204 256 304 351
#     4  10  20  34  56  87 122 158 200 243 289 348
#     4  10  21  37  57  85 118 150 193 248 304 361
#     4   9  18  32  52  80 113 153 194 237 290 342
#     4  11  23  39  63  92 123 162 200 242 300 356
#     4  10  20  36  58  83 116 159 203 244 289 349
#     4   9  18  35  59  86 115 149 192 241 296 358
#
# _framework density 18.732911000000001
#
# number of rings (size 3 to 8) (size 9 to 14) (size 15 to 20)
#    0.000    2.000    2.500    0.750    2.333    3.000 
#    0.000    5.000    0.000    1.500    0.000    1.167 
#    0.000    0.000    0.000    0.000    0.000    0.000 
#
# Total GULP energy -267553.675407 kJ/mol
# GULP energy per Si atom -5574.034904 kJ/mol
# Density = 1.869027 g / cm^3
# Si number density = 18.732911 Si / 1000 Ang^3
#
#
#
# Elastic Constant Matrix: (Units=GPa)
#
#
# Indices 1 2 3 4 5 6 
#
# 1 133.1426 52.4051 48.9703 0.0000 0.0000 0.0000
# 2 52.4051 107.7425 43.1307 0.0000 0.0000 0.0000
# 3 48.9703 43.1307 78.8791 0.0000 0.0000 0.0000
# 4 0.0000 0.0000 0.0000 41.3903 0.0000 0.0000
# 5 0.0000 0.0000 0.0000 0.0000 46.9569 0.0000
# 6 0.0000 0.0000 0.0000 0.0000 0.0000 10.9109
#
#
#
# Elastic Compliance Matrix: (Units=1/GPa)
#
#
# Indices 1 2 3 4 5 6 
#
# 1 0.010533 -0.003208 -0.004785 0.000000 0.000000 0.000000
# 2 -0.003208 0.012859 -0.005040 0.000000 0.000000 0.000000
# 3 -0.004785 -0.005040 0.018404 0.000000 0.000000 0.000000
# 4 0.000000 0.000000 0.000000 0.024160 0.000000 0.000000
# 5 0.000000 0.000000 0.000000 0.000000 0.021296 0.000000
# 6 0.000000 0.000000 0.000000 0.000000 0.000000 0.091651
#
#
# Mechanical properties :
#
#
# Convention : Reuss Voigt Hill
#
# Bulk Modulus (GPa) = 63.56957 67.64184 65.60570
# Shear Modulus (GPa) = 23.78528 31.53548 27.66038
#
# Velocity S-wave (km/s) = 3.56716 4.10741 3.84678
# Velocity P-wave (km/s) = 7.13964 7.66038 7.40459
#
# Compressibility (1/GPa) = 0.01573080
#
# Stress axis : x y z
#
# Youngs Moduli (GPa) = 94.93594 77.76594 54.33491
#
# Poissons Ratio (x) = 0.24945 0.26002
# Poissons Ratio (y) = 0.30452 0.27384
# Poissons Ratio (z) = 0.45432 0.39193
#
# Static dielectric constant tensor:
#      x y z
#    x 1.638230 0.000000 0.000000 
#    y 0.000000 1.672880 0.000000 
#    z 0.000000 0.000000 1.422920 
# 
# From -- ./inp_files/9201.got.cif
#   From: 2010.05.17/outbox.cif.g08.bks.cpg/sg47_5_cif.got.tgz:9201.got - 2010.06.03 20:15:42.
