data_PCOD9386181
_publ_section_title
;
Structure prediction by ZEFSAII (Michael W. Deem and Ramdas Pophale) SiO2 
 PCOD9386181
Probable space group: P M M M
;
_chemical_formula_sum "Si O2"
_cell_formula_units_Z 48
_cell_length_a 9.824164
_cell_length_b 7.595763
_cell_length_c 35.699343
_cell_angle_alpha 90.000000
_cell_angle_beta 90.000000
_cell_angle_gamma 90.000000
_cell_volume 2663.957138
_symmetry_space_group_name_H-M "P M M M"
_symmetry_group_IT_number 47
_symmetry_cell_setting 'orthorhombic'
loop_
_space_group_symop_operation_xyz
x,y,z
-x,-y,z
x,-y,-z
-x,y,-z
-x,-y,-z
x,y,-z
-x,y,z
x,-y,z
loop_
_atom_site_type_symbol
_atom_site_label
_atom_site_fract_x
_atom_site_fract_y
_atom_site_fract_z
Si Si1 0.661875 0.000000 0.673275
Si Si2 0.846615 0.289913 0.111000
Si Si3 0.157015 0.285668 0.458182
Si Si4 0.344965 0.788323 0.041531
Si Si5 0.165427 0.298328 0.192630
Si Si6 0.835465 0.000000 0.251559
Si Si7 0.660864 0.292612 0.388219
O O1 0.754316 0.000000 0.709884
O O2 0.690083 0.170471 0.647372
O O3 0.500000 0.000000 0.682335
O O4 0.856845 0.500000 0.115588
O O5 0.752484 0.257814 0.075545
O O6 0.791707 0.228715 0.151489
O O7 0.000000 0.220564 0.104837
O O8 0.198981 0.227951 0.500000
O O9 0.159162 0.500000 0.458545
O O10 0.252925 0.232078 0.424171
O O11 0.000000 0.232444 0.452282
O O12 0.500000 0.725734 0.047612
O O13 0.349460 0.000000 0.040177
O O14 0.300196 0.727022 0.000000
O O15 0.211339 0.500000 0.198349
O O16 0.201371 0.169494 0.226276
O O17 0.000000 0.300861 0.190652
O O18 0.000000 0.000000 0.257265
O O19 0.500000 0.276362 0.396445
O O20 0.689436 0.500000 0.381130
#
# Coordination Sequence:
#
# PCOD9386181 Si02
#       7
#     4   8   8   8   8   4   8
#     4  10  22  38  51  71 104 130 159 208 252 291
#     4   9  18  32  51  75 100 126 159 202 248 292
#     4   8  14  26  46  73 103 132 164 206 252 291
#     4   9  19  34  48  66  97 135 171 205 241 284
#     4   8  16  32  52  77 106 128 155 201 249 295
#     4  10  20  34  56  79  96 127 166 196 242 304
#     4   9  18  33  52  71  95 133 172 203 243 292
#
# _framework density 18.018308000000001
#
# number of rings (size 3 to 8) (size 9 to 14) (size 15 to 20)
#    0.000    3.167    0.000    2.000    1.167    3.000 
#    0.000    5.417    0.000    3.500    0.000    0.000 
#    0.000    0.000    0.000    0.000    0.000    0.000 
#
# Total GULP energy -267447.702852 kJ/mol
# GULP energy per Si atom -5571.827143 kJ/mol
# Density = 1.797730 g / cm^3
# Si number density = 18.018308 Si / 1000 Ang^3
#
#
#
# Elastic Constant Matrix: (Units=GPa)
#
#
# Indices 1 2 3 4 5 6 
#
# 1 59.5718 31.5181 95.1262 0.0000 0.0000 0.0000
# 2 31.5181 70.5105 61.5033 0.0000 0.0000 0.0000
# 3 95.1262 61.5033 209.0884 0.0000 0.0000 0.0000
# 4 0.0000 0.0000 0.0000 41.9529 0.0000 0.0000
# 5 0.0000 0.0000 0.0000 0.0000 -348.9631 0.0000
# 6 0.0000 0.0000 0.0000 0.0000 0.0000 15.5083
#
#
#
# Elastic Compliance Matrix: (Units=1/GPa)
#
#
# Indices 1 2 3 4 5 6 
#
# 1 0.062286 -0.004203 -0.027101 0.000000 0.000000 0.000000
# 2 -0.004203 0.019360 -0.003783 0.000000 0.000000 0.000000
# 3 -0.027101 -0.003783 0.018225 0.000000 0.000000 0.000000
# 4 0.000000 0.000000 0.000000 0.023836 0.000000 0.000000
# 5 0.000000 0.000000 0.000000 0.000000 -0.002866 0.000000
# 6 0.000000 0.000000 0.000000 0.000000 0.000000 0.064481
#
#
# Mechanical properties :
#
#
# Convention : Reuss Voigt Hill
#
# Bulk Modulus (GPa) = 33.67175 79.49622 56.58398
# Shear Modulus (GPa) = 18.83966 -48.23218 -14.69626
#
# Velocity S-wave (km/s) = 3.23706 -5.17943 -2.85902
# Velocity P-wave (km/s) = 5.71835 2.90633 4.53576
#
# Compressibility (1/GPa) = 0.02969849
#
# Stress axis : x y z
#
# Youngs Moduli (GPa) = 16.05487 51.65158 54.86852
#
# Poissons Ratio (x) = 0.21707 1.48702
# Poissons Ratio (y) = 0.06747 0.20756
# Poissons Ratio (z) = 0.43511 0.19539
#
# Static dielectric constant tensor:
#      x y z
#    x 1.597770 0.000000 0.000000 
#    y 0.000000 1.662910 0.000000 
#    z 0.000000 0.000000 1.612060 
# 
# From -- ./inp_files/34067.got.cif
#   From: 2010.05.17/outbox.cif.g08.bks.cpg/sg47_18_cif.got.tgz:34067.got - 2010.06.03 20:15:42.
