data_PCOD9386420
_publ_section_title
;
Structure prediction by ZEFSAII (Michael W. Deem and Ramdas Pophale) SiO2 
 PCOD9386420
Probable space group: P M M M
;
_chemical_formula_sum "Si O2"
_cell_formula_units_Z 48
_cell_length_a 9.330922
_cell_length_b 8.718058
_cell_length_c 32.208653
_cell_angle_alpha 90.000000
_cell_angle_beta 90.000000
_cell_angle_gamma 90.000000
_cell_volume 2620.094018
_symmetry_space_group_name_H-M "P M M M"
_symmetry_group_IT_number 47
_symmetry_cell_setting 'orthorhombic'
loop_
_space_group_symop_operation_xyz
x,y,z
-x,-y,z
x,-y,-z
-x,y,-z
-x,-y,-z
x,y,-z
-x,y,z
x,-y,z
loop_
_atom_site_type_symbol
_atom_site_label
_atom_site_fract_x
_atom_site_fract_y
_atom_site_fract_z
Si Si1 0.825957 0.822302 0.665596
Si Si2 0.665104 0.687354 0.835211
Si Si3 0.665604 0.183602 0.500000
Si Si4 0.165397 0.312601 0.917508
Si Si5 0.167435 0.684910 0.247032
Si Si6 0.832080 0.316909 0.578366
Si Si7 0.334532 0.687367 0.000000
O O1 0.778542 0.749654 0.709095
O O2 0.779683 0.738108 0.623579
O O3 0.000000 0.811408 0.666159
O O4 0.786128 0.000000 0.663547
O O5 0.500000 0.736118 0.837398
O O6 0.666226 0.500000 0.835282
O O7 0.754092 0.736519 0.875626
O O8 0.741229 0.736051 0.792597
O O9 0.500000 0.232462 0.500000
O O10 0.743984 0.245225 0.540907
O O11 0.671669 0.000000 0.500000
O O12 0.165217 0.500000 0.917496
O O13 0.251145 0.263965 0.958551
O O14 0.000000 0.263505 0.918328
O O15 0.172080 0.500000 0.249039
O O16 0.000000 0.728770 0.241463
O O17 0.824684 0.500000 0.576222
O O18 0.000000 0.271819 0.574252
O O19 0.334903 0.500000 0.000000
O O20 0.500000 0.736572 0.000000
#
# Coordination Sequence:
#
# PCOD9386420 Si02
#       7
#     8   8   4   8   8   8   4
#     4   9  17  30  50  75 100 126 158 198 243 289
#     4   9  16  25  37  54  77 106 142 184 229 277
#     4  11  24  39  54  76 108 143 176 211 254 302
#     4   9  15  22  32  47  69 100 140 184 228 275
#     4   9  16  27  44  65  88 115 149 189 231 277
#     4  10  20  35  57  83 107 134 172 214 253 297
#     4   9  15  21  29  43  67 101 140 181 226 277
#
# _framework density 18.319953999999999
#
# number of rings (size 3 to 8) (size 9 to 14) (size 15 to 20)
#    0.000    2.667    0.000    2.750    0.000    9.667 
#    0.000    0.833    0.000    3.500    0.000    0.000 
#    0.000    0.000    0.000    0.750    0.000   16.333 
#
# Total GULP energy -267732.396270 kJ/mol
# GULP energy per Si atom -5577.758256 kJ/mol
# Density = 1.827826 g / cm^3
# Si number density = 18.319954 Si / 1000 Ang^3
#
#
#
# Elastic Constant Matrix: (Units=GPa)
#
#
# Indices 1 2 3 4 5 6 
#
# 1 127.7597 24.7223 110.4015 0.0000 0.0000 0.0000
# 2 24.7223 11.8921 35.8636 0.0000 0.0000 0.0000
# 3 110.4015 35.8636 223.0795 0.0000 0.0000 0.0000
# 4 0.0000 0.0000 0.0000 -15.0902 0.0000 0.0000
# 5 0.0000 0.0000 0.0000 0.0000 -6.9693 0.0000
# 6 0.0000 0.0000 0.0000 0.0000 0.0000 9.3054
#
#
#
# Elastic Compliance Matrix: (Units=1/GPa)
#
#
# Indices 1 2 3 4 5 6 
#
# 1 0.015341 -0.017462 -0.004785 0.000000 0.000000 0.000000
# 2 -0.017462 0.183103 -0.020795 0.000000 0.000000 0.000000
# 3 -0.004785 -0.020795 0.010194 0.000000 0.000000 0.000000
# 4 0.000000 0.000000 0.000000 -0.066268 0.000000 0.000000
# 5 0.000000 0.000000 0.000000 0.000000 -0.143487 0.000000
# 6 0.000000 0.000000 0.000000 0.000000 0.000000 0.107465
#
#
# Mechanical properties :
#
#
# Convention : Reuss Voigt Hill
#
# Bulk Modulus (GPa) = 8.15965 78.30068 43.23017
# Shear Modulus (GPa) = 21.43323 10.23210 15.83267
#
# Velocity S-wave (km/s) = 3.42415 2.36587 2.94297
# Velocity P-wave (km/s) = 4.48293 7.09201 5.93267
#
# Compressibility (1/GPa) = 0.12255426
#
# Stress axis : x y z
#
# Youngs Moduli (GPa) = 65.18454 5.46141 98.09836
#
# Poissons Ratio (x) = 0.09537 0.46939
# Poissons Ratio (y) = 1.13826 2.03993
# Poissons Ratio (z) = 0.31190 0.11357
#
# Static dielectric constant tensor:
#      x y z
#    x 1.616570 0.000000 0.000000 
#    y 0.000000 1.611570 0.000000 
#    z 0.000000 0.000000 1.612480 
# 
# From -- ./inp_files/13979.got.cif
#   From: 2010.05.17/outbox.cif.g08.bks.cpg/sg47_7_cif.got.tgz:13979.got - 2010.06.03 20:15:42.
