data_PCOD9386428
_publ_section_title
;
Structure prediction by ZEFSAII (Michael W. Deem and Ramdas Pophale) SiO2 
 PCOD9386428
Probable space group: P M M M
;
_chemical_formula_sum "Si O2"
_cell_formula_units_Z 44
_cell_length_a 29.447813
_cell_length_b 9.379651
_cell_length_c 8.457045
_cell_angle_alpha 90.000000
_cell_angle_beta 90.000000
_cell_angle_gamma 90.000000
_cell_volume 2335.922164
_symmetry_space_group_name_H-M "P M M M"
_symmetry_group_IT_number 47
_symmetry_cell_setting 'orthorhombic'
loop_
_space_group_symop_operation_xyz
x,y,z
-x,-y,z
x,-y,-z
-x,y,-z
-x,-y,-z
x,y,-z
-x,y,z
x,-y,z
loop_
_atom_site_type_symbol
_atom_site_label
_atom_site_fract_x
_atom_site_fract_y
_atom_site_fract_z
Si Si1 0.412315 0.334946 0.191471
Si Si2 0.766270 0.665052 0.809365
Si Si3 0.050210 0.833015 0.190466
Si Si4 0.500000 0.164999 0.689592
Si Si5 0.322494 0.164231 0.193210
Si Si6 0.863351 0.336144 0.688557
O O1 0.413514 0.500000 0.243355
O O2 0.455632 0.247666 0.250429
O O3 0.366163 0.255924 0.242705
O O4 0.412965 0.334857 0.000000
O O5 0.761236 0.500000 0.755779
O O6 0.724057 0.760176 0.754885
O O7 0.815412 0.719407 0.754754
O O8 0.765696 0.663986 0.000000
O O9 0.092611 0.749288 0.258414
O O10 0.000000 0.781538 0.242147
O O11 0.053549 0.000000 0.232227
O O12 0.051567 0.823395 0.000000
O O13 0.500000 0.165310 0.500000
O O14 0.500000 0.000000 0.744234
O O15 0.325536 0.000000 0.244506
O O16 0.322284 0.164205 0.000000
O O17 0.860747 0.335763 0.500000
O O18 0.867556 0.500000 0.744787
#
# Coordination Sequence:
#
# PCOD9386428 Si02
#       6
#     8   8   8   4   8   8
#     4  10  20  35  57  83 108 137 176 218 260 310
#     4   9  17  31  51  73  99 133 172 213 257 305
#     4   9  19  36  56  77 101 131 170 215 261 310
#     4  11  24  39  54  76 108 143 178 217 262 312
#     4   9  17  30  51  79 106 132 168 216 265 308
#     4  10  21  35  51  75 107 140 174 212 255 306
#
# _framework density 18.836243
#
# number of rings (size 3 to 8) (size 9 to 14) (size 15 to 20)
#    0.000    2.455    0.000    2.727    0.000    8.000 
#    0.000    5.455    0.000    3.273    0.000    0.000 
#    0.000    0.000    0.000    0.000    0.000    0.000 
#
# Total GULP energy -245560.475099 kJ/mol
# GULP energy per Si atom -5580.919889 kJ/mol
# Density = 1.879337 g / cm^3
# Si number density = 18.836243 Si / 1000 Ang^3
#
#
#
# Elastic Constant Matrix: (Units=GPa)
#
#
# Indices 1 2 3 4 5 6 
#
# 1 225.6975 114.3551 25.8109 0.0000 0.0000 0.0000
# 2 114.3551 134.3065 20.9550 0.0000 0.0000 0.0000
# 3 25.8109 20.9550 6.6764 0.0000 0.0000 0.0000
# 4 0.0000 0.0000 0.0000 18.0184 0.0000 0.0000
# 5 0.0000 0.0000 0.0000 0.0000 -27.6151 0.0000
# 6 0.0000 0.0000 0.0000 0.0000 0.0000 55.5329
#
#
#
# Elastic Compliance Matrix: (Units=1/GPa)
#
#
# Indices 1 2 3 4 5 6 
#
# 1 0.009117 -0.004435 -0.021324 0.000000 0.000000 0.000000
# 2 -0.004435 0.016749 -0.035422 0.000000 0.000000 0.000000
# 3 -0.021324 -0.035422 0.343398 0.000000 0.000000 0.000000
# 4 0.000000 0.000000 0.000000 0.055499 0.000000 0.000000
# 5 0.000000 0.000000 0.000000 0.000000 -0.036212 0.000000
# 6 0.000000 0.000000 0.000000 0.000000 0.000000 0.018007
#
#
# Mechanical properties :
#
#
# Convention : Reuss Voigt Hill
#
# Bulk Modulus (GPa) = 4.05021 76.54696 40.29858
# Shear Modulus (GPa) = 8.18036 22.89119 15.53577
#
# Velocity S-wave (km/s) = 2.08622 3.48986 2.87502
# Velocity P-wave (km/s) = 2.82099 7.54753 5.69751
#
# Compressibility (1/GPa) = 0.24690087
#
# Stress axis : x y z
#
# Youngs Moduli (GPa) = 109.69080 59.70584 2.91207
#
# Poissons Ratio (x) = 0.26481 0.06210
# Poissons Ratio (y) = 0.48651 0.10315
# Poissons Ratio (z) = 2.33901 2.11492
#
# Static dielectric constant tensor:
#      x y z
#    x 1.629390 0.000000 0.000000 
#    y 0.000000 1.644060 0.000000 
#    z 0.000000 0.000000 1.642380 
# 
# From -- ./inp_files/2168.got.cif
#   From: 2010.05.17/outbox.cif.g08.bks.cpg/sg47_2_cif.got.tgz:2168.got - 2010.06.03 20:15:42.
