data_PCOD9386715
_publ_section_title
;
Structure prediction by ZEFSAII (Michael W. Deem and Ramdas Pophale) SiO2 
 PCOD9386715
Probable space group: P M M M
;
_chemical_formula_sum "Si O2"
_cell_formula_units_Z 44
_cell_length_a 32.433790
_cell_length_b 7.925577
_cell_length_c 8.140693
_cell_angle_alpha 90.000000
_cell_angle_beta 90.000000
_cell_angle_gamma 90.000000
_cell_volume 2092.618051
_symmetry_space_group_name_H-M "P M M M"
_symmetry_group_IT_number 47
_symmetry_cell_setting 'orthorhombic'
loop_
_space_group_symop_operation_xyz
x,y,z
-x,-y,z
x,-y,-z
-x,y,-z
-x,-y,-z
x,y,-z
-x,y,z
x,-y,z
loop_
_atom_site_type_symbol
_atom_site_label
_atom_site_fract_x
_atom_site_fract_y
_atom_site_fract_z
Si Si1 0.632907 0.794967 0.810947
Si Si2 0.000000 0.294325 0.190939
Si Si3 0.089173 0.295446 0.315641
Si Si4 0.544625 0.796914 0.696243
Si Si5 0.856945 0.803778 0.000000
Si Si6 0.235048 0.691178 0.000000
Si Si7 0.718298 0.798167 0.676312
O O1 0.587341 0.730134 0.768308
O O2 0.671727 0.733224 0.706629
O O3 0.631127 0.000000 0.791273
O O4 0.642384 0.760042 0.000000
O O5 0.957900 0.241043 0.278587
O O6 0.000000 0.500000 0.191715
O O7 0.000000 0.241250 0.000000
O O8 0.101554 0.241049 0.500000
O O9 0.089887 0.500000 0.313228
O O10 0.117005 0.235971 0.164028
O O11 0.546102 0.773361 0.500000
O O12 0.500000 0.731823 0.755938
O O13 0.544209 0.000000 0.725694
O O14 0.814105 0.705247 0.000000
O O15 0.846289 0.000000 0.000000
O O16 0.253519 0.765838 0.833162
O O17 0.248695 0.500000 0.000000
O O18 0.734227 0.735313 0.500000
O O19 0.714943 0.000000 0.667201
#
# Coordination Sequence:
#
# PCOD9386715 Si02
#       7
#     8   4   8   8   4   4   8
#     4   9  15  24  42  68 100 137 179 224 271 331
#     4   9  15  29  59  93 127 164 207 254 295 338
#     4  10  20  37  63  94 127 165 210 254 295 341
#     4   8  13  20  30  51  90 138 181 217 259 317
#     4  12  26  43  63  86 121 161 199 244 298 360
#     4  12  26  44  65  87 115 147 189 243 296 355
#     4  10  20  37  62  88 115 147 185 232 290 354
#
# _framework density 21.026292000000002
#
# number of rings (size 3 to 8) (size 9 to 14) (size 15 to 20)
#    0.000    2.273    1.818    3.000    0.000    5.091 
#    0.000    2.727    0.000    1.091    0.000    0.000 
#    0.000    1.455    0.000    3.818    0.000    3.636 
#
# Total GULP energy -245509.970698 kJ/mol
# GULP energy per Si atom -5579.772061 kJ/mol
# Density = 2.097844 g / cm^3
# Si number density = 21.026292 Si / 1000 Ang^3
#
#
#
# Elastic Constant Matrix: (Units=GPa)
#
#
# Indices 1 2 3 4 5 6 
#
# 1 106.1838 -7.7143 65.5332 0.0000 0.0000 0.0000
# 2 -7.7143 21.9671 9.2319 0.0000 0.0000 0.0000
# 3 65.5332 9.2319 139.2981 0.0000 0.0000 0.0000
# 4 0.0000 0.0000 0.0000 -2.4376 0.0000 0.0000
# 5 0.0000 0.0000 0.0000 0.0000 -5.4675 0.0000
# 6 0.0000 0.0000 0.0000 0.0000 0.0000 18.4134
#
#
#
# Elastic Compliance Matrix: (Units=1/GPa)
#
#
# Indices 1 2 3 4 5 6 
#
# 1 0.014589 0.008237 -0.007409 0.000000 0.000000 0.000000
# 2 0.008237 0.051478 -0.007287 0.000000 0.000000 0.000000
# 3 -0.007409 -0.007287 0.011147 0.000000 0.000000 0.000000
# 4 0.000000 0.000000 0.000000 -0.410246 0.000000 0.000000
# 5 0.000000 0.000000 0.000000 0.000000 -0.182898 0.000000
# 6 0.000000 0.000000 0.000000 0.000000 0.000000 0.054308
#
#
# Mechanical properties :
#
#
# Convention : Reuss Voigt Hill
#
# Bulk Modulus (GPa) = 15.55307 44.61671 30.08489
# Shear Modulus (GPa) = -11.70214 15.46155 1.87971
#
# Velocity S-wave (km/s) = -2.36169 2.71466 0.94653
# Velocity P-wave (km/s) = 0.15405 5.57597 3.94130
#
# Compressibility (1/GPa) = 0.06429600
#
# Stress axis : x y z
#
# Youngs Moduli (GPa) = 68.54570 19.42590 89.70640
#
# Poissons Ratio (x) = -0.16001 0.66466
# Poissons Ratio (y) = -0.56462 0.65367
# Poissons Ratio (z) = 0.50787 0.14155
#
# Static dielectric constant tensor:
#      x y z
#    x 1.767590 0.000000 0.000000 
#    y 0.000000 1.805310 0.000000 
#    z 0.000000 0.000000 1.728360 
# 
# From -- ./inp_files/13698.got.cif
#   From: 2010.05.17/outbox.cif.g08.bks.cpg/sg47_7_cif.got.tgz:13698.got - 2010.06.03 20:15:42.
