data_PCOD9386521
_publ_section_title
;
Structure prediction by ZEFSAII (Michael W. Deem and Ramdas Pophale) SiO2 
 PCOD9386521
Probable space group: P M M M
;
_chemical_formula_sum "Si O2"
_cell_formula_units_Z 24
_cell_length_a 16.965899
_cell_length_b 8.333837
_cell_length_c 7.852651
_cell_angle_alpha 90.000000
_cell_angle_beta 90.000000
_cell_angle_gamma 90.000000
_cell_volume 1110.294467
_symmetry_space_group_name_H-M "P M M M"
_symmetry_group_IT_number 47
_symmetry_cell_setting 'orthorhombic'
loop_
_space_group_symop_operation_xyz
x,y,z
-x,-y,z
x,-y,-z
-x,y,-z
-x,-y,-z
x,y,-z
-x,y,z
x,-y,z
loop_
_atom_site_type_symbol
_atom_site_label
_atom_site_fract_x
_atom_site_fract_y
_atom_site_fract_z
Si Si1 0.592100 0.500000 0.707924
Si Si2 0.830876 0.318787 0.798033
Si Si3 0.326988 0.825155 0.700075
Si Si4 0.000000 0.184186 0.295812
O O1 0.500000 0.500000 0.748675
O O2 0.599822 0.500000 0.500000
O O3 0.632556 0.335764 0.771525
O O4 0.817803 0.500000 0.733561
O O5 0.766641 0.202608 0.716220
O O6 0.920381 0.268719 0.764492
O O7 0.817520 0.316521 0.000000
O O8 0.347465 0.829880 0.500000
O O9 0.348103 0.000000 0.773664
O O10 0.000000 0.185600 0.500000
O O11 0.000000 0.000000 0.235997
#
# Coordination Sequence:
#
# PCOD9386521 Si02
#       4
#     4   8   8   4
#     4   9  18  34  57  86 119 150 183 233 290 339
#     4  11  23  38  57  82 113 151 194 237 284 337
#     4  10  20  35  58  86 115 151 193 234 283 342
#     4  11  24  39  56  82 114 149 192 238 285 337
#
# _framework density 21.615886
#
# number of rings (size 3 to 8) (size 9 to 14) (size 15 to 20)
#    0.000    1.667    1.667    3.000    0.000   10.667 
#    0.000    3.333    0.000    2.000    0.000    2.333 
#    0.000    0.000    0.000    0.000    0.000    0.000 
#
# Total GULP energy -134119.274079 kJ/mol
# GULP energy per Si atom -5588.303087 kJ/mol
# Density = 2.156669 g / cm^3
# Si number density = 21.615886 Si / 1000 Ang^3
#
#
#
# Elastic Constant Matrix: (Units=GPa)
#
#
# Indices 1 2 3 4 5 6 
#
# 1 102.6043 63.5113 -11.9861 0.0000 0.0000 0.0000
# 2 63.5113 205.4588 10.5208 0.0000 0.0000 0.0000
# 3 -11.9861 10.5208 31.7551 0.0000 0.0000 0.0000
# 4 0.0000 0.0000 0.0000 7.1446 0.0000 0.0000
# 5 0.0000 0.0000 0.0000 0.0000 -184.1539 0.0000
# 6 0.0000 0.0000 0.0000 0.0000 0.0000 22.3314
#
#
#
# Elastic Compliance Matrix: (Units=1/GPa)
#
#
# Indices 1 2 3 4 5 6 
#
# 1 0.013239 -0.004423 0.006463 0.000000 0.000000 0.000000
# 2 -0.004423 0.006429 -0.003800 0.000000 0.000000 0.000000
# 3 0.006463 -0.003800 0.035189 0.000000 0.000000 0.000000
# 4 0.000000 0.000000 0.000000 0.139966 0.000000 0.000000
# 5 0.000000 0.000000 0.000000 0.000000 -0.005430 0.000000
# 6 0.000000 0.000000 0.000000 0.000000 0.000000 0.044780
#
#
# Mechanical properties :
#
#
# Convention : Reuss Voigt Hill
#
# Bulk Modulus (GPa) = 19.47917 51.54555 35.51236
# Shear Modulus (GPa) = 19.62277 -12.41743 3.60267
#
# Velocity S-wave (km/s) = 3.01623 -2.39939 1.29240
# Velocity P-wave (km/s) = 4.60014 4.02763 4.32337
#
# Compressibility (1/GPa) = 0.05133690
#
# Stress axis : x y z
#
# Youngs Moduli (GPa) = 75.53311 155.54297 28.41773
#
# Poissons Ratio (x) = 0.68803 -0.18366
# Poissons Ratio (y) = 0.33412 0.10798
# Poissons Ratio (z) = -0.48815 0.59101
#
# Static dielectric constant tensor:
#      x y z
#    x 1.740320 0.000000 0.000000 
#    y 0.000000 1.817240 0.000000 
#    z 0.000000 0.000000 1.773110 
# 
# From -- ./inp_files/417.got.cif
#   From: 2010.05.17/outbox.cif.g08.bks.cpg/sg47_1_cif.got.tgz:417.got - 2010.06.03 20:15:42.
