data_PCOD9386341
_publ_section_title
;
Structure prediction by ZEFSAII (Michael W. Deem and Ramdas Pophale) SiO2 
 PCOD9386341
Probable space group: P M M M
;
_chemical_formula_sum "Si O2"
_cell_formula_units_Z 64
_cell_length_a 7.664455
_cell_length_b 15.247962
_cell_length_c 25.781719
_cell_angle_alpha 90.000000
_cell_angle_beta 90.000000
_cell_angle_gamma 90.000000
_cell_volume 3013.040368
_symmetry_space_group_name_H-M "P M M M"
_symmetry_group_IT_number 47
_symmetry_cell_setting 'orthorhombic'
loop_
_space_group_symop_operation_xyz
x,y,z
-x,-y,z
x,-y,-z
-x,y,-z
-x,-y,-z
x,y,-z
-x,y,z
x,-y,z
loop_
_atom_site_type_symbol
_atom_site_label
_atom_site_fract_x
_atom_site_fract_y
_atom_site_fract_z
Si Si1 0.704993 0.597584 0.652526
Si Si2 0.205006 0.285477 0.441140
Si Si3 0.708327 0.599796 0.844644
Si Si4 0.789159 0.903364 0.104011
Si Si5 0.708212 0.904486 0.773816
Si Si6 0.210660 0.280544 0.057922
Si Si7 0.714798 0.715034 0.746571
Si Si8 0.289931 0.094034 0.439095
O O1 0.500000 0.589876 0.664416
O O2 0.781015 0.500000 0.653833
O O3 0.719742 0.642275 0.596747
O O4 0.776339 0.662344 0.696325
O O5 0.277799 0.287333 0.500000
O O6 0.231605 0.187621 0.418216
O O7 0.000000 0.300797 0.444398
O O8 0.500000 0.594066 0.837906
O O9 0.777127 0.500000 0.843127
O O10 0.741114 0.648757 0.898723
O O11 0.771671 0.661614 0.797743
O O12 0.738295 0.895874 0.164393
O O13 0.726438 0.816751 0.074479
O O14 0.000000 0.903334 0.101129
O O15 0.729524 0.000000 0.085485
O O16 0.500000 0.906721 0.765090
O O17 0.775882 0.815556 0.748264
O O18 0.779173 0.000000 0.757733
O O19 0.000000 0.276921 0.057025
O O20 0.271686 0.302419 0.000000
O O21 0.500000 0.717806 0.746980
O O22 0.237000 0.094250 0.500000
O O23 0.500000 0.094134 0.437431
O O24 0.230451 0.000000 0.416844
#
# Coordination Sequence:
#
# PCOD9386341 Si02
#       8
#     8   8   8   8   8   8   8   8
#     4  10  21  37  57  79 103 136 180 228 274 318
#     4  10  21  36  54  78 111 149 182 216 266 324
#     4  10  20  35  56  78  99 130 173 218 266 317
#     4   9  17  30  49  73 101 134 172 211 251 301
#     4   9  16  28  51  80 106 133 165 203 253 312
#     4  10  21  35  50  72 104 139 174 215 263 312
#     4   9  17  33  56  80 105 132 166 213 266 316
#     4   8  14  27  50  79 108 139 178 221 259 300
#
# _framework density 21.241002999999999
#
# number of rings (size 3 to 8) (size 9 to 14) (size 15 to 20)
#    0.000    2.625    1.250    1.125    0.000    4.000 
#    0.000    6.875    0.000    3.750    0.000    2.625 
#    0.000    0.000    0.000    0.000    0.000    0.000 
#
# Total GULP energy -357011.619809 kJ/mol
# GULP energy per Si atom -5578.306560 kJ/mol
# Density = 2.119266 g / cm^3
# Si number density = 21.241003 Si / 1000 Ang^3
#
#
#
# Elastic Constant Matrix: (Units=GPa)
#
#
# Indices 1 2 3 4 5 6 
#
# 1 36.1981 7.8025 -3.7844 0.0000 0.0000 0.0000
# 2 7.8025 195.2987 88.7838 0.0000 0.0000 0.0000
# 3 -3.7844 88.7838 88.3542 0.0000 0.0000 0.0000
# 4 0.0000 0.0000 0.0000 41.5684 0.0000 0.0000
# 5 0.0000 0.0000 0.0000 0.0000 24.1684 0.0000
# 6 0.0000 0.0000 0.0000 0.0000 0.0000 -26.3430
#
#
#
# Elastic Compliance Matrix: (Units=1/GPa)
#
#
# Indices 1 2 3 4 5 6 
#
# 1 0.028763 -0.003147 0.004394 0.000000 0.000000 0.000000
# 2 -0.003147 0.009771 -0.009953 0.000000 0.000000 0.000000
# 3 0.004394 -0.009953 0.021508 0.000000 0.000000 0.000000
# 4 0.000000 0.000000 0.000000 0.024057 0.000000 0.000000
# 5 0.000000 0.000000 0.000000 0.000000 0.041376 0.000000
# 6 0.000000 0.000000 0.000000 0.000000 0.000000 -0.037961
#
#
# Mechanical properties :
#
#
# Convention : Reuss Voigt Hill
#
# Bulk Modulus (GPa) = 23.45744 56.16166 39.80955
# Shear Modulus (GPa) = 41.96882 23.01537 32.49209
#
# Velocity S-wave (km/s) = 4.44986 3.29528 3.91536
# Velocity P-wave (km/s) = 6.12121 6.40126 6.26280
#
# Compressibility (1/GPa) = 0.04263040
#
# Stress axis : x y z
#
# Youngs Moduli (GPa) = 34.76638 102.34567 46.49482
#
# Poissons Ratio (x) = 0.32205 -0.20430
# Poissons Ratio (y) = 0.10940 0.46277
# Poissons Ratio (z) = -0.15276 1.01866
#
# Static dielectric constant tensor:
#      x y z
#    x 1.795910 0.000000 0.000000 
#    y 0.000000 1.789600 0.000000 
#    z 0.000000 0.000000 1.744900 
# 
# From -- ./inp_files/7844.got.cif
#   From: 2010.05.17/outbox.cif.g08.bks.cpg/sg47_4_cif.got.tgz:7844.got - 2010.06.03 20:15:42.
