data_PCOD9386192
_publ_section_title
;
Structure prediction by ZEFSAII (Michael W. Deem and Ramdas Pophale) SiO2 
 PCOD9386192
Probable space group: P M M M
;
_chemical_formula_sum "Si O2"
_cell_formula_units_Z 44
_cell_length_a 7.708030
_cell_length_b 31.584635
_cell_length_c 9.348864
_cell_angle_alpha 90.000000
_cell_angle_beta 90.000000
_cell_angle_gamma 90.000000
_cell_volume 2276.030622
_symmetry_space_group_name_H-M "P M M M"
_symmetry_group_IT_number 47
_symmetry_cell_setting 'orthorhombic'
loop_
_space_group_symop_operation_xyz
x,y,z
-x,-y,z
x,-y,-z
-x,y,-z
-x,-y,-z
x,y,-z
-x,y,z
x,-y,z
loop_
_atom_site_type_symbol
_atom_site_label
_atom_site_fract_x
_atom_site_fract_y
_atom_site_fract_z
Si Si1 0.210737 0.803277 0.164856
Si Si2 0.301665 0.888376 0.668932
Si Si3 0.000000 0.048192 0.326069
Si Si4 0.709404 0.362607 0.835745
Si Si5 0.706490 0.454471 0.173242
Si Si6 0.791992 0.721247 0.338328
O O1 0.272199 0.845368 0.244556
O O2 0.272169 0.761203 0.246836
O O3 0.000000 0.803605 0.167216
O O4 0.266192 0.802625 0.000000
O O5 0.269564 0.879713 0.500000
O O6 0.500000 0.902412 0.684325
O O7 0.167890 0.924543 0.716001
O O8 0.000000 0.046328 0.500000
O O9 0.000000 0.000000 0.273481
O O10 0.500000 0.365355 0.840802
O O11 0.774248 0.408521 0.780168
O O12 0.755731 0.322888 0.739563
O O13 0.769768 0.356312 0.000000
O O14 0.500000 0.455266 0.204658
O O15 0.778911 0.500000 0.222837
O O16 0.722120 0.453823 0.000000
O O17 0.723525 0.721738 0.500000
O O18 0.000000 0.725633 0.345576
#
# Coordination Sequence:
#
# PCOD9386192 Si02
#       6
#     8   8   4   8   8   8
#     4  10  20  35  56  78 101 134 176 221 270 321
#     4  10  20  34  56  85 115 149 187 227 273 322
#     4   9  18  34  57  85 119 155 189 231 274 313
#     4   9  17  29  47  72  99 125 158 205 257 307
#     4   7  10  19  38  64  91 118 151 195 248 302
#     4  10  21  35  51  71  98 135 174 210 252 306
#
# _framework density 19.331900999999998
#
# number of rings (size 3 to 8) (size 9 to 14) (size 15 to 20)
#    0.000    2.818    0.909    2.727    0.000    3.636 
#    0.000    1.818    0.000    2.182    0.000    7.636 
#    0.000    0.000    0.000    0.000    0.000    0.000 
#
# Total GULP energy -245324.484485 kJ/mol
# GULP energy per Si atom -5575.556466 kJ/mol
# Density = 1.928790 g / cm^3
# Si number density = 19.331901 Si / 1000 Ang^3
#
#
#
# Elastic Constant Matrix: (Units=GPa)
#
#
# Indices 1 2 3 4 5 6 
#
# 1 52.8359 45.8700 32.2537 0.0000 0.0000 0.0000
# 2 45.8700 224.8554 83.8097 0.0000 0.0000 0.0000
# 3 32.2537 83.8097 87.0461 0.0000 0.0000 0.0000
# 4 0.0000 0.0000 0.0000 25.5491 0.0000 0.0000
# 5 0.0000 0.0000 0.0000 0.0000 14.9312 0.0000
# 6 0.0000 0.0000 0.0000 0.0000 0.0000 19.8312
#
#
#
# Elastic Compliance Matrix: (Units=1/GPa)
#
#
# Indices 1 2 3 4 5 6 
#
# 1 0.025405 -0.002611 -0.006900 0.000000 0.000000 0.000000
# 2 -0.002611 0.007205 -0.005970 0.000000 0.000000 0.000000
# 3 -0.006900 -0.005970 0.019792 0.000000 0.000000 0.000000
# 4 0.000000 0.000000 0.000000 0.039140 0.000000 0.000000
# 5 0.000000 0.000000 0.000000 0.000000 0.066974 0.000000
# 6 0.000000 0.000000 0.000000 0.000000 0.000000 0.050426
#
#
# Mechanical properties :
#
#
# Convention : Reuss Voigt Hill
#
# Bulk Modulus (GPa) = 46.63730 76.51157 61.57444
# Shear Modulus (GPa) = 20.23880 25.58256 22.91068
#
# Velocity S-wave (km/s) = 3.23911 3.64171 3.44630
# Velocity P-wave (km/s) = 6.17787 7.57275 6.91059
#
# Compressibility (1/GPa) = 0.02144206
#
# Stress axis : x y z
#
# Youngs Moduli (GPa) = 39.36216 138.79303 50.52433
#
# Poissons Ratio (x) = 0.36237 0.34860
# Poissons Ratio (y) = 0.10277 0.30161
# Poissons Ratio (z) = 0.27159 0.82855
#
# Static dielectric constant tensor:
#      x y z
#    x 1.726090 0.000000 0.000000 
#    y 0.000000 1.674150 0.000000 
#    z 0.000000 0.000000 1.655850 
# 
# From -- ./inp_files/1977.got.cif
#   From: 2010.05.17/outbox.cif.g08.bks.cpg/sg47_1_cif.got.tgz:1977.got - 2010.06.03 20:15:42.
