data_PCOD9386808
_publ_section_title
;
Structure prediction by ZEFSAII (Michael W. Deem and Ramdas Pophale) SiO2 
 PCOD9386808
Probable space group: P M M M
;
_chemical_formula_sum "Si O2"
_cell_formula_units_Z 52
_cell_length_a 7.875272
_cell_length_b 29.208661
_cell_length_c 14.136592
_cell_angle_alpha 90.000000
_cell_angle_beta 90.000000
_cell_angle_gamma 90.000000
_cell_volume 3251.785834
_symmetry_space_group_name_H-M "P M M M"
_symmetry_group_IT_number 47
_symmetry_cell_setting 'orthorhombic'
loop_
_space_group_symop_operation_xyz
x,y,z
-x,-y,z
x,-y,-z
-x,y,-z
-x,-y,-z
x,y,-z
-x,y,z
x,-y,z
loop_
_atom_site_type_symbol
_atom_site_label
_atom_site_fract_x
_atom_site_fract_y
_atom_site_fract_z
Si Si1 0.311016 0.615842 0.884923
Si Si2 0.299088 0.050801 0.299941
Si Si3 0.000000 0.447312 0.115494
Si Si4 0.205686 0.904275 0.893799
Si Si5 0.792388 0.189396 0.205238
Si Si6 0.201051 0.144085 0.604683
Si Si7 0.205705 0.717075 0.889761
O O1 0.500000 0.601966 0.856320
O O2 0.165643 0.580966 0.853732
O O3 0.274198 0.668148 0.855986
O O4 0.304770 0.616409 0.000000
O O5 0.500000 0.051231 0.317555
O O6 0.269032 0.063159 0.189828
O O7 0.221357 0.091757 0.361017
O O8 0.232403 0.000000 0.320585
O O9 0.000000 0.500000 0.146080
O O10 0.000000 0.447487 0.000000
O O11 0.255210 0.852465 0.864135
O O12 0.000000 0.906118 0.892353
O O13 0.262902 0.915204 0.000000
O O14 0.731016 0.175259 0.309696
O O15 0.736771 0.238703 0.168487
O O16 0.000000 0.189920 0.206158
O O17 0.274067 0.150740 0.500000
O O18 0.000000 0.153325 0.599833
O O19 0.000000 0.714762 0.886564
O O20 0.253521 0.723153 0.000000
#
# Coordination Sequence:
#
# PCOD9386808 Si02
#       7
#     8   8   4   8   8   8   8
#     4   9  16  25  36  53  78 107 144 188 226 259
#     4  10  21  34  46  62  84 109 137 169 208 256
#     4   9  16  26  38  52  74 108 151 193 230 263
#     4   9  17  30  47  66  87 110 138 170 204 247
#     4   8  14  25  43  65  84 106 136 166 204 253
#     4   9  18  33  51  68  85 105 134 174 214 255
#     4   9  14  22  38  57  80 110 140 171 209 253
#
# _framework density 15.991213999999999
#
# number of rings (size 3 to 8) (size 9 to 14) (size 15 to 20)
#    0.000    3.000    0.769    1.846    0.000    4.615 
#    0.000    7.692    0.000    3.692    0.000    0.000 
#    0.000    0.000    0.000    0.000    0.000    1.538 
#
# Total GULP energy -289742.975463 kJ/mol
# GULP energy per Si atom -5571.980297 kJ/mol
# Density = 1.595482 g / cm^3
# Si number density = 15.991214 Si / 1000 Ang^3
#
#
#
# Elastic Constant Matrix: (Units=GPa)
#
#
# Indices 1 2 3 4 5 6 
#
# 1 41.0494 27.7594 3.9107 0.0000 0.0000 0.0000
# 2 27.7594 108.7433 15.5141 0.0000 0.0000 0.0000
# 3 3.9107 15.5141 55.0919 0.0000 0.0000 0.0000
# 4 0.0000 0.0000 0.0000 7.7566 0.0000 0.0000
# 5 0.0000 0.0000 0.0000 0.0000 1.6754 0.0000
# 6 0.0000 0.0000 0.0000 0.0000 0.0000 -70.3426
#
#
#
# Elastic Compliance Matrix: (Units=1/GPa)
#
#
# Indices 1 2 3 4 5 6 
#
# 1 0.029444 -0.007520 0.000028 0.000000 0.000000 0.000000
# 2 -0.007520 0.011502 -0.002705 0.000000 0.000000 0.000000
# 3 0.000028 -0.002705 0.018911 0.000000 0.000000 0.000000
# 4 0.000000 0.000000 0.000000 0.128923 0.000000 0.000000
# 5 0.000000 0.000000 0.000000 0.000000 0.596861 0.000000
# 6 0.000000 0.000000 0.000000 0.000000 0.000000 -0.014216
#
#
# Mechanical properties :
#
#
# Convention : Reuss Voigt Hill
#
# Bulk Modulus (GPa) = 25.34119 33.25032 29.29576
# Shear Modulus (GPa) = 6.21138 -1.66876 2.27131
#
# Velocity S-wave (km/s) = 1.97299 -1.02265 1.19308
# Velocity P-wave (km/s) = 4.59038 4.40949 4.50084
#
# Compressibility (1/GPa) = 0.03946145
#
# Stress axis : x y z
#
# Youngs Moduli (GPa) = 33.96305 86.94437 52.87845
#
# Poissons Ratio (x) = 0.65384 -0.00146
# Poissons Ratio (y) = 0.25541 0.14304
# Poissons Ratio (z) = -0.00094 0.23519
#
# Static dielectric constant tensor:
#      x y z
#    x 1.579020 0.000000 0.000000 
#    y 0.000000 1.525410 0.000000 
#    z 0.000000 0.000000 1.527190 
# 
# From -- ./inp_files/21997.got.cif
#   From: 2010.05.17/outbox.cif.g08.bks.cpg/sg47_11_cif.got.tgz:21997.got - 2010.06.03 20:15:42.
