data_PCOD9386727
_publ_section_title
;
Structure prediction by ZEFSAII (Michael W. Deem and Ramdas Pophale) SiO2 
 PCOD9386727
Probable space group: P M M M
;
_chemical_formula_sum "Si O2"
_cell_formula_units_Z 41
_cell_length_a 26.091387
_cell_length_b 9.853869
_cell_length_c 7.783484
_cell_angle_alpha 90.000000
_cell_angle_beta 90.000000
_cell_angle_gamma 90.000000
_cell_volume 2001.142372
_symmetry_space_group_name_H-M "P M M M"
_symmetry_group_IT_number 47
_symmetry_cell_setting 'orthorhombic'
loop_
_space_group_symop_operation_xyz
x,y,z
-x,-y,z
x,-y,-z
-x,y,-z
-x,-y,-z
x,y,-z
-x,y,z
x,-y,z
loop_
_atom_site_type_symbol
_atom_site_label
_atom_site_fract_x
_atom_site_fract_y
_atom_site_fract_z
Si Si1 0.500000 0.153006 0.296364
Si Si2 0.106373 0.347259 0.291924
Si Si3 0.406315 0.653395 0.795535
Si Si4 0.000000 0.224744 0.807004
Si Si5 0.290625 0.653477 0.705047
Si Si6 0.199375 0.844413 0.289486
Si Si7 0.000000 0.000000 0.500000
O O1 0.500000 0.140925 0.500000
O O2 0.449998 0.239971 0.249476
O O3 0.500000 0.000000 0.222454
O O4 0.102460 0.340261 0.500000
O O5 0.122896 0.500000 0.247540
O O6 0.148567 0.237262 0.237986
O O7 0.051228 0.313203 0.216014
O O8 0.417224 0.500000 0.728091
O O9 0.349495 0.693370 0.735641
O O10 0.404810 0.644635 0.000000
O O11 0.000000 0.116984 0.652436
O O12 0.000000 0.166561 0.000000
O O13 0.283108 0.645892 0.500000
O O14 0.283614 0.500000 0.774268
O O15 0.249093 0.760505 0.769890
O O16 0.199820 0.846360 0.500000
O O17 0.199214 0.000000 0.232059
#
# Coordination Sequence:
#
# PCOD9386727 Si02
#       7
#     4   8   8   4   8   8   1
#     4  11  24  39  56  82 112 145 184 233 286 344
#     4  10  20  37  62  90 124 166 210 260 313 366
#     4  10  21  37  58  83 112 148 190 235 288 349
#     4  12  26  42  68  97 126 169 213 256 315 379
#     4   9  17  32  54  81 111 148 197 247 292 346
#     4   9  18  31  54  84 117 157 205 251 300 358
#     4  12  26  48  66  94 136 168 200 264 316 380
#
# _framework density 20.488299000000001
#
# number of rings (size 3 to 8) (size 9 to 14) (size 15 to 20)
#    0.000    2.049    0.976    2.195    1.366    7.805 
#    0.000    2.927    0.000    3.512    0.000    0.000 
#    0.000    0.000    0.000    0.000    0.000    0.000 
#
# Total GULP energy -228718.664029 kJ/mol
# GULP energy per Si atom -5578.504001 kJ/mol
# Density = 2.044167 g / cm^3
# Si number density = 20.488299 Si / 1000 Ang^3
#
#
#
# Elastic Constant Matrix: (Units=GPa)
#
#
# Indices 1 2 3 4 5 6 
#
# 1 180.7537 127.2266 3.7663 0.0000 0.0000 0.0000
# 2 127.2266 170.3698 20.0479 0.0000 0.0000 0.0000
# 3 3.7663 20.0479 60.3329 0.0000 0.0000 0.0000
# 4 0.0000 0.0000 0.0000 3.6878 0.0000 0.0000
# 5 0.0000 0.0000 0.0000 0.0000 -220.5714 0.0000
# 6 0.0000 0.0000 0.0000 0.0000 0.0000 -22.1739
#
#
#
# Elastic Compliance Matrix: (Units=1/GPa)
#
#
# Indices 1 2 3 4 5 6 
#
# 1 0.011965 -0.009207 0.002312 0.000000 0.000000 0.000000
# 2 -0.009207 0.013193 -0.003809 0.000000 0.000000 0.000000
# 3 0.002312 -0.003809 0.017696 0.000000 0.000000 0.000000
# 4 0.000000 0.000000 0.000000 0.271166 0.000000 0.000000
# 5 0.000000 0.000000 0.000000 0.000000 -0.004534 0.000000
# 6 0.000000 0.000000 0.000000 0.000000 0.000000 -0.045098
#
#
# Mechanical properties :
#
#
# Convention : Reuss Voigt Hill
#
# Bulk Modulus (GPa) = 46.62736 79.28200 62.95468
# Shear Modulus (GPa) = 17.06805 -30.45048 -6.69121
#
# Velocity S-wave (km/s) = 2.88941 -3.85936 -1.80913
# Velocity P-wave (km/s) = 5.82573 4.34980 5.14100
#
# Compressibility (1/GPa) = 0.02144663
#
# Stress axis : x y z
#
# Youngs Moduli (GPa) = 83.57952 75.79630 56.50964
#
# Poissons Ratio (x) = 0.69785 -0.13068
# Poissons Ratio (y) = 0.76951 0.21526
# Poissons Ratio (z) = -0.19327 0.28872
#
# Static dielectric constant tensor:
#      x y z
#    x 1.555060 0.000000 0.000000 
#    y 0.000000 1.741230 0.000000 
#    z 0.000000 0.000000 1.733900 
# 
# From -- ./inp_files/13102.got.cif
#   From: 2010.05.17/outbox.cif.g08.bks.cpg/sg47_7_cif.got.tgz:13102.got - 2010.06.03 20:15:42.
