data_PCOD9386132
_publ_section_title
;
Structure prediction by ZEFSAII (Michael W. Deem and Ramdas Pophale) SiO2 
 PCOD9386132
Probable space group: P M M M
;
_chemical_formula_sum "Si O2"
_cell_formula_units_Z 44
_cell_length_a 9.545221
_cell_length_b 29.049125
_cell_length_c 8.547666
_cell_angle_alpha 90.000000
_cell_angle_beta 90.000000
_cell_angle_gamma 90.000000
_cell_volume 2370.099546
_symmetry_space_group_name_H-M "P M M M"
_symmetry_group_IT_number 47
_symmetry_cell_setting 'orthorhombic'
loop_
_space_group_symop_operation_xyz
x,y,z
-x,-y,z
x,-y,-z
-x,y,-z
-x,-y,-z
x,y,-z
-x,y,z
x,-y,z
loop_
_atom_site_type_symbol
_atom_site_label
_atom_site_fract_x
_atom_site_fract_y
_atom_site_fract_z
Si Si1 0.162710 0.221502 0.311275
Si Si2 0.340291 0.136796 0.813081
Si Si3 0.162368 0.947931 0.311208
Si Si4 0.161025 0.674321 0.690498
Si Si5 0.162743 0.500000 0.812237
Si Si6 0.337849 0.413390 0.689699
O O1 0.170670 0.219926 0.500000
O O2 0.260216 0.182233 0.243604
O O3 0.198882 0.273696 0.260956
O O4 0.000000 0.213250 0.268535
O O5 0.500000 0.136777 0.754941
O O6 0.259561 0.091642 0.755025
O O7 0.341418 0.136525 0.000000
O O8 0.167344 0.946264 0.500000
O O9 0.000000 0.940287 0.265414
O O10 0.201850 0.000000 0.263152
O O11 0.160976 0.674387 0.500000
O O12 0.266411 0.634519 0.741289
O O13 0.000000 0.664820 0.738903
O O14 0.244754 0.455345 0.750926
O O15 0.000000 0.500000 0.760148
O O16 0.164530 0.500000 0.000000
O O17 0.335818 0.414555 0.500000
O O18 0.500000 0.417040 0.739314
#
# Coordination Sequence:
#
# PCOD9386132 Si02
#       6
#     8   8   8   8   4   8
#     4   9  18  34  57  82 105 133 174 220 261 305
#     4  11  24  37  49  73 110 146 178 213 255 306
#     4   9  19  37  60  83 104 129 168 217 264 312
#     4   8  15  30  53  80 107 134 168 213 261 306
#     4  11  24  39  54  74 102 139 182 221 258 306
#     4  10  20  34  55  83 110 136 170 212 260 315
#
# _framework density 18.564623000000001
#
# number of rings (size 3 to 8) (size 9 to 14) (size 15 to 20)
#    0.000    2.455    0.000    3.818    0.000    8.727 
#    0.000    5.455    0.000    1.091    0.000    0.000 
#    0.000    0.000    0.000    0.000    0.000    0.000 
#
# Total GULP energy -245580.571400 kJ/mol
# GULP energy per Si atom -5581.376623 kJ/mol
# Density = 1.852237 g / cm^3
# Si number density = 18.564623 Si / 1000 Ang^3
#
#
#
# Elastic Constant Matrix: (Units=GPa)
#
#
# Indices 1 2 3 4 5 6 
#
# 1 169.0314 143.3547 33.4281 0.0000 0.0000 0.0000
# 2 143.3547 194.7876 31.3793 0.0000 0.0000 0.0000
# 3 33.4281 31.3793 12.1514 0.0000 0.0000 0.0000
# 4 0.0000 0.0000 0.0000 -39.0202 0.0000 0.0000
# 5 0.0000 0.0000 0.0000 0.0000 26.4024 0.0000
# 6 0.0000 0.0000 0.0000 0.0000 0.0000 -22.6550
#
#
#
# Elastic Compliance Matrix: (Units=1/GPa)
#
#
# Indices 1 2 3 4 5 6 
#
# 1 0.020628 -0.010342 -0.030040 0.000000 0.000000 0.000000
# 2 -0.010342 0.013976 -0.007640 0.000000 0.000000 0.000000
# 3 -0.030040 -0.007640 0.184663 0.000000 0.000000 0.000000
# 4 0.000000 0.000000 0.000000 -0.025628 0.000000 0.000000
# 5 0.000000 0.000000 0.000000 0.000000 0.037875 0.000000
# 6 0.000000 0.000000 0.000000 0.000000 0.000000 -0.044140
#
#
# Mechanical properties :
#
#
# Convention : Reuss Voigt Hill
#
# Bulk Modulus (GPa) = 8.11538 88.03274 48.07406
# Shear Modulus (GPa) = 15.40871 4.13265 9.77068
#
# Velocity S-wave (km/s) = 2.88410 1.49363 2.29663
# Velocity P-wave (km/s) = 3.93340 7.10613 5.74320
#
# Compressibility (1/GPa) = 0.12322281
#
# Stress axis : x y z
#
# Youngs Moduli (GPa) = 48.47887 71.55319 5.41526
#
# Poissons Ratio (x) = 0.73998 0.16267
# Poissons Ratio (y) = 0.50135 0.04137
# Poissons Ratio (z) = 1.45630 0.54669
#
# Static dielectric constant tensor:
#      x y z
#    x 1.624800 0.000000 0.000000 
#    y 0.000000 1.623160 0.000000 
#    z 0.000000 0.000000 1.632900 
# 
# From -- ./inp_files/2142.got.cif
#   From: 2010.05.17/outbox.cif.g08.bks.cpg/sg47_2_cif.got.tgz:2142.got - 2010.06.03 20:15:42.
