data_PCOD9386888
_publ_section_title
;
Structure prediction by ZEFSAII (Michael W. Deem and Ramdas Pophale) SiO2 
 PCOD9386888
Probable space group: P M M M
;
_chemical_formula_sum "Si O2"
_cell_formula_units_Z 64
_cell_length_a 24.966250
_cell_length_b 15.100035
_cell_length_c 8.211416
_cell_angle_alpha 90.000000
_cell_angle_beta 90.000000
_cell_angle_gamma 90.000000
_cell_volume 3095.631972
_symmetry_space_group_name_H-M "P M M M"
_symmetry_group_IT_number 47
_symmetry_cell_setting 'orthorhombic'
loop_
_space_group_symop_operation_xyz
x,y,z
-x,-y,z
x,-y,-z
-x,y,-z
-x,-y,-z
x,y,-z
-x,y,z
x,-y,z
loop_
_atom_site_type_symbol
_atom_site_label
_atom_site_fract_x
_atom_site_fract_y
_atom_site_fract_z
Si Si1 0.891020 0.101404 0.196953
Si Si2 0.842929 0.602831 0.303367
Si Si3 0.769146 0.101176 0.803769
Si Si4 0.276363 0.600254 0.806422
Si Si5 0.564156 0.596681 0.814400
Si Si6 0.941145 0.278095 0.304729
Si Si7 0.440547 0.787275 0.688644
Si Si8 0.327631 0.776803 0.694029
O O1 0.829828 0.122950 0.249512
O O2 0.929574 0.175992 0.265162
O O3 0.902835 0.000000 0.245590
O O4 0.892687 0.104245 0.000000
O O5 0.840660 0.608585 0.500000
O O6 0.852349 0.500000 0.259704
O O7 0.784376 0.627696 0.238287
O O8 0.891358 0.663739 0.242133
O O9 0.723622 0.166515 0.744564
O O10 0.758083 0.000000 0.752157
O O11 0.769603 0.103067 0.000000
O O12 0.284504 0.500000 0.741389
O O13 0.316206 0.675758 0.746018
O O14 0.280512 0.596515 0.000000
O O15 0.500000 0.588101 0.827495
O O16 0.585130 0.500000 0.762161
O O17 0.568938 0.681239 0.700085
O O18 0.583797 0.614276 0.000000
O O19 0.941626 0.289083 0.500000
O O20 0.000000 0.304180 0.242577
O O21 0.443388 0.814613 0.500000
O O22 0.500000 0.805587 0.761389
O O23 0.383653 0.817933 0.761421
O O24 0.331824 0.778417 0.500000
#
# Coordination Sequence:
#
# PCOD9386888 Si02
#       8
#     8   8   8   8   8   8   8   8
#     4   9  19  36  56  77 102 134 170 207 253 309
#     4   9  18  34  55  76 101 136 177 221 266 309
#     4   9  19  37  60  84 108 133 165 211 266 319
#     4  10  21  36  54  77 106 140 177 218 266 318
#     4   8  14  25  41  61  85 115 155 202 245 284
#     4  10  21  34  49  75 109 142 177 215 255 301
#     4   9  19  34  48  65  94 132 170 205 245 297
#     4  11  22  34  53  80 107 136 171 214 261 310
#
# _framework density 20.674292999999999
#
# number of rings (size 3 to 8) (size 9 to 14) (size 15 to 20)
#    0.000    2.625    0.000    2.625    0.000    6.750 
#    0.000    7.500    0.000    0.375    0.000    5.250 
#    0.000    0.000    0.000    0.000    0.000    0.000 
#
# Total GULP energy -356840.280253 kJ/mol
# GULP energy per Si atom -5575.629379 kJ/mol
# Density = 2.062724 g / cm^3
# Si number density = 20.674293 Si / 1000 Ang^3
#
#
#
# Elastic Constant Matrix: (Units=GPa)
#
#
# Indices 1 2 3 4 5 6 
#
# 1 138.6888 36.1043 9.3292 0.0000 0.0000 0.0000
# 2 36.1043 31.6319 1.5376 0.0000 0.0000 0.0000
# 3 9.3292 1.5376 11.7454 0.0000 0.0000 0.0000
# 4 0.0000 0.0000 0.0000 -2.3337 0.0000 0.0000
# 5 0.0000 0.0000 0.0000 0.0000 -12.2879 0.0000
# 6 0.0000 0.0000 0.0000 0.0000 0.0000 2.6810
#
#
#
# Elastic Compliance Matrix: (Units=1/GPa)
#
#
# Indices 1 2 3 4 5 6 
#
# 1 0.010803 -0.011990 -0.007011 0.000000 0.000000 0.000000
# 2 -0.011990 0.045123 0.003616 0.000000 0.000000 0.000000
# 3 -0.007011 0.003616 0.090235 0.000000 0.000000 0.000000
# 4 0.000000 0.000000 0.000000 -0.428495 0.000000 0.000000
# 5 0.000000 0.000000 0.000000 0.000000 -0.081381 0.000000
# 6 0.000000 0.000000 0.000000 0.000000 0.000000 0.372999
#
#
# Mechanical properties :
#
#
# Convention : Reuss Voigt Hill
#
# Bulk Modulus (GPa) = 8.66611 30.66755 19.66683
# Shear Modulus (GPa) = 63.67890 6.61820 35.14855
#
# Velocity S-wave (km/s) = 5.55589 1.79112 4.12771
# Velocity P-wave (km/s) = 6.73483 4.37531 5.67897
#
# Compressibility (1/GPa) = 0.11539208
#
# Stress axis : x y z
#
# Youngs Moduli (GPa) = 92.56417 22.16159 11.08213
#
# Poissons Ratio (x) = 0.26572 0.07770
# Poissons Ratio (y) = 1.10984 -0.04008
# Poissons Ratio (z) = 0.64899 -0.08015
#
# Static dielectric constant tensor:
#      x y z
#    x 1.799350 0.000000 0.000000 
#    y 0.000000 1.745900 0.000000 
#    z 0.000000 0.000000 1.728150 
# 
# From -- ./inp_files/7866.got.cif
#   From: 2010.05.17/outbox.cif.g08.bks.cpg/sg47_4_cif.got.tgz:7866.got - 2010.06.03 20:15:42.
