data_PCOD9386265
_publ_section_title
;
Structure prediction by ZEFSAII (Michael W. Deem and Ramdas Pophale) SiO2 
 PCOD9386265
Probable space group: P M M M
;
_chemical_formula_sum "Si O2"
_cell_formula_units_Z 56
_cell_length_a 21.519525
_cell_length_b 18.144641
_cell_length_c 7.839229
_cell_angle_alpha 90.000000
_cell_angle_beta 90.000000
_cell_angle_gamma 90.000000
_cell_volume 3060.937148
_symmetry_space_group_name_H-M "P M M M"
_symmetry_group_IT_number 47
_symmetry_cell_setting 'orthorhombic'
loop_
_space_group_symop_operation_xyz
x,y,z
-x,-y,z
x,-y,-z
-x,y,-z
-x,-y,-z
x,y,-z
-x,y,z
x,-y,z
loop_
_atom_site_type_symbol
_atom_site_label
_atom_site_fract_x
_atom_site_fract_y
_atom_site_fract_z
Si Si1 0.257348 0.919101 0.705918
Si Si2 0.822806 0.304116 0.705622
Si Si3 0.693194 0.756139 0.198785
Si Si4 0.930162 0.585692 0.291825
Si Si5 0.870025 0.145114 0.292090
Si Si6 0.000000 0.915155 0.291051
Si Si7 0.425843 0.081828 0.000000
Si Si8 0.571687 0.809013 0.308150
O O1 0.262847 0.917893 0.500000
O O2 0.285257 0.840957 0.765399
O O3 0.184673 0.911138 0.753002
O O4 0.280310 0.000000 0.763389
O O5 0.824628 0.305764 0.500000
O O6 0.749853 0.297903 0.751562
O O7 0.870537 0.367147 0.766494
O O8 0.850873 0.226239 0.765453
O O9 0.626440 0.749228 0.290193
O O10 0.682195 0.747757 0.000000
O O11 0.930059 0.588256 0.500000
O O12 0.924295 0.500000 0.242505
O O13 0.000000 0.611516 0.239558
O O14 0.871451 0.146628 0.500000
O O15 0.937310 0.122670 0.230793
O O16 0.000000 0.912243 0.500000
O O17 0.000000 0.000000 0.242681
O O18 0.412680 0.128964 0.168518
O O19 0.500000 0.074737 0.000000
O O20 0.399203 0.000000 0.000000
O O21 0.574259 0.839479 0.500000
O O22 0.500000 0.784384 0.278225
#
# Coordination Sequence:
#
# PCOD9386265 Si02
#       8
#     8   8   8   8   8   4   4   8
#     4   9  17  30  45  60  82 114 154 200 251 304
#     4   9  17  29  46  68  96 126 162 205 249 305
#     4  11  21  33  48  67  95 127 167 212 257 309
#     4   8  14  25  45  76 109 136 164 205 257 308
#     4   8  14  22  34  55  81 109 143 189 243 292
#     4   9  14  18  28  50  78 104 136 187 247 295
#     4   9  18  32  48  70 100 132 170 215 264 320
#     4  10  20  35  54  73  97 130 167 212 266 320
#
# _framework density 18.295048999999999
#
# number of rings (size 3 to 8) (size 9 to 14) (size 15 to 20)
#    0.000    2.857    0.714    3.000    1.000    2.857 
#    0.000    1.429    0.000    0.857    0.000    1.000 
#    0.000    6.000    0.000    6.571    0.000    1.857 
#
# Total GULP energy -311838.462340 kJ/mol
# GULP energy per Si atom -5568.543970 kJ/mol
# Density = 1.825341 g / cm^3
# Si number density = 18.295049 Si / 1000 Ang^3
#
#
#
# Elastic Constant Matrix: (Units=GPa)
#
#
# Indices 1 2 3 4 5 6 
#
# 1 159.5347 44.5473 22.6307 0.0000 0.0000 0.0000
# 2 44.5473 55.5303 12.0618 0.0000 0.0000 0.0000
# 3 22.6307 12.0618 54.4886 0.0000 0.0000 0.0000
# 4 0.0000 0.0000 0.0000 -3.4504 0.0000 0.0000
# 5 0.0000 0.0000 0.0000 0.0000 100.2251 0.0000
# 6 0.0000 0.0000 0.0000 0.0000 0.0000 16.4623
#
#
#
# Elastic Compliance Matrix: (Units=1/GPa)
#
#
# Indices 1 2 3 4 5 6 
#
# 1 0.008294 -0.006204 -0.002072 0.000000 0.000000 0.000000
# 2 -0.006204 0.023558 -0.002638 0.000000 0.000000 0.000000
# 3 -0.002072 -0.002638 0.019797 0.000000 0.000000 0.000000
# 4 0.000000 0.000000 0.000000 -0.289819 0.000000 0.000000
# 5 0.000000 0.000000 0.000000 0.000000 0.009978 0.000000
# 6 0.000000 0.000000 0.000000 0.000000 0.000000 0.060745
#
#
# Mechanical properties :
#
#
# Convention : Reuss Voigt Hill
#
# Bulk Modulus (GPa) = 33.53244 47.55927 40.54586
# Shear Modulus (GPa) = -36.85169 35.33497 -0.75836
#
# Velocity S-wave (km/s) = -4.49296 4.39953 -0.64453
# Velocity P-wave (km/s) = 2.92355 7.20139 4.65365
#
# Compressibility (1/GPa) = 0.02982187
#
# Stress axis : x y z
#
# Youngs Moduli (GPa) = 120.56266 42.44810 50.51304
#
# Poissons Ratio (x) = 0.26335 0.10464
# Poissons Ratio (y) = 0.74797 0.13327
# Poissons Ratio (z) = 0.24976 0.11199
#
# Static dielectric constant tensor:
#      x y z
#    x 1.684620 0.000000 0.000000 
#    y 0.000000 1.602440 0.000000 
#    z 0.000000 0.000000 1.684860 
# 
# From -- ./inp_files/11757.got.cif
#   From: 2010.05.17/outbox.cif.g08.bks.cpg/sg47_6_cif.got.tgz:11757.got - 2010.06.03 20:15:42.
