data_PCOD9386236
_publ_section_title
;
Structure prediction by ZEFSAII (Michael W. Deem and Ramdas Pophale) SiO2 
 PCOD9386236
Probable space group: P M M M
;
_chemical_formula_sum "Si O2"
_cell_formula_units_Z 45
_cell_length_a 18.539409
_cell_length_b 8.119405
_cell_length_c 15.069487
_cell_angle_alpha 90.000000
_cell_angle_beta 90.000000
_cell_angle_gamma 90.000000
_cell_volume 2268.394359
_symmetry_space_group_name_H-M "P M M M"
_symmetry_group_IT_number 47
_symmetry_cell_setting 'orthorhombic'
loop_
_space_group_symop_operation_xyz
x,y,z
-x,-y,z
x,-y,-z
-x,y,-z
-x,-y,-z
x,y,-z
-x,y,z
x,-y,z
loop_
_atom_site_type_symbol
_atom_site_label
_atom_site_fract_x
_atom_site_fract_y
_atom_site_fract_z
Si Si1 0.114176 0.691176 0.400941
Si Si2 0.500000 0.695272 0.858510
Si Si3 0.726075 0.190714 0.597811
Si Si4 0.078426 0.805923 0.792064
Si Si5 0.218402 0.303040 0.899206
Si Si6 0.654873 0.694723 0.228860
Si Si7 0.500000 0.000000 0.000000
O O1 0.095095 0.754962 0.500000
O O2 0.092907 0.500000 0.397113
O O3 0.200951 0.704777 0.393164
O O4 0.084681 0.778512 0.313724
O O5 0.500000 0.500000 0.891944
O O6 0.426582 0.712691 0.802875
O O7 0.500000 0.849686 0.924945
O O8 0.694950 0.222459 0.500000
O O9 0.672606 0.224245 0.677585
O O10 0.749361 0.000000 0.601462
O O11 0.146303 0.730673 0.843159
O O12 0.000000 0.740081 0.821088
O O13 0.080458 0.000000 0.809344
O O14 0.226396 0.500000 0.905731
O O15 0.287986 0.240743 0.844594
O O16 0.214662 0.237352 0.000000
O O17 0.669216 0.500000 0.239219
#
# Coordination Sequence:
#
# PCOD9386236 Si02
#       7
#     8   4   8   8   8   8   1
#     4  10  20  35  57  86 117 153 199 246 298 362
#     4  10  25  45  66  97 138 172 208 270 324 370
#     4  10  20  34  58  91 126 162 202 250 301 359
#     4  11  24  40  57  82 117 156 196 245 305 364
#     4  10  22  40  63  89 114 151 201 249 300 360
#     4  10  21  40  65  92 126 164 205 252 307 368
#     4  12  26  44  68 102 130 176 224 256 320 394
#
# _framework density 19.837821000000002
#
# number of rings (size 3 to 8) (size 9 to 14) (size 15 to 20)
#    0.000    1.778    1.778    1.733    2.489    4.622 
#    0.000    4.000    0.000    2.667    0.000    0.000 
#    0.000    0.000    0.000    0.000    0.000    0.000 
#
# Total GULP energy -250872.852536 kJ/mol
# GULP energy per Si atom -5574.952279 kJ/mol
# Density = 1.979267 g / cm^3
# Si number density = 19.837821 Si / 1000 Ang^3
#
#
#
# Elastic Constant Matrix: (Units=GPa)
#
#
# Indices 1 2 3 4 5 6 
#
# 1 129.3594 15.0191 68.4426 0.0000 0.0000 0.0000
# 2 15.0191 48.3924 23.6738 0.0000 0.0000 0.0000
# 3 68.4426 23.6738 136.6189 0.0000 0.0000 0.0000
# 4 0.0000 0.0000 0.0000 26.0129 0.0000 0.0000
# 5 0.0000 0.0000 0.0000 0.0000 -0.4752 0.0000
# 6 0.0000 0.0000 0.0000 0.0000 0.0000 19.6085
#
#
#
# Elastic Compliance Matrix: (Units=1/GPa)
#
#
# Indices 1 2 3 4 5 6 
#
# 1 0.010543 -0.000752 -0.005152 0.000000 0.000000 0.000000
# 2 -0.000752 0.022632 -0.003545 0.000000 0.000000 0.000000
# 3 -0.005152 -0.003545 0.010515 0.000000 0.000000 0.000000
# 4 0.000000 0.000000 0.000000 0.038442 0.000000 0.000000
# 5 0.000000 0.000000 0.000000 0.000000 -2.104399 0.000000
# 6 0.000000 0.000000 0.000000 0.000000 0.000000 0.050998
#
#
# Mechanical properties :
#
#
# Convention : Reuss Voigt Hill
#
# Bulk Modulus (GPa) = 40.33429 58.73798 49.53614
# Shear Modulus (GPa) = -2.57188 22.84492 10.13652
#
# Velocity S-wave (km/s) = -1.13985 3.39718 2.26292
# Velocity P-wave (km/s) = 4.31785 6.71276 5.64380
#
# Compressibility (1/GPa) = 0.02479280
#
# Stress axis : x y z
#
# Youngs Moduli (GPa) = 94.84608 44.18512 95.10429
#
# Poissons Ratio (x) = 0.03323 0.48994
# Poissons Ratio (y) = 0.07133 0.33715
# Poissons Ratio (z) = 0.48861 0.15664
#
# Static dielectric constant tensor:
#      x y z
#    x 1.681140 0.000000 0.000000 
#    y 0.000000 1.703970 0.000000 
#    z 0.000000 0.000000 1.700250 
# 
# From -- ./inp_files/24353.got.cif
#   From: 2010.05.17/outbox.cif.g08.bks.cpg/sg47_13_cif.got.tgz:24353.got - 2010.06.03 20:15:42.
