data_PCOD9386756
_publ_section_title
;
Structure prediction by ZEFSAII (Michael W. Deem and Ramdas Pophale) SiO2 
 PCOD9386756
Probable space group: P M M M
;
_chemical_formula_sum "Si O2"
_cell_formula_units_Z 44
_cell_length_a 15.891881
_cell_length_b 15.029983
_cell_length_c 9.940293
_cell_angle_alpha 90.000000
_cell_angle_beta 90.000000
_cell_angle_gamma 90.000000
_cell_volume 2374.285715
_symmetry_space_group_name_H-M "P M M M"
_symmetry_group_IT_number 47
_symmetry_cell_setting 'orthorhombic'
loop_
_space_group_symop_operation_xyz
x,y,z
-x,-y,z
x,-y,-z
-x,y,-z
-x,-y,-z
x,y,-z
-x,y,z
x,-y,z
loop_
_atom_site_type_symbol
_atom_site_label
_atom_site_fract_x
_atom_site_fract_y
_atom_site_fract_z
Si Si1 0.599230 0.599342 0.500000
Si Si2 0.601692 0.606615 0.000000
Si Si3 0.132072 0.708997 0.335240
Si Si4 0.328725 0.291061 0.256190
Si Si5 0.872459 0.905547 0.657474
Si Si6 0.000000 0.393722 0.158282
Si Si7 0.331575 0.901225 0.658012
O O1 0.637157 0.500000 0.500000
O O2 0.500000 0.590516 0.500000
O O3 0.626288 0.655772 0.373552
O O4 0.644064 0.656374 0.875108
O O5 0.617611 0.500000 0.000000
O O6 0.500000 0.617898 0.000000
O O7 0.125189 0.698662 0.500000
O O8 0.229629 0.704618 0.292162
O O9 0.100449 0.808513 0.295986
O O10 0.078950 0.641146 0.245995
O O11 0.355710 0.186985 0.260550
O O12 0.895130 0.908123 0.500000
O O13 0.770482 0.904426 0.662987
O O14 0.900178 0.000000 0.719056
O O15 0.000000 0.500000 0.156482
O O16 0.000000 0.364109 0.000000
O O17 0.353802 0.888668 0.500000
O O18 0.361804 0.000000 0.700021
#
# Coordination Sequence:
#
# PCOD9386756 Si02
#       7
#     4   4   8   8   8   4   8
#     4  11  22  36  57  86 118 148 188 250 309 349
#     4  11  26  44  59  80 116 162 204 246 303 363
#     4  10  20  38  63  92 117 146 194 245 288 339
#     4  11  20  38  62  90 117 154 200 243 292 355
#     4   7  11  23  49  84 117 144 175 220 277 336
#     4  11  27  45  58  77 114 162 199 237 292 347
#     4   8  13  26  53  88 120 148 184 233 289 349
#
# _framework density 18.531887999999999
#
# number of rings (size 3 to 8) (size 9 to 14) (size 15 to 20)
#    0.000    2.455    1.818    3.545    1.273    3.636 
#    0.000    0.909    0.000    6.545    0.000    0.000 
#    0.000    0.000    0.000    0.000    0.000    0.000 
#
# Total GULP energy -244985.614515 kJ/mol
# GULP energy per Si atom -5567.854875 kJ/mol
# Density = 1.848971 g / cm^3
# Si number density = 18.531888 Si / 1000 Ang^3
#
#
#
# Elastic Constant Matrix: (Units=GPa)
#
#
# Indices 1 2 3 4 5 6 
#
# 1 59.8839 47.2629 35.4148 0.0000 0.0000 0.0000
# 2 47.2629 182.9273 75.5010 0.0000 0.0000 0.0000
# 3 35.4148 75.5010 126.5469 0.0000 0.0000 0.0000
# 4 0.0000 0.0000 0.0000 28.2949 0.0000 0.0000
# 5 0.0000 0.0000 0.0000 0.0000 16.4820 0.0000
# 6 0.0000 0.0000 0.0000 0.0000 0.0000 30.3725
#
#
#
# Elastic Compliance Matrix: (Units=1/GPa)
#
#
# Indices 1 2 3 4 5 6 
#
# 1 0.022213 -0.004210 -0.003704 0.000000 0.000000 0.000000
# 2 -0.004210 0.008051 -0.003625 0.000000 0.000000 0.000000
# 3 -0.003704 -0.003625 0.011102 0.000000 0.000000 0.000000
# 4 0.000000 0.000000 0.000000 0.035342 0.000000 0.000000
# 5 0.000000 0.000000 0.000000 0.000000 0.060672 0.000000
# 6 0.000000 0.000000 0.000000 0.000000 0.000000 0.032924
#
#
# Mechanical properties :
#
#
# Convention : Reuss Voigt Hill
#
# Bulk Modulus (GPa) = 54.68728 76.19062 65.43895
# Shear Modulus (GPa) = 25.06547 29.10853 27.08700
#
# Velocity S-wave (km/s) = 3.68170 3.96754 3.82729
# Velocity P-wave (km/s) = 6.90269 7.88613 7.41074
#
# Compressibility (1/GPa) = 0.01828579
#
# Stress axis : x y z
#
# Youngs Moduli (GPa) = 45.01961 124.21485 90.07668
#
# Poissons Ratio (x) = 0.52296 0.33368
# Poissons Ratio (y) = 0.18954 0.32652
# Poissons Ratio (z) = 0.16677 0.45027
#
# Static dielectric constant tensor:
#      x y z
#    x 1.687390 0.000000 0.000000 
#    y 0.000000 1.692270 0.000000 
#    z 0.000000 0.000000 1.570490 
# 
# From -- ./inp_files/9064.got.cif
#   From: 2010.05.17/outbox.cif.g08.bks.cpg/sg47_5_cif.got.tgz:9064.got - 2010.06.03 20:15:42.
