data_PCOD9386718
_publ_section_title
;
Structure prediction by ZEFSAII (Michael W. Deem and Ramdas Pophale) SiO2 
 PCOD9386718
Probable space group: P M M M
;
_chemical_formula_sum "Si O2"
_cell_formula_units_Z 48
_cell_length_a 7.817588
_cell_length_b 16.030322
_cell_length_c 19.302257
_cell_angle_alpha 90.000000
_cell_angle_beta 90.000000
_cell_angle_gamma 90.000000
_cell_volume 2418.928985
_symmetry_space_group_name_H-M "P M M M"
_symmetry_group_IT_number 47
_symmetry_cell_setting 'orthorhombic'
loop_
_space_group_symop_operation_xyz
x,y,z
-x,-y,z
x,-y,-z
-x,y,-z
-x,-y,-z
x,y,-z
-x,y,z
x,-y,z
loop_
_atom_site_type_symbol
_atom_site_label
_atom_site_fract_x
_atom_site_fract_y
_atom_site_fract_z
Si Si1 0.197633 0.829222 0.670015
Si Si2 0.297173 0.500000 0.421794
Si Si3 0.792870 0.240489 0.079228
Si Si4 0.500000 0.099567 0.578617
Si Si5 0.795311 0.362283 0.689042
Si Si6 0.703050 0.904961 0.185253
Si Si7 0.790590 0.408018 0.842585
O O1 0.330643 0.871145 0.618401
O O2 0.255596 0.733432 0.679826
O O3 0.208367 0.873975 0.744468
O O4 0.000000 0.830818 0.646187
O O5 0.500000 0.500000 0.427758
O O6 0.224274 0.500000 0.500000
O O7 0.249312 0.420003 0.375678
O O8 0.739104 0.161694 0.125241
O O9 0.734576 0.327673 0.113736
O O10 0.000000 0.242124 0.079429
O O11 0.734453 0.233735 0.000000
O O12 0.500000 0.131495 0.500000
O O13 0.500000 0.000000 0.577826
O O14 0.732349 0.396747 0.762897
O O15 0.000000 0.362554 0.694532
O O16 0.500000 0.905063 0.198920
O O17 0.754626 0.000000 0.167884
O O18 0.738210 0.500000 0.867842
O O19 0.000000 0.406997 0.843056
#
# Coordination Sequence:
#
# PCOD9386718 Si02
#       7
#     8   4   8   4   8   8   8
#     4  11  23  41  68  97 127 166 215 264 316 381
#     4  11  25  39  55  87 128 165 202 252 314 376
#     4  10  21  37  58  88 124 161 206 259 314 376
#     4  11  26  46  66  93 130 166 207 265 324 380
#     4  10  20  37  62  88 117 159 207 257 308 368
#     4  11  23  39  62  91 123 162 210 265 322 381
#     4   9  16  31  57  85 114 150 197 250 304 363
#
# _framework density 19.843492999999999
#
# number of rings (size 3 to 8) (size 9 to 14) (size 15 to 20)
#    0.000    1.667    3.333    1.250    1.167    5.000 
#    0.000    5.833    0.000    0.000    0.000    1.167 
#    0.000    0.000    0.000    0.000    0.000    0.000 
#
# Total GULP energy -268140.346561 kJ/mol
# GULP energy per Si atom -5586.257220 kJ/mol
# Density = 1.979833 g / cm^3
# Si number density = 19.843493 Si / 1000 Ang^3
#
#
#
# Elastic Constant Matrix: (Units=GPa)
#
#
# Indices 1 2 3 4 5 6 
#
# 1 42.8101 25.3285 21.8274 0.0000 0.0000 0.0000
# 2 25.3285 183.3088 80.6842 0.0000 0.0000 0.0000
# 3 21.8274 80.6842 143.6621 0.0000 0.0000 0.0000
# 4 0.0000 0.0000 0.0000 42.4933 0.0000 0.0000
# 5 0.0000 0.0000 0.0000 0.0000 34.8304 0.0000
# 6 0.0000 0.0000 0.0000 0.0000 0.0000 31.8544
#
#
#
# Elastic Compliance Matrix: (Units=1/GPa)
#
#
# Indices 1 2 3 4 5 6 
#
# 1 0.026140 -0.002476 -0.002581 0.000000 0.000000 0.000000
# 2 -0.002476 0.007481 -0.003825 0.000000 0.000000 0.000000
# 3 -0.002581 -0.003825 0.009501 0.000000 0.000000 0.000000
# 4 0.000000 0.000000 0.000000 0.023533 0.000000 0.000000
# 5 0.000000 0.000000 0.000000 0.000000 0.028711 0.000000
# 6 0.000000 0.000000 0.000000 0.000000 0.000000 0.031393
#
#
# Mechanical properties :
#
#
# Convention : Reuss Voigt Hill
#
# Bulk Modulus (GPa) = 39.43578 69.49569 54.46574
# Shear Modulus (GPa) = 32.68487 37.96502 35.32495
#
# Velocity S-wave (km/s) = 4.06289 4.37879 4.22379
# Velocity P-wave (km/s) = 6.47503 7.78864 7.16202
#
# Compressibility (1/GPa) = 0.02535768
#
# Stress axis : x y z
#
# Youngs Moduli (GPa) = 38.25592 133.66939 105.24755
#
# Poissons Ratio (x) = 0.33093 0.27166
# Poissons Ratio (y) = 0.09471 0.40262
# Poissons Ratio (z) = 0.09874 0.51134
#
# Static dielectric constant tensor:
#      x y z
#    x 1.714640 0.000000 0.000000 
#    y 0.000000 1.660310 0.000000 
#    z 0.000000 0.000000 1.680280 
# 
# From -- ./inp_files/26565.got.cif
#   From: 2010.05.17/outbox.cif.g08.bks.cpg/sg47_14_cif.got.tgz:26565.got - 2010.06.03 20:15:42.
