data_PCOD9386074
_publ_section_title
;
Structure prediction by ZEFSAII (Michael W. Deem and Ramdas Pophale) SiO2 
 PCOD9386074
Probable space group: P M M M
;
_chemical_formula_sum "Si O2"
_cell_formula_units_Z 56
_cell_length_a 23.406512
_cell_length_b 14.550901
_cell_length_c 8.768455
_cell_angle_alpha 90.000000
_cell_angle_beta 90.000000
_cell_angle_gamma 90.000000
_cell_volume 2986.411602
_symmetry_space_group_name_H-M "P M M M"
_symmetry_group_IT_number 47
_symmetry_cell_setting 'orthorhombic'
loop_
_space_group_symop_operation_xyz
x,y,z
-x,-y,z
x,-y,-z
-x,y,-z
-x,-y,-z
x,y,-z
-x,y,z
x,-y,z
loop_
_atom_site_type_symbol
_atom_site_label
_atom_site_fract_x
_atom_site_fract_y
_atom_site_fract_z
Si Si1 0.344786 0.893357 0.182447
Si Si2 0.000000 0.893221 0.682821
Si Si3 0.843479 0.603531 0.816517
Si Si4 0.279992 0.392738 0.681639
Si Si5 0.219875 0.890083 0.322202
Si Si6 0.392922 0.717592 0.683235
Si Si7 0.500000 0.607732 0.183235
Si Si8 0.890121 0.792297 0.182944
O O1 0.281486 0.872444 0.247547
O O2 0.388369 0.821062 0.254932
O O3 0.357321 0.000000 0.220537
O O4 0.344203 0.884220 0.000000
O O5 0.056201 0.843206 0.744782
O O6 0.000000 0.890496 0.500000
O O7 0.000000 0.000000 0.730922
O O8 0.856311 0.500000 0.760552
O O9 0.779632 0.628451 0.762497
O O10 0.885441 0.685256 0.769361
O O11 0.843526 0.601157 0.000000
O O12 0.271996 0.381766 0.500000
O O13 0.293176 0.500000 0.711439
O O14 0.333445 0.331598 0.729101
O O15 0.221391 0.862477 0.500000
O O16 0.168285 0.840231 0.237614
O O17 0.210246 0.000000 0.315119
O O18 0.396658 0.717188 0.500000
O O19 0.444746 0.659844 0.752003
O O20 0.500000 0.500000 0.228236
O O21 0.500000 0.612229 0.000000
O O22 0.893946 0.797094 0.000000
#
# Coordination Sequence:
#
# PCOD9386074 Si02
#       8
#     8   4   8   8   8   8   4   8
#     4  10  21  37  57  83 116 151 188 233 282 334
#     4  11  25  43  60  79 106 140 177 221 274 331
#     4   9  19  35  54  79 111 144 178 218 266 320
#     4   9  18  32  52  81 114 146 180 220 270 325
#     4  10  20  34  54  82 116 151 185 225 277 334
#     4  11  22  37  59  84 113 150 190 235 285 336
#     4  11  25  43  62  85 114 149 189 232 278 333
#     4  11  22  36  57  82 108 143 185 228 274 324
#
# _framework density 18.751601999999998
#
# number of rings (size 3 to 8) (size 9 to 14) (size 15 to 20)
#    0.000    1.857    0.000    3.857    0.000    9.714 
#    0.000    2.143    0.000    4.286    0.000    0.000 
#    0.000    0.000    0.000    0.000    0.000    0.000 
#
# Total GULP energy -312884.640290 kJ/mol
# GULP energy per Si atom -5587.225719 kJ/mol
# Density = 1.870892 g / cm^3
# Si number density = 18.751602 Si / 1000 Ang^3
#
#
#
# Elastic Constant Matrix: (Units=GPa)
#
#
# Indices 1 2 3 4 5 6 
#
# 1 88.9648 103.4119 37.5263 0.0000 0.0000 0.0000
# 2 103.4119 152.5360 54.6944 0.0000 0.0000 0.0000
# 3 37.5263 54.6944 52.8096 0.0000 0.0000 0.0000
# 4 0.0000 0.0000 0.0000 24.6003 0.0000 0.0000
# 5 0.0000 0.0000 0.0000 0.0000 34.2715 0.0000
# 6 0.0000 0.0000 0.0000 0.0000 0.0000 34.2129
#
#
#
# Elastic Compliance Matrix: (Units=1/GPa)
#
#
# Indices 1 2 3 4 5 6 
#
# 1 0.053049 -0.035709 -0.000713 0.000000 0.000000 0.000000
# 2 -0.035709 0.034465 -0.010321 0.000000 0.000000 0.000000
# 3 -0.000713 -0.010321 0.030132 0.000000 0.000000 0.000000
# 4 0.000000 0.000000 0.000000 0.040650 0.000000 0.000000
# 5 0.000000 0.000000 0.000000 0.000000 0.029179 0.000000
# 6 0.000000 0.000000 0.000000 0.000000 0.000000 0.029229
#
#
# Mechanical properties :
#
#
# Convention : Reuss Voigt Hill
#
# Bulk Modulus (GPa) = 41.38979 76.17508 58.78244
# Shear Modulus (GPa) = 15.71132 25.19546 20.45339
#
# Velocity S-wave (km/s) = 2.89773 3.66955 3.30624
# Velocity P-wave (km/s) = 5.77203 7.65934 6.78166
#
# Compressibility (1/GPa) = 0.02416055
#
# Stress axis : x y z
#
# Youngs Moduli (GPa) = 18.85063 29.01471 33.18747
#
# Poissons Ratio (x) = 1.03608 0.02366
# Poissons Ratio (y) = 0.67313 0.34252
# Poissons Ratio (z) = 0.01344 0.29946
#
# Static dielectric constant tensor:
#      x y z
#    x 1.602790 0.000000 0.000000 
#    y 0.000000 1.682590 0.000000 
#    z 0.000000 0.000000 1.626950 
# 
# From -- ./inp_files/11343.got.cif
#   From: 2010.05.17/outbox.cif.g08.bks.cpg/sg47_6_cif.got.tgz:11343.got - 2010.06.03 20:15:42.
